data_PCOD8190081
_publ_section_title
;
Structure prediction by ZEFSAII (Michael W. Deem and Ramdas Pophale) SiO2 
 PCOD8190081
Probable space group: I M M 2
;
_chemical_formula_sum "Si O2"
_cell_formula_units_Z 64
_cell_length_a 8.672146
_cell_length_b 30.803427
_cell_length_c 11.982175
_cell_angle_alpha 90.000000
_cell_angle_beta 90.000000
_cell_angle_gamma 90.000000
_cell_volume 3200.820170
_symmetry_space_group_name_H-M "I M M 2"
_symmetry_group_IT_number 44
_symmetry_cell_setting 'orthorhombic'
loop_
_space_group_symop_operation_xyz
x,y,z
-x,-y,z
-x,y,z
x,-y,z
1/2+x,1/2+y,1/2+z
1/2-x,1/2-y,1/2+z
1/2-x,1/2+y,1/2+z
1/2+x,1/2-y,1/2+z
loop_
_atom_site_type_symbol
_atom_site_label
_atom_site_fract_x
_atom_site_fract_y
_atom_site_fract_z
Si Si1 0.176056 0.451653 0.025340
Si Si2 0.682320 0.799258 0.987213
Si Si3 0.679992 0.571119 0.248441
Si Si4 0.182456 0.624787 0.642724
Si Si5 0.182677 0.796602 0.542780
Si Si6 0.320193 0.375831 0.886310
Si Si7 0.318646 0.836259 0.752950
Si Si8 0.822147 0.548926 0.481958
O O1 0.190971 0.500000 0.973463
O O2 0.229766 0.455001 0.153370
O O3 0.000000 0.435319 0.020223
O O4 0.280313 0.418602 0.956155
O O5 0.500000 0.800059 0.991316
O O6 0.740818 0.750253 0.001411
O O7 0.740149 0.815764 0.867989
O O8 0.747331 0.831648 0.082815
O O9 0.500000 0.563631 0.230792
O O10 0.719641 0.621189 0.231816
O O11 0.726777 0.553798 0.369086
O O12 0.237312 0.622852 0.768479
O O13 0.241347 0.582383 0.574807
O O14 0.000000 0.624906 0.643099
O O15 0.231990 0.832728 0.452455
O O16 0.277990 0.802990 0.655574
O O17 0.000000 0.798195 0.565896
O O18 0.500000 0.374963 0.863601
O O19 0.500000 0.847089 0.755205
O O20 0.802241 0.500000 0.528409
O O21 0.000000 0.559429 0.454013
#
# Coordination Sequence:
#
# PCOD8190081 Si02
#       8
#     8   8   8   8   8   8   8   8
#     4  11  24  42  65  90 117 155 203 248 292 355
#     4   9  20  39  62  87 120 159 201 250 297 350
#     4  12  23  37  60  92 128 159 191 245 306 360
#     4  10  21  40  62  85 118 162 208 250 295 350
#     4  10  22  40  60  88 124 159 196 247 306 355
#     4  11  24  40  60  88 125 160 195 247 305 358
#     4  11  21  38  65  91 119 160 204 246 293 353
#     4  10  21  39  63  89 118 156 204 252 297 354
#
# _framework density 19.994876999999999
#
# number of rings (size 3 to 8) (size 9 to 14) (size 15 to 20)
#    0.000    1.500    2.500    2.625    1.750    4.250 
#    0.000    2.500    0.000    0.000    0.000    0.000 
#    0.000    0.000    0.000    0.000    0.000    0.000 
#
# Total GULP energy -396883.547736 kJ/mol
# GULP energy per Si atom -12402.610867 kJ/mol
# Density = 1.994937 g / cm^3
# Si number density = 19.994877 Si / 1000 Ang^3
#
#
#
# Elastic Constant Matrix: (Units=GPa)
#
#
# Indices 1 2 3 4 5 6 
#
# 1 21.2781 18.6463 4.8467 0.0041 0.0002 0.0000
# 2 18.6463 136.5756 48.0904 -0.0078 0.0003 0.0000
# 3 4.8467 48.0904 124.7270 0.0040 0.0001 0.0002
# 4 0.0041 -0.0078 0.0040 -154.8351 0.0011 0.0004
# 5 0.0002 0.0003 0.0001 0.0011 28.2628 0.0000
# 6 0.0000 0.0000 0.0002 0.0004 0.0000 23.8099
#
#
#
# Elastic Compliance Matrix: (Units=1/GPa)
#
#
# Indices 1 2 3 4 5 6 
#
# 1 0.053462 -0.007599 0.000853 0.000002 0.000000 0.000000
# 2 -0.007599 0.009552 -0.003388 -0.000001 0.000000 0.000000
# 3 0.000853 -0.003388 0.009291 0.000000 0.000000 0.000000
# 4 0.000002 -0.000001 0.000000 -0.006458 0.000000 0.000000
# 5 0.000000 0.000000 0.000000 0.000000 0.035382 0.000000
# 6 0.000000 0.000000 0.000000 0.000000 0.000000 0.041999
#
#
# Mechanical properties :
#
#
# Convention : Reuss Voigt Hill
#
# Bulk Modulus (GPa) = 19.21750 47.30526 33.26138
# Shear Modulus (GPa) = 27.64848 -6.48598 10.58125
#
# Velocity S-wave (km/s) = 3.72261 -1.80302 2.30293
# Velocity P-wave (km/s) = 5.30181 4.40177 4.87261
#
# Compressibility (1/GPa) = 0.05203592
#
# Stress axis : x y z
#
# Youngs Moduli (GPa) = 18.70494 104.68651 107.63587
#
# Poissons Ratio (x) = 0.79553 -0.09176
# Poissons Ratio (y) = 0.14214 0.36464
# Poissons Ratio (z) = -0.01595 0.35465
#
# Static dielectric constant tensor:
#      x y z
#    x 3.421220 0.000000 0.000000 
#    y 0.000000 3.998540 -0.000010 
#    z 0.000000 -0.000010 3.695960 
# 
# 
# High freq. dielectric constant tensor:
#      x y z
#    x 1.764390 0.000000 0.000000 
#    y 0.000000 1.796500 0.000000 
#    z 0.000000 0.000000 1.783250 
# 
# From -- ./inp_files/11427.got.cif
#   From: 2010.03.12/outbox.cif.g09.slc.cpg/sg44_6_cif.got.tgz:11427.got - 2010.04.14 02:36:11.
