data_PCOD8190856
_publ_section_title
;
Structure prediction by ZEFSAII (Michael W. Deem and Ramdas Pophale) SiO2 
 PCOD8190856
Probable space group: I B A 2
;
_chemical_formula_sum "Si O2"
_cell_formula_units_Z 36
_cell_length_a 11.757509
_cell_length_b 4.868878
_cell_length_c 26.069920
_cell_angle_alpha 90.000000
_cell_angle_beta 90.000000
_cell_angle_gamma 90.000000
_cell_volume 1492.395431
_symmetry_space_group_name_H-M "I B A 2"
_symmetry_group_IT_number 45
_symmetry_cell_setting 'orthorhombic'
loop_
_space_group_symop_operation_xyz
x,y,z
-x,-y,z
-x,y,1/2+z
x,-y,1/2+z
1/2+x,1/2+y,1/2+z
1/2-x,1/2-y,1/2+z
1/2-x,1/2+y,z
1/2+x,1/2-y,z
loop_
_atom_site_type_symbol
_atom_site_label
_atom_site_fract_x
_atom_site_fract_y
_atom_site_fract_z
Si Si1 0.500000 0.500000 0.908130
Si Si2 0.500000 0.500000 0.078910
Si Si3 0.671715 0.805986 0.340224
Si Si4 0.822003 0.740535 0.724283
Si Si5 0.827780 0.912952 0.492684
Si Si6 0.000000 0.500000 0.646560
O O1 0.438555 0.732656 0.873851
O O2 0.407981 0.348500 0.944132
O O3 0.398397 0.373635 0.044879
O O4 0.550427 0.246861 0.112025
O O5 0.779729 0.607909 0.352001
O O6 0.628745 0.797052 0.281445
O O7 0.706902 0.561319 0.717273
O O8 0.907611 0.646812 0.681290
O O9 0.717178 0.723529 0.490420
#
# Coordination Sequence:
#
# PCOD8190856 Si02
#       6
#     4   4   8   8   8   4
#     4  11  24  41  70  98 128 173 220 265 320 386
#     4  11  26  41  66  98 126 169 220 269 332 386
#     4  10  23  41  62  93 130 169 210 257 315 377
#     4  10  23  41  62  92 130 168 210 260 315 375
#     4  11  25  45  66  95 132 168 214 273 330 390
#     4  12  24  42  68  98 126 170 224 268 320 386
#
# _framework density 24.122291000000001
#
# number of rings (size 3 to 8) (size 9 to 14) (size 15 to 20)
#    0.000    1.333    0.000    4.000    0.000   16.889 
#    0.000    0.000    0.000    0.000    0.000    0.000 
#    0.000    0.000    0.000    0.000    0.000    0.000 
#
# Total GULP energy -223265.571148 kJ/mol
# GULP energy per Si atom -12403.642842 kJ/mol
# Density = 2.406739 g / cm^3
# Si number density = 24.122291 Si / 1000 Ang^3
#
#
#
# Elastic Constant Matrix: (Units=GPa)
#
#
# Indices 1 2 3 4 5 6 
#
# 1 90.9740 11.8935 62.2687 0.0000 0.0000 0.0000
# 2 11.8935 92.0425 38.8048 0.0000 0.0000 0.0000
# 3 62.2687 38.8048 158.5340 0.0000 0.0000 0.0000
# 4 0.0000 0.0000 0.0000 33.7318 0.0000 0.0000
# 5 0.0000 0.0000 0.0000 0.0000 31.9956 0.0000
# 6 0.0000 0.0000 0.0000 0.0000 0.0000 31.8628
#
#
#
# Elastic Compliance Matrix: (Units=1/GPa)
#
#
# Indices 1 2 3 4 5 6 
#
# 1 0.015065 0.000611 -0.006067 0.000000 0.000000 0.000000
# 2 0.000611 0.012140 -0.003211 0.000000 0.000000 0.000000
# 3 -0.006067 -0.003211 0.009477 0.000000 0.000000 0.000000
# 4 0.000000 0.000000 0.000000 0.029646 0.000000 0.000000
# 5 0.000000 0.000000 0.000000 0.000000 0.031254 0.000000
# 6 0.000000 0.000000 0.000000 0.000000 0.000000 0.031385
#
#
# Mechanical properties :
#
#
# Convention : Reuss Voigt Hill
#
# Bulk Modulus (GPa) = 51.68795 63.05383 57.37089
# Shear Modulus (GPa) = 32.73356 34.75694 33.74525
#
# Velocity S-wave (km/s) = 3.68772 3.79999 3.74428
# Velocity P-wave (km/s) = 6.29336 6.74160 6.52133
#
# Compressibility (1/GPa) = 0.01934687
#
# Stress axis : x y z
#
# Youngs Moduli (GPa) = 66.38032 82.37564 105.52172
#
# Poissons Ratio (x) = -0.05034 0.64016
# Poissons Ratio (y) = -0.04056 0.33888
# Poissons Ratio (z) = 0.40271 0.26454
#
# Static dielectric constant tensor:
#      x y z
#    x 3.901930 0.000000 0.000000 
#    y 0.000000 4.358500 0.000000 
#    z 0.000000 0.000000 4.604380 
# 
# 
# High freq. dielectric constant tensor:
#      x y z
#    x 1.942070 0.000000 0.000000 
#    y 0.000000 1.964630 0.000000 
#    z 0.000000 0.000000 1.976530 
# 
# From -- ./inp_files/9395.got.cif
#   From: 2010.03.12/outbox.cif.g09.slc.cpg/sg45_5_cif.got.tgz:9395.got - 2010.04.14 02:50:11.
