data_PCOD8190253
_publ_section_title
;
Structure prediction by ZEFSAII (Michael W. Deem and Ramdas Pophale) SiO2 
 PCOD8190253
Probable space group: I M M 2
;
_chemical_formula_sum "Si O2"
_cell_formula_units_Z 48
_cell_length_a 13.739042
_cell_length_b 9.127292
_cell_length_c 23.424727
_cell_angle_alpha 90.000000
_cell_angle_beta 90.000000
_cell_angle_gamma 90.000000
_cell_volume 2937.466578
_symmetry_space_group_name_H-M "I M M 2"
_symmetry_group_IT_number 44
_symmetry_cell_setting 'orthorhombic'
loop_
_space_group_symop_operation_xyz
x,y,z
-x,-y,z
-x,y,z
x,-y,z
1/2+x,1/2+y,1/2+z
1/2-x,1/2-y,1/2+z
1/2-x,1/2+y,1/2+z
1/2+x,1/2-y,1/2+z
loop_
_atom_site_type_symbol
_atom_site_label
_atom_site_fract_x
_atom_site_fract_y
_atom_site_fract_z
Si Si1 0.613177 0.830790 0.448370
Si Si2 0.891647 0.328186 0.818412
Si Si3 0.785189 0.826240 0.048079
Si Si4 0.609941 0.168719 0.647896
Si Si5 0.611350 0.671462 0.103075
Si Si6 0.709239 0.668003 0.219887
O O1 0.500000 0.800599 0.461267
O O2 0.638124 0.790792 0.383090
O O3 0.679981 0.726074 0.486235
O O4 0.637782 0.000000 0.461350
O O5 0.891842 0.500000 0.808951
O O6 0.813351 0.259873 0.775976
O O7 0.000000 0.266005 0.805643
O O8 0.861937 0.769312 0.094688
O O9 0.677657 0.762646 0.059538
O O10 0.780989 0.000000 0.050050
O O11 0.500000 0.203383 0.666843
O O12 0.679386 0.200973 0.701792
O O13 0.622675 0.000000 0.628295
O O14 0.500000 0.713803 0.091374
O O15 0.631425 0.500000 0.093157
O O16 0.638355 0.713883 0.167984
O O17 0.693424 0.500000 0.235948
#
# Coordination Sequence:
#
# PCOD8190253 Si02
#       6
#     8   8   8   8   8   8
#     4   9  18  33  50  66  89 124 161 192 226 276
#     4   9  18  31  47  68  93 122 154 187 227 274
#     4  11  21  30  45  72 100 121 148 192 240 278
#     4   9  18  33  50  66  90 127 163 190 223 274
#     4   9  18  33  51  69  92 126 162 188 218 271
#     4   9  17  29  47  71  94 117 150 190 230 271
#
# _framework density 16.340610999999999
#
# number of rings (size 3 to 8) (size 9 to 14) (size 15 to 20)
#    0.000    2.667    0.000    4.500    0.000    7.333 
#    0.000    1.667    0.000    1.000    0.000    4.667 
#    0.000    0.000    0.000    0.000    0.000    0.000 
#
# Total GULP energy -297602.321097 kJ/mol
# GULP energy per Si atom -12400.096712 kJ/mol
# Density = 1.630342 g / cm^3
# Si number density = 16.340611 Si / 1000 Ang^3
#
#
#
# Elastic Constant Matrix: (Units=GPa)
#
#
# Indices 1 2 3 4 5 6 
#
# 1 128.2980 54.6858 65.8563 0.0000 0.0000 0.0000
# 2 54.6858 79.7056 58.0277 0.0000 0.0000 0.0000
# 3 65.8563 58.0277 108.2314 0.0000 0.0000 0.0000
# 4 0.0000 0.0000 0.0000 30.4240 0.0000 0.0000
# 5 0.0000 0.0000 0.0000 0.0000 24.0239 0.0000
# 6 0.0000 0.0000 0.0000 0.0000 0.0000 20.0963
#
#
#
# Elastic Compliance Matrix: (Units=1/GPa)
#
#
# Indices 1 2 3 4 5 6 
#
# 1 0.012422 -0.004954 -0.004903 0.000000 0.000000 0.000000
# 2 -0.004954 0.022554 -0.009078 0.000000 0.000000 0.000000
# 3 -0.004903 -0.009078 0.017090 0.000000 0.000000 0.000000
# 4 0.000000 0.000000 0.000000 0.032869 0.000000 0.000000
# 5 0.000000 0.000000 0.000000 0.000000 0.041625 0.000000
# 6 0.000000 0.000000 0.000000 0.000000 0.000000 0.049760
#
#
# Mechanical properties :
#
#
# Convention : Reuss Voigt Hill
#
# Bulk Modulus (GPa) = 70.43648 74.81941 72.62795
# Shear Modulus (GPa) = 22.83920 24.08652 23.46286
#
# Velocity S-wave (km/s) = 3.74263 3.84347 3.79339
# Velocity P-wave (km/s) = 7.86608 8.09834 7.98305
#
# Compressibility (1/GPa) = 0.01419719
#
# Stress axis : x y z
#
# Youngs Moduli (GPa) = 80.49918 44.33849 58.51401
#
# Poissons Ratio (x) = 0.21963 0.28689
# Poissons Ratio (y) = 0.39876 0.53119
# Poissons Ratio (z) = 0.39469 0.40250
#
# Static dielectric constant tensor:
#      x y z
#    x 3.164240 0.000000 0.000000 
#    y 0.000000 2.956520 0.000000 
#    z 0.000000 0.000000 2.952930 
# 
# 
# High freq. dielectric constant tensor:
#      x y z
#    x 1.623810 0.000000 0.000000 
#    y 0.000000 1.622650 0.000000 
#    z 0.000000 0.000000 1.616050 
# 
# From -- ./inp_files/22900.got.cif
#   From: 2010.03.12/outbox.cif.g09.slc.cpg/sg44_12_cif.got.tgz:22900.got - 2010.04.14 02:36:11.
