data_PCOD8190664
_publ_section_title
;
Structure prediction by ZEFSAII (Michael W. Deem and Ramdas Pophale) SiO2 
 PCOD8190664
Probable space group: I B A 2
;
_chemical_formula_sum "Si O2"
_cell_formula_units_Z 64
_cell_length_a 18.052523
_cell_length_b 15.627873
_cell_length_c 10.866986
_cell_angle_alpha 90.000000
_cell_angle_beta 90.000000
_cell_angle_gamma 90.000000
_cell_volume 3065.821657
_symmetry_space_group_name_H-M "I B A 2"
_symmetry_group_IT_number 45
_symmetry_cell_setting 'orthorhombic'
loop_
_space_group_symop_operation_xyz
x,y,z
-x,-y,z
-x,y,1/2+z
x,-y,1/2+z
1/2+x,1/2+y,1/2+z
1/2-x,1/2-y,1/2+z
1/2-x,1/2+y,z
1/2+x,1/2-y,z
loop_
_atom_site_type_symbol
_atom_site_label
_atom_site_fract_x
_atom_site_fract_y
_atom_site_fract_z
Si Si1 0.637750 0.243297 0.852560
Si Si2 0.705331 0.954367 0.984028
Si Si3 0.148595 0.131351 0.269043
Si Si4 0.375059 0.503037 0.972371
Si Si5 0.112903 0.153410 0.624098
Si Si6 0.698134 0.237590 0.441707
Si Si7 0.049108 0.836462 0.535556
Si Si8 0.314728 0.928196 0.754038
O O1 0.622979 0.326382 0.767293
O O2 0.715481 0.249219 0.920231
O O3 0.631494 0.154321 0.775923
O O4 0.576140 0.253102 0.959672
O O5 0.675658 0.859823 0.958357
O O6 0.794000 0.954576 0.973406
O O7 0.672716 0.014124 0.875608
O O8 0.672415 0.977080 0.121946
O O9 0.112070 0.063410 0.361859
O O10 0.149983 0.225277 0.329674
O O11 0.100099 0.141447 0.150527
O O12 0.231514 0.104345 0.237137
O O13 0.379500 0.448384 0.100469
O O14 0.439642 0.574498 0.959661
O O15 0.179423 0.206049 0.561197
O O16 0.033735 0.184849 0.573812
#
# Coordination Sequence:
#
# PCOD8190664 Si02
#       8
#     8   8   8   8   8   8   8   8
#     4  11  24  41  66  90 129 177 216 269 327 391
#     4  11  20  38  65  96 126 164 218 283 323 385
#     4   9  21  38  61  90 131 167 218 262 316 392
#     4  10  22  39  58  92 135 176 207 257 323 391
#     4  11  26  41  61  96 135 168 215 265 322 404
#     4  10  21  41  64  88 125 167 216 271 321 378
#     4  12  24  40  64  94 133 180 214 259 329 400
#     4  10  21  38  63  98 126 158 227 273 331 380
#
# _framework density 20.875318
#
# number of rings (size 3 to 8) (size 9 to 14) (size 15 to 20)
#    0.000    1.500    3.750    1.125    8.750    1.000 
#    0.000    0.000    0.000    0.750    0.000    0.000 
#    0.000    0.000    0.000    0.000    0.000    0.000 
#
# Total GULP energy -396585.156109 kJ/mol
# GULP energy per Si atom -12393.286128 kJ/mol
# Density = 2.082780 g / cm^3
# Si number density = 20.875318 Si / 1000 Ang^3
#
#
#
# Elastic Constant Matrix: (Units=GPa)
#
#
# Indices 1 2 3 4 5 6 
#
# 1 70.2937 21.4182 26.4311 0.0000 0.0000 0.0000
# 2 21.4182 68.5462 40.1207 0.0000 0.0000 0.0000
# 3 26.4311 40.1207 123.4832 0.0000 0.0000 0.0000
# 4 0.0000 0.0000 0.0000 34.1642 0.0000 0.0000
# 5 0.0000 0.0000 0.0000 0.0000 9.2474 0.0000
# 6 0.0000 0.0000 0.0000 0.0000 0.0000 23.4961
#
#
#
# Elastic Compliance Matrix: (Units=1/GPa)
#
#
# Indices 1 2 3 4 5 6 
#
# 1 0.016215 -0.003748 -0.002253 0.000000 0.000000 0.000000
# 2 -0.003748 0.018881 -0.005332 0.000000 0.000000 0.000000
# 3 -0.002253 -0.005332 0.010313 0.000000 0.000000 0.000000
# 4 0.000000 0.000000 0.000000 0.029270 0.000000 0.000000
# 5 0.000000 0.000000 0.000000 0.000000 0.108138 0.000000
# 6 0.000000 0.000000 0.000000 0.000000 0.000000 0.042560
#
#
# Mechanical properties :
#
#
# Convention : Reuss Voigt Hill
#
# Bulk Modulus (GPa) = 43.97060 48.69590 46.33325
# Shear Modulus (GPa) = 19.55986 25.00507 22.28247
#
# Velocity S-wave (km/s) = 3.06434 3.46472 3.27066
# Velocity P-wave (km/s) = 5.79909 6.27562 6.04205
#
# Compressibility (1/GPa) = 0.02274247
#
# Stress axis : x y z
#
# Youngs Moduli (GPa) = 61.67060 52.96369 96.96452
#
# Poissons Ratio (x) = 0.19850 0.21847
# Poissons Ratio (y) = 0.23114 0.51705
# Poissons Ratio (z) = 0.13895 0.28242
#
# Static dielectric constant tensor:
#      x y z
#    x 3.509030 0.000000 0.000000 
#    y 0.000000 4.003520 0.000000 
#    z 0.000000 0.000000 4.131570 
# 
# 
# High freq. dielectric constant tensor:
#      x y z
#    x 1.776270 0.000000 0.000000 
#    y 0.000000 1.812500 0.000000 
#    z 0.000000 0.000000 1.837690 
# 
# From -- ./inp_files/4495.got.cif
#   From: 2010.03.12/outbox.cif.g09.slc.cpg/sg45_3_cif.got.tgz:4495.got - 2010.04.14 02:50:11.
