data_PCOD8190349
_publ_section_title
;
Structure prediction by ZEFSAII (Michael W. Deem and Ramdas Pophale) SiO2 
 PCOD8190349
Probable space group: I M M 2
;
_chemical_formula_sum "Si O2"
_cell_formula_units_Z 56
_cell_length_a 23.614494
_cell_length_b 9.612487
_cell_length_c 13.857734
_cell_angle_alpha 90.000000
_cell_angle_beta 90.000000
_cell_angle_gamma 90.000000
_cell_volume 3145.622701
_symmetry_space_group_name_H-M "I M M 2"
_symmetry_group_IT_number 44
_symmetry_cell_setting 'orthorhombic'
loop_
_space_group_symop_operation_xyz
x,y,z
-x,-y,z
-x,y,z
x,-y,z
1/2+x,1/2+y,1/2+z
1/2-x,1/2-y,1/2+z
1/2-x,1/2+y,1/2+z
1/2+x,1/2-y,1/2+z
loop_
_atom_site_type_symbol
_atom_site_label
_atom_site_fract_x
_atom_site_fract_y
_atom_site_fract_z
Si Si1 0.434777 0.159126 0.071350
Si Si2 0.387730 0.159740 0.869322
Si Si3 0.827429 0.836429 0.097009
Si Si4 0.667702 0.335661 0.380990
Si Si5 0.937270 0.157942 0.210992
Si Si6 0.564373 0.337284 0.255172
Si Si7 0.274100 0.162150 0.760193
O O1 0.500000 0.182941 0.042109
O O2 0.416980 0.256795 0.159353
O O3 0.424202 0.000000 0.102507
O O4 0.395441 0.201219 0.981006
O O5 0.430523 0.248235 0.805125
O O6 0.323273 0.188751 0.838504
O O7 0.404782 0.000000 0.853917
O O8 0.891772 0.804172 0.129174
O O9 0.783880 0.752028 0.163957
O O10 0.812952 0.000000 0.104350
O O11 0.822441 0.776674 0.988510
O O12 0.671042 0.500000 0.388934
O O13 0.606174 0.289887 0.341106
O O14 0.716420 0.282633 0.308735
O O15 0.000000 0.181173 0.167144
O O16 0.928647 0.000000 0.245379
O O17 0.500000 0.299901 0.285646
O O18 0.570951 0.500000 0.232918
O O19 0.270712 0.000000 0.731268
#
# Coordination Sequence:
#
# PCOD8190349 Si02
#       7
#     8   8   8   8   8   8   8
#     4   9  17  29  45  67  95 124 154 190 230 270
#     4   9  17  29  46  67  92 125 160 190 226 276
#     4   9  18  33  51  71  95 122 155 192 228 272
#     4   9  18  33  52  71  93 123 154 187 231 278
#     4   9  17  28  44  69  98 124 152 191 235 272
#     4   9  18  32  49  69  92 120 156 193 228 272
#     4   9  18  33  50  69  95 123 153 191 232 273
#
# _framework density 17.802517000000002
#
# number of rings (size 3 to 8) (size 9 to 14) (size 15 to 20)
#    0.000    3.000    0.000    0.429    0.000    3.143 
#    0.000    7.857    0.000    0.000    0.000    2.000 
#    0.000    0.000    0.000    0.000    0.000    0.000 
#
# Total GULP energy -347166.117101 kJ/mol
# GULP energy per Si atom -12398.789896 kJ/mol
# Density = 1.776200 g / cm^3
# Si number density = 17.802517 Si / 1000 Ang^3
#
#
#
# Elastic Constant Matrix: (Units=GPa)
#
#
# Indices 1 2 3 4 5 6 
#
# 1 102.6812 33.9048 71.8485 0.0000 0.0000 0.0000
# 2 33.9048 46.1626 51.1574 0.0000 0.0000 0.0000
# 3 71.8485 51.1574 153.4672 0.0000 0.0000 0.0000
# 4 0.0000 0.0000 0.0000 27.1529 0.0000 0.0000
# 5 0.0000 0.0000 0.0000 0.0000 23.8954 0.0000
# 6 0.0000 0.0000 0.0000 0.0000 0.0000 18.2554
#
#
#
# Elastic Compliance Matrix: (Units=1/GPa)
#
#
# Indices 1 2 3 4 5 6 
#
# 1 0.015235 -0.005210 -0.005396 0.000000 0.000000 0.000000
# 2 -0.005210 0.036135 -0.009606 0.000000 0.000000 0.000000
# 3 -0.005396 -0.009606 0.012244 0.000000 0.000000 0.000000
# 4 0.000000 0.000000 0.000000 0.036828 0.000000 0.000000
# 5 0.000000 0.000000 0.000000 0.000000 0.041849 0.000000
# 6 0.000000 0.000000 0.000000 0.000000 0.000000 0.054778
#
#
# Mechanical properties :
#
#
# Convention : Reuss Voigt Hill
#
# Bulk Modulus (GPa) = 43.12174 68.45915 55.79044
# Shear Modulus (GPa) = 20.38963 23.55411 21.97187
#
# Velocity S-wave (km/s) = 3.38793 3.64136 3.51693
# Velocity P-wave (km/s) = 6.29118 7.49784 6.92086
#
# Compressibility (1/GPa) = 0.02319016
#
# Stress axis : x y z
#
# Youngs Moduli (GPa) = 65.63993 27.67435 81.67034
#
# Poissons Ratio (x) = 0.14418 0.44067
# Poissons Ratio (y) = 0.34197 0.78454
# Poissons Ratio (z) = 0.35418 0.26585
#
# Static dielectric constant tensor:
#      x y z
#    x 3.402860 0.000000 0.000000 
#    y 0.000000 3.178000 0.000000 
#    z 0.000000 0.000000 3.308110 
# 
# 
# High freq. dielectric constant tensor:
#      x y z
#    x 1.690910 0.000000 0.000000 
#    y 0.000000 1.669460 0.000000 
#    z 0.000000 0.000000 1.681870 
# 
# From -- ./inp_files/12575.got.cif
#   From: 2010.03.12/outbox.cif.g09.slc.cpg/sg44_7_cif.got.tgz:12575.got - 2010.04.14 02:36:11.
