data_PCOD8190244
_publ_section_title
;
Structure prediction by ZEFSAII (Michael W. Deem and Ramdas Pophale) SiO2 
 PCOD8190244
Probable space group: I M M 2
;
_chemical_formula_sum "Si O2"
_cell_formula_units_Z 64
_cell_length_a 14.456789
_cell_length_b 9.106283
_cell_length_c 27.780676
_cell_angle_alpha 90.000000
_cell_angle_beta 90.000000
_cell_angle_gamma 90.000000
_cell_volume 3657.259653
_symmetry_space_group_name_H-M "I M M 2"
_symmetry_group_IT_number 44
_symmetry_cell_setting 'orthorhombic'
loop_
_space_group_symop_operation_xyz
x,y,z
-x,-y,z
-x,y,z
x,-y,z
1/2+x,1/2+y,1/2+z
1/2-x,1/2-y,1/2+z
1/2-x,1/2+y,1/2+z
1/2+x,1/2-y,1/2+z
loop_
_atom_site_type_symbol
_atom_site_label
_atom_site_fract_x
_atom_site_fract_y
_atom_site_fract_z
Si Si1 0.895101 0.170901 0.856660
Si Si2 0.397815 0.825978 0.079589
Si Si3 0.392031 0.829703 0.971409
Si Si4 0.607051 0.832448 0.811517
Si Si5 0.721561 0.673470 0.890248
Si Si6 0.223581 0.326220 0.666923
Si Si7 0.604243 0.829643 0.700219
Si Si8 0.893173 0.832295 0.745265
O O1 0.825926 0.264628 0.889589
O O2 0.874352 0.204042 0.800837
O O3 0.000000 0.217079 0.869423
O O4 0.879994 0.000000 0.867562
O O5 0.500000 0.760901 0.090506
O O6 0.326188 0.764088 0.118915
O O7 0.403446 0.000000 0.083030
O O8 0.366551 0.781947 0.025850
O O9 0.500000 0.800836 0.961055
O O10 0.330438 0.730558 0.937187
O O11 0.368620 0.000000 0.962237
O O12 0.500000 0.805183 0.823566
O O13 0.668300 0.723091 0.842441
O O14 0.627686 0.800256 0.755923
O O15 0.633918 0.000000 0.824379
O O16 0.725308 0.500000 0.891972
O O17 0.228250 0.500000 0.666813
O O18 0.327244 0.263497 0.666993
O O19 0.168374 0.275629 0.713852
O O20 0.500000 0.778445 0.688733
O O21 0.616422 0.000000 0.688143
O O22 0.000000 0.805968 0.732498
O O23 0.864688 0.000000 0.734134
#
# Coordination Sequence:
#
# PCOD8190244 Si02
#       8
#     8   8   8   8   8   8   8   8
#     4   9  19  36  54  69  91 130 176 210 231 267
#     4   8  16  32  52  74  99 126 158 196 237 284
#     4   9  18  35  57  74  92 126 168 202 233 280
#     4   9  18  33  51  69  93 131 175 207 231 274
#     4  12  23  31  46  75 106 129 152 195 254 303
#     4  11  20  29  48  77 104 128 157 199 249 294
#     4   9  19  35  51  67  93 132 174 209 237 274
#     4   9  18  32  49  71 100 133 168 201 232 276
#
# _framework density 17.499441000000001
#
# number of rings (size 3 to 8) (size 9 to 14) (size 15 to 20)
#    0.000    2.500    0.000    5.250    0.000    7.250 
#    0.000    3.750    0.000    2.250    0.000    1.750 
#    0.000    0.000    0.000    0.000    0.000    0.000 
#
# Total GULP energy -396804.424641 kJ/mol
# GULP energy per Si atom -12400.138270 kJ/mol
# Density = 1.745961 g / cm^3
# Si number density = 17.499441 Si / 1000 Ang^3
#
#
#
# Elastic Constant Matrix: (Units=GPa)
#
#
# Indices 1 2 3 4 5 6 
#
# 1 118.2921 62.6360 72.5835 0.0000 0.0000 0.0000
# 2 62.6360 84.4322 50.0058 0.0000 0.0000 0.0000
# 3 72.5835 50.0058 83.8923 0.0000 0.0000 0.0000
# 4 0.0000 0.0000 0.0000 21.1639 0.0000 0.0000
# 5 0.0000 0.0000 0.0000 0.0000 29.0018 0.0000
# 6 0.0000 0.0000 0.0000 0.0000 0.0000 26.3728
#
#
#
# Elastic Compliance Matrix: (Units=1/GPa)
#
#
# Indices 1 2 3 4 5 6 
#
# 1 0.020566 -0.007293 -0.013447 0.000000 0.000000 0.000000
# 2 -0.007293 0.020893 -0.006144 0.000000 0.000000 0.000000
# 3 -0.013447 -0.006144 0.027216 0.000000 0.000000 0.000000
# 4 0.000000 0.000000 0.000000 0.047250 0.000000 0.000000
# 5 0.000000 0.000000 0.000000 0.000000 0.034481 0.000000
# 6 0.000000 0.000000 0.000000 0.000000 0.000000 0.037918
#
#
# Mechanical properties :
#
#
# Convention : Reuss Voigt Hill
#
# Bulk Modulus (GPa) = 67.07636 73.00747 70.04192
# Shear Modulus (GPa) = 20.23800 22.06712 21.15256
#
# Velocity S-wave (km/s) = 3.40442 3.55493 3.48049
# Velocity P-wave (km/s) = 7.33943 7.65902 7.50092
#
# Compressibility (1/GPa) = 0.01490838
#
# Stress axis : x y z
#
# Youngs Moduli (GPa) = 48.62355 47.86331 36.74301
#
# Poissons Ratio (x) = 0.34907 0.49407
# Poissons Ratio (y) = 0.35462 0.22573
# Poissons Ratio (z) = 0.65382 0.29405
#
# Static dielectric constant tensor:
#      x y z
#    x 3.416770 0.000000 0.000000 
#    y 0.000000 3.018280 0.000000 
#    z 0.000000 0.000000 3.221290 
# 
# 
# High freq. dielectric constant tensor:
#      x y z
#    x 1.683430 0.000000 0.000000 
#    y 0.000000 1.657660 0.000000 
#    z 0.000000 0.000000 1.658440 
# 
# From -- ./inp_files/25805.got.cif
#   From: 2010.03.12/outbox.cif.g09.slc.cpg/sg44_13_cif.got.tgz:25805.got - 2010.04.14 02:36:11.
