data_PCOD8190806
_publ_section_title
;
Structure prediction by ZEFSAII (Michael W. Deem and Ramdas Pophale) SiO2 
 PCOD8190806
Probable space group: I B A 2
;
_chemical_formula_sum "Si O2"
_cell_formula_units_Z 44
_cell_length_a 13.113831
_cell_length_b 16.213166
_cell_length_c 8.881016
_cell_angle_alpha 90.000000
_cell_angle_beta 90.000000
_cell_angle_gamma 90.000000
_cell_volume 1888.252482
_symmetry_space_group_name_H-M "I B A 2"
_symmetry_group_IT_number 45
_symmetry_cell_setting 'orthorhombic'
loop_
_space_group_symop_operation_xyz
x,y,z
-x,-y,z
-x,y,1/2+z
x,-y,1/2+z
1/2+x,1/2+y,1/2+z
1/2-x,1/2-y,1/2+z
1/2-x,1/2+y,z
1/2+x,1/2-y,z
loop_
_atom_site_type_symbol
_atom_site_label
_atom_site_fract_x
_atom_site_fract_y
_atom_site_fract_z
Si Si1 0.000000 0.000000 0.400340
Si Si2 0.449392 0.128839 0.765696
Si Si3 0.292113 0.539544 0.557453
Si Si4 0.416128 0.348111 0.244388
Si Si5 0.840705 0.457274 0.277690
Si Si6 0.971652 0.260790 0.503049
O O1 0.993549 0.080590 0.296735
O O2 0.100282 0.005522 0.501857
O O3 0.569226 0.106139 0.743734
O O4 0.412818 0.173298 0.610477
O O5 0.383880 0.049329 0.802841
O O6 0.442382 0.191721 0.904903
O O7 0.310644 0.611951 0.682488
O O8 0.220700 0.573098 0.424068
O O9 0.236270 0.462119 0.637109
O O10 0.470214 0.304901 0.104371
O O11 0.395594 0.285742 0.384919
#
# Coordination Sequence:
#
# PCOD8190806 Si02
#       6
#     4   8   8   8   8   8
#     4  12  24  42  70  92 140 176 234 278 330 414
#     4  10  22  47  71 100 138 188 226 294 349 409
#     4  12  24  39  69 107 131 174 237 292 338 408
#     4  11  23  40  67 101 131 187 221 282 348 414
#     4  11  24  42  75 104 135 177 247 288 339 414
#     4  10  22  41  72  94 142 185 223 274 370 416
#
# _framework density 23.301970000000001
#
# number of rings (size 3 to 8) (size 9 to 14) (size 15 to 20)
#    0.000    1.091    3.636    2.727    0.000    2.909 
#    0.000    5.455   20.000    0.000    0.000    0.000 
#    0.000    0.000    0.000    0.000    0.000    0.000 
#
# Total GULP energy -272733.341496 kJ/mol
# GULP energy per Si atom -12396.970068 kJ/mol
# Density = 2.324893 g / cm^3
# Si number density = 23.301970 Si / 1000 Ang^3
#
#
#
# Elastic Constant Matrix: (Units=GPa)
#
#
# Indices 1 2 3 4 5 6 
#
# 1 108.5158 27.9133 40.5005 0.0000 0.0000 0.0000
# 2 27.9133 103.7628 45.9027 0.0000 0.0000 0.0000
# 3 40.5005 45.9027 141.5752 0.0000 0.0000 0.0000
# 4 0.0000 0.0000 0.0000 49.5943 0.0000 0.0000
# 5 0.0000 0.0000 0.0000 0.0000 39.3178 0.0000
# 6 0.0000 0.0000 0.0000 0.0000 0.0000 26.9957
#
#
#
# Elastic Compliance Matrix: (Units=1/GPa)
#
#
# Indices 1 2 3 4 5 6 
#
# 1 0.010585 -0.001760 -0.002457 0.000000 0.000000 0.000000
# 2 -0.001760 0.011544 -0.003239 0.000000 0.000000 0.000000
# 3 -0.002457 -0.003239 0.008817 0.000000 0.000000 0.000000
# 4 0.000000 0.000000 0.000000 0.020164 0.000000 0.000000
# 5 0.000000 0.000000 0.000000 0.000000 0.025434 0.000000
# 6 0.000000 0.000000 0.000000 0.000000 0.000000 0.037043
#
#
# Mechanical properties :
#
#
# Convention : Reuss Voigt Hill
#
# Bulk Modulus (GPa) = 62.37649 64.72074 63.54861
# Shear Modulus (GPa) = 37.35692 39.15073 38.25382
#
# Velocity S-wave (km/s) = 4.00830 4.10341 4.05613
# Velocity P-wave (km/s) = 6.94614 7.09124 7.01906
#
# Compressibility (1/GPa) = 0.01603168
#
# Stress axis : x y z
#
# Youngs Moduli (GPa) = 94.47140 86.62558 113.42223
#
# Poissons Ratio (x) = 0.15250 0.27872
# Poissons Ratio (y) = 0.16631 0.36740
# Poissons Ratio (z) = 0.23215 0.28060
#
# Static dielectric constant tensor:
#      x y z
#    x 4.043140 0.000000 0.000000 
#    y 0.000000 4.401290 0.000000 
#    z 0.000000 0.000000 4.638040 
# 
# 
# High freq. dielectric constant tensor:
#      x y z
#    x 1.891240 0.000000 0.000000 
#    y 0.000000 1.922870 0.000000 
#    z 0.000000 0.000000 1.948600 
# 
# From -- ./inp_files/1680.got.cif
#   From: 2010.03.12/outbox.cif.g09.slc.cpg/sg45_1_cif.got.tgz:1680.got - 2010.04.14 02:50:11.
