data_PCOD8190234
_publ_section_title
;
Structure prediction by ZEFSAII (Michael W. Deem and Ramdas Pophale) SiO2 
 PCOD8190234
Probable space group: I M M 2
;
_chemical_formula_sum "Si O2"
_cell_formula_units_Z 48
_cell_length_a 8.718976
_cell_length_b 17.979100
_cell_length_c 14.873806
_cell_angle_alpha 90.000000
_cell_angle_beta 90.000000
_cell_angle_gamma 90.000000
_cell_volume 2331.608033
_symmetry_space_group_name_H-M "I M M 2"
_symmetry_group_IT_number 44
_symmetry_cell_setting 'orthorhombic'
loop_
_space_group_symop_operation_xyz
x,y,z
-x,-y,z
-x,y,z
x,-y,z
1/2+x,1/2+y,1/2+z
1/2-x,1/2-y,1/2+z
1/2-x,1/2+y,1/2+z
1/2+x,1/2-y,1/2+z
loop_
_atom_site_type_symbol
_atom_site_label
_atom_site_fract_x
_atom_site_fract_y
_atom_site_fract_z
Si Si1 0.674652 0.500000 0.692880
Si Si2 0.178697 0.500000 0.507183
Si Si3 0.323600 0.082393 0.692642
Si Si4 0.173132 0.268737 0.935200
Si Si5 0.822471 0.840387 0.272094
Si Si6 0.826813 0.105828 0.875720
Si Si7 0.820329 0.229592 0.625966
O O1 0.500000 0.500000 0.655788
O O2 0.795953 0.500000 0.613020
O O3 0.705701 0.573299 0.751152
O O4 0.258661 0.573670 0.467901
O O5 0.000000 0.500000 0.485283
O O6 0.500000 0.106537 0.683034
O O7 0.280856 0.076633 0.796918
O O8 0.218949 0.143559 0.644882
O O9 0.297313 0.000000 0.649832
O O10 0.244808 0.330141 0.869507
O O11 0.174716 0.194253 0.876682
O O12 0.000000 0.291844 0.961819
O O13 0.269889 0.254291 0.024563
O O14 0.757505 0.787050 0.194293
O O15 0.000000 0.820481 0.280976
O O16 0.000000 0.076786 0.861681
O O17 0.000000 0.241393 0.635542
#
# Coordination Sequence:
#
# PCOD8190234 Si02
#       7
#     4   4   8   8   8   8   8
#     4  10  24  44  64  91 126 167 212 262 324 378
#     4  12  24  36  58  93 128 165 210 260 316 378
#     4  11  23  40  64  93 127 164 207 259 317 376
#     4  11  24  42  65  94 125 166 216 263 318 382
#     4  11  23  43  69  94 128 169 213 269 323 381
#     4  11  22  37  61  90 126 164 204 256 319 380
#     4  12  25  42  66  96 129 170 215 262 319 383
#
# _framework density 20.586649999999999
#
# number of rings (size 3 to 8) (size 9 to 14) (size 15 to 20)
#    0.000    0.833    2.500    5.250    0.000    8.333 
#    1.500    0.000    0.000    0.000    0.000    0.000 
#    0.000    0.000    0.000    0.000    0.000    0.000 
#
# Total GULP energy -297677.485207 kJ/mol
# GULP energy per Si atom -12403.228550 kJ/mol
# Density = 2.053979 g / cm^3
# Si number density = 20.586650 Si / 1000 Ang^3
#
#
#
# Elastic Constant Matrix: (Units=GPa)
#
#
# Indices 1 2 3 4 5 6 
#
# 1 106.6401 42.1808 18.0794 0.0000 0.0000 0.0000
# 2 42.1808 114.2763 26.8135 -0.0001 0.0000 0.0000
# 3 18.0794 26.8135 76.2215 -0.0001 0.0000 0.0000
# 4 0.0000 -0.0001 -0.0001 26.6251 0.0000 0.0000
# 5 0.0000 0.0000 0.0000 0.0000 39.3990 0.0000
# 6 0.0000 0.0000 0.0000 0.0000 0.0000 28.2071
#
#
#
# Elastic Compliance Matrix: (Units=1/GPa)
#
#
# Indices 1 2 3 4 5 6 
#
# 1 0.011097 -0.003791 -0.001298 0.000000 0.000000 0.000000
# 2 -0.003791 0.010833 -0.002912 0.000000 0.000000 0.000000
# 3 -0.001298 -0.002912 0.014452 0.000000 0.000000 0.000000
# 4 0.000000 0.000000 0.000000 0.037559 0.000000 0.000000
# 5 0.000000 0.000000 0.000000 0.000000 0.025381 0.000000
# 6 0.000000 0.000000 0.000000 0.000000 0.000000 0.035452
#
#
# Mechanical properties :
#
#
# Convention : Reuss Voigt Hill
#
# Bulk Modulus (GPa) = 49.06931 52.36503 50.71717
# Shear Modulus (GPa) = 31.73182 32.85054 32.29118
#
# Velocity S-wave (km/s) = 3.93030 3.99898 3.96479
# Velocity P-wave (km/s) = 6.66960 6.84208 6.75639
#
# Compressibility (1/GPa) = 0.02037934
#
# Stress axis : x y z
#
# Youngs Moduli (GPa) = 90.11330 92.30733 69.19493
#
# Poissons Ratio (x) = 0.34998 0.08984
# Poissons Ratio (y) = 0.34166 0.20147
# Poissons Ratio (z) = 0.11701 0.26877
#
# Static dielectric constant tensor:
#      x y z
#    x 3.877350 0.000000 0.000000 
#    y 0.000000 4.059090 0.000000 
#    z 0.000000 0.000000 3.562710 
# 
# 
# High freq. dielectric constant tensor:
#      x y z
#    x 1.818780 0.000000 0.000000 
#    y 0.000000 1.815470 0.000000 
#    z 0.000000 0.000000 1.796160 
# 
# From -- ./inp_files/16176.got.cif
#   From: 2010.03.12/outbox.cif.g09.slc.cpg/sg44_9_cif.got.tgz:16176.got - 2010.04.14 02:36:11.
