data_PCOD8190699
_publ_section_title
;
Structure prediction by ZEFSAII (Michael W. Deem and Ramdas Pophale) SiO2 
 PCOD8190699
Probable space group: I B A 2
;
_chemical_formula_sum "Si O2"
_cell_formula_units_Z 64
_cell_length_a 21.140564
_cell_length_b 10.338889
_cell_length_c 14.026866
_cell_angle_alpha 90.000000
_cell_angle_beta 90.000000
_cell_angle_gamma 90.000000
_cell_volume 3065.851324
_symmetry_space_group_name_H-M "I B A 2"
_symmetry_group_IT_number 45
_symmetry_cell_setting 'orthorhombic'
loop_
_space_group_symop_operation_xyz
x,y,z
-x,-y,z
-x,y,1/2+z
x,-y,1/2+z
1/2+x,1/2+y,1/2+z
1/2-x,1/2-y,1/2+z
1/2-x,1/2+y,z
1/2+x,1/2-y,z
loop_
_atom_site_type_symbol
_atom_site_label
_atom_site_fract_x
_atom_site_fract_y
_atom_site_fract_z
Si Si1 0.105803 0.500001 0.446640
Si Si2 0.691269 0.404835 0.084086
Si Si3 0.792013 0.387245 0.810031
Si Si4 0.500000 0.186930 0.946640
Si Si5 0.549280 0.391871 0.084512
Si Si6 0.808731 0.095164 0.809194
Si Si7 0.049280 0.891872 0.808769
Si Si8 0.792013 0.387245 0.583249
O O1 0.145953 0.443711 0.359440
O O2 0.059010 0.607769 0.403329
O O3 0.145953 0.556291 0.533839
O O4 0.059010 0.392231 0.489951
O O5 0.619711 0.427330 0.047770
O O6 0.692769 0.410702 0.196640
O O7 0.733517 0.524504 0.045534
O O8 0.718129 0.263236 0.052324
O O9 0.781872 0.236764 0.840957
O O10 0.733517 0.475496 0.847746
O O11 0.801511 0.398132 0.696640
O O12 0.473857 0.262191 0.856373
O O13 0.526143 0.262190 0.036909
O O14 0.500000 0.500000 0.051788
O O15 0.549193 0.369221 0.196640
O O16 0.880289 0.072669 0.845509
O O17 0.000000 0.000000 0.841493
#
# Coordination Sequence:
#
# PCOD8190699 Si02
#       8
#     8   8   8   8   8   8   8   8
#     4  11  24  38  60  88 121 166 206 244 313 368
#     4   9  19  38  62  87 118 158 202 252 308 363
#     4  10  21  40  62  88 124 161 206 260 306 366
#     4  11  23  40  58  90 125 157 206 254 298 375
#     4  10  21  40  64  88 119 159 202 254 312 367
#     4   9  19  38  62  87 118 158 202 252 308 363
#     4  10  21  40  64  88 119 159 202 254 312 367
#     4  10  21  40  62  88 124 161 206 260 306 366
#
# _framework density 20.875115999999998
#
# number of rings (size 3 to 8) (size 9 to 14) (size 15 to 20)
#    0.000    2.000    2.500    0.375    0.000    4.000 
#    4.500    7.500    0.000    0.000    0.000    0.000 
#    0.000    0.000    0.000    0.000    0.000    0.000 
#
# Total GULP energy -396657.961234 kJ/mol
# GULP energy per Si atom -12395.561289 kJ/mol
# Density = 2.082760 g / cm^3
# Si number density = 20.875116 Si / 1000 Ang^3
#
#
#
# Elastic Constant Matrix: (Units=GPa)
#
#
# Indices 1 2 3 4 5 6 
#
# 1 187.9990 99.5044 22.9534 0.0000 0.0000 0.0000
# 2 99.5044 155.6785 13.9566 0.0000 0.0000 0.0000
# 3 22.9534 13.9566 24.7487 0.0000 0.0000 0.0000
# 4 0.0000 0.0000 0.0000 42.4665 0.0000 0.0000
# 5 0.0000 0.0000 0.0000 0.0000 18.6622 0.0000
# 6 0.0000 0.0000 0.0000 0.0000 0.0000 40.9643
#
#
#
# Elastic Compliance Matrix: (Units=1/GPa)
#
#
# Indices 1 2 3 4 5 6 
#
# 1 0.008619 -0.005048 -0.005148 0.000000 0.000000 0.000000
# 2 -0.005048 0.009722 -0.000801 0.000000 0.000000 0.000000
# 3 -0.005148 -0.000801 0.045632 0.000000 0.000000 0.000000
# 4 0.000000 0.000000 0.000000 0.023548 0.000000 0.000000
# 5 0.000000 0.000000 0.000000 0.000000 0.053584 0.000000
# 6 0.000000 0.000000 0.000000 0.000000 0.000000 0.024412
#
#
# Mechanical properties :
#
#
# Convention : Reuss Voigt Hill
#
# Bulk Modulus (GPa) = 23.82038 71.25058 47.53548
# Shear Modulus (GPa) = 24.81361 35.88604 30.34982
#
# Velocity S-wave (km/s) = 3.45145 4.15068 3.81711
# Velocity P-wave (km/s) = 5.22676 7.56153 6.49984
#
# Compressibility (1/GPa) = 0.04198085
#
# Stress axis : x y z
#
# Youngs Moduli (GPa) = 116.01864 102.86373 21.91447
#
# Poissons Ratio (x) = 0.51922 0.11280
# Poissons Ratio (y) = 0.58563 0.01755
# Poissons Ratio (z) = 0.59721 0.08237
#
# Static dielectric constant tensor:
#      x y z
#    x 4.315740 0.000000 0.000000 
#    y 0.000000 4.235880 0.000000 
#    z 0.000000 0.000000 3.450760 
# 
# 
# High freq. dielectric constant tensor:
#      x y z
#    x 1.831070 0.000000 0.000000 
#    y 0.000000 1.826260 0.000000 
#    z 0.000000 0.000000 1.806640 
# 
# From -- ./inp_files/6827.got.cif
#   From: 2010.03.12/outbox.cif.g09.slc.cpg/sg45_4_cif.got.tgz:6827.got - 2010.04.14 02:50:11.
