data_PCOD8190599
_publ_section_title
;
Structure prediction by ZEFSAII (Michael W. Deem and Ramdas Pophale) SiO2 
 PCOD8190599
Probable space group: I B A 2
;
_chemical_formula_sum "Si O2"
_cell_formula_units_Z 64
_cell_length_a 23.676444
_cell_length_b 8.883072
_cell_length_c 13.669754
_cell_angle_alpha 90.000000
_cell_angle_beta 90.000000
_cell_angle_gamma 90.000000
_cell_volume 2875.016602
_symmetry_space_group_name_H-M "I B A 2"
_symmetry_group_IT_number 45
_symmetry_cell_setting 'orthorhombic'
loop_
_space_group_symop_operation_xyz
x,y,z
-x,-y,z
-x,y,1/2+z
x,-y,1/2+z
1/2+x,1/2+y,1/2+z
1/2-x,1/2-y,1/2+z
1/2-x,1/2+y,z
1/2+x,1/2-y,z
loop_
_atom_site_type_symbol
_atom_site_label
_atom_site_fract_x
_atom_site_fract_y
_atom_site_fract_z
Si Si1 0.663889 0.771552 0.572950
Si Si2 0.461627 0.873614 0.441836
Si Si3 0.343151 0.031926 0.938325
Si Si4 0.291452 0.224633 0.097508
Si Si5 0.954087 0.877133 0.285748
Si Si6 0.132526 0.486311 0.713439
Si Si7 0.878854 0.976888 0.634611
Si Si8 0.465273 0.774505 0.641959
O O1 0.725554 0.739700 0.617090
O O2 0.630732 0.613808 0.557795
O O3 0.673990 0.863062 0.472100
O O4 0.626303 0.861034 0.652184
O O5 0.404311 0.942470 0.485749
O O6 0.442600 0.731727 0.376883
O O7 0.493973 0.834701 0.542402
O O8 0.500000 0.000000 0.385791
O O9 0.351181 0.036113 0.822590
O O10 0.303136 0.162685 0.985593
O O11 0.313364 0.099093 0.171718
O O12 0.321188 0.381074 0.128761
O O13 0.981330 0.769727 0.204900
O O14 0.896588 0.955284 0.242858
O O15 0.000000 0.000000 0.319581
O O16 0.075226 0.386961 0.704876
O O17 0.930520 0.871297 0.603951
#
# Coordination Sequence:
#
# PCOD8190599 Si02
#       8
#     8   8   8   8   8   8   8   8
#     4  11  22  40  67  95 125 176 222 268 335 383
#     4  12  24  41  66  95 131 174 216 270 326 386
#     4  11  23  42  63  98 128 168 222 270 319 403
#     4  10  22  44  64  93 136 165 217 280 328 384
#     4  10  24  41  64  97 131 171 221 262 325 403
#     4  10  21  42  67  89 132 169 221 266 328 391
#     4  10  20  41  64  90 133 174 202 276 325 383
#     4  10  22  45  62  94 136 170 213 271 328 392
#
# _framework density 22.260743000000002
#
# number of rings (size 3 to 8) (size 9 to 14) (size 15 to 20)
#    0.000    1.500    3.750    3.000    1.750    4.000 
#    6.750    1.250    0.000    0.000    0.000    0.000 
#    0.000    0.000    0.000    0.000    0.000    0.000 
#
# Total GULP energy -396439.083109 kJ/mol
# GULP energy per Si atom -12388.721347 kJ/mol
# Density = 2.221008 g / cm^3
# Si number density = 22.260743 Si / 1000 Ang^3
#
#
#
# Elastic Constant Matrix: (Units=GPa)
#
#
# Indices 1 2 3 4 5 6 
#
# 1 60.4223 31.8961 7.3006 0.0000 0.0000 0.0000
# 2 31.8961 127.2711 31.5479 0.0000 0.0000 0.0000
# 3 7.3006 31.5479 109.8446 0.0000 0.0000 0.0000
# 4 0.0000 0.0000 0.0000 31.8619 0.0000 0.0000
# 5 0.0000 0.0000 0.0000 0.0000 19.1110 0.0000
# 6 0.0000 0.0000 0.0000 0.0000 0.0000 28.3232
#
#
#
# Elastic Compliance Matrix: (Units=1/GPa)
#
#
# Indices 1 2 3 4 5 6 
#
# 1 0.019075 -0.004809 0.000113 0.000000 0.000000 0.000000
# 2 -0.004809 0.009672 -0.002458 0.000000 0.000000 0.000000
# 3 0.000113 -0.002458 0.009802 0.000000 0.000000 0.000000
# 4 0.000000 0.000000 0.000000 0.031385 0.000000 0.000000
# 5 0.000000 0.000000 0.000000 0.000000 0.052326 0.000000
# 6 0.000000 0.000000 0.000000 0.000000 0.000000 0.035307
#
#
# Mechanical properties :
#
#
# Convention : Reuss Voigt Hill
#
# Bulk Modulus (GPa) = 41.25089 48.78081 45.01585
# Shear Modulus (GPa) = 27.78481 30.97877 29.38179
#
# Velocity S-wave (km/s) = 3.53675 3.73451 3.63697
# Velocity P-wave (km/s) = 5.93710 6.36839 6.15652
#
# Compressibility (1/GPa) = 0.02424190
#
# Stress axis : x y z
#
# Youngs Moduli (GPa) = 52.42504 103.39489 102.01754
#
# Poissons Ratio (x) = 0.49718 -0.01155
# Poissons Ratio (y) = 0.25209 0.25078
# Poissons Ratio (z) = -0.00594 0.25416
#
# Static dielectric constant tensor:
#      x y z
#    x 3.882220 0.000000 0.000000 
#    y 0.000000 4.558170 0.000000 
#    z 0.000000 0.000000 3.746880 
# 
# 
# High freq. dielectric constant tensor:
#      x y z
#    x 1.868820 0.000000 0.000000 
#    y 0.000000 1.899710 0.000000 
#    z 0.000000 0.000000 1.853410 
# 
# From -- ./inp_files/7067.got.cif
#   From: 2010.03.12/outbox.cif.g09.slc.cpg/sg45_4_cif.got.tgz:7067.got - 2010.04.14 02:50:11.
