data_PCOD8190865
_publ_section_title
;
Structure prediction by ZEFSAII (Michael W. Deem and Ramdas Pophale) SiO2 
 PCOD8190865
Probable space group: I B A 2
;
_chemical_formula_sum "Si O2"
_cell_formula_units_Z 40
_cell_length_a 24.562325
_cell_length_b 5.132191
_cell_length_c 13.222434
_cell_angle_alpha 90.000000
_cell_angle_beta 90.000000
_cell_angle_gamma 90.000000
_cell_volume 1666.800769
_symmetry_space_group_name_H-M "I B A 2"
_symmetry_group_IT_number 45
_symmetry_cell_setting 'orthorhombic'
loop_
_space_group_symop_operation_xyz
x,y,z
-x,-y,z
-x,y,1/2+z
x,-y,1/2+z
1/2+x,1/2+y,1/2+z
1/2-x,1/2-y,1/2+z
1/2-x,1/2+y,z
1/2+x,1/2-y,z
loop_
_atom_site_type_symbol
_atom_site_label
_atom_site_fract_x
_atom_site_fract_y
_atom_site_fract_z
Si Si1 0.784033 0.839599 0.697130
Si Si2 0.284033 0.339599 0.959709
Si Si3 0.878653 1.000000 0.828420
Si Si4 0.463858 0.756074 0.964207
Si Si5 0.463858 0.756074 0.192632
O O1 0.747240 0.599126 0.731914
O O2 0.795199 0.831345 0.578420
O O3 0.842513 0.832042 0.750643
O O4 0.252760 0.599127 0.924925
O O5 0.342512 0.332042 0.906196
O O6 0.913420 0.214880 0.767556
O O7 0.913420 0.785119 0.889283
O O8 0.500000 0.500000 0.959130
O O9 0.500000 0.000000 0.927421
O O10 0.442320 0.805293 0.078420
O O11 0.500000 0.500000 0.197708
O O12 0.500000 0.000000 0.229418
#
# Coordination Sequence:
#
# PCOD8190865 Si02
#       5
#     8   8   8   8   8
#     4  10  23  42  63  94 134 170 211 268 331 394
#     4  10  23  42  63  94 134 170 211 268 331 394
#     4  12  23  40  70  98 124 172 227 272 324 394
#     4  10  24  44  63  90 130 171 215 271 331 389
#     4  10  24  44  63  90 130 171 215 271 331 389
#
# _framework density 23.998066999999999
#
# number of rings (size 3 to 8) (size 9 to 14) (size 15 to 20)
#    0.000    1.600    0.000    3.000    0.000    9.600 
#    0.000   12.000    0.000    3.600    0.000    0.000 
#    0.000    0.000    0.000    0.000    0.000    0.000 
#
# Total GULP energy -248137.535589 kJ/mol
# GULP energy per Si atom -12406.876779 kJ/mol
# Density = 2.394345 g / cm^3
# Si number density = 23.998067 Si / 1000 Ang^3
#
#
#
# Elastic Constant Matrix: (Units=GPa)
#
#
# Indices 1 2 3 4 5 6 
#
# 1 173.9722 77.1899 102.0569 0.0000 0.0000 0.0000
# 2 77.1899 171.6456 60.6892 0.0000 0.0000 0.0000
# 3 102.0569 60.6892 122.0398 0.0000 0.0000 0.0000
# 4 0.0000 0.0000 0.0000 34.7351 0.0000 0.0000
# 5 0.0000 0.0000 0.0000 0.0000 71.9995 0.0000
# 6 0.0000 0.0000 0.0000 0.0000 0.0000 33.9263
#
#
#
# Elastic Compliance Matrix: (Units=1/GPa)
#
#
# Indices 1 2 3 4 5 6 
#
# 1 0.011950 -0.002233 -0.008882 0.000000 0.000000 0.000000
# 2 -0.002233 0.007486 -0.001855 0.000000 0.000000 0.000000
# 3 -0.008882 -0.001855 0.016545 0.000000 0.000000 0.000000
# 4 0.000000 0.000000 0.000000 0.028789 0.000000 0.000000
# 5 0.000000 0.000000 0.000000 0.000000 0.013889 0.000000
# 6 0.000000 0.000000 0.000000 0.000000 0.000000 0.029476
#
#
# Mechanical properties :
#
#
# Convention : Reuss Voigt Hill
#
# Bulk Modulus (GPa) = 99.61477 105.28108 102.44792
# Shear Modulus (GPa) = 36.38419 43.31360 39.84890
#
# Velocity S-wave (km/s) = 3.89798 4.25300 4.07935
# Velocity P-wave (km/s) = 7.86502 8.25125 8.06045
#
# Compressibility (1/GPa) = 0.01003867
#
# Stress axis : x y z
#
# Youngs Moduli (GPa) = 83.68523 133.57878 60.44261
#
# Poissons Ratio (x) = 0.29831 0.53687
# Poissons Ratio (y) = 0.18689 0.11214
# Poissons Ratio (z) = 0.74332 0.24783
#
# Static dielectric constant tensor:
#      x y z
#    x 4.171780 0.000000 0.000000 
#    y 0.000000 4.086780 0.000000 
#    z 0.000000 0.000000 4.825230 
# 
# 
# High freq. dielectric constant tensor:
#      x y z
#    x 1.943140 0.000000 0.000000 
#    y 0.000000 1.953140 0.000000 
#    z 0.000000 0.000000 1.989650 
# 
# From -- ./inp_files/7004.got.cif
#   From: 2010.03.12/outbox.cif.g09.slc.cpg/sg45_4_cif.got.tgz:7004.got - 2010.04.14 02:50:11.
