data_PCOD8190942
_publ_section_title
;
Structure prediction by ZEFSAII (Michael W. Deem and Ramdas Pophale) SiO2 
 PCOD8190942
Probable space group: I B A 2
;
_chemical_formula_sum "Si O2"
_cell_formula_units_Z 44
_cell_length_a 32.113432
_cell_length_b 7.390049
_cell_length_c 8.252768
_cell_angle_alpha 90.000000
_cell_angle_beta 90.000000
_cell_angle_gamma 90.000000
_cell_volume 1958.545549
_symmetry_space_group_name_H-M "I B A 2"
_symmetry_group_IT_number 45
_symmetry_cell_setting 'orthorhombic'
loop_
_space_group_symop_operation_xyz
x,y,z
-x,-y,z
-x,y,1/2+z
x,-y,1/2+z
1/2+x,1/2+y,1/2+z
1/2-x,1/2-y,1/2+z
1/2-x,1/2+y,z
1/2+x,1/2-y,z
loop_
_atom_site_type_symbol
_atom_site_label
_atom_site_fract_x
_atom_site_fract_y
_atom_site_fract_z
Si Si1 0.438309 0.098161 0.924250
Si Si2 0.372880 0.362244 0.033311
Si Si3 0.880137 0.742870 0.903925
Si Si4 0.210056 0.112615 0.363637
Si Si5 0.205957 0.258240 0.998382
Si Si6 0.500000 0.000000 0.173238
O O1 0.404095 0.253032 0.917739
O O2 0.468493 0.126015 0.772490
O O3 0.418016 0.895875 0.931568
O O4 0.469728 0.130169 0.072459
O O5 0.383010 0.575928 0.015155
O O6 0.326889 0.303512 0.971838
O O7 0.378458 0.300549 0.217084
O O8 0.837878 0.638201 0.966603
O O9 0.254268 0.123330 0.455632
O O10 0.202751 0.898559 0.361927
O O11 0.209847 0.188548 0.182550
#
# Coordination Sequence:
#
# PCOD8190942 Si02
#       6
#     8   8   8   8   8   4
#     4  11  24  46  72  96 138 174 218 276 344 391
#     4  11  24  42  68  99 134 178 224 271 333 401
#     4  11  24  42  68  99 134 178 224 271 333 401
#     4  11  23  40  62  92 132 171 222 271 319 388
#     4  11  23  40  62  92 132 171 222 271 319 388
#     4  10  24  46  70 102 132 168 224 282 326 418
#
# _framework density 22.465651999999999
#
# number of rings (size 3 to 8) (size 9 to 14) (size 15 to 20)
#    0.000    1.091    1.818    6.545    7.636    0.000 
#    0.000    5.455    0.000    0.000    0.000    0.000 
#    0.000    0.000    0.000    0.000    0.000    0.000 
#
# Total GULP energy -272599.825803 kJ/mol
# GULP energy per Si atom -12390.901173 kJ/mol
# Density = 2.241452 g / cm^3
# Si number density = 22.465652 Si / 1000 Ang^3
#
#
#
# Elastic Constant Matrix: (Units=GPa)
#
#
# Indices 1 2 3 4 5 6 
#
# 1 164.4904 45.7661 39.8880 0.0000 0.0000 0.0000
# 2 45.7661 55.7626 11.4248 0.0000 0.0000 0.0000
# 3 39.8880 11.4248 99.9420 0.0000 0.0000 0.0000
# 4 0.0000 0.0000 0.0000 23.6271 0.0000 0.0000
# 5 0.0000 0.0000 0.0000 0.0000 60.7841 0.0000
# 6 0.0000 0.0000 0.0000 0.0000 0.0000 15.7984
#
#
#
# Elastic Compliance Matrix: (Units=1/GPa)
#
#
# Indices 1 2 3 4 5 6 
#
# 1 0.008519 -0.006446 -0.002663 0.000000 0.000000 0.000000
# 2 -0.006446 0.023241 -0.000084 0.000000 0.000000 0.000000
# 3 -0.002663 -0.000084 0.011078 0.000000 0.000000 0.000000
# 4 0.000000 0.000000 0.000000 0.042324 0.000000 0.000000
# 5 0.000000 0.000000 0.000000 0.000000 0.016452 0.000000
# 6 0.000000 0.000000 0.000000 0.000000 0.000000 0.063297
#
#
# Mechanical properties :
#
#
# Convention : Reuss Voigt Hill
#
# Bulk Modulus (GPa) = 40.89719 57.15030 49.02374
# Shear Modulus (GPa) = 26.11684 34.91634 30.51659
#
# Velocity S-wave (km/s) = 3.41328 3.94662 3.68960
# Velocity P-wave (km/s) = 5.81187 6.80162 6.32613
#
# Compressibility (1/GPa) = 0.02445156
#
# Stress axis : x y z
#
# Youngs Moduli (GPa) = 117.39053 43.02797 90.26688
#
# Poissons Ratio (x) = 0.27735 0.24038
# Poissons Ratio (y) = 0.75668 0.00759
# Poissons Ratio (z) = 0.31261 0.00362
#
# Static dielectric constant tensor:
#      x y z
#    x 4.680400 0.000000 0.000000 
#    y 0.000000 3.800140 0.000000 
#    z 0.000000 0.000000 4.263530 
# 
# 
# High freq. dielectric constant tensor:
#      x y z
#    x 1.910680 0.000000 0.000000 
#    y 0.000000 1.848800 0.000000 
#    z 0.000000 0.000000 1.902950 
# 
# From -- ./inp_files/1032.got.cif
#   From: 2010.03.12/outbox.cif.g09.slc.cpg/sg45_1_cif.got.tgz:1032.got - 2010.04.14 02:50:11.
