data_PCOD8190231
_publ_section_title
;
Structure prediction by ZEFSAII (Michael W. Deem and Ramdas Pophale) SiO2 
 PCOD8190231
Probable space group: I M M 2
;
_chemical_formula_sum "Si O2"
_cell_formula_units_Z 32
_cell_length_a 7.638222
_cell_length_b 14.963552
_cell_length_c 13.778829
_cell_angle_alpha 90.000000
_cell_angle_beta 90.000000
_cell_angle_gamma 90.000000
_cell_volume 1574.850325
_symmetry_space_group_name_H-M "I M M 2"
_symmetry_group_IT_number 44
_symmetry_cell_setting 'orthorhombic'
loop_
_space_group_symop_operation_xyz
x,y,z
-x,-y,z
-x,y,z
x,-y,z
1/2+x,1/2+y,1/2+z
1/2-x,1/2-y,1/2+z
1/2-x,1/2+y,1/2+z
1/2+x,1/2-y,1/2+z
loop_
_atom_site_type_symbol
_atom_site_label
_atom_site_fract_x
_atom_site_fract_y
_atom_site_fract_z
Si Si1 0.500000 0.604396 0.431391
Si Si2 0.795927 0.500000 0.722531
Si Si3 0.000000 0.903618 0.725892
Si Si4 0.300474 0.849249 0.071244
Si Si5 0.300711 0.500000 0.944207
Si Si6 0.702340 0.147349 0.588322
O O1 0.500000 0.500000 0.439618
O O2 0.500000 0.653847 0.325386
O O3 0.322937 0.637284 0.480349
O O4 0.739957 0.410934 0.662483
O O5 0.705101 0.500000 0.827541
O O6 0.000000 0.500000 0.743635
O O7 0.819655 0.901197 0.667429
O O8 0.000000 0.000000 0.774783
O O9 0.500000 0.874888 0.044408
O O10 0.288579 0.744663 0.091512
O O11 0.500000 0.500000 0.979012
O O12 0.213720 0.590962 0.987521
O O13 0.500000 0.152472 0.620203
#
# Coordination Sequence:
#
# PCOD8190231 Si02
#       6
#     4   4   4   8   4   8
#     4  11  24  42  68  93 131 172 217 264 322 384
#     4  10  24  42  66  99 132 169 218 272 324 389
#     4  11  24  44  64  95 129 170 219 266 318 388
#     4  11  23  43  68  96 134 170 214 267 326 388
#     4  12  24  42  68  98 133 170 218 273 329 391
#     4  12  23  42  69  94 133 172 213 268 328 386
#
# _framework density 20.319391
#
# number of rings (size 3 to 8) (size 9 to 14) (size 15 to 20)
#    0.000    0.750    6.250    1.125    1.750    3.000 
#    0.000    2.500    0.000    0.000    0.000    0.000 
#    0.000    0.000    0.000    0.000    0.000    0.000 
#
# Total GULP energy -198242.452073 kJ/mol
# GULP energy per Si atom -12390.153255 kJ/mol
# Density = 2.027314 g / cm^3
# Si number density = 20.319391 Si / 1000 Ang^3
#
#
#
# Elastic Constant Matrix: (Units=GPa)
#
#
# Indices 1 2 3 4 5 6 
#
# 1 139.7449 0.9117 44.0729 0.0000 0.0000 0.0000
# 2 0.9117 117.5698 29.5681 0.0000 0.0000 0.0000
# 3 44.0729 29.5681 135.7650 0.0000 0.0000 0.0000
# 4 0.0000 0.0000 0.0000 8.5833 0.0000 0.0000
# 5 0.0000 0.0000 0.0000 0.0000 20.4689 0.0000
# 6 0.0000 0.0000 0.0000 0.0000 0.0000 37.7663
#
#
#
# Elastic Compliance Matrix: (Units=1/GPa)
#
#
# Indices 1 2 3 4 5 6 
#
# 1 0.008015 0.000627 -0.002738 0.000000 0.000000 0.000000
# 2 0.000627 0.009047 -0.002174 0.000000 0.000000 0.000000
# 3 -0.002738 -0.002174 0.008728 0.000000 0.000000 0.000000
# 4 0.000000 0.000000 0.000000 0.116506 0.000000 0.000000
# 5 0.000000 0.000000 0.000000 0.000000 0.048855 0.000000
# 6 0.000000 0.000000 0.000000 0.000000 0.000000 0.026479
#
#
# Mechanical properties :
#
#
# Convention : Reuss Voigt Hill
#
# Bulk Modulus (GPa) = 58.07378 60.24279 59.15828
# Shear Modulus (GPa) = 21.55717 34.59882 28.07800
#
# Velocity S-wave (km/s) = 3.26070 4.13091 3.72133
# Velocity P-wave (km/s) = 6.54361 7.24327 6.90231
#
# Compressibility (1/GPa) = 0.01721948
#
# Stress axis : x y z
#
# Youngs Moduli (GPa) = 124.75861 110.52865 114.57263
#
# Poissons Ratio (x) = -0.06925 0.31376
# Poissons Ratio (y) = -0.07817 0.24906
# Poissons Ratio (z) = 0.34165 0.24027
#
# Static dielectric constant tensor:
#      x y z
#    x 3.699620 0.000000 0.000000 
#    y 0.000000 4.604950 0.000000 
#    z 0.000000 0.000000 3.681070 
# 
# 
# High freq. dielectric constant tensor:
#      x y z
#    x 1.809140 0.000000 0.000000 
#    y 0.000000 1.805110 0.000000 
#    z 0.000000 0.000000 1.785920 
# 
# From -- ./inp_files/10680.got.cif
#   From: 2010.03.12/outbox.cif.g09.slc.cpg/sg44_6_cif.got.tgz:10680.got - 2010.04.14 02:36:11.
