data_PCOD8190726
_publ_section_title
;
Structure prediction by ZEFSAII (Michael W. Deem and Ramdas Pophale) SiO2 
 PCOD8190726
Probable space group: I B A 2
;
_chemical_formula_sum "Si O2"
_cell_formula_units_Z 40
_cell_length_a 17.917377
_cell_length_b 8.395987
_cell_length_c 13.163893
_cell_angle_alpha 90.000000
_cell_angle_beta 90.000000
_cell_angle_gamma 90.000000
_cell_volume 1980.297927
_symmetry_space_group_name_H-M "I B A 2"
_symmetry_group_IT_number 45
_symmetry_cell_setting 'orthorhombic'
loop_
_space_group_symop_operation_xyz
x,y,z
-x,-y,z
-x,y,1/2+z
x,-y,1/2+z
1/2+x,1/2+y,1/2+z
1/2-x,1/2-y,1/2+z
1/2-x,1/2+y,z
1/2+x,1/2-y,z
loop_
_atom_site_type_symbol
_atom_site_label
_atom_site_fract_x
_atom_site_fract_y
_atom_site_fract_z
Si Si1 0.195001 0.851181 0.990790
Si Si2 0.323400 0.167394 0.334102
Si Si3 0.571455 0.891544 0.497981
Si Si4 0.076001 0.926104 0.397916
Si Si5 0.310217 0.957462 0.613606
O O1 0.249494 0.795021 0.899669
O O2 0.121243 0.930603 0.947042
O O3 0.167401 0.699900 0.052961
O O4 0.233815 0.970862 0.070568
O O5 0.376921 0.052346 0.401704
O O6 0.370377 0.333479 0.316236
O O7 0.299777 0.080121 0.231880
O O8 0.552892 0.703552 0.485420
O O9 0.500000 0.000000 0.502890
O O10 0.621241 0.917964 0.599580
O O11 0.000000 0.000000 0.349366
#
# Coordination Sequence:
#
# PCOD8190726 Si02
#       5
#     8   8   8   8   8
#     4  11  21  40  62  92 124 167 213 273 320 386
#     4   9  23  37  62  92 123 166 216 257 330 379
#     4   9  20  39  59  90 124 169 204 265 330 387
#     4  10  21  42  63  90 128 169 211 266 335 379
#     4  11  21  36  64  90 126 165 223 260 322 399
#
# _framework density 20.198981
#
# number of rings (size 3 to 8) (size 9 to 14) (size 15 to 20)
#    1.200    0.800    2.000    1.200    2.800    0.800 
#    0.000    3.000    4.400    0.000    0.000    0.000 
#    0.000    0.000    0.000    0.000    0.000    0.000 
#
# Total GULP energy -247792.445801 kJ/mol
# GULP energy per Si atom -12389.622290 kJ/mol
# Density = 2.015301 g / cm^3
# Si number density = 20.198981 Si / 1000 Ang^3
#
#
#
# Elastic Constant Matrix: (Units=GPa)
#
#
# Indices 1 2 3 4 5 6 
#
# 1 99.6359 12.7273 15.0100 0.0000 0.0000 0.0000
# 2 12.7273 61.0767 3.6532 0.0000 0.0000 0.0000
# 3 15.0100 3.6532 88.8437 0.0000 0.0000 0.0000
# 4 0.0000 0.0000 0.0000 24.8849 0.0000 0.0000
# 5 0.0000 0.0000 0.0000 0.0000 13.6377 0.0000
# 6 0.0000 0.0000 0.0000 0.0000 0.0000 35.0336
#
#
#
# Elastic Compliance Matrix: (Units=1/GPa)
#
#
# Indices 1 2 3 4 5 6 
#
# 1 0.010560 -0.002099 -0.001698 0.000000 0.000000 0.000000
# 2 -0.002099 0.016830 -0.000337 0.000000 0.000000 0.000000
# 3 -0.001698 -0.000337 0.011556 0.000000 0.000000 0.000000
# 4 0.000000 0.000000 0.000000 0.040185 0.000000 0.000000
# 5 0.000000 0.000000 0.000000 0.000000 0.073326 0.000000
# 6 0.000000 0.000000 0.000000 0.000000 0.000000 0.028544
#
#
# Mechanical properties :
#
#
# Convention : Reuss Voigt Hill
#
# Bulk Modulus (GPa) = 32.59594 34.70414 33.65004
# Shear Modulus (GPa) = 25.06295 29.25561 27.15928
#
# Velocity S-wave (km/s) = 3.52632 3.80988 3.67084
# Velocity P-wave (km/s) = 5.72297 6.04748 5.88746
#
# Compressibility (1/GPa) = 0.03067867
#
# Stress axis : x y z
#
# Youngs Moduli (GPa) = 94.69286 59.41611 86.53173
#
# Poissons Ratio (x) = 0.12472 0.14692
# Poissons Ratio (y) = 0.19877 0.02920
# Poissons Ratio (z) = 0.16078 0.02005
#
# Static dielectric constant tensor:
#      x y z
#    x 3.565700 0.000000 0.000000 
#    y 0.000000 3.780370 0.000000 
#    z 0.000000 0.000000 3.290920 
# 
# 
# High freq. dielectric constant tensor:
#      x y z
#    x 1.793120 0.000000 0.000000 
#    y 0.000000 1.792530 0.000000 
#    z 0.000000 0.000000 1.749160 
# 
# From -- ./inp_files/3216.got.cif
#   From: 2010.03.12/outbox.cif.g09.slc.cpg/sg45_2_cif.got.tgz:3216.got - 2010.04.14 02:50:11.
