data_PCOD8190408
_publ_section_title
;
Structure prediction by ZEFSAII (Michael W. Deem and Ramdas Pophale) SiO2 
 PCOD8190408
Probable space group: I B A 2
;
_chemical_formula_sum "Si O2"
_cell_formula_units_Z 60
_cell_length_a 11.121038
_cell_length_b 14.950701
_cell_length_c 17.552072
_cell_angle_alpha 90.000000
_cell_angle_beta 90.000000
_cell_angle_gamma 90.000000
_cell_volume 2918.335866
_symmetry_space_group_name_H-M "I B A 2"
_symmetry_group_IT_number 45
_symmetry_cell_setting 'orthorhombic'
loop_
_space_group_symop_operation_xyz
x,y,z
-x,-y,z
-x,y,1/2+z
x,-y,1/2+z
1/2+x,1/2+y,1/2+z
1/2-x,1/2-y,1/2+z
1/2-x,1/2+y,z
1/2+x,1/2-y,z
loop_
_atom_site_type_symbol
_atom_site_label
_atom_site_fract_x
_atom_site_fract_y
_atom_site_fract_z
Si Si1 0.827510 0.603183 0.817710
Si Si2 0.215878 0.617386 0.685843
Si Si3 0.500000 0.000000 0.710177
Si Si4 0.536363 0.593392 0.118043
Si Si5 0.627996 0.295784 0.223725
Si Si6 0.532798 0.599038 0.443289
Si Si7 0.775998 0.585333 0.364256
Si Si8 0.520573 0.221053 0.368125
O O1 0.934496 0.572626 0.762460
O O2 0.714106 0.633878 0.766866
O O3 0.793702 0.521572 0.874211
O O4 0.882380 0.683917 0.869688
O O5 0.319939 0.596110 0.625457
O O6 0.200549 0.723492 0.674101
O O7 0.252291 0.599861 0.774308
O O8 0.099920 0.555873 0.662057
O O9 0.500000 0.500000 0.154244
O O10 0.470046 0.665020 0.168237
O O11 0.488527 0.601080 0.032624
O O12 0.549486 0.238367 0.281022
O O13 0.500000 0.500000 0.409917
O O14 0.668919 0.617391 0.418461
O O15 0.458358 0.684457 0.411493
O O16 0.888921 0.642670 0.395969
#
# Coordination Sequence:
#
# PCOD8190408 Si02
#       8
#     8   8   4   8   8   8   8   8
#     4  11  18  35  63  98 128 155 195 266 315 375
#     4  10  21  37  64  96 127 156 211 261 317 378
#     4  10  18  36  60  98 128 160 192 262 322 368
#     4  11  24  42  56  86 125 169 212 259 309 379
#     4  11  21  34  65  95 125 156 208 263 318 369
#     4  11  25  40  57  83 124 168 213 253 309 371
#     4  10  20  37  62  95 123 158 202 256 319 377
#     4  11  20  38  62  95 122 159 205 259 316 378
#
# _framework density 20.559661999999999
#
# number of rings (size 3 to 8) (size 9 to 14) (size 15 to 20)
#    0.000    1.333    4.000    5.600    0.000    2.133 
#    0.000    1.333    0.000    0.000    0.000    0.000 
#    0.000    0.000    0.000    0.000    0.000    0.000 
#
# Total GULP energy -371729.172214 kJ/mol
# GULP energy per Si atom -12390.972407 kJ/mol
# Density = 2.051287 g / cm^3
# Si number density = 20.559662 Si / 1000 Ang^3
#
#
#
# Elastic Constant Matrix: (Units=GPa)
#
#
# Indices 1 2 3 4 5 6 
#
# 1 121.9535 44.8394 41.1944 0.0000 0.0000 0.0000
# 2 44.8394 142.2977 15.1353 0.0000 0.0000 0.0000
# 3 41.1944 15.1353 35.0038 0.0000 0.0000 0.0000
# 4 0.0000 0.0000 0.0000 3.4875 0.0000 0.0000
# 5 0.0000 0.0000 0.0000 0.0000 37.9542 0.0000
# 6 0.0000 0.0000 0.0000 0.0000 0.0000 37.5599
#
#
#
# Elastic Compliance Matrix: (Units=1/GPa)
#
#
# Indices 1 2 3 4 5 6 
#
# 1 0.014686 -0.002924 -0.016019 0.000000 0.000000 0.000000
# 2 -0.002924 0.007948 0.000004 0.000000 0.000000 0.000000
# 3 -0.016019 0.000004 0.047418 0.000000 0.000000 0.000000
# 4 0.000000 0.000000 0.000000 0.286739 0.000000 0.000000
# 5 0.000000 0.000000 0.000000 0.000000 0.026348 0.000000
# 6 0.000000 0.000000 0.000000 0.000000 0.000000 0.026624
#
#
# Mechanical properties :
#
#
# Convention : Reuss Voigt Hill
#
# Bulk Modulus (GPa) = 31.07958 55.73261 43.40610
# Shear Modulus (GPa) = 10.90833 29.00603 19.95718
#
# Velocity S-wave (km/s) = 2.30591 3.76017 3.11898
# Velocity P-wave (km/s) = 4.71585 6.78369 5.84199
#
# Compressibility (1/GPa) = 0.03217546
#
# Stress axis : x y z
#
# Youngs Moduli (GPa) = 68.09275 125.81125 21.08886
#
# Poissons Ratio (x) = 0.36785 0.33782
# Poissons Ratio (y) = 0.19909 -0.00009
# Poissons Ratio (z) = 1.09077 -0.00052
#
# Static dielectric constant tensor:
#      x y z
#    x 3.770200 0.000000 0.000000 
#    y 0.000000 4.395880 0.000000 
#    z 0.000000 0.000000 3.172880 
# 
# 
# High freq. dielectric constant tensor:
#      x y z
#    x 1.813890 0.000000 0.000000 
#    y 0.000000 1.836430 0.000000 
#    z 0.000000 0.000000 1.744430 
# 
# From -- ./inp_files/7971.got.cif
#   From: 2010.03.12/outbox.cif.g09.slc.cpg/sg45_4_cif.got.tgz:7971.got - 2010.04.14 02:50:11.
