data_PCOD8190360
_publ_section_title
;
Structure prediction by ZEFSAII (Michael W. Deem and Ramdas Pophale) SiO2 
 PCOD8190360
Probable space group: I B A 2
;
_chemical_formula_sum "Si O2"
_cell_formula_units_Z 48
_cell_length_a 15.098402
_cell_length_b 5.260563
_cell_length_c 28.236921
_cell_angle_alpha 90.000000
_cell_angle_beta 90.000000
_cell_angle_gamma 90.000000
_cell_volume 2242.748368
_symmetry_space_group_name_H-M "I B A 2"
_symmetry_group_IT_number 45
_symmetry_cell_setting 'orthorhombic'
loop_
_space_group_symop_operation_xyz
x,y,z
-x,-y,z
-x,y,1/2+z
x,-y,1/2+z
1/2+x,1/2+y,1/2+z
1/2-x,1/2-y,1/2+z
1/2-x,1/2+y,z
1/2+x,1/2-y,z
loop_
_atom_site_type_symbol
_atom_site_label
_atom_site_fract_x
_atom_site_fract_y
_atom_site_fract_z
Si Si1 0.893857 0.501121 0.251110
Si Si2 0.194809 0.960328 0.998843
Si Si3 0.653407 0.018890 0.357039
Si Si4 0.693813 0.540021 0.601141
Si Si5 0.353025 0.480830 0.397027
Si Si6 0.603328 0.500873 0.197837
O O1 0.842585 0.501630 0.300655
O O2 0.858993 0.747325 0.222569
O O3 0.000000 0.500000 0.258463
O O4 0.859043 0.254646 0.222600
O O5 0.273225 0.168761 0.995842
O O6 0.132279 0.007154 0.953647
O O7 0.146408 0.004494 0.049593
O O8 0.600739 0.774484 0.377471
O O9 0.750223 0.029964 0.380906
O O10 0.601382 0.274208 0.372747
O O11 0.770207 0.327141 0.605474
O O12 0.623356 0.495432 0.642226
O O13 0.500000 0.500000 0.204524
#
# Coordination Sequence:
#
# PCOD8190360 Si02
#       6
#     8   8   8   8   8   8
#     4  10  21  37  55  72 101 147 184 214 256 314
#     4  10  16  30  51  74 103 134 168 201 268 325
#     4  10  18  30  48  74 100 129 177 203 251 305
#     4  10  21  35  55  85 107 136 175 231 270 307
#     4  10  17  30  48  77 101 134 158 210 263 310
#     4  10  21  40  57  74 107 150 180 213 272 329
#
# _framework density 21.402311000000001
#
# number of rings (size 3 to 8) (size 9 to 14) (size 15 to 20)
#    0.000    2.000    3.333    2.000    0.000    0.000 
#   18.000    0.000    0.000    2.000    0.000    0.000 
#    0.000    0.000    0.000    0.000    0.000    0.000 
#
# Total GULP energy -297403.188366 kJ/mol
# GULP energy per Si atom -12391.799515 kJ/mol
# Density = 2.135360 g / cm^3
# Si number density = 21.402311 Si / 1000 Ang^3
#
#
#
# Elastic Constant Matrix: (Units=GPa)
#
#
# Indices 1 2 3 4 5 6 
#
# 1 8.1726 -2.2908 1.5430 0.0000 0.0000 0.0000
# 2 -2.2908 184.3967 51.4379 0.0000 0.0000 0.0000
# 3 1.5430 51.4379 190.1857 0.0000 0.0000 0.0000
# 4 0.0000 0.0000 0.0000 40.8025 0.0000 0.0000
# 5 0.0000 0.0000 0.0000 0.0000 2.8495 0.0000
# 6 0.0000 0.0000 0.0000 0.0000 0.0000 0.7101
#
#
#
# Elastic Compliance Matrix: (Units=1/GPa)
#
#
# Indices 1 2 3 4 5 6 
#
# 1 0.123197 0.001957 -0.001529 0.000000 0.000000 0.000000
# 2 0.001957 0.005897 -0.001611 0.000000 0.000000 0.000000
# 3 -0.001529 -0.001611 0.005706 0.000000 0.000000 0.000000
# 4 0.000000 0.000000 0.000000 0.024508 0.000000 0.000000
# 5 0.000000 0.000000 0.000000 0.000000 0.350940 0.000000
# 6 0.000000 0.000000 0.000000 0.000000 0.000000 1.408202
#
#
# Mechanical properties :
#
#
# Convention : Reuss Voigt Hill
#
# Bulk Modulus (GPa) = 7.55091 53.79279 30.67185
# Shear Modulus (GPa) = 2.54458 31.01009 16.77733
#
# Velocity S-wave (km/s) = 1.09156 3.81059 2.80286
# Velocity P-wave (km/s) = 2.26372 6.67454 4.98367
#
# Compressibility (1/GPa) = 0.13243441
#
# Stress axis : x y z
#
# Youngs Moduli (GPa) = 8.11710 169.58596 175.25235
#
# Poissons Ratio (x) = -0.33187 0.26793
# Poissons Ratio (y) = -0.01588 0.28228
# Poissons Ratio (z) = 0.01241 0.27315
#
# Static dielectric constant tensor:
#      x y z
#    x 2.996120 0.000000 0.000000 
#    y 0.000000 5.896530 0.000000 
#    z 0.000000 0.000000 4.173780 
# 
# 
# High freq. dielectric constant tensor:
#      x y z
#    x 1.758290 0.000000 0.000000 
#    y 0.000000 1.879570 0.000000 
#    z 0.000000 0.000000 1.861510 
# 
# From -- ./inp_files/9284.got.cif
#   From: 2010.03.12/outbox.cif.g09.slc.cpg/sg45_5_cif.got.tgz:9284.got - 2010.04.14 02:50:11.
