data_PCOD8190588
_publ_section_title
;
Structure prediction by ZEFSAII (Michael W. Deem and Ramdas Pophale) SiO2 
 PCOD8190588
Probable space group: I B A 2
;
_chemical_formula_sum "Si O2"
_cell_formula_units_Z 44
_cell_length_a 17.323317
_cell_length_b 9.052177
_cell_length_c 14.024854
_cell_angle_alpha 90.000000
_cell_angle_beta 90.000000
_cell_angle_gamma 90.000000
_cell_volume 2199.289692
_symmetry_space_group_name_H-M "I B A 2"
_symmetry_group_IT_number 45
_symmetry_cell_setting 'orthorhombic'
loop_
_space_group_symop_operation_xyz
x,y,z
-x,-y,z
-x,y,1/2+z
x,-y,1/2+z
1/2+x,1/2+y,1/2+z
1/2-x,1/2-y,1/2+z
1/2-x,1/2+y,z
1/2+x,1/2-y,z
loop_
_atom_site_type_symbol
_atom_site_label
_atom_site_fract_x
_atom_site_fract_y
_atom_site_fract_z
Si Si1 0.500000 0.500000 0.736011
Si Si2 0.966462 0.719628 0.855971
Si Si3 0.736255 0.435913 0.365118
Si Si4 0.108982 0.434395 0.305490
Si Si5 0.857478 0.826663 0.183541
Si Si6 0.670923 0.306662 0.970913
O O1 0.535093 0.373472 0.802089
O O2 0.430909 0.435516 0.671650
O O3 0.926974 0.596307 0.786580
O O4 0.914315 0.737307 0.950960
O O5 0.053469 0.661251 0.878315
O O6 0.806745 0.548680 0.349343
O O7 0.700663 0.384095 0.264831
O O8 0.673927 0.530046 0.424578
O O9 0.762704 0.295928 0.426499
O O10 0.113585 0.338919 0.208512
O O11 0.813620 0.819716 0.083351
#
# Coordination Sequence:
#
# PCOD8190588 Si02
#       6
#     4   8   8   8   8   8
#     4  10  20  40  64  92 124 178 206 282 312 374
#     4   9  19  40  65  87 125 166 214 259 331 368
#     4  11  22  42  61  94 132 167 207 277 323 386
#     4   9  20  40  63  86 126 171 200 269 321 377
#     4  11  23  40  64  94 130 170 223 262 329 394
#     4  11  24  39  65  95 124 173 215 262 330 391
#
# _framework density 20.006460000000001
#
# number of rings (size 3 to 8) (size 9 to 14) (size 15 to 20)
#    0.000    1.818    3.636    0.000    2.545    0.727 
#    0.000   14.545    0.000    0.000    0.000    0.000 
#    0.000    0.000    0.000    0.000    0.000    0.000 
#
# Total GULP energy -272665.171760 kJ/mol
# GULP energy per Si atom -12393.871444 kJ/mol
# Density = 1.996092 g / cm^3
# Si number density = 20.006460 Si / 1000 Ang^3
#
#
#
# Elastic Constant Matrix: (Units=GPa)
#
#
# Indices 1 2 3 4 5 6 
#
# 1 100.0982 37.0826 55.3530 0.0000 0.0000 0.0000
# 2 37.0826 130.4694 58.9775 0.0000 0.0000 0.0000
# 3 55.3530 58.9775 144.0102 0.0000 0.0000 0.0000
# 4 0.0000 0.0000 0.0000 19.8393 0.0000 0.0000
# 5 0.0000 0.0000 0.0000 0.0000 24.2330 0.0000
# 6 0.0000 0.0000 0.0000 0.0000 0.0000 25.4866
#
#
#
# Elastic Compliance Matrix: (Units=1/GPa)
#
#
# Indices 1 2 3 4 5 6 
#
# 1 0.013009 -0.001764 -0.004278 0.000000 0.000000 0.000000
# 2 -0.001764 0.009645 -0.003272 0.000000 0.000000 0.000000
# 3 -0.004278 -0.003272 0.009928 0.000000 0.000000 0.000000
# 4 0.000000 0.000000 0.000000 0.050405 0.000000 0.000000
# 5 0.000000 0.000000 0.000000 0.000000 0.041266 0.000000
# 6 0.000000 0.000000 0.000000 0.000000 0.000000 0.039236
#
#
# Mechanical properties :
#
#
# Convention : Reuss Voigt Hill
#
# Bulk Modulus (GPa) = 71.65907 75.26712 73.46309
# Shear Modulus (GPa) = 26.77097 28.78942 27.78020
#
# Velocity S-wave (km/s) = 3.66200 3.79754 3.73038
# Velocity P-wave (km/s) = 7.33321 7.54530 7.44001
#
# Compressibility (1/GPa) = 0.01395497
#
# Stress axis : x y z
#
# Youngs Moduli (GPa) = 76.86824 103.68029 100.72180
#
# Poissons Ratio (x) = 0.18286 0.43089
# Poissons Ratio (y) = 0.13557 0.32957
# Poissons Ratio (z) = 0.32885 0.33925
#
# Static dielectric constant tensor:
#      x y z
#    x 3.842040 0.000000 0.000000 
#    y 0.000000 3.923440 0.000000 
#    z 0.000000 0.000000 3.113480 
# 
# 
# High freq. dielectric constant tensor:
#      x y z
#    x 1.793870 0.000000 0.000000 
#    y 0.000000 1.806960 0.000000 
#    z 0.000000 0.000000 1.728200 
# 
# From -- ./inp_files/5552.got.cif
#   From: 2010.03.12/outbox.cif.g09.slc.cpg/sg45_3_cif.got.tgz:5552.got - 2010.04.14 02:50:11.
