data_PCOD8190201
_publ_section_title
;
Structure prediction by ZEFSAII (Michael W. Deem and Ramdas Pophale) SiO2 
 PCOD8190201
Probable space group: I M M 2
;
_chemical_formula_sum "Si O2"
_cell_formula_units_Z 36
_cell_length_a 13.515291
_cell_length_b 15.424417
_cell_length_c 8.679418
_cell_angle_alpha 90.000000
_cell_angle_beta 90.000000
_cell_angle_gamma 90.000000
_cell_volume 1809.359076
_symmetry_space_group_name_H-M "I M M 2"
_symmetry_group_IT_number 44
_symmetry_cell_setting 'orthorhombic'
loop_
_space_group_symop_operation_xyz
x,y,z
-x,-y,z
-x,y,z
x,-y,z
1/2+x,1/2+y,1/2+z
1/2-x,1/2-y,1/2+z
1/2-x,1/2+y,1/2+z
1/2+x,1/2-y,1/2+z
loop_
_atom_site_type_symbol
_atom_site_label
_atom_site_fract_x
_atom_site_fract_y
_atom_site_fract_z
Si Si1 0.295750 0.000000 0.552881
Si Si2 0.282822 0.845264 0.054207
Si Si3 0.788999 0.167795 0.398796
Si Si4 0.500000 0.329420 0.007411
Si Si5 0.206133 0.000000 0.870502
Si Si6 0.500000 0.853774 0.123204
Si Si7 0.000000 0.000000 0.705256
Si Si8 0.000000 0.500000 0.879677
O O1 0.238473 0.085043 0.499422
O O2 0.290375 0.000000 0.738253
O O3 0.407068 0.000000 0.492710
O O4 0.261342 0.841018 0.234615
O O5 0.398330 0.873880 0.030732
O O6 0.250096 0.754380 0.981135
O O7 0.215037 0.916416 0.976793
O O8 0.907487 0.175319 0.391317
O O9 0.500000 0.251926 0.137370
O O10 0.500000 0.417147 0.098933
O O11 0.096084 0.000000 0.808937
O O12 0.500000 0.911301 0.279213
#
# Coordination Sequence:
#
# PCOD8190201 Si02
#       8
#     4   8   8   4   4   4   2   2
#     4  12  23  39  65  96 128 169 213 264 313 382
#     4  11  24  42  67  96 131 169 216 266 323 384
#     4  11  22  42  66  96 126 171 214 264 323 381
#     4  10  22  41  68  94 130 169 212 266 328 380
#     4  12  26  42  62  98 132 173 217 263 318 384
#     4  10  22  41  68  93 126 175 207 265 335 378
#     4  12  24  40  66  94 130 176 214 262 322 384
#     4  12  22  38  68 100 126 168 220 258 318 392
#
# _framework density 19.896549
#
# number of rings (size 3 to 8) (size 9 to 14) (size 15 to 20)
#    0.000    0.889    4.444    2.667    3.111    1.778 
#    0.000    4.444    0.000    0.000    0.000    0.000 
#    0.000    0.000    0.000    0.000    0.000    0.000 
#
# Total GULP energy -223150.641748 kJ/mol
# GULP energy per Si atom -12397.257875 kJ/mol
# Density = 1.985126 g / cm^3
# Si number density = 19.896549 Si / 1000 Ang^3
#
#
#
# Elastic Constant Matrix: (Units=GPa)
#
#
# Indices 1 2 3 4 5 6 
#
# 1 107.4987 26.7212 15.2965 0.0000 0.0000 0.0000
# 2 26.7212 140.5753 36.1724 0.0000 0.0000 0.0000
# 3 15.2965 36.1724 90.7406 0.0000 0.0000 0.0000
# 4 0.0000 0.0000 0.0000 38.0724 0.0000 0.0000
# 5 0.0000 0.0000 0.0000 0.0000 143.9565 0.0000
# 6 0.0000 0.0000 0.0000 0.0000 0.0000 32.8198
#
#
#
# Elastic Compliance Matrix: (Units=1/GPa)
#
#
# Indices 1 2 3 4 5 6 
#
# 1 0.009847 -0.001610 -0.001018 0.000000 0.000000 0.000000
# 2 -0.001610 0.008190 -0.002993 0.000000 0.000000 0.000000
# 3 -0.001018 -0.002993 0.012385 0.000000 0.000000 0.000000
# 4 0.000000 0.000000 0.000000 0.026266 0.000000 0.000000
# 5 0.000000 0.000000 0.000000 0.000000 0.006947 0.000000
# 6 0.000000 0.000000 0.000000 0.000000 0.000000 0.030469
#
#
# Mechanical properties :
#
#
# Convention : Reuss Voigt Hill
#
# Bulk Modulus (GPa) = 52.13850 55.02164 53.58007
# Shear Modulus (GPa) = 44.74645 60.34471 52.54558
#
# Velocity S-wave (km/s) = 4.74746 5.51317 5.14458
# Velocity P-wave (km/s) = 7.50419 8.26079 7.89156
#
# Compressibility (1/GPa) = 0.01917968
#
# Stress axis : x y z
#
# Youngs Moduli (GPa) = 101.54863 122.10184 80.74055
#
# Poissons Ratio (x) = 0.19656 0.08222
# Poissons Ratio (y) = 0.16348 0.24169
# Poissons Ratio (z) = 0.10341 0.36550
#
# Static dielectric constant tensor:
#      x y z
#    x 3.356910 0.000000 0.000000 
#    y 0.000000 3.929510 0.000000 
#    z 0.000000 0.000000 3.433220 
# 
# 
# High freq. dielectric constant tensor:
#      x y z
#    x 1.789110 0.000000 0.000000 
#    y 0.000000 1.801910 0.000000 
#    z 0.000000 0.000000 1.758200 
# 
# From -- ./inp_files/6790.got.cif
#   From: 2010.03.12/outbox.cif.g09.slc.cpg/sg44_4_cif.got.tgz:6790.got - 2010.04.14 02:36:11.
