data_PCOD8190870
_publ_section_title
;
Structure prediction by ZEFSAII (Michael W. Deem and Ramdas Pophale) SiO2 
 PCOD8190870
Probable space group: I B A 2
;
_chemical_formula_sum "Si O2"
_cell_formula_units_Z 64
_cell_length_a 16.930178
_cell_length_b 13.917656
_cell_length_c 12.931754
_cell_angle_alpha 90.000000
_cell_angle_beta 90.000000
_cell_angle_gamma 90.000000
_cell_volume 3047.088419
_symmetry_space_group_name_H-M "I B A 2"
_symmetry_group_IT_number 45
_symmetry_cell_setting 'orthorhombic'
loop_
_space_group_symop_operation_xyz
x,y,z
-x,-y,z
-x,y,1/2+z
x,-y,1/2+z
1/2+x,1/2+y,1/2+z
1/2-x,1/2-y,1/2+z
1/2-x,1/2+y,z
1/2+x,1/2-y,z
loop_
_atom_site_type_symbol
_atom_site_label
_atom_site_fract_x
_atom_site_fract_y
_atom_site_fract_z
Si Si1 0.852065 0.828131 0.329200
Si Si2 0.561293 0.278090 0.536571
Si Si3 0.253127 0.342189 0.362659
Si Si4 0.769566 0.519341 0.756154
Si Si5 0.416558 0.737273 0.903697
Si Si6 0.993703 0.885489 0.731251
Si Si7 0.918003 0.542759 0.885689
Si Si8 0.155344 0.418409 0.545542
O O1 0.890389 0.830173 0.444366
O O2 0.812243 0.725749 0.310866
O O3 0.782792 0.905254 0.319216
O O4 0.917108 0.844023 0.239531
O O5 0.469272 0.263305 0.507031
O O6 0.556604 0.349808 0.633119
O O7 0.601536 0.176223 0.568314
O O8 0.276497 0.416908 0.269986
O O9 0.324242 0.283441 0.415629
O O10 0.218764 0.399399 0.458325
O O11 0.853085 0.500302 0.809831
O O12 0.789218 0.550751 0.640454
O O13 0.447743 0.653739 0.829756
O O14 0.423778 0.844745 0.862404
O O15 0.000000 0.000000 0.732080
O O16 0.000000 0.500000 0.847955
O O17 0.899292 0.507139 0.003994
#
# Coordination Sequence:
#
# PCOD8190870 Si02
#       8
#     8   8   8   8   8   8   8   8
#     4  10  23  45  63  94 134 167 223 276 337 399
#     4  10  23  42  68  94 135 177 226 289 333 416
#     4  10  23  43  65  95 133 174 219 277 342 405
#     4  11  23  42  67  94 134 178 215 284 340 413
#     4  11  22  44  68  94 136 177 222 281 343 409
#     4  11  25  42  66  97 130 179 229 273 336 410
#     4  11  22  42  67  97 133 175 221 277 349 408
#     4  10  23  43  63 102 133 168 233 281 348 418
#
# _framework density 21.003657
#
# number of rings (size 3 to 8) (size 9 to 14) (size 15 to 20)
#    0.000    1.500    2.500    1.500    3.500    4.500 
#    6.750    0.000    0.000    0.000    0.000    0.000 
#    0.000    0.000    0.000    0.000    0.000    0.000 
#
# Total GULP energy -396511.580059 kJ/mol
# GULP energy per Si atom -12390.986877 kJ/mol
# Density = 2.095585 g / cm^3
# Si number density = 21.003657 Si / 1000 Ang^3
#
#
#
# Elastic Constant Matrix: (Units=GPa)
#
#
# Indices 1 2 3 4 5 6 
#
# 1 96.0683 29.0727 27.7005 0.0000 0.0000 0.0000
# 2 29.0727 132.2670 53.3244 0.0000 0.0000 0.0000
# 3 27.7005 53.3244 68.8040 0.0000 0.0000 0.0000
# 4 0.0000 0.0000 0.0000 28.2430 0.0000 0.0000
# 5 0.0000 0.0000 0.0000 0.0000 25.7171 0.0000
# 6 0.0000 0.0000 0.0000 0.0000 0.0000 37.6486
#
#
#
# Elastic Compliance Matrix: (Units=1/GPa)
#
#
# Indices 1 2 3 4 5 6 
#
# 1 0.011865 -0.000992 -0.004008 0.000000 0.000000 0.000000
# 2 -0.000992 0.011079 -0.008187 0.000000 0.000000 0.000000
# 3 -0.004008 -0.008187 0.022493 0.000000 0.000000 0.000000
# 4 0.000000 0.000000 0.000000 0.035407 0.000000 0.000000
# 5 0.000000 0.000000 0.000000 0.000000 0.038885 0.000000
# 6 0.000000 0.000000 0.000000 0.000000 0.000000 0.026561
#
#
# Mechanical properties :
#
#
# Convention : Reuss Voigt Hill
#
# Bulk Modulus (GPa) = 52.45855 57.48160 54.97008
# Shear Modulus (GPa) = 27.92996 30.79120 29.36058
#
# Velocity S-wave (km/s) = 3.65055 3.83298 3.74288
# Velocity P-wave (km/s) = 6.54208 6.85681 6.70129
#
# Compressibility (1/GPa) = 0.01906267
#
# Stress axis : x y z
#
# Youngs Moduli (GPa) = 84.28020 90.25850 44.45845
#
# Poissons Ratio (x) = 0.08955 0.17819
# Poissons Ratio (y) = 0.08362 0.36399
# Poissons Ratio (z) = 0.33779 0.73897
#
# Static dielectric constant tensor:
#      x y z
#    x 4.368710 0.000000 0.000000 
#    y 0.000000 4.165230 0.000000 
#    z 0.000000 0.000000 3.701670 
# 
# 
# High freq. dielectric constant tensor:
#      x y z
#    x 1.841200 0.000000 0.000000 
#    y 0.000000 1.834480 0.000000 
#    z 0.000000 0.000000 1.799220 
# 
# From -- ./inp_files/4274.got.cif
#   From: 2010.03.12/outbox.cif.g09.slc.cpg/sg45_3_cif.got.tgz:4274.got - 2010.04.14 02:50:11.
