data_PCOD8190393
_publ_section_title
;
Structure prediction by ZEFSAII (Michael W. Deem and Ramdas Pophale) SiO2 
 PCOD8190393
Probable space group: I B A 2
;
_chemical_formula_sum "Si O2"
_cell_formula_units_Z 52
_cell_length_a 8.237103
_cell_length_b 19.515087
_cell_length_c 16.290173
_cell_angle_alpha 90.000000
_cell_angle_beta 90.000000
_cell_angle_gamma 90.000000
_cell_volume 2618.609173
_symmetry_space_group_name_H-M "I B A 2"
_symmetry_group_IT_number 45
_symmetry_cell_setting 'orthorhombic'
loop_
_space_group_symop_operation_xyz
x,y,z
-x,-y,z
-x,y,1/2+z
x,-y,1/2+z
1/2+x,1/2+y,1/2+z
1/2-x,1/2-y,1/2+z
1/2-x,1/2+y,z
1/2+x,1/2-y,z
loop_
_atom_site_type_symbol
_atom_site_label
_atom_site_fract_x
_atom_site_fract_y
_atom_site_fract_z
Si Si1 0.000000 0.000000 0.586810
Si Si2 0.271821 0.599289 0.996987
Si Si3 0.412600 0.133484 0.525421
Si Si4 0.012418 0.219143 0.052732
Si Si5 0.693440 0.300624 0.395908
Si Si6 0.364448 0.664434 0.834916
Si Si7 0.174224 0.120789 0.657294
O O1 0.954329 0.939968 0.649384
O O2 0.142927 0.970460 0.528017
O O3 0.337559 0.666808 0.043398
O O4 0.078806 0.593612 0.009065
O O5 0.309606 0.608462 0.901146
O O6 0.426758 0.205821 0.573451
O O7 0.312219 0.142891 0.439281
O O8 0.317174 0.092932 0.597008
O O9 0.894797 0.192519 0.123241
O O10 0.919528 0.230210 0.966869
O O11 0.563499 0.333414 0.331261
O O12 0.795786 0.240605 0.353174
O O13 0.284645 0.635479 0.751554
#
# Coordination Sequence:
#
# PCOD8190393 Si02
#       7
#     4   8   8   8   8   8   8
#     4  10  24  46  54  80 110 174 212 240 282 368
#     4  10  19  37  66  78 117 159 203 241 291 354
#     4  11  18  37  62  90 114 155 196 245 293 383
#     4   9  17  35  55  87 117 154 180 238 296 373
#     4  10  18  32  57  86 129 143 190 225 309 376
#     4  11  20  36  55  94 119 156 179 258 300 353
#     4  10  24  35  58  83 124 152 205 240 306 339
#
# _framework density 19.857870999999999
#
# number of rings (size 3 to 8) (size 9 to 14) (size 15 to 20)
#    0.000    1.846    4.615    1.846    2.154    1.231 
#    0.000    0.000    0.000    1.846    0.000    0.000 
#    0.000    0.000    0.000    0.000    0.000    0.000 
#
# Total GULP energy -322145.483795 kJ/mol
# GULP energy per Si atom -12390.210915 kJ/mol
# Density = 1.981267 g / cm^3
# Si number density = 19.857871 Si / 1000 Ang^3
#
#
#
# Elastic Constant Matrix: (Units=GPa)
#
#
# Indices 1 2 3 4 5 6 
#
# 1 126.2355 18.1312 37.4158 0.0000 0.0000 0.0000
# 2 18.1312 52.4212 26.3826 0.0000 0.0000 0.0000
# 3 37.4158 26.3826 108.3920 0.0001 0.0000 0.0000
# 4 0.0000 0.0000 0.0001 16.6674 0.0000 0.0000
# 5 0.0000 0.0000 0.0000 0.0000 18.1854 0.0000
# 6 0.0000 0.0000 0.0000 0.0000 0.0000 21.7485
#
#
#
# Elastic Compliance Matrix: (Units=1/GPa)
#
#
# Indices 1 2 3 4 5 6 
#
# 1 0.008965 -0.001759 -0.002666 0.000000 0.000000 0.000000
# 2 -0.001759 0.022084 -0.004768 0.000000 0.000000 0.000000
# 3 -0.002666 -0.004768 0.011307 0.000000 0.000000 0.000000
# 4 0.000000 0.000000 0.000000 0.059997 0.000000 0.000000
# 5 0.000000 0.000000 0.000000 0.000000 0.054989 0.000000
# 6 0.000000 0.000000 0.000000 0.000000 0.000000 0.045980
#
#
# Mechanical properties :
#
#
# Convention : Reuss Voigt Hill
#
# Bulk Modulus (GPa) = 41.72055 50.10089 45.91072
# Shear Modulus (GPa) = 21.76764 24.99487 23.38125
#
# Velocity S-wave (km/s) = 3.31444 3.55165 3.43509
# Velocity P-wave (km/s) = 5.97516 6.48872 6.23723
#
# Compressibility (1/GPa) = 0.02396901
#
# Stress axis : x y z
#
# Youngs Moduli (GPa) = 111.54957 45.28101 88.44248
#
# Poissons Ratio (x) = 0.07964 0.23583
# Poissons Ratio (y) = 0.19618 0.42172
# Poissons Ratio (z) = 0.29744 0.21591
#
# Static dielectric constant tensor:
#      x y z
#    x 3.897670 0.000000 0.000000 
#    y 0.000000 3.323850 0.000000 
#    z 0.000000 0.000000 3.419240 
# 
# 
# High freq. dielectric constant tensor:
#      x y z
#    x 1.786580 0.000000 0.000000 
#    y 0.000000 1.748770 0.000000 
#    z 0.000000 0.000000 1.747110 
# 
# From -- ./inp_files/5710.got.cif
#   From: 2010.03.12/outbox.cif.g09.slc.cpg/sg45_3_cif.got.tgz:5710.got - 2010.04.14 02:50:11.
