data_PCOD8190537
_publ_section_title
;
Structure prediction by ZEFSAII (Michael W. Deem and Ramdas Pophale) SiO2 
 PCOD8190537
Probable space group: I B A 2
;
_chemical_formula_sum "Si O2"
_cell_formula_units_Z 56
_cell_length_a 14.113712
_cell_length_b 22.029702
_cell_length_c 8.943953
_cell_angle_alpha 90.000000
_cell_angle_beta 90.000000
_cell_angle_gamma 90.000000
_cell_volume 2780.861643
_symmetry_space_group_name_H-M "I B A 2"
_symmetry_group_IT_number 45
_symmetry_cell_setting 'orthorhombic'
loop_
_space_group_symop_operation_xyz
x,y,z
-x,-y,z
-x,y,1/2+z
x,-y,1/2+z
1/2+x,1/2+y,1/2+z
1/2-x,1/2-y,1/2+z
1/2-x,1/2+y,z
1/2+x,1/2-y,z
loop_
_atom_site_type_symbol
_atom_site_label
_atom_site_fract_x
_atom_site_fract_y
_atom_site_fract_z
Si Si1 0.222197 0.009412 0.975180
Si Si2 0.878440 0.926995 0.713673
Si Si3 0.663700 0.796915 0.356783
Si Si4 0.273502 0.083100 0.236966
Si Si5 0.066129 0.866738 0.683895
Si Si6 0.001149 0.215122 0.441774
Si Si7 0.313563 0.703524 0.614830
O O1 0.153507 0.051778 0.877558
O O2 0.284591 0.965569 0.870958
O O3 0.293205 0.051276 0.076216
O O4 0.154941 0.973606 0.088110
O O5 0.833250 0.861785 0.683418
O O6 0.992351 0.922302 0.703686
O O7 0.654882 0.861696 0.270980
O O8 0.559967 0.775366 0.409302
O O9 0.714994 0.748848 0.247784
O O10 0.727619 0.803764 0.502264
O O11 0.166726 0.108622 0.234943
O O12 0.037273 0.809951 0.785321
O O13 0.063289 0.838305 0.516950
O O14 0.092047 0.231852 0.540982
#
# Coordination Sequence:
#
# PCOD8190537 Si02
#       7
#     8   8   8   8   8   8   8
#     4  10  22  36  55  82 127 159 214 244 290 367
#     4  10  20  37  53  84 122 170 197 248 297 357
#     4  12  23  39  65  89 124 166 204 253 323 369
#     4  11  22  37  57  87 118 163 204 248 303 367
#     4  11  20  36  57  82 132 158 199 252 293 374
#     4  11  21  38  55  90 128 161 195 258 305 364
#     4  11  24  39  60  93 123 161 209 255 313 374
#
# _framework density 20.137643000000001
#
# number of rings (size 3 to 8) (size 9 to 14) (size 15 to 20)
#    0.000    1.143    5.714    2.571    2.000    3.429 
#    0.000    0.000    0.000    0.000    0.000    3.000 
#    0.000    0.000    0.000    0.000    0.000    0.000 
#
# Total GULP energy -347216.990632 kJ/mol
# GULP energy per Si atom -12400.606808 kJ/mol
# Density = 2.009181 g / cm^3
# Si number density = 20.137643 Si / 1000 Ang^3
#
#
#
# Elastic Constant Matrix: (Units=GPa)
#
#
# Indices 1 2 3 4 5 6 
#
# 1 20.7685 34.8414 13.3186 0.0000 0.0000 -0.0001
# 2 34.8414 122.1340 46.0135 0.0001 0.0000 -0.0001
# 3 13.3186 46.0135 90.7542 0.0006 0.0000 -0.0004
# 4 0.0000 0.0001 0.0006 35.2549 0.0000 -0.0001
# 5 0.0000 0.0000 0.0000 0.0000 17.8617 0.0000
# 6 -0.0001 -0.0001 -0.0004 -0.0001 0.0000 31.3565
#
#
#
# Elastic Compliance Matrix: (Units=1/GPa)
#
#
# Indices 1 2 3 4 5 6 
#
# 1 0.092347 -0.026253 -0.000242 0.000000 0.000000 0.000000
# 2 -0.026253 0.017584 -0.005063 0.000000 0.000000 0.000000
# 3 -0.000242 -0.005063 0.013621 0.000000 0.000000 0.000000
# 4 0.000000 0.000000 0.000000 0.028365 0.000000 0.000000
# 5 0.000000 0.000000 0.000000 0.000000 0.055986 0.000000
# 6 0.000000 0.000000 0.000000 0.000000 0.000000 0.031891
#
#
# Mechanical properties :
#
#
# Convention : Reuss Voigt Hill
#
# Bulk Modulus (GPa) = 16.54600 46.88931 31.71765
# Shear Modulus (GPa) = 15.47724 26.19352 20.83538
#
# Velocity S-wave (km/s) = 2.77532 3.61047 3.22008
# Velocity P-wave (km/s) = 4.30165 6.38088 5.44150
#
# Compressibility (1/GPa) = 0.06043757
#
# Stress axis : x y z
#
# Youngs Moduli (GPa) = 10.82872 56.86884 73.41535
#
# Poissons Ratio (x) = 1.49297 0.01775
# Poissons Ratio (y) = 0.28429 0.37168
# Poissons Ratio (z) = 0.00262 0.28791
#
# Static dielectric constant tensor:
#      x y z
#    x 3.426590 0.000000 0.000000 
#    y 0.000000 3.947570 0.000000 
#    z 0.000000 0.000000 4.077320 
# 
# 
# High freq. dielectric constant tensor:
#      x y z
#    x 1.732290 0.000000 0.000000 
#    y 0.000000 1.790350 0.000000 
#    z 0.000000 0.000000 1.814910 
# 
# From -- ./inp_files/1810.got.cif
#   From: 2010.03.12/outbox.cif.g09.slc.cpg/sg45_1_cif.got.tgz:1810.got - 2010.04.14 02:50:11.
