data_PCOD8190838
_publ_section_title
;
Structure prediction by ZEFSAII (Michael W. Deem and Ramdas Pophale) SiO2 
 PCOD8190838
Probable space group: I B A 2
;
_chemical_formula_sum "Si O2"
_cell_formula_units_Z 40
_cell_length_a 8.640826
_cell_length_b 13.638151
_cell_length_c 12.815787
_cell_angle_alpha 90.000000
_cell_angle_beta 90.000000
_cell_angle_gamma 90.000000
_cell_volume 1510.275006
_symmetry_space_group_name_H-M "I B A 2"
_symmetry_group_IT_number 45
_symmetry_cell_setting 'orthorhombic'
loop_
_space_group_symop_operation_xyz
x,y,z
-x,-y,z
-x,y,1/2+z
x,-y,1/2+z
1/2+x,1/2+y,1/2+z
1/2-x,1/2-y,1/2+z
1/2-x,1/2+y,z
1/2+x,1/2-y,z
loop_
_atom_site_type_symbol
_atom_site_label
_atom_site_fract_x
_atom_site_fract_y
_atom_site_fract_z
Si Si1 0.361517 0.645297 0.228790
Si Si2 0.319830 0.978327 0.139494
Si Si3 0.391751 0.216055 0.552400
Si Si4 0.164872 0.796247 0.334659
Si Si5 0.879346 0.423326 0.939791
O O1 0.303639 0.532270 0.216958
O O2 0.432680 0.689307 0.122281
O O3 0.207530 0.707878 0.257398
O O4 0.494271 0.659206 0.316231
O O5 0.500000 0.000000 0.165973
O O6 0.293249 0.860595 0.127019
O O7 0.275384 0.019377 0.023838
O O8 0.303873 0.256157 0.451437
O O9 0.543454 0.163072 0.508244
O O10 0.289816 0.885795 0.335433
O O11 0.000000 0.500000 0.890019
#
# Coordination Sequence:
#
# PCOD8190838 Si02
#       5
#     8   8   8   8   8
#     4  12  25  42  78 120 157 206 275 334 401 498
#     4   9  20  44  73 104 154 212 254 320 406 482
#     4  10  22  45  71 106 163 206 257 328 417 474
#     4  12  23  42  76 119 156 208 270 334 409 499
#     4   9  19  43  74 104 148 220 255 318 410 483
#
# _framework density 26.485244999999999
#
# number of rings (size 3 to 8) (size 9 to 14) (size 15 to 20)
#    0.000    2.000    4.000    2.400    0.000    0.000 
#    7.200    3.000    4.400    0.000    0.000    1.400 
#    0.000    0.000    0.000    0.000    0.000    0.000 
#
# Total GULP energy -247793.758612 kJ/mol
# GULP energy per Si atom -12389.687931 kJ/mol
# Density = 2.642496 g / cm^3
# Si number density = 26.485245 Si / 1000 Ang^3
#
#
#
# Elastic Constant Matrix: (Units=GPa)
#
#
# Indices 1 2 3 4 5 6 
#
# 1 111.8889 56.4154 32.2162 0.0000 0.0000 0.0000
# 2 56.4154 122.6304 34.9821 0.0000 0.0000 0.0000
# 3 32.2162 34.9821 71.0279 0.0000 0.0000 0.0000
# 4 0.0000 0.0000 0.0000 43.0617 0.0000 0.0000
# 5 0.0000 0.0000 0.0000 0.0000 21.4317 0.0000
# 6 0.0000 0.0000 0.0000 0.0000 0.0000 38.0116
#
#
#
# Elastic Compliance Matrix: (Units=1/GPa)
#
#
# Indices 1 2 3 4 5 6 
#
# 1 0.012243 -0.004710 -0.003233 0.000000 0.000000 0.000000
# 2 -0.004710 0.011300 -0.003429 0.000000 0.000000 0.000000
# 3 -0.003233 -0.003429 0.017234 0.000000 0.000000 0.000000
# 4 0.000000 0.000000 0.000000 0.023222 0.000000 0.000000
# 5 0.000000 0.000000 0.000000 0.000000 0.046660 0.000000
# 6 0.000000 0.000000 0.000000 0.000000 0.000000 0.026308
#
#
# Mechanical properties :
#
#
# Convention : Reuss Voigt Hill
#
# Bulk Modulus (GPa) = 55.45543 61.41941 58.43742
# Shear Modulus (GPa) = 30.17088 32.62991 31.40039
#
# Velocity S-wave (km/s) = 3.37880 3.51380 3.44696
# Velocity P-wave (km/s) = 6.01710 6.30101 6.16069
#
# Compressibility (1/GPa) = 0.01803250
#
# Stress axis : x y z
#
# Youngs Moduli (GPa) = 81.67732 88.49917 58.02384
#
# Poissons Ratio (x) = 0.41684 0.18762
# Poissons Ratio (y) = 0.38471 0.19895
# Poissons Ratio (z) = 0.26410 0.30345
#
# Static dielectric constant tensor:
#      x y z
#    x 4.324030 0.000000 0.000000 
#    y 0.000000 5.633950 0.000000 
#    z 0.000000 0.000000 4.721160 
# 
# 
# High freq. dielectric constant tensor:
#      x y z
#    x 2.025990 0.000000 0.000000 
#    y 0.000000 2.074250 0.000000 
#    z 0.000000 0.000000 2.071140 
# 
# From -- ./inp_files/5473.got.cif
#   From: 2010.03.12/outbox.cif.g09.slc.cpg/sg45_3_cif.got.tgz:5473.got - 2010.04.14 02:50:11.
