data_PCOD8190613
_publ_section_title
;
Structure prediction by ZEFSAII (Michael W. Deem and Ramdas Pophale) SiO2 
 PCOD8190613
Probable space group: I B A 2
;
_chemical_formula_sum "Si O2"
_cell_formula_units_Z 64
_cell_length_a 15.731379
_cell_length_b 9.451955
_cell_length_c 21.296049
_cell_angle_alpha 90.000000
_cell_angle_beta 90.000000
_cell_angle_gamma 90.000000
_cell_volume 3166.558217
_symmetry_space_group_name_H-M "I B A 2"
_symmetry_group_IT_number 45
_symmetry_cell_setting 'orthorhombic'
loop_
_space_group_symop_operation_xyz
x,y,z
-x,-y,z
-x,y,1/2+z
x,-y,1/2+z
1/2+x,1/2+y,1/2+z
1/2-x,1/2-y,1/2+z
1/2-x,1/2+y,z
1/2+x,1/2-y,z
loop_
_atom_site_type_symbol
_atom_site_label
_atom_site_fract_x
_atom_site_fract_y
_atom_site_fract_z
Si Si1 0.173686 0.667047 0.580860
Si Si2 0.673792 0.063439 0.776921
Si Si3 0.554418 0.123977 0.676972
Si Si4 0.972896 0.161753 0.761151
Si Si5 0.837036 0.343762 0.062577
Si Si6 0.510900 0.165679 0.006405
Si Si7 0.300379 0.776906 0.227896
Si Si8 0.951564 0.647421 0.867908
O O1 0.184883 0.509363 0.553140
O O2 0.250397 0.757692 0.550867
O O3 0.178829 0.675055 0.656710
O O4 0.080701 0.723090 0.557236
O O5 0.584756 0.041334 0.739713
O O6 0.717029 0.183854 0.734890
O O7 0.647087 0.114439 0.847028
O O8 0.719513 0.912264 0.772741
O O9 0.504251 0.264054 0.697080
O O10 0.631387 0.175205 0.633737
O O11 0.500000 0.000000 0.640743
O O12 0.871541 0.177715 0.759662
O O13 0.008684 0.233353 0.823729
O O14 0.000000 0.000000 0.760351
O O15 0.914167 0.279600 0.019458
O O16 0.544868 0.211105 0.937914
O O17 0.500000 0.000000 0.012170
O O18 0.000000 0.500000 0.864927
#
# Coordination Sequence:
#
# PCOD8190613 Si02
#       8
#     8   8   8   8   8   8   8   8
#     4  11  21  39  61  98 127 159 204 261 308 381
#     4  11  22  34  59  87 123 162 193 252 311 369
#     4  11  18  37  60  83 119 167 201 241 313 386
#     4  11  23  35  59  87 118 156 205 260 309 366
#     4  11  21  38  64  93 126 159 208 252 314 374
#     4   9  21  40  68  87 115 173 221 250 297 378
#     4  12  21  37  56  93 130 153 195 254 322 374
#     4  10  20  45  63  80 114 168 223 243 296 378
#
# _framework density 20.211217999999999
#
# number of rings (size 3 to 8) (size 9 to 14) (size 15 to 20)
#    0.000    1.250    5.000    2.625    3.500    1.000 
#    2.250    1.875    0.000    0.000    0.000    0.000 
#    0.000    0.000    0.000    0.000    0.000    0.000 
#
# Total GULP energy -396469.108895 kJ/mol
# GULP energy per Si atom -12389.659653 kJ/mol
# Density = 2.016522 g / cm^3
# Si number density = 20.211218 Si / 1000 Ang^3
#
#
#
# Elastic Constant Matrix: (Units=GPa)
#
#
# Indices 1 2 3 4 5 6 
#
# 1 107.4418 44.5418 38.7702 0.0000 0.0000 0.0000
# 2 44.5418 104.7379 35.2446 0.0000 0.0000 0.0000
# 3 38.7702 35.2446 102.4397 0.0000 0.0000 0.0000
# 4 0.0000 0.0000 0.0000 11.9220 0.0000 0.0000
# 5 0.0000 0.0000 0.0000 0.0000 21.6338 0.0000
# 6 0.0000 0.0000 0.0000 0.0000 0.0000 35.3929
#
#
#
# Elastic Compliance Matrix: (Units=1/GPa)
#
#
# Indices 1 2 3 4 5 6 
#
# 1 0.012157 -0.004096 -0.003192 0.000000 0.000000 0.000000
# 2 -0.004096 0.012178 -0.002640 0.000000 0.000000 0.000000
# 3 -0.003192 -0.002640 0.011878 0.000000 0.000000 0.000000
# 4 0.000000 0.000000 0.000000 0.083879 0.000000 0.000000
# 5 0.000000 0.000000 0.000000 0.000000 0.046224 0.000000
# 6 0.000000 0.000000 0.000000 0.000000 0.000000 0.028254
#
#
# Mechanical properties :
#
#
# Convention : Reuss Voigt Hill
#
# Bulk Modulus (GPa) = 61.13191 61.30362 61.21777
# Shear Modulus (GPa) = 22.73991 26.86059 24.80025
#
# Velocity S-wave (km/s) = 3.35791 3.64949 3.50673
# Velocity P-wave (km/s) = 6.73396 6.93943 6.83747
#
# Compressibility (1/GPa) = 0.01635807
#
# Stress axis : x y z
#
# Youngs Moduli (GPa) = 82.25558 82.11676 84.18910
#
# Poissons Ratio (x) = 0.33635 0.26872
# Poissons Ratio (y) = 0.33692 0.22222
# Poissons Ratio (z) = 0.26255 0.21675
#
# Static dielectric constant tensor:
#      x y z
#    x 3.891700 0.000000 0.000000 
#    y 0.000000 3.587940 0.000000 
#    z 0.000000 0.000000 3.731760 
# 
# 
# High freq. dielectric constant tensor:
#      x y z
#    x 1.798060 0.000000 0.000000 
#    y 0.000000 1.767760 0.000000 
#    z 0.000000 0.000000 1.774110 
# 
# From -- ./inp_files/8963.got.cif
#   From: 2010.03.12/outbox.cif.g09.slc.cpg/sg45_5_cif.got.tgz:8963.got - 2010.04.14 02:50:11.
