data_PCOD8190100
_publ_section_title
;
Structure prediction by ZEFSAII (Michael W. Deem and Ramdas Pophale) SiO2 
 PCOD8190100
Probable space group: I M M 2
;
_chemical_formula_sum "Si O2"
_cell_formula_units_Z 64
_cell_length_a 22.500493
_cell_length_b 15.558259
_cell_length_c 8.592652
_cell_angle_alpha 90.000000
_cell_angle_beta 90.000000
_cell_angle_gamma 90.000000
_cell_volume 3008.016777
_symmetry_space_group_name_H-M "I M M 2"
_symmetry_group_IT_number 44
_symmetry_cell_setting 'orthorhombic'
loop_
_space_group_symop_operation_xyz
x,y,z
-x,-y,z
-x,y,z
x,-y,z
1/2+x,1/2+y,1/2+z
1/2-x,1/2-y,1/2+z
1/2-x,1/2+y,1/2+z
1/2+x,1/2-y,1/2+z
loop_
_atom_site_type_symbol
_atom_site_label
_atom_site_fract_x
_atom_site_fract_y
_atom_site_fract_z
Si Si1 0.396295 0.594174 0.529560
Si Si2 0.849948 0.405403 0.384001
Si Si3 0.568947 0.236534 0.365192
Si Si4 0.566616 0.593467 0.863435
Si Si5 0.120740 0.238140 0.536006
Si Si6 0.770678 0.144882 0.023665
Si Si7 0.243400 0.813930 0.383257
Si Si8 0.850103 0.402597 0.023099
O O1 0.425350 0.500000 0.494906
O O2 0.431708 0.669993 0.445634
O O3 0.393697 0.613973 0.713746
O O4 0.327315 0.587350 0.482062
O O5 0.879575 0.500000 0.408166
O O6 0.891260 0.328251 0.446250
O O7 0.789075 0.405607 0.482689
O O8 0.837047 0.387634 0.204380
O O9 0.500000 0.213094 0.327600
O O10 0.611736 0.240766 0.215852
O O11 0.597412 0.162306 0.472575
O O12 0.500000 0.591360 0.801049
O O13 0.584115 0.500000 0.935438
O O14 0.572046 0.667208 0.991983
O O15 0.184513 0.196515 0.491817
O O16 0.771573 0.174532 0.203232
O O17 0.779967 0.226790 0.911487
O O18 0.286603 0.890624 0.437888
O O19 0.871683 0.500000 0.989578
#
# Coordination Sequence:
#
# PCOD8190100 Si02
#       8
#     8   8   8   8   8   8   8   8
#     4  11  23  40  64  91 124 168 217 266 323 386
#     4  10  23  40  64  97 131 169 212 267 333 398
#     4  12  27  45  67  95 132 179 228 278 332 393
#     4  10  21  40  64  91 126 168 218 270 322 389
#     4  11  23  40  67  96 130 174 216 270 332 403
#     4  11  21  36  62  97 132 172 208 258 322 404
#     4  11  21  37  64  96 135 167 210 262 330 390
#     4  11  24  43  68  98 132 173 222 276 336 397
#
# _framework density 21.276478000000001
#
# number of rings (size 3 to 8) (size 9 to 14) (size 15 to 20)
#    0.000    1.125    2.500    4.875    1.750    4.500 
#    0.000    0.625    0.000    2.625    0.000    0.000 
#    0.000    0.000    0.000    0.000    0.000    0.000 
#
# Total GULP energy -396628.887179 kJ/mol
# GULP energy per Si atom -12394.652724 kJ/mol
# Density = 2.122805 g / cm^3
# Si number density = 21.276478 Si / 1000 Ang^3
#
#
#
# Elastic Constant Matrix: (Units=GPa)
#
#
# Indices 1 2 3 4 5 6 
#
# 1 83.8715 34.1198 30.4704 0.0000 0.0000 0.0000
# 2 34.1198 154.1694 49.0643 0.0000 0.0000 0.0000
# 3 30.4704 49.0643 85.4754 0.0000 0.0000 0.0000
# 4 0.0000 0.0000 0.0000 28.6994 0.0000 0.0000
# 5 0.0000 0.0000 0.0000 0.0000 24.6912 0.0000
# 6 0.0000 0.0000 0.0000 0.0000 0.0000 23.6251
#
#
#
# Elastic Compliance Matrix: (Units=1/GPa)
#
#
# Indices 1 2 3 4 5 6 
#
# 1 0.014121 -0.001864 -0.003964 0.000000 0.000000 0.000000
# 2 -0.001864 0.008182 -0.004032 0.000000 0.000000 0.000000
# 3 -0.003964 -0.004032 0.015427 0.000000 0.000000 0.000000
# 4 0.000000 0.000000 0.000000 0.034844 0.000000 0.000000
# 5 0.000000 0.000000 0.000000 0.000000 0.040500 0.000000
# 6 0.000000 0.000000 0.000000 0.000000 0.000000 0.042328
#
#
# Mechanical properties :
#
#
# Convention : Reuss Voigt Hill
#
# Bulk Modulus (GPa) = 55.52426 61.20281 58.36354
# Shear Modulus (GPa) = 27.60504 29.39393 28.49948
#
# Velocity S-wave (km/s) = 3.60591 3.72092 3.66387
# Velocity P-wave (km/s) = 6.59470 6.87664 6.73714
#
# Compressibility (1/GPa) = 0.01801015
#
# Stress axis : x y z
#
# Youngs Moduli (GPa) = 70.81474 122.21802 64.82113
#
# Poissons Ratio (x) = 0.22777 0.25697
# Poissons Ratio (y) = 0.13197 0.26138
# Poissons Ratio (z) = 0.28073 0.49282
#
# Static dielectric constant tensor:
#      x y z
#    x 3.713180 0.000000 0.000000 
#    y 0.000000 4.078890 0.000000 
#    z 0.000000 0.000000 3.792240 
# 
# 
# High freq. dielectric constant tensor:
#      x y z
#    x 1.820790 0.000000 0.000000 
#    y 0.000000 1.845380 0.000000 
#    z 0.000000 0.000000 1.831660 
# 
# From -- ./inp_files/9456.got.cif
#   From: 2010.03.12/outbox.cif.g09.slc.cpg/sg44_5_cif.got.tgz:9456.got - 2010.04.14 02:36:11.
