data_PCOD8190181
_publ_section_title
;
Structure prediction by ZEFSAII (Michael W. Deem and Ramdas Pophale) SiO2 
 PCOD8190181
Probable space group: I M M 2
;
_chemical_formula_sum "Si O2"
_cell_formula_units_Z 64
_cell_length_a 30.513794
_cell_length_b 8.664056
_cell_length_c 11.966042
_cell_angle_alpha 90.000000
_cell_angle_beta 90.000000
_cell_angle_gamma 90.000000
_cell_volume 3163.501054
_symmetry_space_group_name_H-M "I M M 2"
_symmetry_group_IT_number 44
_symmetry_cell_setting 'orthorhombic'
loop_
_space_group_symop_operation_xyz
x,y,z
-x,-y,z
-x,y,z
x,-y,z
1/2+x,1/2+y,1/2+z
1/2-x,1/2-y,1/2+z
1/2-x,1/2+y,1/2+z
1/2+x,1/2-y,1/2+z
loop_
_atom_site_type_symbol
_atom_site_label
_atom_site_fract_x
_atom_site_fract_y
_atom_site_fract_z
Si Si1 0.872159 0.181283 0.564570
Si Si2 0.451032 0.176000 0.190378
Si Si3 0.572466 0.320062 0.413619
Si Si4 0.292207 0.176023 0.197259
Si Si5 0.451342 0.683407 0.659614
Si Si6 0.700363 0.820688 0.662578
Si Si7 0.872870 0.182285 0.310673
Si Si8 0.163137 0.323843 0.925188
O O1 0.918894 0.214839 0.620720
O O2 0.834187 0.271785 0.627524
O O3 0.874059 0.242344 0.437442
O O4 0.862434 0.000000 0.570729
O O5 0.500000 0.191018 0.140266
O O6 0.453440 0.227357 0.319280
O O7 0.434133 0.000000 0.183355
O O8 0.561851 0.500000 0.400604
O O9 0.557590 0.256129 0.534318
O O10 0.623966 0.291824 0.397040
O O11 0.251336 0.282705 0.169286
O O12 0.300818 0.192587 0.328966
O O13 0.281289 0.000000 0.165623
O O14 0.500000 0.737211 0.697889
O O15 0.448098 0.500000 0.659435
O O16 0.414566 0.753087 0.743037
O O17 0.672846 0.730211 0.755381
O O18 0.684652 0.769974 0.540367
O O19 0.693179 0.000000 0.683763
O O20 0.876194 0.000000 0.308556
O O21 0.145737 0.500000 0.931677
#
# Coordination Sequence:
#
# PCOD8190181 Si02
#       8
#     8   8   8   8   8   8   8   8
#     4  11  24  41  63  90 121 158 205 256 301 356
#     4  11  24  41  61  87 124 165 202 246 304 364
#     4  11  20  34  62  93 123 156 199 253 300 355
#     4  11  24  42  64  89 122 161 200 246 307 364
#     4   9  18  34  58  89 121 154 195 244 299 357
#     4  11  24  41  63  92 124 158 203 250 297 359
#     4  10  22  41  62  87 122 161 201 250 307 359
#     4  10  22  40  62  88 123 161 196 249 306 357
#
# _framework density 20.230751000000001
#
# number of rings (size 3 to 8) (size 9 to 14) (size 15 to 20)
#    0.000    1.500    2.500    2.250    1.750    4.000 
#    0.000    1.250    0.000    1.125    0.000    0.000 
#    0.000    0.000    0.000    0.000    0.000    0.000 
#
# Total GULP energy -396923.524626 kJ/mol
# GULP energy per Si atom -12403.860145 kJ/mol
# Density = 2.018470 g / cm^3
# Si number density = 20.230751 Si / 1000 Ang^3
#
#
#
# Elastic Constant Matrix: (Units=GPa)
#
#
# Indices 1 2 3 4 5 6 
#
# 1 107.0182 3.3792 35.1935 0.0000 0.0000 0.0000
# 2 3.3792 27.3424 19.2510 0.0000 0.0000 0.0000
# 3 35.1935 19.2510 128.3655 0.0000 0.0000 0.0000
# 4 0.0000 0.0000 0.0000 24.7485 0.0000 0.0000
# 5 0.0000 0.0000 0.0000 0.0000 26.0594 0.0000
# 6 0.0000 0.0000 0.0000 0.0000 0.0000 19.5470
#
#
#
# Elastic Compliance Matrix: (Units=1/GPa)
#
#
# Indices 1 2 3 4 5 6 
#
# 1 0.010286 0.000799 -0.002940 0.000000 0.000000 0.000000
# 2 0.000799 0.040953 -0.006361 0.000000 0.000000 0.000000
# 3 -0.002940 -0.006361 0.009550 0.000000 0.000000 0.000000
# 4 0.000000 0.000000 0.000000 0.040407 0.000000 0.000000
# 5 0.000000 0.000000 0.000000 0.000000 0.038374 0.000000
# 6 0.000000 0.000000 0.000000 0.000000 0.000000 0.051159
#
#
# Mechanical properties :
#
#
# Convention : Reuss Voigt Hill
#
# Bulk Modulus (GPa) = 22.83877 42.04148 32.44013
# Shear Modulus (GPa) = 22.48944 27.73115 25.11029
#
# Velocity S-wave (km/s) = 3.33775 3.70637 3.52688
# Velocity P-wave (km/s) = 5.11544 6.25638 5.71446
#
# Compressibility (1/GPa) = 0.04378519
#
# Stress axis : x y z
#
# Youngs Moduli (GPa) = 97.22196 24.41829 104.71048
#
# Poissons Ratio (x) = -0.01950 0.30782
# Poissons Ratio (y) = -0.07764 0.66603
# Poissons Ratio (z) = 0.28581 0.15532
#
# Static dielectric constant tensor:
#      x y z
#    x 3.693790 0.000000 0.000000 
#    y 0.000000 3.514000 0.000000 
#    z 0.000000 0.000000 3.899490 
# 
# 
# High freq. dielectric constant tensor:
#      x y z
#    x 1.798460 0.000000 0.000000 
#    y 0.000000 1.777640 0.000000 
#    z 0.000000 0.000000 1.796040 
# 
# From -- ./inp_files/15064.got.cif
#   From: 2010.03.12/outbox.cif.g09.slc.cpg/sg44_8_cif.got.tgz:15064.got - 2010.04.14 02:36:11.
