data_PCOD8190951
_publ_section_title
;
Structure prediction by ZEFSAII (Michael W. Deem and Ramdas Pophale) SiO2 
 PCOD8190951
Probable space group: I B A 2
;
_chemical_formula_sum "Si O2"
_cell_formula_units_Z 40
_cell_length_a 7.343295
_cell_length_b 23.706447
_cell_length_c 9.043995
_cell_angle_alpha 90.000000
_cell_angle_beta 90.000000
_cell_angle_gamma 90.000000
_cell_volume 1574.409704
_symmetry_space_group_name_H-M "I B A 2"
_symmetry_group_IT_number 45
_symmetry_cell_setting 'orthorhombic'
loop_
_space_group_symop_operation_xyz
x,y,z
-x,-y,z
-x,y,1/2+z
x,-y,1/2+z
1/2+x,1/2+y,1/2+z
1/2-x,1/2-y,1/2+z
1/2-x,1/2+y,z
1/2+x,1/2-y,z
loop_
_atom_site_type_symbol
_atom_site_label
_atom_site_fract_x
_atom_site_fract_y
_atom_site_fract_z
Si Si1 0.470325 0.115923 0.055420
Si Si2 0.284835 0.545776 0.897345
Si Si3 0.500000 0.500000 0.164037
Si Si4 0.175942 0.804212 0.672685
Si Si5 0.000000 0.500000 0.716831
Si Si6 0.689104 0.692900 0.011690
O O1 0.347936 0.153915 0.163528
O O2 0.524144 0.055771 0.120779
O O3 0.340256 0.102126 0.911405
O O4 0.658045 0.144676 0.009415
O O5 0.446214 0.552333 0.775797
O O6 0.173279 0.493796 0.825052
O O7 0.341924 0.525543 0.061096
O O8 0.228282 0.746650 0.592294
O O9 0.134679 0.791534 0.844046
O O10 0.993380 0.828841 0.594801
#
# Coordination Sequence:
#
# PCOD8190951 Si02
#       6
#     8   8   4   8   4   8
#     4  12  28  51  83 122 168 222 274 343 424 513
#     4  11  24  48  75 114 162 217 269 336 402 496
#     4  10  24  46  80 110 160 216 282 334 392 492
#     4  12  28  52  86 119 162 212 285 355 428 502
#     4  12  26  50  76 116 174 220 270 328 426 514
#     4  12  28  53  88 120 162 217 281 359 427 507
#
# _framework density 25.406345999999999
#
# number of rings (size 3 to 8) (size 9 to 14) (size 15 to 20)
#    0.000    0.400    4.000    3.000    0.000    8.000 
#    3.600    0.000    0.000    0.000    0.000    0.000 
#    0.000    0.000    0.000    0.000    0.000    0.000 
#
# Total GULP energy -247907.238756 kJ/mol
# GULP energy per Si atom -12395.361938 kJ/mol
# Density = 2.534852 g / cm^3
# Si number density = 25.406346 Si / 1000 Ang^3
#
#
#
# Elastic Constant Matrix: (Units=GPa)
#
#
# Indices 1 2 3 4 5 6 
#
# 1 143.3292 37.7050 71.2129 0.0003 -0.0001 0.0001
# 2 37.7050 111.9542 54.7910 0.0012 -0.0005 0.0001
# 3 71.2129 54.7910 201.9876 -0.0029 0.0001 0.0002
# 4 0.0003 0.0012 -0.0029 28.9730 0.0000 0.0001
# 5 -0.0001 -0.0005 0.0001 0.0000 42.5856 -0.0001
# 6 0.0001 0.0001 0.0002 0.0001 -0.0001 54.0940
#
#
#
# Elastic Compliance Matrix: (Units=1/GPa)
#
#
# Indices 1 2 3 4 5 6 
#
# 1 0.008715 -0.001651 -0.002625 0.000000 0.000000 0.000000
# 2 -0.001651 0.010612 -0.002297 -0.000001 0.000000 0.000000
# 3 -0.002625 -0.002297 0.006499 0.000001 0.000000 0.000000
# 4 0.000000 -0.000001 0.000001 0.034515 0.000000 0.000000
# 5 0.000000 0.000000 0.000000 0.000000 0.023482 0.000000
# 6 0.000000 0.000000 0.000000 0.000000 0.000000 0.018486
#
#
# Mechanical properties :
#
#
# Convention : Reuss Voigt Hill
#
# Bulk Modulus (GPa) = 78.85023 87.18765 83.01894
# Shear Modulus (GPa) = 41.77739 44.70134 43.23936
#
# Velocity S-wave (km/s) = 4.05948 4.19914 4.12990
# Velocity P-wave (km/s) = 7.28530 7.60934 7.44908
#
# Compressibility (1/GPa) = 0.01268227
#
# Stress axis : x y z
#
# Youngs Moduli (GPa) = 114.73988 94.23168 153.86362
#
# Poissons Ratio (x) = 0.15554 0.40389
# Poissons Ratio (y) = 0.18939 0.35338
# Poissons Ratio (z) = 0.30119 0.21642
#
# Static dielectric constant tensor:
#      x y z
#    x 5.294020 0.000000 0.000000 
#    y 0.000000 4.396460 0.000000 
#    z 0.000000 0.000000 4.883570 
# 
# 
# High freq. dielectric constant tensor:
#      x y z
#    x 2.044620 0.000000 0.000000 
#    y 0.000000 1.987490 0.000000 
#    z 0.000000 0.000000 2.034900 
# 
# From -- ./inp_files/983.got.cif
#   From: 2010.03.12/outbox.cif.g09.slc.cpg/sg45_1_cif.got.tgz:983.got - 2010.04.14 02:50:11.
