data_PCOD8190308
_publ_section_title
;
Structure prediction by ZEFSAII (Michael W. Deem and Ramdas Pophale) SiO2 
 PCOD8190308
Probable space group: I M M 2
;
_chemical_formula_sum "Si O2"
_cell_formula_units_Z 44
_cell_length_a 13.604188
_cell_length_b 17.356259
_cell_length_c 8.584856
_cell_angle_alpha 90.000000
_cell_angle_beta 90.000000
_cell_angle_gamma 90.000000
_cell_volume 2027.037401
_symmetry_space_group_name_H-M "I M M 2"
_symmetry_group_IT_number 44
_symmetry_cell_setting 'orthorhombic'
loop_
_space_group_symop_operation_xyz
x,y,z
-x,-y,z
-x,y,z
x,-y,z
1/2+x,1/2+y,1/2+z
1/2-x,1/2-y,1/2+z
1/2-x,1/2+y,1/2+z
1/2+x,1/2-y,1/2+z
loop_
_atom_site_type_symbol
_atom_site_label
_atom_site_fract_x
_atom_site_fract_y
_atom_site_fract_z
Si Si1 0.797920 0.413955 0.681520
Si Si2 0.000000 0.266323 0.113893
Si Si3 0.000000 0.741848 0.449464
Si Si4 0.692384 0.659758 0.940975
Si Si5 0.318832 0.696664 0.488558
Si Si6 0.888087 0.086873 0.726683
Si Si7 0.000000 0.648718 0.774688
O O1 0.790932 0.500000 0.612537
O O2 0.710256 0.402137 0.805280
O O3 0.776593 0.351326 0.546498
O O4 0.903595 0.403630 0.761941
O O5 0.099351 0.214551 0.120132
O O6 0.000000 0.312519 0.947593
O O7 0.000000 0.310091 0.285475
O O8 0.091120 0.797247 0.434563
O O9 0.000000 0.701747 0.618430
O O10 0.781251 0.721337 0.925258
O O11 0.693050 0.609634 0.098568
O O12 0.377326 0.648670 0.361799
O O13 0.000000 0.092511 0.662951
O O14 0.866282 0.000000 0.785634
#
# Coordination Sequence:
#
# PCOD8190308 Si02
#       7
#     8   4   4   8   8   8   4
#     4  12  26  44  66  99 139 182 227 283 356 416
#     4  12  24  41  68 109 130 170 242 288 340 401
#     4  12  24  41  68 109 130 170 242 288 340 401
#     4  12  23  41  67  96 135 176 229 284 332 411
#     4  12  23  41  67  96 135 176 229 284 332 411
#     4  11  24  42  65  97 139 180 220 280 355 416
#     4  12  25  46  72  96 141 186 228 296 339 414
#
# _framework density 21.706555000000002
#
# number of rings (size 3 to 8) (size 9 to 14) (size 15 to 20)
#    0.000    0.182    7.273    3.545    0.000    0.000 
#    0.000    0.909    0.000    1.091    0.000    0.000 
#    0.000    0.000    0.000    0.000    0.000    0.000 
#
# Total GULP energy -272558.584000 kJ/mol
# GULP energy per Si atom -12389.026545 kJ/mol
# Density = 2.165715 g / cm^3
# Si number density = 21.706555 Si / 1000 Ang^3
#
#
#
# Elastic Constant Matrix: (Units=GPa)
#
#
# Indices 1 2 3 4 5 6 
#
# 1 81.9052 27.0980 -9.3309 0.0000 0.0000 0.0000
# 2 27.0980 92.4925 17.2691 0.0000 0.0000 0.0000
# 3 -9.3309 17.2691 102.4437 0.0000 0.0000 0.0000
# 4 0.0000 0.0000 0.0000 24.6438 0.0000 0.0000
# 5 0.0000 0.0000 0.0000 0.0000 17.0431 0.0000
# 6 0.0000 0.0000 0.0000 0.0000 0.0000 32.1693
#
#
#
# Elastic Compliance Matrix: (Units=1/GPa)
#
#
# Indices 1 2 3 4 5 6 
#
# 1 0.013912 -0.004453 0.002018 0.000000 0.000000 0.000000
# 2 -0.004453 0.012588 -0.002528 0.000000 0.000000 0.000000
# 3 0.002018 -0.002528 0.010371 0.000000 0.000000 0.000000
# 4 0.000000 0.000000 0.000000 0.040578 0.000000 0.000000
# 5 0.000000 0.000000 0.000000 0.000000 0.058675 0.000000
# 6 0.000000 0.000000 0.000000 0.000000 0.000000 0.031086
#
#
# Mechanical properties :
#
#
# Convention : Reuss Voigt Hill
#
# Bulk Modulus (GPa) = 37.11021 38.54596 37.82808
# Shear Modulus (GPa) = 26.86478 30.89159 28.87818
#
# Velocity S-wave (km/s) = 3.52182 3.77655 3.65141
# Velocity P-wave (km/s) = 5.80268 6.06735 5.93649
#
# Compressibility (1/GPa) = 0.02694676
#
# Stress axis : x y z
#
# Youngs Moduli (GPa) = 71.87905 79.43990 96.41971
#
# Poissons Ratio (x) = 0.35372 -0.19455
# Poissons Ratio (y) = 0.32005 0.24371
# Poissons Ratio (z) = -0.14504 0.20079
#
# Static dielectric constant tensor:
#      x y z
#    x 4.604900 0.000000 0.000000 
#    y 0.000000 3.819600 0.000000 
#    z 0.000000 0.000000 4.150990 
# 
# 
# High freq. dielectric constant tensor:
#      x y z
#    x 1.868370 0.000000 0.000000 
#    y 0.000000 1.833440 0.000000 
#    z 0.000000 0.000000 1.856310 
# 
# From -- ./inp_files/7071.got.cif
#   From: 2010.03.12/outbox.cif.g09.slc.cpg/sg44_4_cif.got.tgz:7071.got - 2010.04.14 02:36:11.
