data_PCOD8190272
_publ_section_title
;
Structure prediction by ZEFSAII (Michael W. Deem and Ramdas Pophale) SiO2 
 PCOD8190272
Probable space group: I M M 2
;
_chemical_formula_sum "Si O2"
_cell_formula_units_Z 48
_cell_length_a 15.216790
_cell_length_b 8.895521
_cell_length_c 18.860057
_cell_angle_alpha 90.000000
_cell_angle_beta 90.000000
_cell_angle_gamma 90.000000
_cell_volume 2552.921362
_symmetry_space_group_name_H-M "I M M 2"
_symmetry_group_IT_number 44
_symmetry_cell_setting 'orthorhombic'
loop_
_space_group_symop_operation_xyz
x,y,z
-x,-y,z
-x,y,z
x,-y,z
1/2+x,1/2+y,1/2+z
1/2-x,1/2-y,1/2+z
1/2-x,1/2+y,1/2+z
1/2+x,1/2-y,1/2+z
loop_
_atom_site_type_symbol
_atom_site_label
_atom_site_fract_x
_atom_site_fract_y
_atom_site_fract_z
Si Si1 0.500000 0.323487 0.564350
Si Si2 0.000000 0.677764 0.570601
Si Si3 0.844686 0.178440 0.319996
Si Si4 0.000000 0.820396 0.222896
Si Si5 0.148165 0.175822 0.478571
Si Si6 0.351437 0.174933 0.313585
Si Si7 0.350563 0.828641 0.478279
Si Si8 0.500000 0.676800 0.223689
O O1 0.500000 0.500000 0.569979
O O2 0.500000 0.254938 0.643679
O O3 0.588157 0.276055 0.524949
O O4 0.087799 0.731603 0.531514
O O5 0.000000 0.740720 0.649253
O O6 0.000000 0.500000 0.573874
O O7 0.869788 0.235211 0.398744
O O8 0.747532 0.229951 0.296742
O O9 0.914025 0.241876 0.263404
O O10 0.844439 0.000000 0.323970
O O11 0.000000 0.000000 0.224328
O O12 0.249750 0.206506 0.497597
O O13 0.125397 0.000000 0.485639
O O14 0.371005 0.202280 0.396157
O O15 0.414055 0.277774 0.267217
O O16 0.365790 0.000000 0.294171
O O17 0.373378 0.000000 0.496558
O O18 0.500000 0.500000 0.210792
#
# Coordination Sequence:
#
# PCOD8190272 Si02
#       8
#     4   4   8   4   8   8   8   4
#     4  11  22  31  46  77 114 147 182 219 256 310
#     4  12  25  38  54  79 112 148 179 220 276 330
#     4   8  15  31  58  83 104 134 173 217 265 314
#     4   9  17  29  47  77 109 135 166 207 254 308
#     4   9  18  36  61  84 103 133 180 228 270 322
#     4   9  18  35  58  82 103 132 177 224 269 320
#     4   9  19  36  58  80 106 141 180 222 272 326
#     4  12  25  38  53  77 109 146 183 224 272 322
#
# _framework density 18.801988999999999
#
# number of rings (size 3 to 8) (size 9 to 14) (size 15 to 20)
#    0.000    2.500    0.000    4.750    0.000    6.000 
#    0.000    4.167    0.000    5.000    0.000    0.000 
#    0.000    0.000    0.000    0.000    0.000    0.000 
#
# Total GULP energy -297590.734881 kJ/mol
# GULP energy per Si atom -12399.613953 kJ/mol
# Density = 1.875919 g / cm^3
# Si number density = 18.801989 Si / 1000 Ang^3
#
#
#
# Elastic Constant Matrix: (Units=GPa)
#
#
# Indices 1 2 3 4 5 6 
#
# 1 141.0625 48.1660 86.2193 0.0000 0.0000 0.0000
# 2 48.1660 75.7314 46.8820 0.0000 0.0000 0.0000
# 3 86.2193 46.8820 120.9694 0.0000 0.0000 0.0000
# 4 0.0000 0.0000 0.0000 27.6012 0.0000 0.0000
# 5 0.0000 0.0000 0.0000 0.0000 16.6066 0.0000
# 6 0.0000 0.0000 0.0000 0.0000 0.0000 26.9794
#
#
#
# Elastic Compliance Matrix: (Units=1/GPa)
#
#
# Indices 1 2 3 4 5 6 
#
# 1 0.013187 -0.003380 -0.008089 0.000000 0.000000 0.000000
# 2 -0.003380 0.018239 -0.004660 0.000000 0.000000 0.000000
# 3 -0.008089 -0.004660 0.015838 0.000000 0.000000 0.000000
# 4 0.000000 0.000000 0.000000 0.036230 0.000000 0.000000
# 5 0.000000 0.000000 0.000000 0.000000 0.060217 0.000000
# 6 0.000000 0.000000 0.000000 0.000000 0.000000 0.037065
#
#
# Mechanical properties :
#
#
# Convention : Reuss Voigt Hill
#
# Bulk Modulus (GPa) = 66.63654 77.81089 72.22371
# Shear Modulus (GPa) = 22.93201 24.67051 23.80126
#
# Velocity S-wave (km/s) = 3.49615 3.62625 3.56180
# Velocity P-wave (km/s) = 7.19830 7.68161 7.44388
#
# Compressibility (1/GPa) = 0.01500678
#
# Stress axis : x y z
#
# Youngs Moduli (GPa) = 75.83045 54.82873 63.13927
#
# Poissons Ratio (x) = 0.18530 0.51075
# Poissons Ratio (y) = 0.25627 0.29421
# Poissons Ratio (z) = 0.61342 0.25549
#
# Static dielectric constant tensor:
#      x y z
#    x 3.666560 0.000000 0.000000 
#    y 0.000000 3.098740 0.000000 
#    z 0.000000 0.000000 3.530020 
# 
# 
# High freq. dielectric constant tensor:
#      x y z
#    x 1.747490 0.000000 0.000000 
#    y 0.000000 1.697310 0.000000 
#    z 0.000000 0.000000 1.731500 
# 
# From -- ./inp_files/20387.got.cif
#   From: 2010.03.12/outbox.cif.g09.slc.cpg/sg44_11_cif.got.tgz:20387.got - 2010.04.14 02:36:11.
