data_PCOD8190872
_publ_section_title
;
Structure prediction by ZEFSAII (Michael W. Deem and Ramdas Pophale) SiO2 
 PCOD8190872
Probable space group: I B A 2
;
_chemical_formula_sum "Si O2"
_cell_formula_units_Z 56
_cell_length_a 31.080582
_cell_length_b 5.548012
_cell_length_c 13.641663
_cell_angle_alpha 90.000000
_cell_angle_beta 90.000000
_cell_angle_gamma 90.000000
_cell_volume 2352.306188
_symmetry_space_group_name_H-M "I B A 2"
_symmetry_group_IT_number 45
_symmetry_cell_setting 'orthorhombic'
loop_
_space_group_symop_operation_xyz
x,y,z
-x,-y,z
-x,y,1/2+z
x,-y,1/2+z
1/2+x,1/2+y,1/2+z
1/2-x,1/2-y,1/2+z
1/2-x,1/2+y,z
1/2+x,1/2-y,z
loop_
_atom_site_type_symbol
_atom_site_label
_atom_site_fract_x
_atom_site_fract_y
_atom_site_fract_z
Si Si1 0.642962 0.285519 0.050530
Si Si2 0.917058 0.173350 0.091496
Si Si3 0.363288 0.027838 0.230526
Si Si4 0.000000 0.500000 0.802669
Si Si5 0.233364 0.684877 0.476564
Si Si6 0.584014 0.011997 0.416179
Si Si7 0.730999 0.831653 0.252074
Si Si8 0.500000 0.500000 0.687954
O O1 0.629852 0.556357 0.073828
O O2 0.652254 0.177906 0.157273
O O3 0.683742 0.256373 0.981782
O O4 0.602175 0.183058 0.991866
O O5 0.905659 0.351297 0.181281
O O6 0.956967 0.010388 0.123100
O O7 0.929614 0.267442 0.984526
O O8 0.320916 0.191508 0.247428
O O9 0.379965 0.921118 0.334221
O O10 0.040498 0.421896 0.867426
O O11 0.991562 0.252757 0.743346
O O12 0.241537 0.417098 0.525489
O O13 0.247597 0.659038 0.364081
O O14 0.751526 0.586784 0.203477
#
# Coordination Sequence:
#
# PCOD8190872 Si02
#       8
#     8   8   8   4   8   8   8   4
#     4  11  26  44  71 108 146 195 249 309 375 446
#     4  11  28  45  76 108 150 199 246 317 371 453
#     4  11  24  48  69 106 147 194 251 308 370 452
#     4  12  28  50  80 112 148 200 246 310 374 440
#     4  10  23  43  70 102 144 189 244 305 371 444
#     4  11  26  47  75 107 148 198 248 299 382 440
#     4  10  23  42  70 104 141 194 247 306 369 443
#     4  12  28  52  78 114 156 190 256 310 374 442
#
# _framework density 23.806424
#
# number of rings (size 3 to 8) (size 9 to 14) (size 15 to 20)
#    0.000    1.143    2.857    0.857   12.000    3.429 
#    0.000    0.000    0.000    0.000    0.000    0.000 
#    0.000    0.000    0.000    0.000    0.000    0.000 
#
# Total GULP energy -346881.847465 kJ/mol
# GULP energy per Si atom -12388.637409 kJ/mol
# Density = 2.375224 g / cm^3
# Si number density = 23.806424 Si / 1000 Ang^3
#
#
#
# Elastic Constant Matrix: (Units=GPa)
#
#
# Indices 1 2 3 4 5 6 
#
# 1 133.3381 36.2820 31.6117 0.0000 0.0000 0.0000
# 2 36.2820 137.8617 38.4702 0.0000 0.0000 0.0000
# 3 31.6117 38.4702 95.9069 0.0000 0.0000 0.0000
# 4 0.0000 0.0000 0.0000 -0.0933 0.0000 0.0000
# 5 0.0000 0.0000 0.0000 0.0000 39.4245 0.0000
# 6 0.0000 0.0000 0.0000 0.0000 0.0000 40.7740
#
#
#
# Elastic Compliance Matrix: (Units=1/GPa)
#
#
# Indices 1 2 3 4 5 6 
#
# 1 0.008448 -0.001629 -0.002131 0.000000 0.000000 0.000000
# 2 -0.001629 0.008482 -0.002865 0.000000 0.000000 0.000000
# 3 -0.002131 -0.002865 0.012279 0.000000 0.000000 0.000000
# 4 0.000000 0.000000 0.000000-10.714517 0.000000 0.000000
# 5 0.000000 0.000000 0.000000 0.000000 0.025365 0.000000
# 6 0.000000 0.000000 0.000000 0.000000 0.000000 0.024525
#
#
# Mechanical properties :
#
#
# Convention : Reuss Voigt Hill
#
# Bulk Modulus (GPa) = 62.66468 64.42604 63.54536
# Shear Modulus (GPa) = -0.47095 33.40389 16.46647
#
# Velocity S-wave (km/s) = -0.44526 3.74992 2.63284
# Velocity P-wave (km/s) = 5.11032 6.77277 5.99941
#
# Compressibility (1/GPa) = 0.01595795
#
# Stress axis : x y z
#
# Youngs Moduli (GPa) = 118.36872 117.89863 81.44204
#
# Poissons Ratio (x) = 0.19201 0.17358
# Poissons Ratio (y) = 0.19278 0.23337
# Poissons Ratio (z) = 0.25228 0.33783
#
# Static dielectric constant tensor:
#      x y z
#    x 4.277670 0.000000 0.000000 
#    y 0.000000 4.565950 0.000000 
#    z 0.000000 0.000000 4.275240 
# 
# 
# High freq. dielectric constant tensor:
#      x y z
#    x 1.950540 0.000000 0.000000 
#    y 0.000000 1.934870 0.000000 
#    z 0.000000 0.000000 1.955110 
# 
# From -- ./inp_files/5299.got.cif
#   From: 2010.03.12/outbox.cif.g09.slc.cpg/sg45_3_cif.got.tgz:5299.got - 2010.04.14 02:50:11.
