data_PCOD8190227
_publ_section_title
;
Structure prediction by ZEFSAII (Michael W. Deem and Ramdas Pophale) SiO2 
 PCOD8190227
Probable space group: I M M 2
;
_chemical_formula_sum "Si O2"
_cell_formula_units_Z 56
_cell_length_a 14.256256
_cell_length_b 9.153769
_cell_length_c 22.127141
_cell_angle_alpha 90.000000
_cell_angle_beta 90.000000
_cell_angle_gamma 90.000000
_cell_volume 2887.558140
_symmetry_space_group_name_H-M "I M M 2"
_symmetry_group_IT_number 44
_symmetry_cell_setting 'orthorhombic'
loop_
_space_group_symop_operation_xyz
x,y,z
-x,-y,z
-x,y,z
x,-y,z
1/2+x,1/2+y,1/2+z
1/2-x,1/2-y,1/2+z
1/2-x,1/2+y,1/2+z
1/2+x,1/2-y,1/2+z
loop_
_atom_site_type_symbol
_atom_site_label
_atom_site_fract_x
_atom_site_fract_y
_atom_site_fract_z
Si Si1 0.783837 0.327032 0.153770
Si Si2 0.109507 0.169687 0.047804
Si Si3 0.393894 0.169847 0.187857
Si Si4 0.394916 0.330389 0.894800
Si Si5 0.608134 0.666541 0.754436
Si Si6 0.607809 0.166139 0.328119
Si Si7 0.718904 0.671071 0.427901
O O1 0.780783 0.500000 0.150595
O O2 0.847084 0.267228 0.100000
O O3 0.678075 0.264930 0.148224
O O4 0.828126 0.276917 0.217065
O O5 0.000000 0.204390 0.042688
O O6 0.127594 0.000000 0.062689
O O7 0.156543 0.216400 0.984963
O O8 0.500000 0.214488 0.170121
O O9 0.376062 0.202891 0.258199
O O10 0.377257 0.000000 0.173934
O O11 0.500000 0.278975 0.911493
O O12 0.382771 0.500000 0.909369
O O13 0.375068 0.299766 0.824472
O O14 0.322006 0.240547 0.935372
O O15 0.500000 0.690333 0.736716
O O16 0.637754 0.500000 0.739408
O O17 0.500000 0.189984 0.345811
O O18 0.670831 0.273246 0.367024
O O19 0.638569 0.000000 0.341618
O O20 0.730778 0.500000 0.422646
#
# Coordination Sequence:
#
# PCOD8190227 Si02
#       7
#     8   8   8   8   8   8   8
#     4  12  24  35  53  83 113 140 176 227 282 324
#     4  10  23  43  61  76 102 144 188 223 260 318
#     4   9  19  37  59  81 108 146 187 219 255 317
#     4   9  19  36  57  81 110 146 185 220 260 318
#     4   9  18  34  56  80 109 148 187 219 259 319
#     4   9  18  33  55  83 113 146 182 218 261 318
#     4  11  22  35  55  83 111 141 180 226 275 321
#
# _framework density 19.393549
#
# number of rings (size 3 to 8) (size 9 to 14) (size 15 to 20)
#    0.000    2.143    0.000    5.143    0.000    9.429 
#    0.000    3.571    0.000    0.857    0.000    0.000 
#    0.000    0.000    0.000    0.000    0.000    0.000 
#
# Total GULP energy -347278.114640 kJ/mol
# GULP energy per Si atom -12402.789809 kJ/mol
# Density = 1.934941 g / cm^3
# Si number density = 19.393549 Si / 1000 Ang^3
#
#
#
# Elastic Constant Matrix: (Units=GPa)
#
#
# Indices 1 2 3 4 5 6 
#
# 1 150.6151 75.7696 61.3712 0.0000 0.0000 0.0000
# 2 75.7696 95.9957 45.6886 0.0000 0.0000 0.0000
# 3 61.3712 45.6886 50.7961 0.0000 0.0000 0.0000
# 4 0.0000 0.0000 0.0000 23.8651 0.0000 0.0000
# 5 0.0000 0.0000 0.0000 0.0000 34.7314 0.0000
# 6 0.0000 0.0000 0.0000 0.0000 0.0000 31.8871
#
#
#
# Elastic Compliance Matrix: (Units=1/GPa)
#
#
# Indices 1 2 3 4 5 6 
#
# 1 0.014543 -0.005449 -0.012670 0.000000 0.000000 0.000000
# 2 -0.005449 0.020256 -0.011636 0.000000 0.000000 0.000000
# 3 -0.012670 -0.011636 0.045461 0.000000 0.000000 0.000000
# 4 0.000000 0.000000 0.000000 0.041902 0.000000 0.000000
# 5 0.000000 0.000000 0.000000 0.000000 0.028792 0.000000
# 6 0.000000 0.000000 0.000000 0.000000 0.000000 0.031361
#
#
# Mechanical properties :
#
#
# Convention : Reuss Voigt Hill
#
# Bulk Modulus (GPa) = 48.19321 73.67396 60.93359
# Shear Modulus (GPa) = 20.10117 25.73522 22.91819
#
# Velocity S-wave (km/s) = 3.22295 3.64675 3.44138
# Velocity P-wave (km/s) = 6.22526 7.47015 6.87594
#
# Compressibility (1/GPa) = 0.02074981
#
# Stress axis : x y z
#
# Youngs Moduli (GPa) = 68.76066 49.36806 21.99706
#
# Poissons Ratio (x) = 0.26899 0.27870
# Poissons Ratio (y) = 0.37466 0.25596
# Poissons Ratio (z) = 0.87120 0.57446
#
# Static dielectric constant tensor:
#      x y z
#    x 3.808880 0.000000 0.000000 
#    y 0.000000 3.389790 0.000000 
#    z 0.000000 0.000000 3.369870 
# 
# 
# High freq. dielectric constant tensor:
#      x y z
#    x 1.776600 0.000000 0.000000 
#    y 0.000000 1.742130 0.000000 
#    z 0.000000 0.000000 1.734600 
# 
# From -- ./inp_files/23005.got.cif
#   From: 2010.03.12/outbox.cif.g09.slc.cpg/sg44_12_cif.got.tgz:23005.got - 2010.04.14 02:36:11.
