data_PCOD8190881
_publ_section_title
;
Structure prediction by ZEFSAII (Michael W. Deem and Ramdas Pophale) SiO2 
 PCOD8190881
Probable space group: I B A 2
;
_chemical_formula_sum "Si O2"
_cell_formula_units_Z 64
_cell_length_a 8.449189
_cell_length_b 23.416623
_cell_length_c 14.492650
_cell_angle_alpha 90.000000
_cell_angle_beta 90.000000
_cell_angle_gamma 90.000000
_cell_volume 2867.392157
_symmetry_space_group_name_H-M "I B A 2"
_symmetry_group_IT_number 45
_symmetry_cell_setting 'orthorhombic'
loop_
_space_group_symop_operation_xyz
x,y,z
-x,-y,z
-x,y,1/2+z
x,-y,1/2+z
1/2+x,1/2+y,1/2+z
1/2-x,1/2-y,1/2+z
1/2-x,1/2+y,z
1/2+x,1/2-y,z
loop_
_atom_site_type_symbol
_atom_site_label
_atom_site_fract_x
_atom_site_fract_y
_atom_site_fract_z
Si Si1 0.634458 0.720758 0.625000
Si Si2 0.834949 0.300005 0.868924
Si Si3 0.313035 0.004431 0.075354
Si Si4 0.188317 0.917243 0.422557
Si Si5 0.109913 0.281043 0.752575
Si Si6 0.814093 0.492662 0.285282
Si Si7 0.181327 0.084794 0.437125
Si Si8 0.854924 0.795640 0.509178
O O1 0.770912 0.684908 0.681784
O O2 0.508122 0.741779 0.697067
O O3 0.721113 0.776334 0.581649
O O4 0.526772 0.684600 0.552754
O O5 0.742291 0.352396 0.912616
O O6 0.712841 0.263596 0.809882
O O7 0.994508 0.321146 0.814316
O O8 0.899505 0.259543 0.949541
O O9 0.500000 0.000000 0.073909
O O10 0.249962 0.011206 0.180234
O O11 0.240695 0.947848 0.028456
O O12 0.264285 0.059703 0.016813
O O13 0.002699 0.925917 0.426361
O O14 0.241308 0.951694 0.332479
O O15 0.768480 0.436291 0.344206
O O16 0.000000 0.500000 0.285761
O O17 0.215254 0.152256 0.449404
#
# Coordination Sequence:
#
# PCOD8190881 Si02
#       8
#     8   8   8   8   8   8   8   8
#     4   9  20  38  58  84 124 167 212 257 307 380
#     4  11  22  39  62  92 131 171 211 261 322 391
#     4  10  23  44  68  93 123 163 216 273 328 385
#     4  11  23  40  65  96 128 168 216 264 325 392
#     4   9  20  38  58  84 125 168 211 259 308 377
#     4  10  23  44  67  93 124 165 218 274 329 385
#     4  11  23  40  65  95 128 167 213 268 325 387
#     4  11  22  39  61  91 129 169 209 258 322 389
#
# _framework density 22.319932999999999
#
# number of rings (size 3 to 8) (size 9 to 14) (size 15 to 20)
#    0.000    1.750    0.000    5.250    0.000    9.000 
#    0.000   17.500    0.000    1.500    0.000    0.000 
#    0.000    0.000    0.000    0.000    0.000    0.000 
#
# Total GULP energy -396549.299798 kJ/mol
# GULP energy per Si atom -12392.165619 kJ/mol
# Density = 2.226913 g / cm^3
# Si number density = 22.319933 Si / 1000 Ang^3
#
#
#
# Elastic Constant Matrix: (Units=GPa)
#
#
# Indices 1 2 3 4 5 6 
#
# 1 128.5773 21.3806 55.7428 0.0001 0.0000 0.0000
# 2 21.3806 91.0764 36.4655 0.0001 -0.0001 -0.0001
# 3 55.7428 36.4655 153.1417 0.0000 -0.0004 -0.0002
# 4 0.0001 0.0001 0.0000 29.8811 -0.0001 0.0000
# 5 0.0000 -0.0001 -0.0004 -0.0001 36.7625 0.0000
# 6 0.0000 -0.0001 -0.0002 0.0000 0.0000 26.7169
#
#
#
# Elastic Compliance Matrix: (Units=1/GPa)
#
#
# Indices 1 2 3 4 5 6 
#
# 1 0.009303 -0.000915 -0.003168 0.000000 0.000000 0.000000
# 2 -0.000915 0.012227 -0.002578 0.000000 0.000000 0.000000
# 3 -0.003168 -0.002578 0.008297 0.000000 0.000000 0.000000
# 4 0.000000 0.000000 0.000000 0.033466 0.000000 0.000000
# 5 0.000000 0.000000 0.000000 0.000000 0.027202 0.000000
# 6 0.000000 0.000000 0.000000 0.000000 0.000000 0.037429
#
#
# Mechanical properties :
#
#
# Convention : Reuss Voigt Hill
#
# Bulk Modulus (GPa) = 60.59400 66.66368 63.62884
# Shear Modulus (GPa) = 34.07168 35.95254 35.01211
#
# Velocity S-wave (km/s) = 3.91130 4.01781 3.96491
# Velocity P-wave (km/s) = 6.89961 7.17328 7.03777
#
# Compressibility (1/GPa) = 0.01650328
#
# Stress axis : x y z
#
# Youngs Moduli (GPa) = 107.48944 81.78641 120.52430
#
# Poissons Ratio (x) = 0.07487 0.38186
# Poissons Ratio (y) = 0.09840 0.31074
# Poissons Ratio (z) = 0.34056 0.21086
#
# Static dielectric constant tensor:
#      x y z
#    x 4.548710 0.000000 0.000000 
#    y 0.000000 3.659990 0.000000 
#    z 0.000000 0.000000 4.837030 
# 
# 
# High freq. dielectric constant tensor:
#      x y z
#    x 1.908420 0.000000 0.000000 
#    y 0.000000 1.842160 0.000000 
#    z 0.000000 0.000000 1.898440 
# 
# From -- ./inp_files/5843.got.cif
#   From: 2010.03.12/outbox.cif.g09.slc.cpg/sg45_3_cif.got.tgz:5843.got - 2010.04.14 02:50:11.
