data_PCOD8190265
_publ_section_title
;
Structure prediction by ZEFSAII (Michael W. Deem and Ramdas Pophale) SiO2 
 PCOD8190265
Probable space group: I M M 2
;
_chemical_formula_sum "Si O2"
_cell_formula_units_Z 56
_cell_length_a 13.408379
_cell_length_b 18.653404
_cell_length_c 11.376396
_cell_angle_alpha 90.000000
_cell_angle_beta 90.000000
_cell_angle_gamma 90.000000
_cell_volume 2845.372138
_symmetry_space_group_name_H-M "I M M 2"
_symmetry_group_IT_number 44
_symmetry_cell_setting 'orthorhombic'
loop_
_space_group_symop_operation_xyz
x,y,z
-x,-y,z
-x,y,z
x,-y,z
1/2+x,1/2+y,1/2+z
1/2-x,1/2-y,1/2+z
1/2-x,1/2+y,1/2+z
1/2+x,1/2-y,1/2+z
loop_
_atom_site_type_symbol
_atom_site_label
_atom_site_fract_x
_atom_site_fract_y
_atom_site_fract_z
Si Si1 0.609401 0.294697 0.875000
Si Si2 0.736966 0.419826 0.895291
Si Si3 0.233662 0.080958 0.116230
Si Si4 0.885227 0.824867 0.948619
Si Si5 0.890885 0.696218 0.588921
Si Si6 0.615991 0.836136 0.538777
Si Si7 0.246153 0.205195 0.735732
O O1 0.500000 0.312637 0.823243
O O2 0.652248 0.365021 0.943001
O O3 0.684127 0.272246 0.771872
O O4 0.602165 0.226138 0.957973
O O5 0.719818 0.500000 0.944619
O O6 0.724284 0.419278 0.755860
O O7 0.845196 0.391288 0.938758
O O8 0.334720 0.121131 0.081633
O O9 0.238761 0.000000 0.068127
O O10 0.140254 0.120790 0.054525
O O11 0.807231 0.838538 0.841493
O O12 0.000000 0.837048 0.910020
O O13 0.867494 0.744034 0.992080
O O14 0.842665 0.757929 0.666308
O O15 0.000000 0.680934 0.641745
O O16 0.500000 0.852182 0.566544
O O17 0.684640 0.846986 0.655569
#
# Coordination Sequence:
#
# PCOD8190265 Si02
#       7
#     8   8   8   8   8   8   8
#     4  11  21  36  60  87 116 152 195 243 295 348
#     4  11  22  39  60  86 122 157 194 244 301 360
#     4  11  22  39  60  86 122 157 194 244 301 360
#     4  11  22  38  63  91 121 159 204 251 299 354
#     4  11  21  36  60  87 116 152 195 243 295 348
#     4  11  22  38  63  91 121 159 204 251 299 354
#     4  12  18  38  64  94 116 152 198 256 300 348
#
# _framework density 19.681080999999999
#
# number of rings (size 3 to 8) (size 9 to 14) (size 15 to 20)
#    0.000    0.857    7.143    0.857    0.000    4.571 
#    0.000    3.571    0.000    0.000    0.000    0.000 
#    0.000    0.000    0.000    0.000    0.000    0.000 
#
# Total GULP energy -347119.765628 kJ/mol
# GULP energy per Si atom -12397.134487 kJ/mol
# Density = 1.963629 g / cm^3
# Si number density = 19.681081 Si / 1000 Ang^3
#
#
#
# Elastic Constant Matrix: (Units=GPa)
#
#
# Indices 1 2 3 4 5 6 
#
# 1 144.6993 31.0791 39.5398 0.0000 0.0000 0.0000
# 2 31.0791 102.8782 19.0523 -0.0001 0.0000 0.0000
# 3 39.5398 19.0523 72.2770 -0.0001 0.0000 0.0000
# 4 0.0000 -0.0001 -0.0001 22.7727 0.0000 0.0000
# 5 0.0000 0.0000 0.0000 0.0000 24.2486 0.0000
# 6 0.0000 0.0000 0.0000 0.0000 0.0000 11.8693
#
#
#
# Elastic Compliance Matrix: (Units=1/GPa)
#
#
# Indices 1 2 3 4 5 6 
#
# 1 0.008424 -0.001778 -0.004140 0.000000 0.000000 0.000000
# 2 -0.001778 0.010594 -0.001820 0.000000 0.000000 0.000000
# 3 -0.004140 -0.001820 0.016580 0.000000 0.000000 0.000000
# 4 0.000000 0.000000 0.000000 0.043912 0.000000 0.000000
# 5 0.000000 0.000000 0.000000 0.000000 0.041239 0.000000
# 6 0.000000 0.000000 0.000000 0.000000 0.000000 0.084251
#
#
# Mechanical properties :
#
#
# Convention : Reuss Voigt Hill
#
# Bulk Modulus (GPa) = 49.69472 55.46630 52.58051
# Shear Modulus (GPa) = 22.00854 27.12367 24.56611
#
# Velocity S-wave (km/s) = 3.34767 3.71638 3.53683
# Velocity P-wave (km/s) = 6.34408 6.83075 6.59190
#
# Compressibility (1/GPa) = 0.02012286
#
# Stress axis : x y z
#
# Youngs Moduli (GPa) = 118.70831 94.38893 60.31344
#
# Poissons Ratio (x) = 0.16784 0.24968
# Poissons Ratio (y) = 0.21109 0.10977
# Poissons Ratio (z) = 0.49142 0.17178
#
# Static dielectric constant tensor:
#      x y z
#    x 3.926850 0.000000 0.000000 
#    y 0.000000 3.572280 0.000000 
#    z 0.000000 0.000000 3.607680 
# 
# 
# High freq. dielectric constant tensor:
#      x y z
#    x 1.778620 0.000000 0.000000 
#    y 0.000000 1.739250 0.000000 
#    z 0.000000 0.000000 1.762240 
# 
# From -- ./inp_files/13249.got.cif
#   From: 2010.03.12/outbox.cif.g09.slc.cpg/sg44_7_cif.got.tgz:13249.got - 2010.04.14 02:36:11.
