data_PCOD8190646
_publ_section_title
;
Structure prediction by ZEFSAII (Michael W. Deem and Ramdas Pophale) SiO2 
 PCOD8190646
Probable space group: I B A 2
;
_chemical_formula_sum "Si O2"
_cell_formula_units_Z 64
_cell_length_a 9.060724
_cell_length_b 13.199696
_cell_length_c 24.826114
_cell_angle_alpha 90.000000
_cell_angle_beta 90.000000
_cell_angle_gamma 90.000000
_cell_volume 2969.173501
_symmetry_space_group_name_H-M "I B A 2"
_symmetry_group_IT_number 45
_symmetry_cell_setting 'orthorhombic'
loop_
_space_group_symop_operation_xyz
x,y,z
-x,-y,z
-x,y,1/2+z
x,-y,1/2+z
1/2+x,1/2+y,1/2+z
1/2-x,1/2-y,1/2+z
1/2-x,1/2+y,z
1/2+x,1/2-y,z
loop_
_atom_site_type_symbol
_atom_site_label
_atom_site_fract_x
_atom_site_fract_y
_atom_site_fract_z
Si Si1 0.178316 0.368846 0.950100
Si Si2 0.580446 0.396608 0.303148
Si Si3 0.834945 0.497955 0.854127
Si Si4 0.468255 0.380545 0.679514
Si Si5 0.789378 0.741358 0.624115
Si Si6 0.953562 0.303044 0.552765
Si Si7 0.993696 0.889991 0.492925
Si Si8 0.371182 0.670999 0.885478
O O1 0.165378 0.472467 0.917515
O O2 0.168042 0.282249 0.905002
O O3 0.051698 0.365554 0.996605
O O4 0.329431 0.352445 0.981431
O O5 0.500000 0.500000 0.318034
O O6 0.751184 0.419579 0.316740
O O7 0.554387 0.361889 0.242667
O O8 0.509756 0.315601 0.344536
O O9 0.763708 0.385088 0.853912
O O10 0.000000 0.500000 0.830876
O O11 0.500000 0.500000 0.667190
O O12 0.315044 0.340449 0.653897
O O13 0.607349 0.310820 0.662417
O O14 0.687055 0.821630 0.591579
O O15 0.894088 0.675497 0.584097
O O16 0.939109 0.183937 0.537584
O O17 0.084713 0.895587 0.437419
O O18 0.000000 0.000000 0.520022
#
# Coordination Sequence:
#
# PCOD8190646 Si02
#       8
#     8   8   8   8   8   8   8   8
#     4  11  22  36  59  91 129 168 212 248 310 383
#     4   9  19  42  64  90 122 170 212 254 325 401
#     4  11  23  36  57  95 133 161 210 260 301 381
#     4  10  23  46  74  93 128 173 217 287 354 390
#     4  10  22  44  66  95 125 161 229 286 329 408
#     4  10  22  38  60  89 131 159 209 279 314 383
#     4  11  19  37  63  89 122 181 215 247 321 392
#     4  10  21  37  60  86 131 171 206 249 309 383
#
# _framework density 21.554819999999999
#
# number of rings (size 3 to 8) (size 9 to 14) (size 15 to 20)
#    0.000    1.750    3.750    0.375    3.500    3.000 
#    0.000   11.250    0.000    0.000    0.000    0.000 
#    0.000    0.000    0.000    0.000    0.000    0.000 
#
# Total GULP energy -396602.462371 kJ/mol
# GULP energy per Si atom -12393.826949 kJ/mol
# Density = 2.150576 g / cm^3
# Si number density = 21.554820 Si / 1000 Ang^3
#
#
#
# Elastic Constant Matrix: (Units=GPa)
#
#
# Indices 1 2 3 4 5 6 
#
# 1 149.9659 33.5620 50.4414 0.0000 0.0000 0.0000
# 2 33.5620 57.7849 38.2787 0.0000 0.0000 0.0000
# 3 50.4414 38.2787 107.1071 0.0000 0.0000 0.0000
# 4 0.0000 0.0000 0.0000 21.9920 0.0000 0.0000
# 5 0.0000 0.0000 0.0000 0.0000 32.8187 0.0000
# 6 0.0000 0.0000 0.0000 0.0000 0.0000 30.1000
#
#
#
# Elastic Compliance Matrix: (Units=1/GPa)
#
#
# Indices 1 2 3 4 5 6 
#
# 1 0.008282 -0.002917 -0.002858 0.000000 0.000000 0.000000
# 2 -0.002917 0.023701 -0.007097 0.000000 0.000000 0.000000
# 3 -0.002858 -0.007097 0.013219 0.000000 0.000000 0.000000
# 4 0.000000 0.000000 0.000000 0.045471 0.000000 0.000000
# 5 0.000000 0.000000 0.000000 0.000000 0.030470 0.000000
# 6 0.000000 0.000000 0.000000 0.000000 0.000000 0.033223
#
#
# Mechanical properties :
#
#
# Convention : Reuss Voigt Hill
#
# Bulk Modulus (GPa) = 51.39172 62.15802 56.77487
# Shear Modulus (GPa) = 26.79592 29.82051 28.30821
#
# Velocity S-wave (km/s) = 3.52966 3.72354 3.62790
# Velocity P-wave (km/s) = 6.36439 6.88376 6.62916
#
# Compressibility (1/GPa) = 0.01945839
#
# Stress axis : x y z
#
# Youngs Moduli (GPa) = 120.73902 42.19242 75.65112
#
# Poissons Ratio (x) = 0.12309 0.21620
# Poissons Ratio (y) = 0.35223 0.53686
# Poissons Ratio (z) = 0.34506 0.29942
#
# Static dielectric constant tensor:
#      x y z
#    x 4.065900 0.000000 0.000000 
#    y 0.000000 3.561650 0.000000 
#    z 0.000000 0.000000 3.882960 
# 
# 
# High freq. dielectric constant tensor:
#      x y z
#    x 1.856750 0.000000 0.000000 
#    y 0.000000 1.822040 0.000000 
#    z 0.000000 0.000000 1.841440 
# 
# From -- ./inp_files/9624.got.cif
#   From: 2010.03.12/outbox.cif.g09.slc.cpg/sg45_5_cif.got.tgz:9624.got - 2010.04.14 02:50:11.
