data_PCOD8190084
_publ_section_title
;
Structure prediction by ZEFSAII (Michael W. Deem and Ramdas Pophale) SiO2 
 PCOD8190084
Probable space group: I M M 2
;
_chemical_formula_sum "Si O2"
_cell_formula_units_Z 40
_cell_length_a 22.762242
_cell_length_b 8.792983
_cell_length_c 10.135999
_cell_angle_alpha 90.000000
_cell_angle_beta 90.000000
_cell_angle_gamma 90.000000
_cell_volume 2028.699998
_symmetry_space_group_name_H-M "I M M 2"
_symmetry_group_IT_number 44
_symmetry_cell_setting 'orthorhombic'
loop_
_space_group_symop_operation_xyz
x,y,z
-x,-y,z
-x,y,z
x,-y,z
1/2+x,1/2+y,1/2+z
1/2-x,1/2-y,1/2+z
1/2-x,1/2+y,1/2+z
1/2+x,1/2-y,1/2+z
loop_
_atom_site_type_symbol
_atom_site_label
_atom_site_fract_x
_atom_site_fract_y
_atom_site_fract_z
Si Si1 0.500000 0.320845 0.464931
Si Si2 0.173916 0.675167 0.343565
Si Si3 0.615973 0.677259 0.089122
Si Si4 0.383369 0.823372 0.565517
Si Si5 0.000000 0.321593 0.676953
Si Si6 0.309645 0.676140 0.343538
O O1 0.500000 0.500000 0.453097
O O2 0.557244 0.269285 0.543611
O O3 0.500000 0.257064 0.318220
O O4 0.165470 0.500000 0.385521
O O5 0.150404 0.784589 0.456544
O O6 0.138608 0.713104 0.211557
O O7 0.241830 0.712971 0.318661
O O8 0.600487 0.500000 0.092101
O O9 0.556389 0.773144 0.092910
O O10 0.656061 0.724628 0.212340
O O11 0.332689 0.775532 0.464436
O O12 0.397009 0.000000 0.545258
O O13 0.000000 0.500000 0.699095
O O14 0.320339 0.500000 0.377098
#
# Coordination Sequence:
#
# PCOD8190084 Si02
#       6
#     4   8   8   8   4   8
#     4  12  24  41  64  91 122 158 202 256 308 369
#     4  10  23  41  60  90 129 166 206 252 305 363
#     4  11  23  40  64  93 125 164 205 253 307 363
#     4  11  23  40  64  92 122 163 208 255 307 364
#     4  12  24  41  66  93 120 158 204 254 306 367
#     4  10  21  39  63  90 125 165 206 255 304 361
#
# _framework density 19.717058000000002
#
# number of rings (size 3 to 8) (size 9 to 14) (size 15 to 20)
#    0.000    1.200    2.000    4.200    0.000    5.600 
#    0.000    1.000    0.000    0.000    0.000    0.000 
#    0.000    0.000    0.000    0.000    0.000    0.000 
#
# Total GULP energy -248151.195780 kJ/mol
# GULP energy per Si atom -12407.559789 kJ/mol
# Density = 1.967218 g / cm^3
# Si number density = 19.717058 Si / 1000 Ang^3
#
#
#
# Elastic Constant Matrix: (Units=GPa)
#
#
# Indices 1 2 3 4 5 6 
#
# 1 118.9845 43.2300 25.8619 0.0000 0.0000 0.0000
# 2 43.2300 105.5138 42.6681 0.0000 0.0000 0.0000
# 3 25.8619 42.6681 91.2563 0.0000 0.0000 0.0000
# 4 0.0000 0.0000 0.0000 34.9724 0.0000 0.0000
# 5 0.0000 0.0000 0.0000 0.0000 15.3645 0.0000
# 6 0.0000 0.0000 0.0000 0.0000 0.0000 28.8978
#
#
#
# Elastic Compliance Matrix: (Units=1/GPa)
#
#
# Indices 1 2 3 4 5 6 
#
# 1 0.009968 -0.003627 -0.001129 0.000000 0.000000 0.000000
# 2 -0.003627 0.013007 -0.005054 0.000000 0.000000 0.000000
# 3 -0.001129 -0.005054 0.013641 0.000000 0.000000 0.000000
# 4 0.000000 0.000000 0.000000 0.028594 0.000000 0.000000
# 5 0.000000 0.000000 0.000000 0.000000 0.065085 0.000000
# 6 0.000000 0.000000 0.000000 0.000000 0.000000 0.034605
#
#
# Mechanical properties :
#
#
# Convention : Reuss Voigt Hill
#
# Bulk Modulus (GPa) = 58.83692 59.91941 59.37816
# Shear Modulus (GPa) = 26.29017 29.44656 27.86836
#
# Velocity S-wave (km/s) = 3.65550 3.86872 3.76362
# Velocity P-wave (km/s) = 6.90813 7.10011 7.00478
#
# Compressibility (1/GPa) = 0.01699613
#
# Stress axis : x y z
#
# Youngs Moduli (GPa) = 100.32366 76.88015 73.30847
#
# Poissons Ratio (x) = 0.27888 0.08275
# Poissons Ratio (y) = 0.36392 0.37048
# Poissons Ratio (z) = 0.11324 0.38853
#
# Static dielectric constant tensor:
#      x y z
#    x 3.800910 0.000000 0.000000 
#    y 0.000000 3.615510 0.000000 
#    z 0.000000 0.000000 3.563930 
# 
# 
# High freq. dielectric constant tensor:
#      x y z
#    x 1.786180 0.000000 0.000000 
#    y 0.000000 1.774430 0.000000 
#    z 0.000000 0.000000 1.772290 
# 
# From -- ./inp_files/9242.got.cif
#   From: 2010.03.12/outbox.cif.g09.slc.cpg/sg44_5_cif.got.tgz:9242.got - 2010.04.14 02:36:11.
