data_PCOD8190357
_publ_section_title
;
Structure prediction by ZEFSAII (Michael W. Deem and Ramdas Pophale) SiO2 
 PCOD8190357
Probable space group: I B A 2
;
_chemical_formula_sum "Si O2"
_cell_formula_units_Z 60
_cell_length_a 12.489856
_cell_length_b 25.437084
_cell_length_c 9.007034
_cell_angle_alpha 90.000000
_cell_angle_beta 90.000000
_cell_angle_gamma 90.000000
_cell_volume 2861.584387
_symmetry_space_group_name_H-M "I B A 2"
_symmetry_group_IT_number 45
_symmetry_cell_setting 'orthorhombic'
loop_
_space_group_symop_operation_xyz
x,y,z
-x,-y,z
-x,y,1/2+z
x,-y,1/2+z
1/2+x,1/2+y,1/2+z
1/2-x,1/2-y,1/2+z
1/2-x,1/2+y,z
1/2+x,1/2-y,z
loop_
_atom_site_type_symbol
_atom_site_label
_atom_site_fract_x
_atom_site_fract_y
_atom_site_fract_z
Si Si1 0.500000 0.000000 0.186800
Si Si2 0.707420 0.939382 0.988948
Si Si3 0.022714 0.308268 0.784259
Si Si4 0.776565 0.539397 0.146209
Si Si5 0.141358 0.733113 0.567454
Si Si6 0.258061 0.135224 0.477582
Si Si7 0.241916 0.663140 0.150662
Si Si8 0.979692 0.585996 0.908695
O O1 0.406215 0.966008 0.099587
O O2 0.562660 0.958322 0.293735
O O3 0.734799 0.952549 0.819886
O O4 0.576055 0.938906 0.011866
O O5 0.755908 0.883887 0.034395
O O6 0.766518 0.983078 0.091079
O O7 0.071755 0.274099 0.918823
O O8 0.118489 0.320082 0.667494
O O9 0.965100 0.363918 0.824126
O O10 0.932238 0.272657 0.711399
O O11 0.706904 0.585779 0.065883
O O12 0.240120 0.690691 0.565714
O O13 0.190062 0.790728 0.577800
O O14 0.212863 0.143733 0.311824
O O15 0.381701 0.116492 0.483413
#
# Coordination Sequence:
#
# PCOD8190357 Si02
#       8
#     4   8   8   8   8   8   8   8
#     4  10  16  24  42  66 100 138 180 208 238 296
#     4  11  20  31  48  69 106 141 180 218 258 313
#     4  10  21  35  54  77 107 143 183 227 272 317
#     4  11  20  29  45  70 102 141 179 216 256 309
#     4  10  21  36  55  79 108 143 181 225 274 323
#     4  10  20  32  48  71 103 140 180 214 257 310
#     4  10  21  37  53  75 109 145 181 222 266 320
#     4   9  17  28  44  67  99 141 176 209 246 299
#
# _framework density 20.967404999999999
#
# number of rings (size 3 to 8) (size 9 to 14) (size 15 to 20)
#    0.000    2.133    0.000    8.000    0.000    8.000 
#    0.000    0.000    0.000    0.000    0.000    0.000 
#    0.000   22.400    0.000    0.000    0.000    0.000 
#
# Total GULP energy -371677.839297 kJ/mol
# GULP energy per Si atom -12389.261310 kJ/mol
# Density = 2.091968 g / cm^3
# Si number density = 20.967405 Si / 1000 Ang^3
#
#
#
# Elastic Constant Matrix: (Units=GPa)
#
#
# Indices 1 2 3 4 5 6 
#
# 1 9.1986 18.4895 12.1146 -0.0004 0.0001 -0.0001
# 2 18.4895 159.9167 67.3050 -0.0025 0.0000 -0.0001
# 3 12.1146 67.3050 103.5355 -0.0068 -0.0015 0.0001
# 4 -0.0004 -0.0025 -0.0068 37.4276 -0.0001 0.0000
# 5 0.0001 0.0000 -0.0015 -0.0001 8.3207 0.0001
# 6 -0.0001 -0.0001 0.0001 0.0000 0.0001 30.0227
#
#
#
# Elastic Compliance Matrix: (Units=1/GPa)
#
#
# Indices 1 2 3 4 5 6 
#
# 1 0.146816 -0.013415 -0.008458 -0.000001 -0.000004 0.000000
# 2 -0.013415 0.009834 -0.004823 0.000000 -0.000001 0.000000
# 3 -0.008458 -0.004823 0.013784 0.000002 0.000003 0.000000
# 4 -0.000001 0.000000 0.000002 0.026718 0.000000 0.000000
# 5 -0.000004 -0.000001 0.000003 0.000000 0.120182 0.000000
# 6 0.000000 0.000000 0.000000 0.000000 0.000000 0.033308
#
#
# Mechanical properties :
#
#
# Convention : Reuss Voigt Hill
#
# Bulk Modulus (GPa) = 8.54399 52.05211 30.29805
# Shear Modulus (GPa) = 11.28542 26.80365 19.04454
#
# Velocity S-wave (km/s) = 2.32251 3.57928 3.01706
# Velocity P-wave (km/s) = 3.35795 6.47772 5.15929
#
# Compressibility (1/GPa) = 0.11704128
#
# Stress axis : x y z
#
# Youngs Moduli (GPa) = 6.81124 101.68512 72.54978
#
# Poissons Ratio (x) = 1.36411 0.61364
# Poissons Ratio (y) = 0.09137 0.34993
# Poissons Ratio (z) = 0.05761 0.49045
#
# Static dielectric constant tensor:
#      x y z
#    x 2.929590 0.000000 0.000000 
#    y 0.000000 4.567400 0.000000 
#    z 0.000000 0.000000 3.934200 
# 
# 
# High freq. dielectric constant tensor:
#      x y z
#    x 1.711730 0.000000 0.000000 
#    y 0.000000 1.852500 0.000000 
#    z 0.000000 0.000000 1.841250 
# 
# From -- ./inp_files/1434.got.cif
#   From: 2010.03.12/outbox.cif.g09.slc.cpg/sg45_1_cif.got.tgz:1434.got - 2010.04.14 02:50:11.
