data_PCOD8190191
_publ_section_title
;
Structure prediction by ZEFSAII (Michael W. Deem and Ramdas Pophale) SiO2 
 PCOD8190191
Probable space group: I M M 2
;
_chemical_formula_sum "Si O2"
_cell_formula_units_Z 56
_cell_length_a 12.679948
_cell_length_b 32.108836
_cell_length_c 6.926929
_cell_angle_alpha 90.000000
_cell_angle_beta 90.000000
_cell_angle_gamma 90.000000
_cell_volume 2820.218588
_symmetry_space_group_name_H-M "I M M 2"
_symmetry_group_IT_number 44
_symmetry_cell_setting 'orthorhombic'
loop_
_space_group_symop_operation_xyz
x,y,z
-x,-y,z
-x,y,z
x,-y,z
1/2+x,1/2+y,1/2+z
1/2-x,1/2-y,1/2+z
1/2-x,1/2+y,1/2+z
1/2+x,1/2-y,1/2+z
loop_
_atom_site_type_symbol
_atom_site_label
_atom_site_fract_x
_atom_site_fract_y
_atom_site_fract_z
Si Si1 0.118412 0.884519 0.050820
Si Si2 0.795682 0.951911 0.786219
Si Si3 0.117095 0.452188 0.581446
Si Si4 0.380800 0.833348 0.557532
Si Si5 0.245753 0.307953 0.411355
Si Si6 0.749965 0.408329 0.896414
Si Si7 0.120388 0.262980 0.744155
O O1 0.147136 0.899981 0.265799
O O2 0.000000 0.866720 0.054316
O O3 0.121319 0.922727 0.898300
O O4 0.200912 0.849091 0.995240
O O5 0.786154 0.939931 0.562730
O O6 0.832044 0.000000 0.802719
O O7 0.682782 0.944408 0.887257
O O8 0.118722 0.500000 0.642439
O O9 0.159209 0.427564 0.764798
O O10 0.000000 0.436119 0.535179
O O11 0.500000 0.851443 0.556845
O O12 0.350012 0.821042 0.773833
O O13 0.295510 0.866316 0.485307
O O14 0.374314 0.792379 0.428777
O O15 0.194471 0.280844 0.578659
O O16 0.335572 0.282242 0.300060
O O17 0.000000 0.257915 0.671059
#
# Coordination Sequence:
#
# PCOD8190191 Si02
#       7
#     8   8   8   8   8   8   8
#     4  11  25  43  65  92 126 165 212 267 320 371
#     4  10  22  41  63  88 126 167 213 266 314 375
#     4   9  19  35  57  88 124 161 202 252 312 373
#     4  11  23  39  62  93 125 162 203 251 313 376
#     4  12  22  45  64  94 127 163 209 258 311 373
#     4  11  21  40  60  92 123 160 211 260 316 372
#     4  11  24  41  65  94 127 163 204 255 311 372
#
# _framework density 19.856618000000001
#
# number of rings (size 3 to 8) (size 9 to 14) (size 15 to 20)
#    0.000    1.286    4.286    1.714    0.000    2.571 
#    0.000    2.857    0.000    0.000    0.000    0.000 
#    0.000    0.000    0.000    0.000    0.000    0.000 
#
# Total GULP energy -347301.130023 kJ/mol
# GULP energy per Si atom -12403.611787 kJ/mol
# Density = 1.981142 g / cm^3
# Si number density = 19.856618 Si / 1000 Ang^3
#
#
#
# Elastic Constant Matrix: (Units=GPa)
#
#
# Indices 1 2 3 4 5 6 
#
# 1 95.7731 21.9036 28.6195 0.0036 0.0015 -0.0039
# 2 21.9036 84.5803 36.0295 0.0187 -0.0101 -0.0065
# 3 28.6195 36.0295 114.0058 0.0511 0.0553 -0.0382
# 4 0.0036 0.0187 0.0511 36.8513 0.0008 -0.0048
# 5 0.0015 -0.0101 0.0553 0.0008 18.3017 -0.0004
# 6 -0.0039 -0.0065 -0.0382 -0.0048 -0.0004 24.2960
#
#
#
# Elastic Compliance Matrix: (Units=1/GPa)
#
#
# Indices 1 2 3 4 5 6 
#
# 1 0.011584 -0.002035 -0.002265 0.000003 0.000005 -0.000002
# 2 -0.002035 0.014020 -0.003920 -0.000001 0.000020 -0.000003
# 3 -0.002265 -0.003920 0.010579 -0.000012 -0.000034 0.000015
# 4 0.000003 -0.000001 -0.000012 0.027136 -0.000001 0.000005
# 5 0.000005 0.000020 -0.000034 -0.000001 0.054640 0.000001
# 6 -0.000002 -0.000003 0.000015 0.000005 0.000001 0.041159
#
#
# Mechanical properties :
#
#
# Convention : Reuss Voigt Hill
#
# Bulk Modulus (GPa) = 50.65098 51.94049 51.29573
# Shear Modulus (GPa) = 27.45176 29.74357 28.59767
#
# Velocity S-wave (km/s) = 3.72223 3.87449 3.79912
# Velocity P-wave (km/s) = 6.63604 6.79928 6.71816
#
# Compressibility (1/GPa) = 0.01974295
#
# Stress axis : x y z
#
# Youngs Moduli (GPa) = 86.32953 71.32730 94.52828
#
# Poissons Ratio (x) = 0.14515 0.21408
# Poissons Ratio (y) = 0.17568 0.37054
# Poissons Ratio (z) = 0.19551 0.27959
#
# Static dielectric constant tensor:
#      x y z
#    x 3.640430 -0.000010 0.000060 
#    y -0.000010 3.656010 -0.000040 
#    z 0.000060 -0.000040 3.680890 
# 
# 
# High freq. dielectric constant tensor:
#      x y z
#    x 1.770850 0.000000 0.000000 
#    y 0.000000 1.782210 0.000000 
#    z 0.000000 0.000000 1.782390 
# 
# From -- ./inp_files/1692.got.cif
#   From: 2010.03.12/outbox.cif.g09.slc.cpg/sg44_1_cif.got.tgz:1692.got - 2010.04.14 02:36:11.
