data_PCOD8190465
_publ_section_title
;
Structure prediction by ZEFSAII (Michael W. Deem and Ramdas Pophale) SiO2 
 PCOD8190465
Probable space group: I B A 2
;
_chemical_formula_sum "Si O2"
_cell_formula_units_Z 40
_cell_length_a 9.545726
_cell_length_b 15.029419
_cell_length_c 13.371217
_cell_angle_alpha 90.000000
_cell_angle_beta 90.000000
_cell_angle_gamma 90.000000
_cell_volume 1918.324588
_symmetry_space_group_name_H-M "I B A 2"
_symmetry_group_IT_number 45
_symmetry_cell_setting 'orthorhombic'
loop_
_space_group_symop_operation_xyz
x,y,z
-x,-y,z
-x,y,1/2+z
x,-y,1/2+z
1/2+x,1/2+y,1/2+z
1/2-x,1/2-y,1/2+z
1/2-x,1/2+y,z
1/2+x,1/2-y,z
loop_
_atom_site_type_symbol
_atom_site_label
_atom_site_fract_x
_atom_site_fract_y
_atom_site_fract_z
Si Si1 0.997895 0.903713 0.937980
Si Si2 0.503007 0.097959 0.696872
Si Si3 0.230948 0.841168 0.295339
Si Si4 0.490986 0.707902 0.629028
Si Si5 0.289587 0.350421 0.780365
O O1 0.849023 0.888923 0.885172
O O2 0.116407 0.909878 0.852785
O O3 0.029871 0.826853 0.017260
O O4 0.000000 0.000000 0.992095
O O5 0.368016 0.102006 0.768884
O O6 0.502449 0.183641 0.623172
O O7 0.642443 0.101072 0.764310
O O8 0.500000 0.000000 0.642840
O O9 0.273387 0.744137 0.335921
O O10 0.136585 0.826039 0.196713
O O11 0.634695 0.667700 0.673591
#
# Coordination Sequence:
#
# PCOD8190465 Si02
#       5
#     8   8   8   8   8
#     4  11  22  37  61  87 113 152 196 233 277 340
#     4  10  19  36  62  87 115 150 187 236 292 335
#     4   9  20  39  59  82 116 152 188 235 286 337
#     4   9  21  39  57  82 118 156 191 229 279 343
#     4   9  20  39  59  82 116 152 188 235 286 337
#
# _framework density 20.851528999999999
#
# number of rings (size 3 to 8) (size 9 to 14) (size 15 to 20)
#    0.000    2.400    0.000    2.400    0.000    9.600 
#    0.000    2.000    0.000   21.600    0.000    0.000 
#    0.000    0.000    0.000    0.000    0.000    0.000 
#
# Total GULP energy -247899.632737 kJ/mol
# GULP energy per Si atom -12394.981637 kJ/mol
# Density = 2.080407 g / cm^3
# Si number density = 20.851529 Si / 1000 Ang^3
#
#
#
# Elastic Constant Matrix: (Units=GPa)
#
#
# Indices 1 2 3 4 5 6 
#
# 1 103.2341 14.4476 6.5261 0.0000 0.0000 0.0000
# 2 14.4476 143.2141 32.1162 0.0000 0.0000 0.0000
# 3 6.5261 32.1162 62.8681 0.0000 0.0000 0.0000
# 4 0.0000 0.0000 0.0000 20.7387 0.0000 0.0000
# 5 0.0000 0.0000 0.0000 0.0000 6.5657 0.0000
# 6 0.0000 0.0000 0.0000 0.0000 0.0000 8.2112
#
#
#
# Elastic Compliance Matrix: (Units=1/GPa)
#
#
# Indices 1 2 3 4 5 6 
#
# 1 0.009844 -0.000863 -0.000581 0.000000 0.000000 0.000000
# 2 -0.000863 0.007962 -0.003978 0.000000 0.000000 0.000000
# 3 -0.000581 -0.003978 0.017999 0.000000 0.000000 0.000000
# 4 0.000000 0.000000 0.000000 0.048219 0.000000 0.000000
# 5 0.000000 0.000000 0.000000 0.000000 0.152306 0.000000
# 6 0.000000 0.000000 0.000000 0.000000 0.000000 0.121785
#
#
# Mechanical properties :
#
#
# Convention : Reuss Voigt Hill
#
# Bulk Modulus (GPa) = 40.06196 46.16625 43.11411
# Shear Modulus (GPa) = 13.25282 24.18488 18.71885
#
# Velocity S-wave (km/s) = 2.52381 3.40937 2.99945
# Velocity P-wave (km/s) = 5.26759 6.13897 5.71989
#
# Compressibility (1/GPa) = 0.02496133
#
# Stress axis : x y z
#
# Youngs Moduli (GPa) = 101.58260 125.60314 55.55981
#
# Poissons Ratio (x) = 0.10837 0.03229
# Poissons Ratio (y) = 0.08764 0.22100
# Poissons Ratio (z) = 0.05903 0.49960
#
# Static dielectric constant tensor:
#      x y z
#    x 4.034180 0.000000 0.000000 
#    y 0.000000 3.836210 0.000000 
#    z 0.000000 0.000000 3.196900 
# 
# 
# High freq. dielectric constant tensor:
#      x y z
#    x 1.836320 0.000000 0.000000 
#    y 0.000000 1.827810 0.000000 
#    z 0.000000 0.000000 1.766020 
# 
# From -- ./inp_files/4368.got.cif
#   From: 2010.03.12/outbox.cif.g09.slc.cpg/sg45_3_cif.got.tgz:4368.got - 2010.04.14 02:50:11.
