data_PCOD8190292
_publ_section_title
;
Structure prediction by ZEFSAII (Michael W. Deem and Ramdas Pophale) SiO2 
 PCOD8190292
Probable space group: I M M 2
;
_chemical_formula_sum "Si O2"
_cell_formula_units_Z 48
_cell_length_a 8.373651
_cell_length_b 27.504582
_cell_length_c 9.929090
_cell_angle_alpha 90.000000
_cell_angle_beta 90.000000
_cell_angle_gamma 90.000000
_cell_volume 2286.806156
_symmetry_space_group_name_H-M "I M M 2"
_symmetry_group_IT_number 44
_symmetry_cell_setting 'orthorhombic'
loop_
_space_group_symop_operation_xyz
x,y,z
-x,-y,z
-x,y,z
x,-y,z
1/2+x,1/2+y,1/2+z
1/2-x,1/2-y,1/2+z
1/2-x,1/2+y,1/2+z
1/2+x,1/2-y,1/2+z
loop_
_atom_site_type_symbol
_atom_site_label
_atom_site_fract_x
_atom_site_fract_y
_atom_site_fract_z
Si Si1 0.314298 0.210673 0.417400
Si Si2 0.316293 0.608637 0.320320
Si Si3 0.810454 0.054952 0.083921
Si Si4 0.185573 0.111022 0.348143
Si Si5 0.181765 0.554190 0.088775
Si Si6 0.184852 0.708864 0.227247
O O1 0.500000 0.197097 0.416948
O O2 0.215108 0.168649 0.341240
O O3 0.286114 0.259139 0.331589
O O4 0.256249 0.217049 0.572829
O O5 0.500000 0.625058 0.334544
O O6 0.247186 0.586472 0.458506
O O7 0.300633 0.566080 0.210656
O O8 0.209430 0.653383 0.271144
O O9 0.752852 0.084123 0.214730
O O10 0.000000 0.051829 0.076678
O O11 0.739274 0.000000 0.083811
O O12 0.291379 0.091435 0.468948
O O13 0.000000 0.099971 0.373307
O O14 0.220407 0.500000 0.037451
O O15 0.000000 0.559120 0.138967
O O16 0.000000 0.722950 0.240307
#
# Coordination Sequence:
#
# PCOD8190292 Si02
#       6
#     8   8   8   8   8   8
#     4  11  25  44  66  93 127 163 206 258 316 375
#     4  11  22  39  65  93 124 163 209 257 312 375
#     4   9  20  38  60  91 128 163 205 256 304 357
#     4  11  22  39  65  93 124 163 209 257 312 375
#     4  11  23  39  60  89 126 165 207 258 312 369
#     4  11  25  44  66  93 127 163 206 258 316 375
#
# _framework density 20.989971000000001
#
# number of rings (size 3 to 8) (size 9 to 14) (size 15 to 20)
#    0.000    1.333    1.667    3.500    2.333    4.667 
#    0.000    2.500    0.000    6.000    0.000    0.000 
#    0.000    0.000    0.000    0.000    0.000    0.000 
#
# Total GULP energy -297699.198490 kJ/mol
# GULP energy per Si atom -12404.133270 kJ/mol
# Density = 2.094220 g / cm^3
# Si number density = 20.989971 Si / 1000 Ang^3
#
#
#
# Elastic Constant Matrix: (Units=GPa)
#
#
# Indices 1 2 3 4 5 6 
#
# 1 39.9621 21.8067 27.4740 -0.0001 0.0001 -0.0001
# 2 21.8067 106.3966 53.6691 0.0009 -0.0007 0.0006
# 3 27.4740 53.6691 158.4275 0.0008 -0.0011 0.0003
# 4 -0.0001 0.0009 0.0008 43.1618 -0.0005 0.0003
# 5 0.0001 -0.0007 -0.0011 -0.0005 17.0758 -0.0004
# 6 -0.0001 0.0006 0.0003 0.0003 -0.0004 27.6636
#
#
#
# Elastic Compliance Matrix: (Units=1/GPa)
#
#
# Indices 1 2 3 4 5 6 
#
# 1 0.029916 -0.004239 -0.003752 0.000000 -0.000001 0.000000
# 2 -0.004239 0.011936 -0.003309 0.000000 0.000000 0.000000
# 3 -0.003752 -0.003309 0.008083 0.000000 0.000000 0.000000
# 4 0.000000 0.000000 0.000000 0.023169 0.000001 0.000000
# 5 -0.000001 0.000000 0.000000 0.000001 0.058562 0.000001
# 6 0.000000 0.000000 0.000000 0.000000 0.000001 0.036149
#
#
# Mechanical properties :
#
#
# Convention : Reuss Voigt Hill
#
# Bulk Modulus (GPa) = 36.57992 56.74287 46.66140
# Shear Modulus (GPa) = 25.05923 31.03601 28.04762
#
# Velocity S-wave (km/s) = 3.45899 3.84944 3.65943
# Velocity P-wave (km/s) = 5.78083 6.84468 6.33512
#
# Compressibility (1/GPa) = 0.02733740
#
# Stress axis : x y z
#
# Youngs Moduli (GPa) = 33.42653 83.77672 123.70887
#
# Poissons Ratio (x) = 0.35513 0.46416
# Poissons Ratio (y) = 0.14169 0.40929
# Poissons Ratio (z) = 0.12542 0.27718
#
# Static dielectric constant tensor:
#      x y z
#    x 3.473570 0.000000 0.000000 
#    y 0.000000 3.863070 0.000000 
#    z 0.000000 0.000000 3.972750 
# 
# 
# High freq. dielectric constant tensor:
#      x y z
#    x 1.807320 0.000000 0.000000 
#    y 0.000000 1.833340 0.000000 
#    z 0.000000 0.000000 1.830170 
# 
# From -- ./inp_files/4936.got.cif
#   From: 2010.03.12/outbox.cif.g09.slc.cpg/sg44_3_cif.got.tgz:4936.got - 2010.04.14 02:36:11.
