data_PCOD8190431
_publ_section_title
;
Structure prediction by ZEFSAII (Michael W. Deem and Ramdas Pophale) SiO2 
 PCOD8190431
Probable space group: I B A 2
;
_chemical_formula_sum "Si O2"
_cell_formula_units_Z 48
_cell_length_a 18.528001
_cell_length_b 8.833159
_cell_length_c 16.071663
_cell_angle_alpha 90.000000
_cell_angle_beta 90.000000
_cell_angle_gamma 90.000000
_cell_volume 2630.300883
_symmetry_space_group_name_H-M "I B A 2"
_symmetry_group_IT_number 45
_symmetry_cell_setting 'orthorhombic'
loop_
_space_group_symop_operation_xyz
x,y,z
-x,-y,z
-x,y,1/2+z
x,-y,1/2+z
1/2+x,1/2+y,1/2+z
1/2-x,1/2-y,1/2+z
1/2-x,1/2+y,z
1/2+x,1/2-y,z
loop_
_atom_site_type_symbol
_atom_site_label
_atom_site_fract_x
_atom_site_fract_y
_atom_site_fract_z
Si Si1 0.674451 0.284722 0.072470
Si Si2 0.788612 0.383756 0.811662
Si Si3 0.922415 0.701093 0.733063
Si Si4 0.582232 0.154150 0.208424
Si Si5 0.670923 0.814416 0.387520
Si Si6 0.698693 0.397113 0.650766
O O1 0.606767 0.212698 0.119289
O O2 0.677978 0.462796 0.092176
O O3 0.751029 0.213098 0.096938
O O4 0.653471 0.247505 0.978071
O O5 0.859336 0.296638 0.777543
O O6 0.744904 0.258752 0.859009
O O7 0.813055 0.507345 0.879640
O O8 0.742132 0.452199 0.733640
O O9 0.916513 0.527544 0.704716
O O10 0.895979 0.726268 0.827551
O O11 0.874852 0.807275 0.672999
O O12 0.007290 0.738075 0.729754
#
# Coordination Sequence:
#
# PCOD8190431 Si02
#       6
#     8   8   8   8   8   8
#     4  11  20  32  52  79 104 131 172 222 262 298
#     4   9  17  32  53  74 100 135 171 204 254 314
#     4   9  19  36  55  74 103 140 175 206 253 320
#     4   9  18  35  55  75 101 139 175 205 254 318
#     4  10  19  32  51  77 102 129 169 220 258 295
#     4  10  19  33  54  77 104 139 174 209 257 316
#
# _framework density 18.248861999999999
#
# number of rings (size 3 to 8) (size 9 to 14) (size 15 to 20)
#    0.000    2.333    0.000    6.000    0.000    0.667 
#    0.000    8.333    0.000    6.000    0.000    0.000 
#    0.000    0.000    0.000    0.000    0.000    0.000 
#
# Total GULP energy -297482.756609 kJ/mol
# GULP energy per Si atom -12395.114859 kJ/mol
# Density = 1.820733 g / cm^3
# Si number density = 18.248862 Si / 1000 Ang^3
#
#
#
# Elastic Constant Matrix: (Units=GPa)
#
#
# Indices 1 2 3 4 5 6 
#
# 1 158.6403 45.1977 71.6580 0.0000 0.0000 0.0000
# 2 45.1977 67.9268 57.1886 0.0000 0.0000 0.0000
# 3 71.6580 57.1886 110.2184 0.0000 0.0000 0.0000
# 4 0.0000 0.0000 0.0000 26.1166 0.0000 0.0000
# 5 0.0000 0.0000 0.0000 0.0000 13.7096 0.0000
# 6 0.0000 0.0000 0.0000 0.0000 0.0000 24.5582
#
#
#
# Elastic Compliance Matrix: (Units=1/GPa)
#
#
# Indices 1 2 3 4 5 6 
#
# 1 0.009060 -0.001899 -0.004905 0.000000 0.000000 0.000000
# 2 -0.001899 0.026539 -0.012536 0.000000 0.000000 0.000000
# 3 -0.004905 -0.012536 0.018767 0.000000 0.000000 0.000000
# 4 0.000000 0.000000 0.000000 0.038290 0.000000 0.000000
# 5 0.000000 0.000000 0.000000 0.000000 0.072942 0.000000
# 6 0.000000 0.000000 0.000000 0.000000 0.000000 0.040720
#
#
# Mechanical properties :
#
#
# Convention : Reuss Voigt Hill
#
# Bulk Modulus (GPa) = 63.75029 76.09712 69.92370
# Shear Modulus (GPa) = 19.98195 23.72629 21.85412
#
# Velocity S-wave (km/s) = 3.31262 3.60967 3.46433
# Velocity P-wave (km/s) = 7.04563 7.69176 7.37578
#
# Compressibility (1/GPa) = 0.01568620
#
# Stress axis : x y z
#
# Youngs Moduli (GPa) = 110.37218 37.67996 53.28642
#
# Poissons Ratio (x) = 0.07154 0.26139
# Poissons Ratio (y) = 0.20957 0.66799
# Poissons Ratio (z) = 0.54141 0.47235
#
# Static dielectric constant tensor:
#      x y z
#    x 3.715590 0.000000 0.000000 
#    y 0.000000 3.279190 0.000000 
#    z 0.000000 0.000000 3.335060 
# 
# 
# High freq. dielectric constant tensor:
#      x y z
#    x 1.708300 0.000000 0.000000 
#    y 0.000000 1.704410 0.000000 
#    z 0.000000 0.000000 1.692510 
# 
# From -- ./inp_files/5588.got.cif
#   From: 2010.03.12/outbox.cif.g09.slc.cpg/sg45_3_cif.got.tgz:5588.got - 2010.04.14 02:50:11.
