data_PCOD8190758
_publ_section_title
;
Structure prediction by ZEFSAII (Michael W. Deem and Ramdas Pophale) SiO2 
 PCOD8190758
Probable space group: I B A 2
;
_chemical_formula_sum "Si O2"
_cell_formula_units_Z 56
_cell_length_a 5.507856
_cell_length_b 31.547018
_cell_length_c 12.879646
_cell_angle_alpha 90.000000
_cell_angle_beta 90.000000
_cell_angle_gamma 90.000000
_cell_volume 2237.921339
_symmetry_space_group_name_H-M "I B A 2"
_symmetry_group_IT_number 45
_symmetry_cell_setting 'orthorhombic'
loop_
_space_group_symop_operation_xyz
x,y,z
-x,-y,z
-x,y,1/2+z
x,-y,1/2+z
1/2+x,1/2+y,1/2+z
1/2-x,1/2-y,1/2+z
1/2-x,1/2+y,z
1/2+x,1/2-y,z
loop_
_atom_site_type_symbol
_atom_site_label
_atom_site_fract_x
_atom_site_fract_y
_atom_site_fract_z
Si Si1 0.941704 0.146904 0.232450
Si Si2 0.746790 0.975181 0.173501
Si Si3 0.610505 0.737423 0.714176
Si Si4 0.104678 0.646304 0.910950
Si Si5 0.057997 0.902368 0.547570
Si Si6 0.383682 0.230048 0.481700
Si Si7 0.759400 0.919567 0.362492
O O1 0.091116 0.187576 0.193925
O O2 0.707684 0.161570 0.298855
O O3 0.873074 0.118221 0.132385
O O4 0.111813 0.118897 0.304411
O O5 0.748260 0.933169 0.103017
O O6 0.730513 0.961782 0.294470
O O7 0.500000 0.000000 0.144302
O O8 0.000000 0.000000 0.155715
O O9 0.867107 0.745844 0.774935
O O10 0.631737 0.763519 0.605965
O O11 0.912329 0.680342 0.954745
O O12 0.999552 0.599045 0.895424
O O13 0.314124 0.638631 0.995757
O O14 0.909559 0.930908 0.465937
O O15 0.622393 0.254654 0.435128
#
# Coordination Sequence:
#
# PCOD8190758 Si02
#       7
#     8   8   8   8   8   8   8
#     4  10  24  43  68 101 146 194 246 309 367 435
#     4  11  28  52  79 113 156 185 237 307 373 451
#     4  10  22  38  62  95 136 187 244 300 359 415
#     4  11  25  43  74 103 150 197 253 313 362 446
#     4  10  24  47  75 109 138 200 246 294 371 454
#     4  10  23  41  64  99 141 189 245 307 361 415
#     4  10  26  46  75 107 148 191 248 299 374 443
#
# _framework density 25.023222000000001
#
# number of rings (size 3 to 8) (size 9 to 14) (size 15 to 20)
#    0.000    1.714    0.000    1.714   18.000    2.857 
#    0.000    0.000    0.000    0.000    0.000    0.000 
#    0.000    0.000    0.000    0.000    0.000    0.000 
#
# Total GULP energy -347143.178122 kJ/mol
# GULP energy per Si atom -12397.970647 kJ/mol
# Density = 2.496627 g / cm^3
# Si number density = 25.023222 Si / 1000 Ang^3
#
#
#
# Elastic Constant Matrix: (Units=GPa)
#
#
# Indices 1 2 3 4 5 6 
#
# 1 159.7840 30.5817 40.3449 0.0000 0.0000 0.0000
# 2 30.5817 72.4663 28.0609 0.0000 -0.0001 0.0000
# 3 40.3449 28.0609 100.6542 0.0000 -0.0002 0.0000
# 4 0.0000 0.0000 0.0000 31.2774 -0.0001 0.0000
# 5 0.0000 -0.0001 -0.0002 -0.0001 8.3436 0.0000
# 6 0.0000 0.0000 0.0000 0.0000 0.0000 39.7789
#
#
#
# Elastic Compliance Matrix: (Units=1/GPa)
#
#
# Indices 1 2 3 4 5 6 
#
# 1 0.007255 -0.002170 -0.002303 0.000000 0.000000 0.000000
# 2 -0.002170 0.016119 -0.003624 0.000000 0.000000 0.000000
# 3 -0.002303 -0.003624 0.011868 0.000000 0.000000 0.000000
# 4 0.000000 0.000000 0.000000 0.031972 0.000001 0.000000
# 5 0.000000 0.000000 0.000000 0.000001 0.119852 0.000000
# 6 0.000000 0.000000 0.000000 0.000000 0.000000 0.025139
#
#
# Mechanical properties :
#
#
# Convention : Reuss Voigt Hill
#
# Bulk Modulus (GPa) = 52.49801 58.98661 55.74231
# Shear Modulus (GPa) = 21.29937 31.47445 26.38691
#
# Velocity S-wave (km/s) = 2.92067 3.55041 3.25082
# Velocity P-wave (km/s) = 5.69201 6.35855 6.03449
#
# Compressibility (1/GPa) = 0.01904834
#
# Stress axis : x y z
#
# Youngs Moduli (GPa) = 137.83008 62.04040 84.25705
#
# Poissons Ratio (x) = 0.13463 0.19406
# Poissons Ratio (y) = 0.29909 0.30533
# Poissons Ratio (z) = 0.31744 0.22482
#
# Static dielectric constant tensor:
#      x y z
#    x 4.775550 0.000000 0.000000 
#    y 0.000000 4.140040 0.000000 
#    z 0.000000 0.000000 4.727940 
# 
# 
# High freq. dielectric constant tensor:
#      x y z
#    x 1.997430 0.000000 0.000000 
#    y 0.000000 1.981000 0.000000 
#    z 0.000000 0.000000 2.016850 
# 
# From -- ./inp_files/5272.got.cif
#   From: 2010.03.12/outbox.cif.g09.slc.cpg/sg45_3_cif.got.tgz:5272.got - 2010.04.14 02:50:11.
