data_PCOD8190662
_publ_section_title
;
Structure prediction by ZEFSAII (Michael W. Deem and Ramdas Pophale) SiO2 
 PCOD8190662
Probable space group: I B A 2
;
_chemical_formula_sum "Si O2"
_cell_formula_units_Z 64
_cell_length_a 16.313934
_cell_length_b 9.381707
_cell_length_c 19.593783
_cell_angle_alpha 90.000000
_cell_angle_beta 90.000000
_cell_angle_gamma 90.000000
_cell_volume 2998.878429
_symmetry_space_group_name_H-M "I B A 2"
_symmetry_group_IT_number 45
_symmetry_cell_setting 'orthorhombic'
loop_
_space_group_symop_operation_xyz
x,y,z
-x,-y,z
-x,y,1/2+z
x,-y,1/2+z
1/2+x,1/2+y,1/2+z
1/2-x,1/2-y,1/2+z
1/2-x,1/2+y,z
1/2+x,1/2-y,z
loop_
_atom_site_type_symbol
_atom_site_label
_atom_site_fract_x
_atom_site_fract_y
_atom_site_fract_z
Si Si1 0.335082 0.802008 0.656620
Si Si2 0.659480 0.575536 0.513571
Si Si3 0.914717 0.677675 0.942244
Si Si4 0.347848 0.917059 0.514317
Si Si5 0.088350 0.824917 0.933565
Si Si6 0.834945 0.717640 0.806280
Si Si7 0.336020 0.447858 0.804874
Si Si8 0.671352 0.473255 0.157349
O O1 0.381185 0.865639 0.589548
O O2 0.378626 0.806586 0.731661
O O3 0.311726 0.639079 0.641962
O O4 0.256504 0.896744 0.667630
O O5 0.655780 0.726142 0.476116
O O6 0.754523 0.524098 0.517407
O O7 0.599037 0.468760 0.475777
O O8 0.625174 0.591457 0.591459
O O9 0.894678 0.649291 0.862817
O O10 0.000849 0.756123 0.948446
O O11 0.912369 0.531055 0.984589
O O12 0.344546 0.786324 0.460931
O O13 0.099746 0.868598 0.854473
O O14 0.748880 0.636412 0.811066
O O15 0.821469 0.885740 0.823334
O O16 0.375991 0.443644 0.728613
#
# Coordination Sequence:
#
# PCOD8190662 Si02
#       8
#     8   8   8   8   8   8   8   8
#     4   9  19  36  61  91 123 155 208 272 312 366
#     4  11  21  39  66  92 121 161 219 264 311 379
#     4  12  26  39  60  93 132 171 205 261 325 379
#     4  11  23  41  64  93 121 170 219 262 317 378
#     4  12  24  41  60  90 134 166 206 263 320 383
#     4  10  21  39  62  93 122 164 213 261 315 378
#     4  10  21  38  63  92 123 163 214 264 316 377
#     4   9  19  35  60  94 120 156 208 269 314 362
#
# _framework density 21.341311999999999
#
# number of rings (size 3 to 8) (size 9 to 14) (size 15 to 20)
#    0.000    1.500    2.500    3.000    7.000    0.000 
#    0.000    1.250    2.750    1.500    0.000    0.000 
#    0.000    0.000    0.000    0.000    0.000    0.000 
#
# Total GULP energy -396452.291156 kJ/mol
# GULP energy per Si atom -12389.134099 kJ/mol
# Density = 2.129274 g / cm^3
# Si number density = 21.341312 Si / 1000 Ang^3
#
#
#
# Elastic Constant Matrix: (Units=GPa)
#
#
# Indices 1 2 3 4 5 6 
#
# 1 40.8397 14.0476 34.3744 0.0000 0.0000 0.0000
# 2 14.0476 107.2935 64.5839 0.0000 0.0000 0.0000
# 3 34.3744 64.5839 201.4804 0.0000 0.0000 0.0000
# 4 0.0000 0.0000 0.0000 38.7791 0.0000 0.0000
# 5 0.0000 0.0000 0.0000 0.0000 11.4785 0.0000
# 6 0.0000 0.0000 0.0000 0.0000 0.0000 26.9767
#
#
#
# Elastic Compliance Matrix: (Units=1/GPa)
#
#
# Indices 1 2 3 4 5 6 
#
# 1 0.028679 -0.001003 -0.004571 0.000000 0.000000 0.000000
# 2 -0.001003 0.011584 -0.003542 0.000000 0.000000 0.000000
# 3 -0.004571 -0.003542 0.006879 0.000000 0.000000 0.000000
# 4 0.000000 0.000000 0.000000 0.025787 0.000000 0.000000
# 5 0.000000 0.000000 0.000000 0.000000 0.087119 0.000000
# 6 0.000000 0.000000 0.000000 0.000000 0.000000 0.037069
#
#
# Mechanical properties :
#
#
# Convention : Reuss Voigt Hill
#
# Bulk Modulus (GPa) = 34.59254 63.95836 49.27545
# Shear Modulus (GPa) = 22.22372 31.22072 26.72222
#
# Velocity S-wave (km/s) = 3.23049 3.82897 3.54239
# Velocity P-wave (km/s) = 5.49173 7.04147 6.31433
#
# Compressibility (1/GPa) = 0.02890797
#
# Stress axis : x y z
#
# Youngs Moduli (GPa) = 34.86917 86.32900 145.38023
#
# Poissons Ratio (x) = 0.08660 0.66457
# Poissons Ratio (y) = 0.03498 0.51493
# Poissons Ratio (z) = 0.15940 0.30577
#
# Static dielectric constant tensor:
#      x y z
#    x 3.234560 0.000000 0.000000 
#    y 0.000000 4.145740 0.000000 
#    z 0.000000 0.000000 4.776440 
# 
# 
# High freq. dielectric constant tensor:
#      x y z
#    x 1.781590 0.000000 0.000000 
#    y 0.000000 1.849370 0.000000 
#    z 0.000000 0.000000 1.868620 
# 
# From -- ./inp_files/9259.got.cif
#   From: 2010.03.12/outbox.cif.g09.slc.cpg/sg45_5_cif.got.tgz:9259.got - 2010.04.14 02:50:11.
