data_PCOD8190982
_publ_section_title
;
Structure prediction by ZEFSAII (Michael W. Deem and Ramdas Pophale) SiO2 
 PCOD8190982
Probable space group: I B A 2
;
_chemical_formula_sum "Si O2"
_cell_formula_units_Z 60
_cell_length_a 30.074326
_cell_length_b 5.076384
_cell_length_c 16.389583
_cell_angle_alpha 90.000000
_cell_angle_beta 90.000000
_cell_angle_gamma 90.000000
_cell_volume 2502.178417
_symmetry_space_group_name_H-M "I B A 2"
_symmetry_group_IT_number 45
_symmetry_cell_setting 'orthorhombic'
loop_
_space_group_symop_operation_xyz
x,y,z
-x,-y,z
-x,y,1/2+z
x,-y,1/2+z
1/2+x,1/2+y,1/2+z
1/2-x,1/2-y,1/2+z
1/2-x,1/2+y,z
1/2+x,1/2-y,z
loop_
_atom_site_type_symbol
_atom_site_label
_atom_site_fract_x
_atom_site_fract_y
_atom_site_fract_z
Si Si1 0.848900 0.499049 0.690340
Si Si2 0.575337 0.308800 0.258899
Si Si3 0.220110 0.750762 0.590939
Si Si4 0.920227 0.204341 0.108505
Si Si5 0.721420 0.755480 0.290071
Si Si6 0.106439 0.082497 0.431455
Si Si7 0.335371 0.096596 0.437840
Si Si8 0.500000 0.000000 0.679256
O O1 0.883997 0.397614 0.757536
O O2 0.811214 0.281774 0.669939
O O3 0.878059 0.596852 0.612439
O O4 0.821203 0.735948 0.730577
O O5 0.586270 0.513168 0.186165
O O6 0.573492 0.400123 0.353112
O O7 0.527214 0.189196 0.239400
O O8 0.238019 0.048770 0.588478
O O9 0.185170 0.669019 0.523615
O O10 0.967417 0.345978 0.118627
O O11 0.920311 0.082976 0.017656
O O12 0.739457 0.464540 0.272831
O O13 0.705812 0.839298 0.379400
O O14 0.146546 0.296786 0.431103
O O15 0.124203 0.789878 0.420162
#
# Coordination Sequence:
#
# PCOD8190982 Si02
#       8
#     8   8   8   8   8   8   8   4
#     4  11  24  41  68  98 144 190 256 301 370 443
#     4  11  25  48  78 110 148 197 240 312 374 457
#     4  12  25  41  64  99 144 194 251 312 369 424
#     4  11  25  48  78 110 148 197 240 312 374 457
#     4  12  25  41  64  99 144 194 251 312 369 424
#     4  12  26  46  81 107 148 196 251 295 370 452
#     4  12  24  47  66 106 141 196 255 308 362 431
#     4  10  26  50  76 118 148 182 242 306 386 462
#
# _framework density 23.979102999999999
#
# number of rings (size 3 to 8) (size 9 to 14) (size 15 to 20)
#    0.000    0.533    2.667    5.200    7.467    0.533 
#    0.000    2.667    0.000    0.000    0.000    0.000 
#    0.000    0.000    0.000    0.000    0.000    0.000 
#
# Total GULP energy -371767.096729 kJ/mol
# GULP energy per Si atom -12392.236558 kJ/mol
# Density = 2.392453 g / cm^3
# Si number density = 23.979103 Si / 1000 Ang^3
#
#
#
# Elastic Constant Matrix: (Units=GPa)
#
#
# Indices 1 2 3 4 5 6 
#
# 1 112.7355 29.6582 35.1857 0.0000 0.0000 0.0000
# 2 29.6582 58.7188 14.4662 0.0000 0.0000 0.0000
# 3 35.1857 14.4662 138.1248 0.0000 0.0000 0.0000
# 4 0.0000 0.0000 0.0000 30.5546 0.0000 0.0000
# 5 0.0000 0.0000 0.0000 0.0000 40.3328 0.0000
# 6 0.0000 0.0000 0.0000 0.0000 0.0000 4.1785
#
#
#
# Elastic Compliance Matrix: (Units=1/GPa)
#
#
# Indices 1 2 3 4 5 6 
#
# 1 0.010872 -0.004936 -0.002253 0.000000 0.000000 0.000000
# 2 -0.004936 0.019723 -0.000808 0.000000 0.000000 0.000000
# 3 -0.002253 -0.000808 0.007898 0.000000 0.000000 0.000000
# 4 0.000000 0.000000 0.000000 0.032728 0.000000 0.000000
# 5 0.000000 0.000000 0.000000 0.000000 0.024794 0.000000
# 6 0.000000 0.000000 0.000000 0.000000 0.000000 0.239323
#
#
# Mechanical properties :
#
#
# Convention : Reuss Voigt Hill
#
# Bulk Modulus (GPa) = 44.44655 52.02215 48.23435
# Shear Modulus (GPa) = 13.93410 30.36442 22.14926
#
# Velocity S-wave (km/s) = 2.41320 3.56235 3.04252
# Velocity P-wave (km/s) = 5.13230 6.21791 5.70100
#
# Compressibility (1/GPa) = 0.02249893
#
# Stress axis : x y z
#
# Youngs Moduli (GPa) = 91.97933 50.70293 126.60996
#
# Poissons Ratio (x) = 0.25029 0.28519
# Poissons Ratio (y) = 0.45405 0.10232
# Poissons Ratio (z) = 0.20719 0.04097
#
# Static dielectric constant tensor:
#      x y z
#    x 4.297830 0.000000 0.000000 
#    y 0.000000 4.314410 0.000000 
#    z 0.000000 0.000000 4.746400 
# 
# 
# High freq. dielectric constant tensor:
#      x y z
#    x 1.953690 0.000000 0.000000 
#    y 0.000000 1.949090 0.000000 
#    z 0.000000 0.000000 1.964260 
# 
# From -- ./inp_files/8538.got.cif
#   From: 2010.03.12/outbox.cif.g09.slc.cpg/sg45_5_cif.got.tgz:8538.got - 2010.04.14 02:50:11.
