data_PCOD8190846
_publ_section_title
;
Structure prediction by ZEFSAII (Michael W. Deem and Ramdas Pophale) SiO2 
 PCOD8190846
Probable space group: I B A 2
;
_chemical_formula_sum "Si O2"
_cell_formula_units_Z 56
_cell_length_a 8.654950
_cell_length_b 15.026891
_cell_length_c 19.424314
_cell_angle_alpha 90.000000
_cell_angle_beta 90.000000
_cell_angle_gamma 90.000000
_cell_volume 2526.267817
_symmetry_space_group_name_H-M "I B A 2"
_symmetry_group_IT_number 45
_symmetry_cell_setting 'orthorhombic'
loop_
_space_group_symop_operation_xyz
x,y,z
-x,-y,z
-x,y,1/2+z
x,-y,1/2+z
1/2+x,1/2+y,1/2+z
1/2-x,1/2-y,1/2+z
1/2-x,1/2+y,z
1/2+x,1/2-y,z
loop_
_atom_site_type_symbol
_atom_site_label
_atom_site_fract_x
_atom_site_fract_y
_atom_site_fract_z
Si Si1 0.752423 0.840797 0.012540
Si Si2 0.825088 0.031303 0.752448
Si Si3 0.232779 0.870708 0.163701
Si Si4 0.885804 0.806508 0.161282
Si Si5 0.674436 0.532246 0.026160
Si Si6 0.760804 0.127338 0.885935
Si Si7 0.499211 0.753086 0.427421
O O1 0.815026 0.810240 0.085573
O O2 0.720623 0.946055 0.012548
O O3 0.593924 0.791241 0.993390
O O4 0.878820 0.818920 0.954475
O O5 0.798944 0.120943 0.708453
O O6 0.763909 0.050021 0.829266
O O7 0.734067 0.949294 0.718402
O O8 0.000000 0.000000 0.755347
O O9 0.357064 0.795409 0.183968
O O10 0.250378 0.911771 0.087646
O O11 0.065934 0.825094 0.166926
O O12 0.500000 0.500000 0.045967
O O13 0.678714 0.592701 0.959209
O O14 0.587770 0.166048 0.889573
O O15 0.885626 0.206491 0.871129
#
# Coordination Sequence:
#
# PCOD8190846 Si02
#       7
#     8   8   8   8   8   8   8
#     4  11  20  39  66  97 129 169 217 278 330 395
#     4  10  23  42  66  95 131 180 225 262 332 410
#     4  11  22  42  68  98 131 173 226 271 330 398
#     4  11  21  39  67  94 131 172 217 274 328 394
#     4  12  20  37  67  95 130 174 222 274 332 393
#     4  11  23  41  65  93 131 172 220 275 330 398
#     4  10  23  39  62  99 126 167 222 274 336 389
#
# _framework density 22.167088
#
# number of rings (size 3 to 8) (size 9 to 14) (size 15 to 20)
#    0.000    1.143    4.286    3.429    0.000    2.857 
#    2.571    0.714    3.143    0.000    0.000    0.000 
#    0.000    0.000    0.000    0.000    0.000    0.000 
#
# Total GULP energy -347207.970143 kJ/mol
# GULP energy per Si atom -12400.284648 kJ/mol
# Density = 2.211663 g / cm^3
# Si number density = 22.167088 Si / 1000 Ang^3
#
#
#
# Elastic Constant Matrix: (Units=GPa)
#
#
# Indices 1 2 3 4 5 6 
#
# 1 60.4496 38.9103 26.1403 0.0000 0.0000 0.0000
# 2 38.9103 163.6553 57.5593 0.0000 0.0000 0.0000
# 3 26.1403 57.5593 110.4023 0.0000 0.0000 0.0000
# 4 0.0000 0.0000 0.0000 40.4194 0.0000 0.0000
# 5 0.0000 0.0000 0.0000 0.0000 16.8874 0.0000
# 6 0.0000 0.0000 0.0000 0.0000 0.0000 35.2502
#
#
#
# Elastic Compliance Matrix: (Units=1/GPa)
#
#
# Indices 1 2 3 4 5 6 
#
# 1 0.020211 -0.003823 -0.002792 0.000000 0.000000 0.000000
# 2 -0.003823 0.008206 -0.003373 0.000000 0.000000 0.000000
# 3 -0.002792 -0.003373 0.011477 0.000000 0.000000 0.000000
# 4 0.000000 0.000000 0.000000 0.024741 0.000000 0.000000
# 5 0.000000 0.000000 0.000000 0.000000 0.059216 0.000000
# 6 0.000000 0.000000 0.000000 0.000000 0.000000 0.028369
#
#
# Mechanical properties :
#
#
# Convention : Reuss Voigt Hill
#
# Bulk Modulus (GPa) = 50.20700 64.41413 57.31057
# Shear Modulus (GPa) = 27.95874 32.63789 30.29832
#
# Velocity S-wave (km/s) = 3.55529 3.84129 3.70106
# Velocity P-wave (km/s) = 6.28904 6.98538 6.64634
#
# Compressibility (1/GPa) = 0.01991754
#
# Stress axis : x y z
#
# Youngs Moduli (GPa) = 49.47774 121.86656 87.12808
#
# Poissons Ratio (x) = 0.46594 0.24327
# Poissons Ratio (y) = 0.18917 0.29387
# Poissons Ratio (z) = 0.13815 0.41104
#
# Static dielectric constant tensor:
#      x y z
#    x 3.860120 0.000000 0.000000 
#    y 0.000000 4.529570 0.000000 
#    z 0.000000 0.000000 3.854320 
# 
# 
# High freq. dielectric constant tensor:
#      x y z
#    x 1.850000 0.000000 0.000000 
#    y 0.000000 1.893940 0.000000 
#    z 0.000000 0.000000 1.857890 
# 
# From -- ./inp_files/8864.got.cif
#   From: 2010.03.12/outbox.cif.g09.slc.cpg/sg45_5_cif.got.tgz:8864.got - 2010.04.14 02:50:11.
