data_PCOD8190766
_publ_section_title
;
Structure prediction by ZEFSAII (Michael W. Deem and Ramdas Pophale) SiO2 
 PCOD8190766
Probable space group: I B A 2
;
_chemical_formula_sum "Si O2"
_cell_formula_units_Z 60
_cell_length_a 28.293933
_cell_length_b 7.756638
_cell_length_c 12.948379
_cell_angle_alpha 90.000000
_cell_angle_beta 90.000000
_cell_angle_gamma 90.000000
_cell_volume 2841.726303
_symmetry_space_group_name_H-M "I B A 2"
_symmetry_group_IT_number 45
_symmetry_cell_setting 'orthorhombic'
loop_
_space_group_symop_operation_xyz
x,y,z
-x,-y,z
-x,y,1/2+z
x,-y,1/2+z
1/2+x,1/2+y,1/2+z
1/2-x,1/2-y,1/2+z
1/2-x,1/2+y,z
1/2+x,1/2-y,z
loop_
_atom_site_type_symbol
_atom_site_label
_atom_site_fract_x
_atom_site_fract_y
_atom_site_fract_z
Si Si1 0.525888 0.333480 0.013480
Si Si2 0.197344 0.793823 0.424240
Si Si3 0.901893 0.746755 0.845757
Si Si4 0.408392 0.101726 0.735498
Si Si5 0.807771 0.699816 0.158868
Si Si6 0.500000 0.000000 0.109459
Si Si7 0.446236 0.454494 0.730614
Si Si8 0.754689 0.951790 0.289493
O O1 0.500000 0.500000 0.965464
O O2 0.491006 0.177660 0.046858
O O3 0.556931 0.404145 0.109643
O O4 0.555660 0.246836 0.925011
O O5 0.142078 0.821461 0.407941
O O6 0.207026 0.735117 0.540793
O O7 0.213742 0.668430 0.332668
O O8 0.225669 0.966391 0.395900
O O9 0.893681 0.547207 0.815528
O O10 0.913764 0.878098 0.751660
O O11 0.362315 0.139899 0.664995
O O12 0.451989 0.022515 0.672713
O O13 0.426411 0.281608 0.789338
O O14 0.799504 0.866087 0.231449
O O15 0.770356 0.563811 0.201925
O O16 0.500000 0.500000 0.761513
#
# Coordination Sequence:
#
# PCOD8190766 Si02
#       8
#     8   8   8   8   8   4   8   8
#     4  10  22  39  60  89 128 169 213 265 318 386
#     4  11  22  40  65  94 124 168 213 259 335 405
#     4  12  23  38  64  96 123 166 220 267 325 396
#     4  11  22  41  64  93 130 174 215 273 330 385
#     4  11  22  43  67  95 134 166 211 282 331 394
#     4  10  22  40  62  88 132 176 214 266 326 390
#     4  10  22  41  61  86 130 172 213 267 323 377
#     4  10  23  42  67  93 129 166 214 269 335 405
#
# _framework density 21.113927
#
# number of rings (size 3 to 8) (size 9 to 14) (size 15 to 20)
#    0.000    1.333    1.333    6.000    0.000    2.667 
#    0.000    1.333    0.000    0.000    0.000    0.000 
#    0.000    0.000    0.000    0.000    0.000    0.000 
#
# Total GULP energy -371705.678502 kJ/mol
# GULP energy per Si atom -12390.189283 kJ/mol
# Density = 2.106587 g / cm^3
# Si number density = 21.113927 Si / 1000 Ang^3
#
#
#
# Elastic Constant Matrix: (Units=GPa)
#
#
# Indices 1 2 3 4 5 6 
#
# 1 101.0040 26.6057 32.2540 0.0000 0.0000 0.0000
# 2 26.6057 112.4851 32.6486 0.0000 0.0000 0.0000
# 3 32.2540 32.6486 109.4020 0.0000 0.0000 0.0000
# 4 0.0000 0.0000 0.0000 28.6118 0.0000 0.0000
# 5 0.0000 0.0000 0.0000 0.0000 24.0911 0.0000
# 6 0.0000 0.0000 0.0000 0.0000 0.0000 27.0240
#
#
#
# Elastic Compliance Matrix: (Units=1/GPa)
#
#
# Indices 1 2 3 4 5 6 
#
# 1 0.011275 -0.001864 -0.002768 0.000000 0.000000 0.000000
# 2 -0.001864 0.010041 -0.002447 0.000000 0.000000 0.000000
# 3 -0.002768 -0.002447 0.010687 0.000000 0.000000 0.000000
# 4 0.000000 0.000000 0.000000 0.034951 0.000000 0.000000
# 5 0.000000 0.000000 0.000000 0.000000 0.041509 0.000000
# 6 0.000000 0.000000 0.000000 0.000000 0.000000 0.037004
#
#
# Mechanical properties :
#
#
# Convention : Reuss Voigt Hill
#
# Bulk Modulus (GPa) = 56.03493 56.21197 56.12345
# Shear Modulus (GPa) = 30.19806 31.37091 30.78449
#
# Velocity S-wave (km/s) = 3.78596 3.85878 3.82254
# Velocity P-wave (km/s) = 6.76079 6.82162 6.79127
#
# Compressibility (1/GPa) = 0.01784601
#
# Stress axis : x y z
#
# Youngs Moduli (GPa) = 88.68848 99.59057 93.57172
#
# Poissons Ratio (x) = 0.18559 0.25902
# Poissons Ratio (y) = 0.16527 0.22898
# Poissons Ratio (z) = 0.24550 0.24371
#
# Static dielectric constant tensor:
#      x y z
#    x 3.804440 0.000000 0.000000 
#    y 0.000000 4.408230 0.000000 
#    z 0.000000 0.000000 3.658880 
# 
# 
# High freq. dielectric constant tensor:
#      x y z
#    x 1.828260 0.000000 0.000000 
#    y 0.000000 1.843490 0.000000 
#    z 0.000000 0.000000 1.815630 
# 
# From -- ./inp_files/4889.got.cif
#   From: 2010.03.12/outbox.cif.g09.slc.cpg/sg45_3_cif.got.tgz:4889.got - 2010.04.14 02:50:11.
