data_PCOD8190404
_publ_section_title
;
Structure prediction by ZEFSAII (Michael W. Deem and Ramdas Pophale) SiO2 
 PCOD8190404
Probable space group: I B A 2
;
_chemical_formula_sum "Si O2"
_cell_formula_units_Z 40
_cell_length_a 15.621721
_cell_length_b 5.286552
_cell_length_c 22.687325
_cell_angle_alpha 90.000000
_cell_angle_beta 90.000000
_cell_angle_gamma 90.000000
_cell_volume 1873.633652
_symmetry_space_group_name_H-M "I B A 2"
_symmetry_group_IT_number 45
_symmetry_cell_setting 'orthorhombic'
loop_
_space_group_symop_operation_xyz
x,y,z
-x,-y,z
-x,y,1/2+z
x,-y,1/2+z
1/2+x,1/2+y,1/2+z
1/2-x,1/2-y,1/2+z
1/2-x,1/2+y,z
1/2+x,1/2-y,z
loop_
_atom_site_type_symbol
_atom_site_label
_atom_site_fract_x
_atom_site_fract_y
_atom_site_fract_z
Si Si1 0.345932 0.017641 0.828550
Si Si2 0.303521 0.467361 0.146857
Si Si3 0.100661 0.999541 0.527702
Si Si4 0.846531 0.017665 0.278644
Si Si5 0.897977 0.500537 0.459765
O O1 0.250255 0.032556 0.802914
O O2 0.393695 0.272580 0.806337
O O3 0.347151 0.003898 0.898728
O O4 0.393702 0.771929 0.801406
O O5 0.231609 0.682788 0.142663
O O6 0.369819 0.509298 0.094727
O O7 0.352451 0.499532 0.208424
O O8 0.133646 0.749032 0.494232
O O9 0.133548 0.253432 0.495687
O O10 0.000000 0.000000 0.528313
O O11 0.000000 0.500000 0.448976
#
# Coordination Sequence:
#
# PCOD8190404 Si02
#       5
#     8   8   8   8   8
#     4  10  18  35  56  81 109 154 180 231 292 337
#     4  12  21  40  62  86 121 155 195 249 293 343
#     4  10  23  42  60  85 121 158 196 243 295 348
#     4  10  19  35  57  78 118 146 181 240 292 330
#     4  10  21  40  60  82 119 157 194 239 288 350
#
# _framework density 21.348890000000001
#
# number of rings (size 3 to 8) (size 9 to 14) (size 15 to 20)
#    0.000    1.600    4.000    2.400    0.000    0.000 
#   21.600    2.000    0.000    0.000    0.000    0.000 
#    0.000    0.000    0.000    0.000    0.000    0.000 
#
# Total GULP energy -247947.127264 kJ/mol
# GULP energy per Si atom -12397.356363 kJ/mol
# Density = 2.130030 g / cm^3
# Si number density = 21.348890 Si / 1000 Ang^3
#
#
#
# Elastic Constant Matrix: (Units=GPa)
#
#
# Indices 1 2 3 4 5 6 
#
# 1 4.3689 7.6269 17.4975 0.0000 0.0000 0.0000
# 2 7.6269 208.1891 68.7954 0.0000 0.0000 0.0000
# 3 17.4975 68.7954 202.4219 0.0000 0.0000 0.0000
# 4 0.0000 0.0000 0.0000 43.9477 0.0000 0.0000
# 5 0.0000 0.0000 0.0000 0.0000 4.4592 0.0000
# 6 0.0000 0.0000 0.0000 0.0000 0.0000 5.2709
#
#
#
# Elastic Compliance Matrix: (Units=1/GPa)
#
#
# Indices 1 2 3 4 5 6 
#
# 1 0.351974 -0.003200 -0.029337 0.000000 0.000000 0.000000
# 2 -0.003200 0.005440 -0.001572 0.000000 0.000000 0.000000
# 3 -0.029337 -0.001572 0.008010 0.000000 0.000000 0.000000
# 4 0.000000 0.000000 0.000000 0.022754 0.000000 0.000000
# 5 0.000000 0.000000 0.000000 0.000000 0.224258 0.000000
# 6 0.000000 0.000000 0.000000 0.000000 0.000000 0.189721
#
#
# Mechanical properties :
#
#
# Convention : Reuss Voigt Hill
#
# Bulk Modulus (GPa) = 3.36468 66.97994 35.17231
# Shear Modulus (GPa) = 5.15759 32.13956 18.64858
#
# Velocity S-wave (km/s) = 1.55599 3.88421 2.95874
# Velocity P-wave (km/s) = 2.19263 7.18041 5.30876
#
# Compressibility (1/GPa) = 0.29720517
#
# Stress axis : x y z
#
# Youngs Moduli (GPa) = 2.84112 183.81993 124.83651
#
# Poissons Ratio (x) = 0.58822 3.66237
# Poissons Ratio (y) = 0.00909 0.19628
# Poissons Ratio (z) = 0.08335 0.28902
#
# Static dielectric constant tensor:
#      x y z
#    x 3.201070 0.000000 0.000000 
#    y 0.000000 6.493320 0.000000 
#    z 0.000000 0.000000 4.008780 
# 
# 
# High freq. dielectric constant tensor:
#      x y z
#    x 1.782020 0.000000 0.000000 
#    y 0.000000 1.877780 0.000000 
#    z 0.000000 0.000000 1.851990 
# 
# From -- ./inp_files/7239.got.cif
#   From: 2010.03.12/outbox.cif.g09.slc.cpg/sg45_4_cif.got.tgz:7239.got - 2010.04.14 02:50:11.
