data_PCOD8190121
_publ_section_title
;
Structure prediction by ZEFSAII (Michael W. Deem and Ramdas Pophale) SiO2 
 PCOD8190121
Probable space group: I M M 2
;
_chemical_formula_sum "Si O2"
_cell_formula_units_Z 64
_cell_length_a 28.980806
_cell_length_b 8.931705
_cell_length_c 12.765329
_cell_angle_alpha 90.000000
_cell_angle_beta 90.000000
_cell_angle_gamma 90.000000
_cell_volume 3304.280007
_symmetry_space_group_name_H-M "I M M 2"
_symmetry_group_IT_number 44
_symmetry_cell_setting 'orthorhombic'
loop_
_space_group_symop_operation_xyz
x,y,z
-x,-y,z
-x,y,z
x,-y,z
1/2+x,1/2+y,1/2+z
1/2-x,1/2-y,1/2+z
1/2-x,1/2+y,1/2+z
1/2+x,1/2-y,1/2+z
loop_
_atom_site_type_symbol
_atom_site_label
_atom_site_fract_x
_atom_site_fract_y
_atom_site_fract_z
Si Si1 0.288940 0.664126 0.453630
Si Si2 0.948546 0.677933 0.839517
Si Si3 0.702854 0.832460 0.086813
Si Si4 0.125075 0.175779 0.457161
Si Si5 0.554132 0.172582 0.104948
Si Si6 0.145392 0.176345 0.222661
Si Si7 0.256927 0.827747 0.741444
Si Si8 0.622184 0.176060 0.514441
O O1 0.312451 0.500000 0.440300
O O2 0.256255 0.664956 0.553644
O O3 0.252461 0.696427 0.362880
O O4 0.327821 0.789423 0.465322
O O5 0.949887 0.500000 0.840885
O O6 0.931607 0.726434 0.722607
O O7 0.000000 0.741348 0.860288
O O8 0.915321 0.738790 0.931148
O O9 0.708828 0.734014 0.191184
O O10 0.684468 0.000000 0.110585
O O11 0.669538 0.756970 0.003564
O O12 0.079532 0.228673 0.517739
O O13 0.121512 0.217199 0.333764
O O14 0.131444 0.000000 0.472188
O O15 0.500000 0.195694 0.088582
O O16 0.568092 0.000000 0.088486
O O17 0.196626 0.240497 0.213915
O O18 0.115174 0.244904 0.127300
O O19 0.148273 0.000000 0.206042
O O20 0.264261 0.000000 0.709355
O O21 0.616803 0.000000 0.530498
#
# Coordination Sequence:
#
# PCOD8190121 Si02
#       8
#     8   8   8   8   8   8   8   8
#     4  10  22  37  53  78 115 152 187 235 285 335
#     4   8  17  37  62  89 117 143 178 229 288 344
#     4  11  22  37  56  80 113 153 193 235 286 338
#     4  11  24  39  58  85 116 154 198 241 286 341
#     4   9  19  39  66  91 116 147 184 232 293 354
#     4  11  23  39  56  77 114 158 194 236 286 336
#     4  11  22  37  55  78 110 150 195 241 283 333
#     4  11  22  35  59  88 113 149 194 237 282 342
#
# _framework density 19.368818000000001
#
# number of rings (size 3 to 8) (size 9 to 14) (size 15 to 20)
#    0.000    1.750    2.500    2.625    1.750    3.250 
#    0.000    1.250    0.000    5.250    0.000    0.000 
#    0.000    0.000    0.000    0.000    0.000    0.000 
#
# Total GULP energy -396646.537995 kJ/mol
# GULP energy per Si atom -12395.204312 kJ/mol
# Density = 1.932473 g / cm^3
# Si number density = 19.368818 Si / 1000 Ang^3
#
#
#
# Elastic Constant Matrix: (Units=GPa)
#
#
# Indices 1 2 3 4 5 6 
#
# 1 77.5797 30.8708 53.0576 0.0000 0.0000 0.0000
# 2 30.8708 88.3103 48.1001 0.0000 0.0000 0.0000
# 3 53.0576 48.1001 121.9803 0.0000 0.0000 0.0000
# 4 0.0000 0.0000 0.0000 30.6596 0.0000 0.0000
# 5 0.0000 0.0000 0.0000 0.0000 36.5722 0.0000
# 6 0.0000 0.0000 0.0000 0.0000 0.0000 25.7869
#
#
#
# Elastic Compliance Matrix: (Units=1/GPa)
#
#
# Indices 1 2 3 4 5 6 
#
# 1 0.018842 -0.002703 -0.007130 0.000000 0.000000 0.000000
# 2 -0.002703 0.014809 -0.004664 0.000000 0.000000 0.000000
# 3 -0.007130 -0.004664 0.013138 0.000000 0.000000 0.000000
# 4 0.000000 0.000000 0.000000 0.032616 0.000000 0.000000
# 5 0.000000 0.000000 0.000000 0.000000 0.027343 0.000000
# 6 0.000000 0.000000 0.000000 0.000000 0.000000 0.038779
#
#
# Mechanical properties :
#
#
# Convention : Reuss Voigt Hill
#
# Bulk Modulus (GPa) = 56.19338 61.32527 58.75932
# Shear Modulus (GPa) = 27.70814 28.99320 28.35067
#
# Velocity S-wave (km/s) = 3.78637 3.87318 3.83002
# Velocity P-wave (km/s) = 6.94195 7.19254 7.06836
#
# Compressibility (1/GPa) = 0.01779569
#
# Stress axis : x y z
#
# Youngs Moduli (GPa) = 53.07391 67.52709 76.11381
#
# Poissons Ratio (x) = 0.18254 0.54266
# Poissons Ratio (y) = 0.14347 0.35497
# Poissons Ratio (z) = 0.37839 0.31493
#
# Static dielectric constant tensor:
#      x y z
#    x 3.378630 0.000000 0.000000 
#    y 0.000000 3.482570 0.000000 
#    z 0.000000 0.000000 3.907760 
# 
# 
# High freq. dielectric constant tensor:
#      x y z
#    x 1.734320 0.000000 0.000000 
#    y 0.000000 1.747040 0.000000 
#    z 0.000000 0.000000 1.770080 
# 
# From -- ./inp_files/11459.got.cif
#   From: 2010.03.12/outbox.cif.g09.slc.cpg/sg44_6_cif.got.tgz:11459.got - 2010.04.14 02:36:11.
