data_PCOD8190168
_publ_section_title
;
Structure prediction by ZEFSAII (Michael W. Deem and Ramdas Pophale) SiO2 
 PCOD8190168
Probable space group: I M M 2
;
_chemical_formula_sum "Si O2"
_cell_formula_units_Z 48
_cell_length_a 7.515903
_cell_length_b 9.117522
_cell_length_c 34.484484
_cell_angle_alpha 90.000000
_cell_angle_beta 90.000000
_cell_angle_gamma 90.000000
_cell_volume 2363.097922
_symmetry_space_group_name_H-M "I M M 2"
_symmetry_group_IT_number 44
_symmetry_cell_setting 'orthorhombic'
loop_
_space_group_symop_operation_xyz
x,y,z
-x,-y,z
-x,y,z
x,-y,z
1/2+x,1/2+y,1/2+z
1/2-x,1/2-y,1/2+z
1/2-x,1/2+y,1/2+z
1/2+x,1/2-y,1/2+z
loop_
_atom_site_type_symbol
_atom_site_label
_atom_site_fract_x
_atom_site_fract_y
_atom_site_fract_z
Si Si1 0.290701 0.328312 0.349070
Si Si2 0.500000 0.170094 0.718430
Si Si3 0.293150 0.662280 0.008789
Si Si4 0.500000 0.325002 0.798688
Si Si5 0.708247 0.163443 0.424802
Si Si6 0.788084 0.663395 0.581288
Si Si7 0.202138 0.830254 0.657145
O O1 0.500000 0.297964 0.342092
O O2 0.247421 0.500000 0.346390
O O3 0.179357 0.241496 0.316992
O O4 0.223509 0.270351 0.390928
O O5 0.500000 0.280740 0.753954
O O6 0.676266 0.205948 0.693872
O O7 0.500000 0.000000 0.732019
O O8 0.500000 0.649730 0.017189
O O9 0.205541 0.500000 0.009439
O O10 0.206844 0.759429 0.042886
O O11 0.259929 0.733379 0.966409
O O12 0.500000 0.500000 0.803215
O O13 0.500000 0.149667 0.421307
O O14 0.794022 0.000000 0.420407
O O15 0.710824 0.500000 0.582361
O O16 0.722758 0.745072 0.619872
O O17 0.000000 0.663387 0.579605
O O18 0.000000 0.783465 0.667428
O O19 0.212656 0.000000 0.646037
#
# Coordination Sequence:
#
# PCOD8190168 Si02
#       7
#     8   4   8   4   8   8   8
#     4  10  22  41  64  89 119 157 199 245 298 357
#     4  10  22  40  60  88 118 144 188 240 288 352
#     4   9  17  29  47  72 104 144 189 233 279 336
#     4  12  26  42  64  92 124 158 196 244 298 362
#     4   9  18  33  52  77 110 147 189 237 289 346
#     4   9  17  30  49  74 105 142 185 231 280 333
#     4   9  18  35  59  82 108 146 185 227 283 343
#
# _framework density 20.31232
#
# number of rings (size 3 to 8) (size 9 to 14) (size 15 to 20)
#    0.000    2.500    0.000    1.750    1.167    5.000 
#    1.500    1.667    0.000    0.000    0.000    0.000 
#    0.000    0.000    0.000    0.000    0.000    0.000 
#
# Total GULP energy -297554.422304 kJ/mol
# GULP energy per Si atom -12398.100929 kJ/mol
# Density = 2.026609 g / cm^3
# Si number density = 20.312320 Si / 1000 Ang^3
#
#
#
# Elastic Constant Matrix: (Units=GPa)
#
#
# Indices 1 2 3 4 5 6 
#
# 1 65.3858 38.0530 44.8629 0.0000 0.0000 0.0000
# 2 38.0530 130.4631 89.2221 0.0000 0.0001 0.0000
# 3 44.8629 89.2221 169.2007 0.0000 0.0000 0.0000
# 4 0.0000 0.0000 0.0000 34.3685 0.0000 0.0000
# 5 0.0000 0.0001 0.0000 0.0000 88.4667 0.0000
# 6 0.0000 0.0000 0.0000 0.0000 0.0000 15.0452
#
#
#
# Elastic Compliance Matrix: (Units=1/GPa)
#
#
# Indices 1 2 3 4 5 6 
#
# 1 0.019606 -0.003384 -0.003414 0.000000 0.000000 0.000000
# 2 -0.003384 0.012572 -0.005732 0.000000 0.000000 0.000000
# 3 -0.003414 -0.005732 0.009838 0.000000 0.000000 0.000000
# 4 0.000000 0.000000 0.000000 0.029096 0.000000 0.000000
# 5 0.000000 0.000000 0.000000 0.000000 0.011304 0.000000
# 6 0.000000 0.000000 0.000000 0.000000 0.000000 0.066466
#
#
# Mechanical properties :
#
#
# Convention : Reuss Voigt Hill
#
# Bulk Modulus (GPa) = 58.97714 78.81396 68.89555
# Shear Modulus (GPa) = 27.84051 40.43686 34.13869
#
# Velocity S-wave (km/s) = 3.70621 4.46663 4.10407
# Velocity P-wave (km/s) = 6.88570 8.09236 7.51329
#
# Compressibility (1/GPa) = 0.01695572
#
# Stress axis : x y z
#
# Youngs Moduli (GPa) = 51.00607 79.54047 101.64530
#
# Poissons Ratio (x) = 0.26913 0.34703
# Poissons Ratio (y) = 0.17258 0.58267
# Poissons Ratio (z) = 0.17414 0.45596
#
# Static dielectric constant tensor:
#      x y z
#    x 3.514240 0.000000 0.000000 
#    y 0.000000 3.830130 0.000000 
#    z 0.000000 0.000000 3.726710 
# 
# 
# High freq. dielectric constant tensor:
#      x y z
#    x 1.786420 0.000000 0.000000 
#    y 0.000000 1.784880 0.000000 
#    z 0.000000 0.000000 1.794900 
# 
# From -- ./inp_files/26910.got.cif
#   From: 2010.03.12/outbox.cif.g09.slc.cpg/sg44_14_cif.got.tgz:26910.got - 2010.04.14 02:36:11.
