data_PCOD8190380
_publ_section_title
;
Structure prediction by ZEFSAII (Michael W. Deem and Ramdas Pophale) SiO2 
 PCOD8190380
Probable space group: I B A 2
;
_chemical_formula_sum "Si O2"
_cell_formula_units_Z 48
_cell_length_a 14.588249
_cell_length_b 10.134145
_cell_length_c 14.375684
_cell_angle_alpha 90.000000
_cell_angle_beta 90.000000
_cell_angle_gamma 90.000000
_cell_volume 2125.292938
_symmetry_space_group_name_H-M "I B A 2"
_symmetry_group_IT_number 45
_symmetry_cell_setting 'orthorhombic'
loop_
_space_group_symop_operation_xyz
x,y,z
-x,-y,z
-x,y,1/2+z
x,-y,1/2+z
1/2+x,1/2+y,1/2+z
1/2-x,1/2-y,1/2+z
1/2-x,1/2+y,z
1/2+x,1/2-y,z
loop_
_atom_site_type_symbol
_atom_site_label
_atom_site_fract_x
_atom_site_fract_y
_atom_site_fract_z
Si Si1 0.402607 0.032318 0.232500
Si Si2 0.238096 0.056153 0.622368
Si Si3 0.833395 0.796719 0.796590
Si Si4 0.870381 0.735215 0.308105
Si Si5 0.144436 0.204381 0.093033
Si Si6 0.024022 0.857938 0.437833
O O1 0.325100 0.028694 0.154928
O O2 0.403219 0.176457 0.277323
O O3 0.500000 0.000000 0.184942
O O4 0.385290 0.922439 0.312402
O O5 0.179303 0.945465 0.568009
O O6 0.178315 0.108354 0.708598
O O7 0.276949 0.185447 0.567813
O O8 0.736371 0.737999 0.833105
O O9 0.886488 0.879982 0.873621
O O10 0.885842 0.784408 0.201123
O O11 0.936373 0.800840 0.383396
O O12 0.055773 0.229986 0.026974
O O13 0.000000 0.000000 0.478190
#
# Coordination Sequence:
#
# PCOD8190380 Si02
#       6
#     8   8   8   8   8   8
#     4  10  17  37  69 102 130 170 235 274 342 412
#     4  10  20  43  70  99 134 184 218 282 350 407
#     4  10  21  40  71  97 133 178 225 284 344 412
#     4  10  23  43  72  97 136 185 223 283 346 406
#     4  10  23  43  69 102 138 180 230 277 350 405
#     4  12  26  41  64 101 138 178 234 283 335 416
#
# _framework density 22.585122999999999
#
# number of rings (size 3 to 8) (size 9 to 14) (size 15 to 20)
#    0.000    2.000    5.000    1.000    2.333    3.333 
#    0.000    5.000   11.000    0.000    0.000    0.000 
#    0.000    0.000    0.000    0.000    0.000    0.000 
#
# Total GULP energy -297355.409784 kJ/mol
# GULP energy per Si atom -12389.808741 kJ/mol
# Density = 2.253372 g / cm^3
# Si number density = 22.585123 Si / 1000 Ang^3
#
#
#
# Elastic Constant Matrix: (Units=GPa)
#
#
# Indices 1 2 3 4 5 6 
#
# 1 96.5159 17.5237 28.9271 0.0000 0.0000 0.0000
# 2 17.5237 116.0392 26.1428 0.0000 0.0000 0.0000
# 3 28.9271 26.1428 46.8877 0.0000 0.0000 0.0000
# 4 0.0000 0.0000 0.0000 18.0688 0.0000 0.0000
# 5 0.0000 0.0000 0.0000 0.0000 42.0259 0.0000
# 6 0.0000 0.0000 0.0000 0.0000 0.0000 36.5081
#
#
#
# Elastic Compliance Matrix: (Units=1/GPa)
#
#
# Indices 1 2 3 4 5 6 
#
# 1 0.012715 -0.000175 -0.007747 0.000000 0.000000 0.000000
# 2 -0.000175 0.009858 -0.005389 0.000000 0.000000 0.000000
# 3 -0.007747 -0.005389 0.029111 0.000000 0.000000 0.000000
# 4 0.000000 0.000000 0.000000 0.055344 0.000000 0.000000
# 5 0.000000 0.000000 0.000000 0.000000 0.023795 0.000000
# 6 0.000000 0.000000 0.000000 0.000000 0.000000 0.027391
#
#
# Mechanical properties :
#
#
# Convention : Reuss Voigt Hill
#
# Bulk Modulus (GPa) = 39.89834 44.95887 42.42860
# Shear Modulus (GPa) = 25.88136 31.77717 28.82927
#
# Velocity S-wave (km/s) = 3.38886 3.75506 3.57665
# Velocity P-wave (km/s) = 5.74601 6.22497 5.99028
#
# Compressibility (1/GPa) = 0.02506370
#
# Stress axis : x y z
#
# Youngs Moduli (GPa) = 78.65033 101.43824 34.35085
#
# Poissons Ratio (x) = 0.01773 0.26610
# Poissons Ratio (y) = 0.01375 0.18511
# Poissons Ratio (z) = 0.60928 0.54662
#
# Static dielectric constant tensor:
#      x y z
#    x 4.337910 0.000000 0.000000 
#    y 0.000000 4.191580 0.000000 
#    z 0.000000 0.000000 3.573690 
# 
# 
# High freq. dielectric constant tensor:
#      x y z
#    x 1.903850 0.000000 0.000000 
#    y 0.000000 1.899420 0.000000 
#    z 0.000000 0.000000 1.844510 
# 
# From -- ./inp_files/6481.got.cif
#   From: 2010.03.12/outbox.cif.g09.slc.cpg/sg45_4_cif.got.tgz:6481.got - 2010.04.14 02:50:11.
