data_PCOD8190957
_publ_section_title
;
Structure prediction by ZEFSAII (Michael W. Deem and Ramdas Pophale) SiO2 
 PCOD8190957
Probable space group: I B A 2
;
_chemical_formula_sum "Si O2"
_cell_formula_units_Z 28
_cell_length_a 9.984784
_cell_length_b 10.809847
_cell_length_c 10.495822
_cell_angle_alpha 90.000000
_cell_angle_beta 90.000000
_cell_angle_gamma 90.000000
_cell_volume 1132.855919
_symmetry_space_group_name_H-M "I B A 2"
_symmetry_group_IT_number 45
_symmetry_cell_setting 'orthorhombic'
loop_
_space_group_symop_operation_xyz
x,y,z
-x,-y,z
-x,y,1/2+z
x,-y,1/2+z
1/2+x,1/2+y,1/2+z
1/2-x,1/2-y,1/2+z
1/2-x,1/2+y,z
1/2+x,1/2-y,z
loop_
_atom_site_type_symbol
_atom_site_label
_atom_site_fract_x
_atom_site_fract_y
_atom_site_fract_z
Si Si1 0.116524 0.744577 0.748880
Si Si2 0.864024 0.885847 0.817434
Si Si3 0.000000 0.500000 0.640913
Si Si4 0.711824 0.551213 0.577789
O O1 0.250609 0.720845 0.832486
O O2 0.166435 0.810581 0.618804
O O3 0.013599 0.832777 0.823002
O O4 0.042478 0.615213 0.727331
O O5 0.841355 0.955141 0.683280
O O6 0.850904 0.977175 0.938953
O O7 0.872400 0.542330 0.558110
#
# Coordination Sequence:
#
# PCOD8190957 Si02
#       4
#     8   8   4   8
#     4  11  24  47  73 114 149 199 249 314 373 453
#     4  11  27  47  79 108 153 197 252 311 379 446
#     4  10  24  48  70 116 154 198 248 316 382 446
#     4  11  26  47  79 109 154 197 255 312 380 451
#
# _framework density 24.716296
#
# number of rings (size 3 to 8) (size 9 to 14) (size 15 to 20)
#    0.000    1.143    2.857    0.857    4.000   13.714 
#    0.000    0.000    0.000    0.000    0.000    0.000 
#    0.000    0.000    0.000    0.000    0.000    0.000 
#
# Total GULP energy -173541.474172 kJ/mol
# GULP energy per Si atom -12395.819584 kJ/mol
# Density = 2.466004 g / cm^3
# Si number density = 24.716296 Si / 1000 Ang^3
#
#
#
# Elastic Constant Matrix: (Units=GPa)
#
#
# Indices 1 2 3 4 5 6 
#
# 1 196.2315 62.4949 68.9194 0.0000 0.0000 0.0000
# 2 62.4949 87.1795 40.0968 0.0001 0.0000 0.0000
# 3 68.9194 40.0968 151.6302 0.0001 0.0000 0.0000
# 4 0.0000 0.0001 0.0001 29.4802 0.0000 0.0000
# 5 0.0000 0.0000 0.0000 0.0000 26.8692 0.0000
# 6 0.0000 0.0000 0.0000 0.0000 0.0000 65.8497
#
#
#
# Elastic Compliance Matrix: (Units=1/GPa)
#
#
# Indices 1 2 3 4 5 6 
#
# 1 0.007178 -0.004150 -0.002165 0.000000 0.000000 0.000000
# 2 -0.004150 0.015458 -0.002202 0.000000 0.000000 0.000000
# 3 -0.002165 -0.002202 0.008161 0.000000 0.000000 0.000000
# 4 0.000000 0.000000 0.000000 0.033921 0.000000 0.000000
# 5 0.000000 0.000000 0.000000 0.000000 0.037217 0.000000
# 6 0.000000 0.000000 0.000000 0.000000 0.000000 0.015186
#
#
# Mechanical properties :
#
#
# Convention : Reuss Voigt Hill
#
# Bulk Modulus (GPa) = 72.65182 86.45149 79.55165
# Shear Modulus (GPa) = 36.03786 42.00848 39.02317
#
# Velocity S-wave (km/s) = 3.82260 4.12713 3.97778
# Velocity P-wave (km/s) = 6.99579 7.60029 7.30430
#
# Compressibility (1/GPa) = 0.01376428
#
# Stress axis : x y z
#
# Youngs Moduli (GPa) = 139.31294 64.69179 122.52935
#
# Poissons Ratio (x) = 0.26846 0.26531
# Poissons Ratio (y) = 0.57812 0.26975
# Poissons Ratio (z) = 0.30165 0.14242
#
# Static dielectric constant tensor:
#      x y z
#    x 5.242440 0.000000 0.000000 
#    y 0.000000 4.608630 0.000000 
#    z 0.000000 0.000000 3.963920 
# 
# 
# High freq. dielectric constant tensor:
#      x y z
#    x 2.018710 0.000000 0.000000 
#    y 0.000000 1.985310 0.000000 
#    z 0.000000 0.000000 1.953070 
# 
# From -- ./inp_files/1143.got.cif
#   From: 2010.03.12/outbox.cif.g09.slc.cpg/sg45_1_cif.got.tgz:1143.got - 2010.04.14 02:50:11.
