data_PCOD8190306
_publ_section_title
;
Structure prediction by ZEFSAII (Michael W. Deem and Ramdas Pophale) SiO2 
 PCOD8190306
Probable space group: I M M 2
;
_chemical_formula_sum "Si O2"
_cell_formula_units_Z 64
_cell_length_a 19.972120
_cell_length_b 19.634915
_cell_length_c 8.498752
_cell_angle_alpha 90.000000
_cell_angle_beta 90.000000
_cell_angle_gamma 90.000000
_cell_volume 3332.793064
_symmetry_space_group_name_H-M "I M M 2"
_symmetry_group_IT_number 44
_symmetry_cell_setting 'orthorhombic'
loop_
_space_group_symop_operation_xyz
x,y,z
-x,-y,z
-x,y,z
x,-y,z
1/2+x,1/2+y,1/2+z
1/2-x,1/2-y,1/2+z
1/2-x,1/2+y,1/2+z
1/2+x,1/2-y,1/2+z
loop_
_atom_site_type_symbol
_atom_site_label
_atom_site_fract_x
_atom_site_fract_y
_atom_site_fract_z
Si Si1 0.424067 0.846349 0.206990
Si Si2 0.314821 0.424953 0.708214
Si Si3 0.575932 0.346350 0.913250
Si Si4 0.685180 0.075047 0.412025
Si Si5 0.300696 0.317545 0.455384
Si Si6 0.924880 0.186723 0.757685
Si Si7 0.575119 0.813277 0.862555
Si Si8 0.300696 0.182456 0.664855
O O1 0.500000 0.870544 0.242906
O O2 0.373668 0.887193 0.317223
O O3 0.416398 0.766809 0.235913
O O4 0.407553 0.855577 0.021460
O O5 0.341096 0.500000 0.656991
O O6 0.373669 0.387191 0.803013
O O7 0.250001 0.434878 0.810121
O O8 0.286570 0.382983 0.560672
O O9 0.500000 0.370546 0.877336
O O10 0.583599 0.266809 0.884330
O O11 0.592448 0.355577 0.098780
O O12 0.713430 0.117018 0.559566
O O13 0.658905 0.000000 0.463250
O O14 0.375268 0.333459 0.395836
O O15 0.295291 0.250001 0.560120
O O16 0.250000 0.310951 0.310119
O O17 0.000000 0.168928 0.812054
O O18 0.500000 0.831073 0.808184
O O19 0.624732 0.833458 0.724403
#
# Coordination Sequence:
#
# PCOD8190306 Si02
#       8
#     8   8   8   8   8   8   8   8
#     4   9  18  36  61  88 116 149 190 232 286 348
#     4  11  24  41  58  81 118 160 197 238 292 347
#     4   9  18  36  61  88 116 149 190 232 286 348
#     4  11  24  41  58  81 118 160 197 238 292 347
#     4  12  24  36  60  88 118 150 199 249 292 341
#     4   9  19  35  60  90 119 147 183 240 294 339
#     4   9  19  35  60  90 119 147 183 240 294 339
#     4  12  24  36  60  88 118 150 199 249 292 341
#
# _framework density 19.203112000000001
#
# number of rings (size 3 to 8) (size 9 to 14) (size 15 to 20)
#    0.000    1.750    2.500    3.750    3.500    2.500 
#    0.000    1.250    0.000    1.500    0.000    0.000 
#    0.000    0.000    0.000    0.000    0.000    0.000 
#
# Total GULP energy -396614.518728 kJ/mol
# GULP energy per Si atom -12394.203710 kJ/mol
# Density = 1.915940 g / cm^3
# Si number density = 19.203112 Si / 1000 Ang^3
#
#
#
# Elastic Constant Matrix: (Units=GPa)
#
#
# Indices 1 2 3 4 5 6 
#
# 1 94.6371 25.3300 48.3748 0.0000 0.0000 0.0000
# 2 25.3300 66.1709 43.2893 0.0000 0.0000 0.0000
# 3 48.3748 43.2893 103.4169 0.0000 0.0000 0.0000
# 4 0.0000 0.0000 0.0000 19.3620 0.0000 0.0000
# 5 0.0000 0.0000 0.0000 0.0000 43.7972 0.0000
# 6 0.0000 0.0000 0.0000 0.0000 0.0000 20.1182
#
#
#
# Elastic Compliance Matrix: (Units=1/GPa)
#
#
# Indices 1 2 3 4 5 6 
#
# 1 0.013992 -0.001479 -0.005925 0.000000 0.000000 0.000000
# 2 -0.001479 0.020968 -0.008085 0.000000 0.000000 0.000000
# 3 -0.005925 -0.008085 0.015826 0.000000 0.000000 0.000000
# 4 0.000000 0.000000 0.000000 0.051648 0.000000 0.000000
# 5 0.000000 0.000000 0.000000 0.000000 0.022832 0.000000
# 6 0.000000 0.000000 0.000000 0.000000 0.000000 0.049706
#
#
# Mechanical properties :
#
#
# Convention : Reuss Voigt Hill
#
# Bulk Modulus (GPa) = 50.49138 55.35699 52.92419
# Shear Modulus (GPa) = 23.52357 26.47088 24.99722
#
# Velocity S-wave (km/s) = 3.50378 3.71680 3.61186
# Velocity P-wave (km/s) = 6.53598 6.87816 6.70925
#
# Compressibility (1/GPa) = 0.01980536
#
# Stress axis : x y z
#
# Youngs Moduli (GPa) = 71.47185 47.69196 63.18877
#
# Poissons Ratio (x) = 0.07056 0.37442
# Poissons Ratio (y) = 0.10574 0.51088
# Poissons Ratio (z) = 0.42350 0.38559
#
# Static dielectric constant tensor:
#      x y z
#    x 3.880000 0.000000 0.000000 
#    y 0.000000 3.595460 0.000000 
#    z 0.000000 0.000000 3.823540 
# 
# 
# High freq. dielectric constant tensor:
#      x y z
#    x 1.762070 0.000000 0.000000 
#    y 0.000000 1.720190 0.000000 
#    z 0.000000 0.000000 1.751760 
# 
# From -- ./inp_files/9043.got.cif
#   From: 2010.03.12/outbox.cif.g09.slc.cpg/sg44_5_cif.got.tgz:9043.got - 2010.04.14 02:36:11.
