data_PCOD8190485
_publ_section_title
;
Structure prediction by ZEFSAII (Michael W. Deem and Ramdas Pophale) SiO2 
 PCOD8190485
Probable space group: I B A 2
;
_chemical_formula_sum "Si O2"
_cell_formula_units_Z 56
_cell_length_a 9.355505
_cell_length_b 13.969890
_cell_length_c 19.622780
_cell_angle_alpha 90.000000
_cell_angle_beta 90.000000
_cell_angle_gamma 90.000000
_cell_volume 2564.606605
_symmetry_space_group_name_H-M "I B A 2"
_symmetry_group_IT_number 45
_symmetry_cell_setting 'orthorhombic'
loop_
_space_group_symop_operation_xyz
x,y,z
-x,-y,z
-x,y,1/2+z
x,-y,1/2+z
1/2+x,1/2+y,1/2+z
1/2-x,1/2-y,1/2+z
1/2-x,1/2+y,z
1/2+x,1/2-y,z
loop_
_atom_site_type_symbol
_atom_site_label
_atom_site_fract_x
_atom_site_fract_y
_atom_site_fract_z
Si Si1 0.677806 0.172667 0.558660
Si Si2 0.500000 0.500000 0.395917
Si Si3 0.105856 0.346988 0.278799
Si Si4 0.743130 0.532694 0.795955
Si Si5 0.697195 0.194223 0.714625
Si Si6 0.536291 0.684189 0.482284
Si Si7 0.578030 0.146379 0.898667
Si Si8 0.500000 0.000000 0.008837
O O1 0.694011 0.212341 0.634383
O O2 0.591661 0.253989 0.516426
O O3 0.839580 0.154336 0.534096
O O4 0.599894 0.068564 0.555185
O O5 0.373186 0.480409 0.342319
O O6 0.472350 0.591190 0.444261
O O7 0.146104 0.457240 0.265595
O O8 0.239971 0.284915 0.254521
O O9 0.967676 0.319177 0.235369
O O10 0.076916 0.342296 0.360888
O O11 0.701669 0.600421 0.731406
O O12 0.812274 0.616083 0.841507
O O13 0.617185 0.749714 0.426991
O O14 0.588799 0.069126 0.959197
#
# Coordination Sequence:
#
# PCOD8190485 Si02
#       8
#     8   4   8   8   8   8   8   4
#     4  11  25  45  69  98 135 189 229 283 342 427
#     4  12  26  42  66 106 146 168 234 290 366 410
#     4  11  24  41  71  98 135 175 222 293 343 410
#     4  11  24  40  68 102 133 181 222 287 346 401
#     4  11  25  45  66  98 136 179 233 273 347 419
#     4  11  25  43  70 100 138 180 226 287 353 415
#     4  10  19  41  68  98 131 168 228 279 350 406
#     4  10  20  36  68  94 130 172 226 276 338 408
#
# _framework density 21.835706999999999
#
# number of rings (size 3 to 8) (size 9 to 14) (size 15 to 20)
#    0.000    1.143    1.429    4.714   10.000    1.143 
#    2.571    0.000    0.000    0.000    0.000    0.000 
#    0.000    0.000    0.000    0.000    0.000    0.000 
#
# Total GULP energy -346912.027041 kJ/mol
# GULP energy per Si atom -12389.715251 kJ/mol
# Density = 2.178601 g / cm^3
# Si number density = 21.835707 Si / 1000 Ang^3
#
#
#
# Elastic Constant Matrix: (Units=GPa)
#
#
# Indices 1 2 3 4 5 6 
#
# 1 81.4227 15.8339 30.4381 0.0000 0.0000 0.0000
# 2 15.8339 111.3727 42.2190 0.0000 0.0000 0.0000
# 3 30.4381 42.2190 85.2260 0.0000 0.0000 0.0000
# 4 0.0000 0.0000 0.0000 26.1018 0.0000 0.0000
# 5 0.0000 0.0000 0.0000 0.0000 30.9832 0.0000
# 6 0.0000 0.0000 0.0000 0.0000 0.0000 25.2057
#
#
#
# Elastic Compliance Matrix: (Units=1/GPa)
#
#
# Indices 1 2 3 4 5 6 
#
# 1 0.014175 -0.000118 -0.005004 0.000000 0.000000 0.000000
# 2 -0.000118 0.011056 -0.005435 0.000000 0.000000 0.000000
# 3 -0.005004 -0.005435 0.016213 0.000000 0.000000 0.000000
# 4 0.000000 0.000000 0.000000 0.038312 0.000000 0.000000
# 5 0.000000 0.000000 0.000000 0.000000 0.032276 0.000000
# 6 0.000000 0.000000 0.000000 0.000000 0.000000 0.039674
#
#
# Mechanical properties :
#
#
# Convention : Reuss Voigt Hill
#
# Bulk Modulus (GPa) = 49.18823 50.55594 49.87208
# Shear Modulus (GPa) = 27.84043 29.09350 28.46696
#
# Velocity S-wave (km/s) = 3.57458 3.65414 3.61458
# Velocity P-wave (km/s) = 6.29383 6.40365 6.34898
#
# Compressibility (1/GPa) = 0.02033007
#
# Stress axis : x y z
#
# Youngs Moduli (GPa) = 70.54556 90.45032 61.67969
#
# Poissons Ratio (x) = 0.01071 0.30864
# Poissons Ratio (y) = 0.00835 0.33520
# Poissons Ratio (z) = 0.35301 0.49155
#
# Static dielectric constant tensor:
#      x y z
#    x 3.898010 0.000000 0.000000 
#    y 0.000000 4.114400 0.000000 
#    z 0.000000 0.000000 4.127640 
# 
# 
# High freq. dielectric constant tensor:
#      x y z
#    x 1.846310 0.000000 0.000000 
#    y 0.000000 1.870640 0.000000 
#    z 0.000000 0.000000 1.855730 
# 
# From -- ./inp_files/8906.got.cif
#   From: 2010.03.12/outbox.cif.g09.slc.cpg/sg45_5_cif.got.tgz:8906.got - 2010.04.14 02:50:11.
