data_PCOD8190198
_publ_section_title
;
Structure prediction by ZEFSAII (Michael W. Deem and Ramdas Pophale) SiO2 
 PCOD8190198
Probable space group: I M M 2
;
_chemical_formula_sum "Si O2"
_cell_formula_units_Z 64
_cell_length_a 30.709178
_cell_length_b 8.553720
_cell_length_c 11.825689
_cell_angle_alpha 90.000000
_cell_angle_beta 90.000000
_cell_angle_gamma 90.000000
_cell_volume 3106.344906
_symmetry_space_group_name_H-M "I M M 2"
_symmetry_group_IT_number 44
_symmetry_cell_setting 'orthorhombic'
loop_
_space_group_symop_operation_xyz
x,y,z
-x,-y,z
-x,y,z
x,-y,z
1/2+x,1/2+y,1/2+z
1/2-x,1/2-y,1/2+z
1/2-x,1/2+y,1/2+z
1/2+x,1/2-y,1/2+z
loop_
_atom_site_type_symbol
_atom_site_label
_atom_site_fract_x
_atom_site_fract_y
_atom_site_fract_z
Si Si1 0.374172 0.180688 0.792340
Si Si2 0.123721 0.819084 0.048173
Si Si3 0.297629 0.181811 0.412944
Si Si4 0.668769 0.821769 0.168401
Si Si5 0.422207 0.320694 0.181762
Si Si6 0.548071 0.178463 0.402341
Si Si7 0.699357 0.680961 0.944833
Si Si8 0.549082 0.319933 0.933323
O O1 0.374439 0.284044 0.680476
O O2 0.330909 0.218470 0.862724
O O3 0.417054 0.213148 0.866482
O O4 0.373611 0.000000 0.758111
O O5 0.114360 0.000000 0.029037
O O6 0.169635 0.777632 0.991356
O O7 0.084062 0.725415 0.993343
O O8 0.305367 0.216777 0.281880
O O9 0.248836 0.239681 0.436743
O O10 0.303936 0.000000 0.441924
O O11 0.618234 0.795486 0.191351
O O12 0.676498 0.000000 0.129202
O O13 0.684706 0.702857 0.073393
O O14 0.406433 0.500000 0.185766
O O15 0.451771 0.284583 0.290022
O O16 0.448385 0.286395 0.067058
O O17 0.500000 0.198017 0.457298
O O18 0.556816 0.000000 0.367042
O O19 0.694892 0.500000 0.910767
O O20 0.500000 0.280381 0.893442
O O21 0.560671 0.500000 0.907946
#
# Coordination Sequence:
#
# PCOD8190198 Si02
#       8
#     8   8   8   8   8   8   8   8
#     4  12  26  44  66  92 127 169 212 261 318 380
#     4  12  26  44  68  93 125 166 212 265 318 378
#     4  10  24  44  66  94 131 168 210 262 315 375
#     4  11  22  39  65  96 131 170 209 259 317 374
#     4  11  21  37  64  97 131 168 209 259 314 373
#     4  11  24  42  65  94 130 169 211 261 315 375
#     4  11  24  43  66  96 130 168 214 263 315 373
#     4  10  22  41  65  93 127 167 212 262 315 374
#
# _framework density 20.602992
#
# number of rings (size 3 to 8) (size 9 to 14) (size 15 to 20)
#    0.000    1.000    2.500    4.125    1.750    4.250 
#    0.000    0.000    0.000    0.000    0.000    0.000 
#    0.000    0.000    0.000    0.000    0.000    0.000 
#
# Total GULP energy -396981.397964 kJ/mol
# GULP energy per Si atom -12405.668686 kJ/mol
# Density = 2.055610 g / cm^3
# Si number density = 20.602992 Si / 1000 Ang^3
#
#
#
# Elastic Constant Matrix: (Units=GPa)
#
#
# Indices 1 2 3 4 5 6 
#
# 1 140.0308 31.3090 37.6885 0.0000 0.0000 0.0000
# 2 31.3090 58.9564 25.5575 0.0000 0.0000 0.0000
# 3 37.6885 25.5575 97.7852 0.0000 0.0000 0.0000
# 4 0.0000 0.0000 0.0000 34.6171 0.0000 0.0000
# 5 0.0000 0.0000 0.0000 0.0000 54.8548 0.0000
# 6 0.0000 0.0000 0.0000 0.0000 0.0000 21.3902
#
#
#
# Elastic Compliance Matrix: (Units=1/GPa)
#
#
# Indices 1 2 3 4 5 6 
#
# 1 0.008569 -0.003518 -0.002383 0.000000 0.000000 0.000000
# 2 -0.003518 0.020573 -0.004021 0.000000 0.000000 0.000000
# 3 -0.002383 -0.004021 0.012196 0.000000 0.000000 0.000000
# 4 0.000000 0.000000 0.000000 0.028887 0.000000 0.000000
# 5 0.000000 0.000000 0.000000 0.000000 0.018230 0.000000
# 6 0.000000 0.000000 0.000000 0.000000 0.000000 0.046750
#
#
# Mechanical properties :
#
#
# Convention : Reuss Voigt Hill
#
# Bulk Modulus (GPa) = 46.52497 53.98693 50.25595
# Shear Modulus (GPa) = 30.82328 35.65358 33.23843
#
# Velocity S-wave (km/s) = 3.87209 4.16445 4.02093
# Velocity P-wave (km/s) = 6.52851 7.02736 6.78252
#
# Compressibility (1/GPa) = 0.02149383
#
# Stress axis : x y z
#
# Youngs Moduli (GPa) = 116.69651 48.60764 81.99317
#
# Poissons Ratio (x) = 0.17098 0.19542
# Poissons Ratio (y) = 0.41048 0.32972
# Poissons Ratio (z) = 0.27814 0.19547
#
# Static dielectric constant tensor:
#      x y z
#    x 3.850910 0.000000 0.000000 
#    y 0.000000 3.720050 0.000000 
#    z 0.000000 0.000000 3.691740 
# 
# 
# High freq. dielectric constant tensor:
#      x y z
#    x 1.817220 0.000000 0.000000 
#    y 0.000000 1.809130 0.000000 
#    z 0.000000 0.000000 1.807500 
# 
# From -- ./inp_files/15071.got.cif
#   From: 2010.03.12/outbox.cif.g09.slc.cpg/sg44_8_cif.got.tgz:15071.got - 2010.04.14 02:36:11.
