data_PCOD8190411
_publ_section_title
;
Structure prediction by ZEFSAII (Michael W. Deem and Ramdas Pophale) SiO2 
 PCOD8190411
Probable space group: I B A 2
;
_chemical_formula_sum "Si O2"
_cell_formula_units_Z 48
_cell_length_a 23.861532
_cell_length_b 5.134980
_cell_length_c 17.361837
_cell_angle_alpha 90.000000
_cell_angle_beta 90.000000
_cell_angle_gamma 90.000000
_cell_volume 2127.319664
_symmetry_space_group_name_H-M "I B A 2"
_symmetry_group_IT_number 45
_symmetry_cell_setting 'orthorhombic'
loop_
_space_group_symop_operation_xyz
x,y,z
-x,-y,z
-x,y,1/2+z
x,-y,1/2+z
1/2+x,1/2+y,1/2+z
1/2-x,1/2-y,1/2+z
1/2-x,1/2+y,z
1/2+x,1/2-y,z
loop_
_atom_site_type_symbol
_atom_site_label
_atom_site_fract_x
_atom_site_fract_y
_atom_site_fract_z
Si Si1 0.674446 0.189189 0.895810
Si Si2 0.613692 0.307845 0.348177
Si Si3 0.621332 0.889098 0.680447
Si Si4 0.500000 0.000000 0.206785
Si Si5 0.217354 0.672152 0.235504
Si Si6 0.000000 0.000000 0.307356
Si Si7 0.715336 0.838210 0.566115
O O1 0.652044 0.481212 0.889043
O O2 0.719992 0.151887 0.828034
O O3 0.625179 0.972316 0.887327
O O4 0.706410 0.164502 0.975198
O O5 0.625012 0.300081 0.255552
O O6 0.549943 0.399077 0.361882
O O7 0.655455 0.775291 0.607572
O O8 0.556067 0.935956 0.657018
O O9 0.652741 0.158983 0.706187
O O10 0.481675 0.250830 0.256423
O O11 0.248683 0.414917 0.202151
O O12 0.762669 0.626826 0.588660
#
# Coordination Sequence:
#
# PCOD8190411 Si02
#       7
#     8   8   8   4   8   4   8
#     4  11  22  39  59  88 126 161 199 249 317 369
#     4  10  21  38  64  90 121 160 205 257 299 369
#     4  10  23  41  63  92 122 161 212 254 305 362
#     4  10  22  38  62  90 126 162 200 262 314 360
#     4  11  20  33  57  86 115 148 193 246 294 357
#     4  10  18  36  62  94 120 156 208 256 312 354
#     4  12  26  43  63  90 129 169 205 255 312 370
#
# _framework density 22.563604999999999
#
# number of rings (size 3 to 8) (size 9 to 14) (size 15 to 20)
#    0.000    1.333    0.000    8.000    0.000    6.667 
#    0.000    1.667    0.000    1.000    0.000    0.000 
#    0.000    0.000    0.000    0.000    0.000    0.000 
#
# Total GULP energy -297513.535973 kJ/mol
# GULP energy per Si atom -12396.397332 kJ/mol
# Density = 2.251225 g / cm^3
# Si number density = 22.563605 Si / 1000 Ang^3
#
#
#
# Elastic Constant Matrix: (Units=GPa)
#
#
# Indices 1 2 3 4 5 6 
#
# 1 145.6654 34.6402 32.5431 0.0000 0.0000 0.0000
# 2 34.6402 108.1996 27.4168 0.0000 0.0000 0.0000
# 3 32.5431 27.4168 86.8215 0.0000 0.0000 0.0000
# 4 0.0000 0.0000 0.0000 28.5630 0.0000 0.0000
# 5 0.0000 0.0000 0.0000 0.0000 24.8987 0.0000
# 6 0.0000 0.0000 0.0000 0.0000 0.0000 28.2650
#
#
#
# Elastic Compliance Matrix: (Units=1/GPa)
#
#
# Indices 1 2 3 4 5 6 
#
# 1 0.007843 -0.001920 -0.002334 0.000000 0.000000 0.000000
# 2 -0.001920 0.010516 -0.002601 0.000000 0.000000 0.000000
# 3 -0.002334 -0.002601 0.013214 0.000000 0.000000 0.000000
# 4 0.000000 0.000000 0.000000 0.035010 0.000000 0.000000
# 5 0.000000 0.000000 0.000000 0.000000 0.040163 0.000000
# 6 0.000000 0.000000 0.000000 0.000000 0.000000 0.035379
#
#
# Mechanical properties :
#
#
# Convention : Reuss Voigt Hill
#
# Bulk Modulus (GPa) = 55.97854 58.87629 57.42742
# Shear Modulus (GPa) = 30.90452 32.75110 31.82781
#
# Velocity S-wave (km/s) = 3.70491 3.81399 3.75985
# Velocity P-wave (km/s) = 6.57000 6.74874 6.65997
#
# Compressibility (1/GPa) = 0.01786399
#
# Stress axis : x y z
#
# Youngs Moduli (GPa) = 127.50414 95.09435 75.67739
#
# Poissons Ratio (x) = 0.18254 0.17660
# Poissons Ratio (y) = 0.24476 0.19685
# Poissons Ratio (z) = 0.29754 0.24736
#
# Static dielectric constant tensor:
#      x y z
#    x 4.185980 0.000000 0.000000 
#    y 0.000000 4.276050 0.000000 
#    z 0.000000 0.000000 3.920700 
# 
# 
# High freq. dielectric constant tensor:
#      x y z
#    x 1.888550 0.000000 0.000000 
#    y 0.000000 1.905060 0.000000 
#    z 0.000000 0.000000 1.870060 
# 
# From -- ./inp_files/8494.got.cif
#   From: 2010.03.12/outbox.cif.g09.slc.cpg/sg45_5_cif.got.tgz:8494.got - 2010.04.14 02:50:11.
