data_PCOD8190072
_publ_section_title
;
Structure prediction by ZEFSAII (Michael W. Deem and Ramdas Pophale) SiO2 
 PCOD8190072
Probable space group: I M M 2
;
_chemical_formula_sum "Si O2"
_cell_formula_units_Z 48
_cell_length_a 8.733462
_cell_length_b 14.397753
_cell_length_c 20.226507
_cell_angle_alpha 90.000000
_cell_angle_beta 90.000000
_cell_angle_gamma 90.000000
_cell_volume 2543.326069
_symmetry_space_group_name_H-M "I M M 2"
_symmetry_group_IT_number 44
_symmetry_cell_setting 'orthorhombic'
loop_
_space_group_symop_operation_xyz
x,y,z
-x,-y,z
-x,y,z
x,-y,z
1/2+x,1/2+y,1/2+z
1/2-x,1/2-y,1/2+z
1/2-x,1/2+y,1/2+z
1/2+x,1/2-y,1/2+z
loop_
_atom_site_type_symbol
_atom_site_label
_atom_site_fract_x
_atom_site_fract_y
_atom_site_fract_z
Si Si1 0.679295 0.500000 0.449630
Si Si2 0.820310 0.811831 0.370177
Si Si3 0.179334 0.500000 0.061052
Si Si4 0.181836 0.500000 0.305881
Si Si5 0.679712 0.184267 0.993638
Si Si6 0.323220 0.310670 0.260544
Si Si7 0.674693 0.682717 0.110128
Si Si8 0.181086 0.500000 0.912906
O O1 0.500000 0.500000 0.433203
O O2 0.776278 0.500000 0.382677
O O3 0.723363 0.409940 0.492138
O O4 0.772232 0.747370 0.431525
O O5 0.767940 0.764377 0.302684
O O6 0.737899 0.910114 0.374236
O O7 0.000000 0.828496 0.368912
O O8 0.227844 0.409671 0.101172
O O9 0.000000 0.500000 0.054786
O O10 0.250722 0.500000 0.987209
O O11 0.250492 0.411365 0.269617
O O12 0.000000 0.500000 0.298986
O O13 0.500000 0.160618 0.992167
O O14 0.729454 0.236797 0.060449
O O15 0.500000 0.313732 0.282800
O O16 0.306133 0.280165 0.184427
O O17 0.500000 0.656236 0.094089
O O18 0.000000 0.500000 0.913785
#
# Coordination Sequence:
#
# PCOD8190072 Si02
#       8
#     4   8   4   4   8   8   8   4
#     4  12  24  37  60  91 120 150 194 249 296 342
#     4  11  22  38  63  88 117 156 198 244 292 348
#     4  11  22  34  57  91 124 154 187 243 298 342
#     4  12  23  37  58  86 122 160 195 238 295 354
#     4  10  21  39  62  86 116 154 198 240 288 350
#     4  11  23  39  60  88 121 156 197 243 295 349
#     4  10  22  40  61  85 118 160 197 236 288 354
#     4  11  23  38  59  90 124 154 196 248 293 340
#
# _framework density 18.872924000000001
#
# number of rings (size 3 to 8) (size 9 to 14) (size 15 to 20)
#    0.000    1.167    3.333    3.500    0.000    5.333 
#    0.000    0.833    0.000    2.000    0.000    0.000 
#    0.000    0.000    0.000    0.000    0.000    0.000 
#
# Total GULP energy -297757.027317 kJ/mol
# GULP energy per Si atom -12406.542805 kJ/mol
# Density = 1.882997 g / cm^3
# Si number density = 18.872924 Si / 1000 Ang^3
#
#
#
# Elastic Constant Matrix: (Units=GPa)
#
#
# Indices 1 2 3 4 5 6 
#
# 1 65.0782 36.3103 25.0214 0.0000 0.0000 0.0000
# 2 36.3103 129.8521 48.0453 0.0000 0.0000 0.0000
# 3 25.0214 48.0453 110.4721 0.0000 0.0000 0.0000
# 4 0.0000 0.0000 0.0000 2.5293 0.0000 0.0000
# 5 0.0000 0.0000 0.0000 0.0000 28.2193 0.0000
# 6 0.0000 0.0000 0.0000 0.0000 0.0000 28.8012
#
#
#
# Elastic Compliance Matrix: (Units=1/GPa)
#
#
# Indices 1 2 3 4 5 6 
#
# 1 0.018700 -0.004364 -0.002337 0.000000 0.000000 0.000000
# 2 -0.004364 0.010196 -0.003446 0.000000 0.000000 0.000000
# 3 -0.002337 -0.003446 0.011080 0.000000 0.000000 0.000000
# 4 0.000000 0.000000 0.000000 0.395369 0.000000 0.000000
# 5 0.000000 0.000000 0.000000 0.000000 0.035437 0.000000
# 6 0.000000 0.000000 0.000000 0.000000 0.000000 0.034721
#
#
# Mechanical properties :
#
#
# Convention : Reuss Voigt Hill
#
# Bulk Modulus (GPa) = 50.80993 58.23962 54.52477
# Shear Modulus (GPa) = 9.39217 24.97830 17.18523
#
# Velocity S-wave (km/s) = 2.23323 3.64194 3.02085
# Velocity P-wave (km/s) = 5.79917 6.97214 6.41253
#
# Compressibility (1/GPa) = 0.01968119
#
# Stress axis : x y z
#
# Youngs Moduli (GPa) = 53.47652 98.07326 90.25107
#
# Poissons Ratio (x) = 0.42801 0.21095
# Poissons Ratio (y) = 0.23338 0.31101
# Poissons Ratio (z) = 0.12500 0.33797
#
# Static dielectric constant tensor:
#      x y z
#    x 3.487430 0.000000 0.000000 
#    y 0.000000 3.539280 0.000000 
#    z 0.000000 0.000000 3.522490 
# 
# 
# High freq. dielectric constant tensor:
#      x y z
#    x 1.740200 0.000000 0.000000 
#    y 0.000000 1.733910 0.000000 
#    z 0.000000 0.000000 1.733370 
# 
# From -- ./inp_files/20357.got.cif
#   From: 2010.03.12/outbox.cif.g09.slc.cpg/sg44_11_cif.got.tgz:20357.got - 2010.04.14 02:36:11.
