data_PCOD8190667
_publ_section_title
;
Structure prediction by ZEFSAII (Michael W. Deem and Ramdas Pophale) SiO2 
 PCOD8190667
Probable space group: I B A 2
;
_chemical_formula_sum "Si O2"
_cell_formula_units_Z 48
_cell_length_a 9.021562
_cell_length_b 26.750468
_cell_length_c 8.875671
_cell_angle_alpha 90.000000
_cell_angle_beta 90.000000
_cell_angle_gamma 90.000000
_cell_volume 2141.974608
_symmetry_space_group_name_H-M "I B A 2"
_symmetry_group_IT_number 45
_symmetry_cell_setting 'orthorhombic'
loop_
_space_group_symop_operation_xyz
x,y,z
-x,-y,z
-x,y,1/2+z
x,-y,1/2+z
1/2+x,1/2+y,1/2+z
1/2-x,1/2-y,1/2+z
1/2-x,1/2+y,z
1/2+x,1/2-y,z
loop_
_atom_site_type_symbol
_atom_site_label
_atom_site_fract_x
_atom_site_fract_y
_atom_site_fract_z
Si Si1 0.643683 0.963548 0.197260
Si Si2 0.988904 0.372247 0.339349
Si Si3 0.944264 0.261676 0.795151
Si Si4 0.710067 0.109752 0.108551
Si Si5 0.172286 0.213306 0.597987
Si Si6 0.171992 0.988137 0.975090
O O1 0.609967 0.905501 0.225811
O O2 0.777440 0.978899 0.306838
O O3 0.500000 0.000000 0.212942
O O4 0.719913 0.967613 0.033950
O O5 0.942755 0.389530 0.507295
O O6 0.962299 0.312811 0.322658
O O7 0.158901 0.383705 0.284254
O O8 0.830492 0.268710 0.658366
O O9 0.056463 0.219994 0.734292
O O10 0.867918 0.244794 0.949845
O O11 0.818692 0.154600 0.058099
O O12 0.798088 0.058846 0.086292
O O13 0.000000 0.000000 0.979255
#
# Coordination Sequence:
#
# PCOD8190667 Si02
#       6
#     8   8   8   8   8   8
#     4  11  22  41  68  92 123 170 218 266 316 384
#     4  10  21  38  67  93 120 163 225 263 304 381
#     4  11  22  42  65  95 130 171 215 274 321 392
#     4  10  22  41  64  96 125 166 215 262 324 390
#     4  11  23  42  65  94 131 169 217 265 329 386
#     4  11  24  43  61  95 135 162 207 272 335 387
#
# _framework density 22.409229
#
# number of rings (size 3 to 8) (size 9 to 14) (size 15 to 20)
#    0.000    1.333    1.667    5.000    2.333    0.000 
#   12.000    0.000    0.000    0.000    0.000    0.000 
#    0.000    0.000    0.000    0.000    0.000    0.000 
#
# Total GULP energy -297427.905747 kJ/mol
# GULP energy per Si atom -12392.829406 kJ/mol
# Density = 2.235822 g / cm^3
# Si number density = 22.409229 Si / 1000 Ang^3
#
#
#
# Elastic Constant Matrix: (Units=GPa)
#
#
# Indices 1 2 3 4 5 6 
#
# 1 111.8991 44.6552 22.9427 0.0000 -0.0003 -0.0002
# 2 44.6552 87.9058 35.1553 0.0056 -0.0014 -0.0017
# 3 22.9427 35.1553 68.2945 0.0005 0.0030 -0.0018
# 4 0.0000 0.0056 0.0005 23.2424 0.0000 -0.0010
# 5 -0.0003 -0.0014 0.0030 0.0000 28.1048 0.0011
# 6 -0.0002 -0.0017 -0.0018 -0.0010 0.0011 31.7091
#
#
#
# Elastic Compliance Matrix: (Units=1/GPa)
#
#
# Indices 1 2 3 4 5 6 
#
# 1 0.011269 -0.005302 -0.001056 0.000001 0.000000 0.000000
# 2 -0.005302 0.016819 -0.006877 -0.000004 0.000002 0.000000
# 3 -0.001056 -0.006877 0.018537 0.000001 -0.000002 0.000001
# 4 0.000001 -0.000004 0.000001 0.043025 0.000000 0.000001
# 5 0.000000 0.000002 -0.000002 0.000000 0.035581 -0.000001
# 6 0.000000 0.000000 0.000001 0.000001 -0.000001 0.031537
#
#
# Mechanical properties :
#
#
# Convention : Reuss Voigt Hill
#
# Bulk Modulus (GPa) = 49.61506 52.62287 51.11897
# Shear Modulus (GPa) = 26.32169 27.63433 26.97801
#
# Velocity S-wave (km/s) = 3.43095 3.51546 3.47346
# Velocity P-wave (km/s) = 6.15498 6.32547 6.24081
#
# Compressibility (1/GPa) = 0.02015517
#
# Stress axis : x y z
#
# Youngs Moduli (GPa) = 88.73812 59.45515 53.94545
#
# Poissons Ratio (x) = 0.31524 0.05699
# Poissons Ratio (y) = 0.47050 0.37097
# Poissons Ratio (z) = 0.09374 0.40886
#
# Static dielectric constant tensor:
#      x y z
#    x 3.868210 0.000000 0.000000 
#    y 0.000000 4.193080 0.000000 
#    z 0.000000 0.000000 4.200230 
# 
# 
# High freq. dielectric constant tensor:
#      x y z
#    x 1.866660 0.000000 0.000000 
#    y 0.000000 1.885620 0.000000 
#    z 0.000000 0.000000 1.893210 
# 
# From -- ./inp_files/1073.got.cif
#   From: 2010.03.12/outbox.cif.g09.slc.cpg/sg45_1_cif.got.tgz:1073.got - 2010.04.14 02:50:11.
