data_PCOD8190501
_publ_section_title
;
Structure prediction by ZEFSAII (Michael W. Deem and Ramdas Pophale) SiO2 
 PCOD8190501
Probable space group: I B A 2
;
_chemical_formula_sum "Si O2"
_cell_formula_units_Z 64
_cell_length_a 18.337437
_cell_length_b 18.349605
_cell_length_c 8.290947
_cell_angle_alpha 90.000000
_cell_angle_beta 90.000000
_cell_angle_gamma 90.000000
_cell_volume 2789.777027
_symmetry_space_group_name_H-M "I B A 2"
_symmetry_group_IT_number 45
_symmetry_cell_setting 'orthorhombic'
loop_
_space_group_symop_operation_xyz
x,y,z
-x,-y,z
-x,y,1/2+z
x,-y,1/2+z
1/2+x,1/2+y,1/2+z
1/2-x,1/2-y,1/2+z
1/2-x,1/2+y,z
1/2+x,1/2-y,z
loop_
_atom_site_type_symbol
_atom_site_label
_atom_site_fract_x
_atom_site_fract_y
_atom_site_fract_z
Si Si1 0.557235 0.335706 0.822870
Si Si2 0.676665 0.681634 0.082192
Si Si3 0.715897 0.046409 0.532741
Si Si4 0.185255 0.401030 0.197646
Si Si5 0.150172 0.733226 0.528560
Si Si6 0.619769 0.530982 0.509930
Si Si7 0.404387 0.394057 0.838683
Si Si8 0.758918 0.684509 0.724692
O O1 0.594587 0.332485 0.648520
O O2 0.582578 0.265342 0.928641
O O3 0.469944 0.337980 0.801821
O O4 0.578368 0.410240 0.905777
O O5 0.733541 0.633617 0.184906
O O6 0.690171 0.766734 0.107281
O O7 0.667851 0.654533 0.893301
O O8 0.670089 0.081935 0.385564
O O9 0.795201 0.026190 0.461675
O O10 0.721590 0.101119 0.685359
O O11 0.675575 0.974076 0.593700
O O12 0.128534 0.339881 0.128636
O O13 0.219269 0.707309 0.411110
O O14 0.177256 0.795412 0.654333
O O15 0.615128 0.551892 0.696041
O O16 0.582077 0.451699 0.485480
#
# Coordination Sequence:
#
# PCOD8190501 Si02
#       8
#     8   8   8   8   8   8   8   8
#     4  11  22  40  53  76 112 154 202 248 284 340
#     4  10  21  38  54  81 107 153 198 244 286 343
#     4  12  21  37  56  87 117 154 188 244 297 359
#     4  11  22  35  58  79 117 145 194 239 300 352
#     4  10  21  37  57  80 106 151 199 250 300 349
#     4  12  23  36  53  81 115 160 204 237 282 342
#     4  12  25  37  56  78 119 164 206 240 284 337
#     4  10  20  34  58  78 112 143 194 246 301 350
#
# _framework density 22.940902999999999
#
# number of rings (size 3 to 8) (size 9 to 14) (size 15 to 20)
#    0.000    1.000    3.750    4.875    3.500    2.000 
#    0.000    0.000    0.000    0.000    0.000    0.875 
#    0.000    6.000    0.000    0.000    0.000    0.000 
#
# Total GULP energy -396722.742352 kJ/mol
# GULP energy per Si atom -12397.585698 kJ/mol
# Density = 2.288869 g / cm^3
# Si number density = 22.940903 Si / 1000 Ang^3
#
#
#
# Elastic Constant Matrix: (Units=GPa)
#
#
# Indices 1 2 3 4 5 6 
#
# 1 43.0647 3.5469 -6.6301 0.0000 0.0000 0.0000
# 2 3.5469 118.9577 18.9201 0.0000 0.0000 0.0000
# 3 -6.6301 18.9201 93.3080 0.0000 0.0000 0.0000
# 4 0.0000 0.0000 0.0000 43.9457 0.0000 0.0000
# 5 0.0000 0.0000 0.0000 0.0000 23.0028 0.0000
# 6 0.0000 0.0000 0.0000 0.0000 0.0000 18.4181
#
#
#
# Elastic Compliance Matrix: (Units=1/GPa)
#
#
# Indices 1 2 3 4 5 6 
#
# 1 0.023593 -0.001002 0.001880 0.000000 0.000000 0.000000
# 2 -0.001002 0.008729 -0.001841 0.000000 0.000000 0.000000
# 3 0.001880 -0.001841 0.011224 0.000000 0.000000 0.000000
# 4 0.000000 0.000000 0.000000 0.022755 0.000000 0.000000
# 5 0.000000 0.000000 0.000000 0.000000 0.043473 0.000000
# 6 0.000000 0.000000 0.000000 0.000000 0.000000 0.054295
#
#
# Mechanical properties :
#
#
# Convention : Reuss Voigt Hill
#
# Bulk Modulus (GPa) = 24.02802 31.88935 27.95869
# Shear Modulus (GPa) = 27.79792 33.03954 30.41873
#
# Velocity S-wave (km/s) = 3.48475 3.79912 3.64532
# Velocity P-wave (km/s) = 5.16604 5.75979 5.47098
#
# Compressibility (1/GPa) = 0.04161808
#
# Stress axis : x y z
#
# Youngs Moduli (GPa) = 42.38576 114.55959 89.09400
#
# Poissons Ratio (x) = 0.11484 -0.16747
# Poissons Ratio (y) = 0.04249 0.16404
# Poissons Ratio (z) = -0.07967 0.21093
#
# Static dielectric constant tensor:
#      x y z
#    x 3.712510 0.000000 0.000000 
#    y 0.000000 4.396630 0.000000 
#    z 0.000000 0.000000 4.527920 
# 
# 
# High freq. dielectric constant tensor:
#      x y z
#    x 1.841640 0.000000 0.000000 
#    y 0.000000 1.919920 0.000000 
#    z 0.000000 0.000000 1.940570 
# 
# From -- ./inp_files/2385.got.cif
#   From: 2010.03.12/outbox.cif.g09.slc.cpg/sg45_2_cif.got.tgz:2385.got - 2010.04.14 02:50:11.
