data_PCOD8190845
_publ_section_title
;
Structure prediction by ZEFSAII (Michael W. Deem and Ramdas Pophale) SiO2 
 PCOD8190845
Probable space group: I B A 2
;
_chemical_formula_sum "Si O2"
_cell_formula_units_Z 60
_cell_length_a 20.024996
_cell_length_b 16.151295
_cell_length_c 8.794130
_cell_angle_alpha 90.000000
_cell_angle_beta 90.000000
_cell_angle_gamma 90.000000
_cell_volume 2844.282105
_symmetry_space_group_name_H-M "I B A 2"
_symmetry_group_IT_number 45
_symmetry_cell_setting 'orthorhombic'
loop_
_space_group_symop_operation_xyz
x,y,z
-x,-y,z
-x,y,1/2+z
x,-y,1/2+z
1/2+x,1/2+y,1/2+z
1/2-x,1/2-y,1/2+z
1/2-x,1/2+y,z
1/2+x,1/2-y,z
loop_
_atom_site_type_symbol
_atom_site_label
_atom_site_fract_x
_atom_site_fract_y
_atom_site_fract_z
Si Si1 0.500000 0.500000 0.368230
Si Si2 0.548116 0.616409 0.118309
Si Si3 0.820929 0.228656 0.115996
Si Si4 0.629650 0.046315 0.812461
Si Si5 0.187881 0.297927 0.953022
Si Si6 0.367813 0.894362 0.492619
Si Si7 0.001536 0.363796 0.344078
Si Si8 0.442592 0.757227 0.079738
O O1 0.547750 0.558110 0.266424
O O2 0.452599 0.557962 0.470436
O O3 0.615608 0.668661 0.114419
O O4 0.481494 0.673634 0.122592
O O5 0.804847 0.255043 0.288155
O O6 0.756884 0.187284 0.040645
O O7 0.835829 0.304005 0.999009
O O8 0.655727 0.059300 0.643804
O O9 0.548893 0.060015 0.810913
O O10 0.660420 0.109644 0.932691
O O11 0.653142 0.953120 0.852537
O O12 0.137893 0.245248 0.064783
O O13 0.447864 0.887190 0.479903
O O14 0.041557 0.332303 0.196007
O O15 0.960856 0.284527 0.407107
#
# Coordination Sequence:
#
# PCOD8190845 Si02
#       8
#     4   8   8   8   8   8   8   8
#     4  10  24  38  68 100 124 166 218 276 346 370
#     4  11  21  43  66  97 131 163 217 282 325 394
#     4  11  24  45  67  93 131 176 227 269 329 398
#     4  10  23  39  55  93 134 165 214 268 320 390
#     4  10  25  42  63  96 128 176 224 271 327 397
#     4  11  23  38  60  91 127 171 211 264 320 391
#     4  11  20  35  61  94 126 168 207 260 326 379
#     4  11  21  38  67  94 129 166 215 271 330 391
#
# _framework density 21.094954000000001
#
# number of rings (size 3 to 8) (size 9 to 14) (size 15 to 20)
#    0.000    1.333    2.667    3.600    5.600    1.067 
#    0.000    6.667    0.000    0.000    0.000    0.000 
#    0.000    0.000    0.000    0.000    0.000    0.000 
#
# Total GULP energy -371789.252321 kJ/mol
# GULP energy per Si atom -12392.975077 kJ/mol
# Density = 2.104694 g / cm^3
# Si number density = 21.094954 Si / 1000 Ang^3
#
#
#
# Elastic Constant Matrix: (Units=GPa)
#
#
# Indices 1 2 3 4 5 6 
#
# 1 106.0933 39.5794 39.0520 0.0000 0.0000 0.0000
# 2 39.5794 90.8862 34.6856 0.0000 0.0000 0.0000
# 3 39.0520 34.6856 87.8683 0.0000 0.0000 0.0000
# 4 0.0000 0.0000 0.0000 33.1569 0.0000 0.0000
# 5 0.0000 0.0000 0.0000 0.0000 31.6655 0.0000
# 6 0.0000 0.0000 0.0000 0.0000 0.0000 17.6579
#
#
#
# Elastic Compliance Matrix: (Units=1/GPa)
#
#
# Indices 1 2 3 4 5 6 
#
# 1 0.012319 -0.003856 -0.003953 0.000000 0.000000 0.000000
# 2 -0.003856 0.014161 -0.003876 0.000000 0.000000 0.000000
# 3 -0.003953 -0.003876 0.014668 0.000000 0.000000 0.000000
# 4 0.000000 0.000000 0.000000 0.030160 0.000000 0.000000
# 5 0.000000 0.000000 0.000000 0.000000 0.031580 0.000000
# 6 0.000000 0.000000 0.000000 0.000000 0.000000 0.056632
#
#
# Mechanical properties :
#
#
# Convention : Reuss Voigt Hill
#
# Bulk Modulus (GPa) = 56.25110 56.83134 56.54122
# Shear Modulus (GPa) = 26.48069 27.93145 27.20607
#
# Velocity S-wave (km/s) = 3.54688 3.64274 3.59513
# Velocity P-wave (km/s) = 6.59525 6.68520 6.64038
#
# Compressibility (1/GPa) = 0.01777743
#
# Stress axis : x y z
#
# Youngs Moduli (GPa) = 81.17323 70.61421 68.17728
#
# Poissons Ratio (x) = 0.27231 0.26950
# Poissons Ratio (y) = 0.31303 0.26428
# Poissons Ratio (z) = 0.32087 0.27372
#
# Static dielectric constant tensor:
#      x y z
#    x 3.656230 0.000000 0.000000 
#    y 0.000000 3.806000 0.000000 
#    z 0.000000 0.000000 3.911180 
# 
# 
# High freq. dielectric constant tensor:
#      x y z
#    x 1.799230 0.000000 0.000000 
#    y 0.000000 1.821470 0.000000 
#    z 0.000000 0.000000 1.842760 
# 
# From -- ./inp_files/2146.got.cif
#   From: 2010.03.12/outbox.cif.g09.slc.cpg/sg45_2_cif.got.tgz:2146.got - 2010.04.14 02:50:11.
