data_PCOD8190451
_publ_section_title
;
Structure prediction by ZEFSAII (Michael W. Deem and Ramdas Pophale) SiO2 
 PCOD8190451
Probable space group: I B A 2
;
_chemical_formula_sum "Si O2"
_cell_formula_units_Z 60
_cell_length_a 33.134102
_cell_length_b 5.185251
_cell_length_c 17.114047
_cell_angle_alpha 90.000000
_cell_angle_beta 90.000000
_cell_angle_gamma 90.000000
_cell_volume 2940.341063
_symmetry_space_group_name_H-M "I B A 2"
_symmetry_group_IT_number 45
_symmetry_cell_setting 'orthorhombic'
loop_
_space_group_symop_operation_xyz
x,y,z
-x,-y,z
-x,y,1/2+z
x,-y,1/2+z
1/2+x,1/2+y,1/2+z
1/2-x,1/2-y,1/2+z
1/2-x,1/2+y,z
1/2+x,1/2-y,z
loop_
_atom_site_type_symbol
_atom_site_label
_atom_site_fract_x
_atom_site_fract_y
_atom_site_fract_z
Si Si1 0.228108 0.363402 0.005550
Si Si2 0.903295 0.884223 0.494163
Si Si3 0.478685 0.254779 0.904138
Si Si4 0.916610 0.879625 0.675503
Si Si5 0.366486 0.131535 0.684903
Si Si6 0.774236 0.372310 0.692013
Si Si7 0.500000 0.500000 0.753540
Si Si8 0.140358 0.620634 0.502743
O O1 0.244445 0.633634 0.973664
O O2 0.226039 0.371265 0.098776
O O3 0.184223 0.318379 0.968797
O O4 0.933072 0.759680 0.431544
O O5 0.866887 0.680960 0.488267
O O6 0.920491 0.889175 0.581827
O O7 0.890443 0.170314 0.465108
O O8 0.500000 0.500000 0.945242
O O9 0.482175 0.274041 0.809771
O O10 0.500000 0.000000 0.936158
O O11 0.891747 0.118191 0.713307
O O12 0.892965 0.622867 0.703727
O O13 0.963235 0.883203 0.703250
O O14 0.321158 0.118091 0.722206
O O15 0.360620 0.177277 0.593956
O O16 0.749199 0.619310 0.723492
#
# Coordination Sequence:
#
# PCOD8190451 Si02
#       8
#     8   8   8   8   8   8   4   8
#     4   9  15  23  38  65 101 140 166 197 247 306
#     4  10  19  35  53  76 101 138 174 217 261 310
#     4  10  23  39  56  76 103 134 169 229 260 314
#     4  10  21  34  54  76 106 140 175 218 268 313
#     4   9  18  31  46  74 108 137 173 216 258 309
#     4   9  15  24  42  66 100 141 171 197 249 313
#     4  10  26  38  58  76 108 138 182 222 274 320
#     4   9  17  29  47  72 104 137 174 210 253 309
#
# _framework density 20.405797
#
# number of rings (size 3 to 8) (size 9 to 14) (size 15 to 20)
#    0.400    2.133    0.000    2.400    2.800    6.400 
#    0.000    0.000    0.000    0.000    0.000    0.000 
#    0.000   21.333    0.000    0.000    0.000    0.000 
#
# Total GULP energy -371709.539164 kJ/mol
# GULP energy per Si atom -12390.317972 kJ/mol
# Density = 2.035935 g / cm^3
# Si number density = 20.405797 Si / 1000 Ang^3
#
#
#
# Elastic Constant Matrix: (Units=GPa)
#
#
# Indices 1 2 3 4 5 6 
#
# 1 167.9586 66.4680 34.4556 0.0000 0.0000 0.0000
# 2 66.4680 160.8969 22.5473 0.0000 0.0000 0.0000
# 3 34.4556 22.5473 21.8424 0.0000 0.0000 0.0000
# 4 0.0000 0.0000 0.0000 16.4911 0.0000 0.0000
# 5 0.0000 0.0000 0.0000 0.0000 1.9281 0.0000
# 6 0.0000 0.0000 0.0000 0.0000 0.0000 38.9963
#
#
#
# Elastic Compliance Matrix: (Units=1/GPa)
#
#
# Indices 1 2 3 4 5 6 
#
# 1 0.009375 -0.002105 -0.012616 0.000000 0.000000 0.000000
# 2 -0.002105 0.007739 -0.004668 0.000000 0.000000 0.000000
# 3 -0.012616 -0.004668 0.070502 0.000000 0.000000 0.000000
# 4 0.000000 0.000000 0.000000 0.060639 0.000000 0.000000
# 5 0.000000 0.000000 0.000000 0.000000 0.518639 0.000000
# 6 0.000000 0.000000 0.000000 0.000000 0.000000 0.025643
#
#
# Mechanical properties :
#
#
# Convention : Reuss Voigt Hill
#
# Bulk Modulus (GPa) = 20.47570 66.40443 43.44007
# Shear Modulus (GPa) = 6.68812 26.63157 16.65985
#
# Velocity S-wave (km/s) = 1.81237 3.61653 2.86042
# Velocity P-wave (km/s) = 3.79942 7.07472 5.67835
#
# Compressibility (1/GPa) = 0.04883838
#
# Stress axis : x y z
#
# Youngs Moduli (GPa) = 106.66791 129.21710 14.18395
#
# Poissons Ratio (x) = 0.27200 0.17894
# Poissons Ratio (y) = 0.22453 0.06621
# Poissons Ratio (z) = 1.34569 0.60321
#
# Static dielectric constant tensor:
#      x y z
#    x 3.834450 0.000000 0.000000 
#    y 0.000000 3.701510 0.000000 
#    z 0.000000 0.000000 3.003410 
# 
# 
# High freq. dielectric constant tensor:
#      x y z
#    x 1.808890 0.000000 0.000000 
#    y 0.000000 1.813960 0.000000 
#    z 0.000000 0.000000 1.724700 
# 
# From -- ./inp_files/8561.got.cif
#   From: 2010.03.12/outbox.cif.g09.slc.cpg/sg45_5_cif.got.tgz:8561.got - 2010.04.14 02:50:11.
