data_PCOD8190182
_publ_section_title
;
Structure prediction by ZEFSAII (Michael W. Deem and Ramdas Pophale) SiO2 
 PCOD8190182
Probable space group: I M M 2
;
_chemical_formula_sum "Si O2"
_cell_formula_units_Z 64
_cell_length_a 8.655216
_cell_length_b 30.738481
_cell_length_c 11.971143
_cell_angle_alpha 90.000000
_cell_angle_beta 90.000000
_cell_angle_gamma 90.000000
_cell_volume 3184.900958
_symmetry_space_group_name_H-M "I M M 2"
_symmetry_group_IT_number 44
_symmetry_cell_setting 'orthorhombic'
loop_
_space_group_symop_operation_xyz
x,y,z
-x,-y,z
-x,y,z
x,-y,z
1/2+x,1/2+y,1/2+z
1/2-x,1/2-y,1/2+z
1/2-x,1/2+y,1/2+z
1/2+x,1/2-y,1/2+z
loop_
_atom_site_type_symbol
_atom_site_label
_atom_site_fract_x
_atom_site_fract_y
_atom_site_fract_z
Si Si1 0.318002 0.376273 0.530890
Si Si2 0.818566 0.164104 0.637209
Si Si3 0.319027 0.049578 0.881451
Si Si4 0.319986 0.875121 0.274030
Si Si5 0.317255 0.699212 0.373360
Si Si6 0.181046 0.427621 0.134489
Si Si7 0.176620 0.951560 0.412647
Si Si8 0.682515 0.205013 0.430472
O O1 0.500000 0.376553 0.522138
O O2 0.259867 0.420007 0.472328
O O3 0.270954 0.375316 0.658910
O O4 0.250858 0.333374 0.468291
O O5 0.758575 0.182572 0.754288
O O6 0.716777 0.122333 0.608699
O O7 0.779657 0.199115 0.543082
O O8 0.000000 0.152780 0.638957
O O9 0.500000 0.058857 0.884191
O O10 0.255638 0.059383 0.756845
O O11 0.279998 0.000000 0.913413
O O12 0.500000 0.875205 0.246901
O O13 0.281223 0.918174 0.344010
O O14 0.271616 0.831908 0.341243
O O15 0.500000 0.698943 0.377250
O O16 0.258377 0.748349 0.387283
O O17 0.000000 0.437204 0.124553
O O18 0.268708 0.455288 0.040874
O O19 0.000000 0.935344 0.407892
O O20 0.192248 0.000000 0.360516
O O21 0.500000 0.204124 0.455381
#
# Coordination Sequence:
#
# PCOD8190182 Si02
#       8
#     8   8   8   8   8   8   8   8
#     4  11  23  41  63  87 120 161 202 249 302 355
#     4  11  21  37  63  92 123 159 199 248 301 354
#     4  10  22  40  62  89 121 157 199 247 299 358
#     4  11  24  41  63  88 120 160 202 250 300 357
#     4   9  21  40  61  88 124 160 197 247 301 355
#     4  11  21  37  62  92 126 161 196 244 300 360
#     4  11  24  41  63  91 122 157 200 250 301 358
#     4  10  22  41  62  88 122 160 201 246 299 358
#
# _framework density 20.094818
#
# number of rings (size 3 to 8) (size 9 to 14) (size 15 to 20)
#    0.000    1.500    2.500    2.250    1.750    3.250 
#    0.000    1.875    0.000    0.000    0.000    0.000 
#    0.000    0.000    0.000    0.000    0.000    0.000 
#
# Total GULP energy -396898.747754 kJ/mol
# GULP energy per Si atom -12403.085867 kJ/mol
# Density = 2.004908 g / cm^3
# Si number density = 20.094818 Si / 1000 Ang^3
#
#
#
# Elastic Constant Matrix: (Units=GPa)
#
#
# Indices 1 2 3 4 5 6 
#
# 1 32.8634 27.4013 12.5987 0.0006 0.0000 -0.0001
# 2 27.4013 136.6128 53.0644 -0.0013 0.0002 0.0002
# 3 12.5987 53.0644 120.6016 0.0023 0.0005 0.0001
# 4 0.0006 -0.0013 0.0023 24.9026 0.0004 0.0001
# 5 0.0000 0.0002 0.0005 0.0004 35.0847 0.0000
# 6 -0.0001 0.0002 0.0001 0.0001 0.0000 26.3532
#
#
#
# Elastic Compliance Matrix: (Units=1/GPa)
#
#
# Indices 1 2 3 4 5 6 
#
# 1 0.036591 -0.007061 -0.000716 -0.000001 0.000000 0.000000
# 2 -0.007061 0.010192 -0.003747 0.000001 0.000000 0.000000
# 3 -0.000716 -0.003747 0.010015 -0.000001 0.000000 0.000000
# 4 -0.000001 0.000001 -0.000001 0.040156 0.000000 0.000000
# 5 0.000000 0.000000 0.000000 0.000000 0.028502 0.000000
# 6 0.000000 0.000000 0.000000 0.000000 0.000000 0.037946
#
#
# Mechanical properties :
#
#
# Convention : Reuss Voigt Hill
#
# Bulk Modulus (GPa) = 29.62905 52.91184 41.27044
# Shear Modulus (GPa) = 25.29090 30.40236 27.84663
#
# Velocity S-wave (km/s) = 3.55149 3.89388 3.72662
# Velocity P-wave (km/s) = 5.62086 6.82676 6.25295
#
# Compressibility (1/GPa) = 0.03375066
#
# Stress axis : x y z
#
# Youngs Moduli (GPa) = 27.32912 98.12012 99.85014
#
# Poissons Ratio (x) = 0.69286 0.07144
# Poissons Ratio (y) = 0.19298 0.37410
# Poissons Ratio (z) = 0.01955 0.36762
#
# Static dielectric constant tensor:
#      x y z
#    x 3.470080 0.000000 0.000000 
#    y 0.000000 3.837220 0.000000 
#    z 0.000000 0.000000 3.719370 
# 
# 
# High freq. dielectric constant tensor:
#      x y z
#    x 1.773430 0.000000 0.000000 
#    y 0.000000 1.797300 0.000000 
#    z 0.000000 0.000000 1.789830 
# 
# From -- ./inp_files/11473.got.cif
#   From: 2010.03.12/outbox.cif.g09.slc.cpg/sg44_6_cif.got.tgz:11473.got - 2010.04.14 02:36:11.
