data_PCOD8190886
_publ_section_title
;
Structure prediction by ZEFSAII (Michael W. Deem and Ramdas Pophale) SiO2 
 PCOD8190886
Probable space group: I B A 2
;
_chemical_formula_sum "Si O2"
_cell_formula_units_Z 64
_cell_length_a 22.839731
_cell_length_b 9.302602
_cell_length_c 14.218854
_cell_angle_alpha 90.000000
_cell_angle_beta 90.000000
_cell_angle_gamma 90.000000
_cell_volume 3021.064657
_symmetry_space_group_name_H-M "I B A 2"
_symmetry_group_IT_number 45
_symmetry_cell_setting 'orthorhombic'
loop_
_space_group_symop_operation_xyz
x,y,z
-x,-y,z
-x,y,1/2+z
x,-y,1/2+z
1/2+x,1/2+y,1/2+z
1/2-x,1/2-y,1/2+z
1/2-x,1/2+y,z
1/2+x,1/2-y,z
loop_
_atom_site_type_symbol
_atom_site_label
_atom_site_fract_x
_atom_site_fract_y
_atom_site_fract_z
Si Si1 0.948370 0.907363 0.494770
Si Si2 0.375597 0.506265 0.662777
Si Si3 0.644530 0.659650 0.842685
Si Si4 0.447622 0.908916 0.515464
Si Si5 0.738558 0.856439 0.439426
Si Si6 0.763528 0.904143 0.070197
Si Si7 0.871912 0.506813 0.350232
Si Si8 0.146306 0.662186 0.167118
O O1 0.931593 0.985046 0.593681
O O2 0.888935 0.891195 0.436152
O O3 0.975239 0.748841 0.504547
O O4 0.000000 0.000000 0.446581
O O5 0.389106 0.425633 0.760301
O O6 0.326093 0.401901 0.619924
O O7 0.356470 0.668337 0.685773
O O8 0.712511 0.618906 0.858550
O O9 0.644542 0.829925 0.825896
O O10 0.429177 0.986241 0.417247
O O11 0.389250 0.892691 0.576882
O O12 0.500000 0.000000 0.562609
O O13 0.736380 0.691585 0.474724
O O14 0.754137 0.933973 0.536475
O O15 0.677889 0.915789 0.401799
O O16 0.714346 0.869539 0.148149
O O17 0.883116 0.422364 0.253747
#
# Coordination Sequence:
#
# PCOD8190886 Si02
#       8
#     8   8   8   8   8   8   8   8
#     4  10  23  45  65  88 123 165 213 266 318 376
#     4  11  25  41  64  95 130 166 209 259 316 375
#     4  11  24  42  62  94 131 164 209 263 312 377
#     4  10  23  45  65  88 123 165 213 266 318 376
#     4  12  22  40  66  92 129 168 204 252 312 371
#     4  12  22  40  66  92 129 168 204 252 312 371
#     4  11  25  41  64  95 130 166 209 259 316 375
#     4  11  24  42  62  94 131 164 209 263 312 377
#
# _framework density 21.184584999999998
#
# number of rings (size 3 to 8) (size 9 to 14) (size 15 to 20)
#    0.000    1.000    5.000    1.500    3.500    6.000 
#    0.000    5.000    0.000    0.000    0.000    0.000 
#    0.000    0.000    0.000    0.000    0.000    0.000 
#
# Total GULP energy -396688.018123 kJ/mol
# GULP energy per Si atom -12396.500566 kJ/mol
# Density = 2.113637 g / cm^3
# Si number density = 21.184585 Si / 1000 Ang^3
#
#
#
# Elastic Constant Matrix: (Units=GPa)
#
#
# Indices 1 2 3 4 5 6 
#
# 1 80.6717 47.1492 9.3216 0.0000 0.0000 0.0000
# 2 47.1492 91.3781 40.8596 0.0000 0.0000 0.0000
# 3 9.3216 40.8596 86.6863 0.0000 0.0000 0.0000
# 4 0.0000 0.0000 0.0000 43.9083 0.0000 0.0000
# 5 0.0000 0.0000 0.0000 0.0000 13.1211 0.0000
# 6 0.0000 0.0000 0.0000 0.0000 0.0000 32.7032
#
#
#
# Elastic Compliance Matrix: (Units=1/GPa)
#
#
# Indices 1 2 3 4 5 6 
#
# 1 0.018409 -0.010914 0.003165 0.000000 0.000000 0.000000
# 2 -0.010914 0.020336 -0.008412 0.000000 0.000000 0.000000
# 3 0.003165 -0.008412 0.015160 0.000000 0.000000 0.000000
# 4 0.000000 0.000000 0.000000 0.022775 0.000000 0.000000
# 5 0.000000 0.000000 0.000000 0.000000 0.076213 0.000000
# 6 0.000000 0.000000 0.000000 0.000000 0.000000 0.030578
#
#
# Mechanical properties :
#
#
# Convention : Reuss Voigt Hill
#
# Bulk Modulus (GPa) = 46.33143 50.37743 48.35443
# Shear Modulus (GPa) = 22.42280 28.70690 25.56485
#
# Velocity S-wave (km/s) = 3.25691 3.68514 3.47762
# Velocity P-wave (km/s) = 6.00509 6.47602 6.24500
#
# Compressibility (1/GPa) = 0.02158362
#
# Stress axis : x y z
#
# Youngs Moduli (GPa) = 54.32191 49.17371 65.96100
#
# Poissons Ratio (x) = 0.53666 -0.20874
# Poissons Ratio (y) = 0.59285 0.55485
# Poissons Ratio (z) = -0.17191 0.41364
#
# Static dielectric constant tensor:
#      x y z
#    x 3.575000 0.000000 0.000000 
#    y 0.000000 4.142170 0.000000 
#    z 0.000000 0.000000 4.022760 
# 
# 
# High freq. dielectric constant tensor:
#      x y z
#    x 1.818910 0.000000 0.000000 
#    y 0.000000 1.844120 0.000000 
#    z 0.000000 0.000000 1.825470 
# 
# From -- ./inp_files/1938.got.cif
#   From: 2010.03.12/outbox.cif.g09.slc.cpg/sg45_1_cif.got.tgz:1938.got - 2010.04.14 02:50:11.
