data_PCOD8190185
_publ_section_title
;
Structure prediction by ZEFSAII (Michael W. Deem and Ramdas Pophale) SiO2 
 PCOD8190185
Probable space group: I M M 2
;
_chemical_formula_sum "Si O2"
_cell_formula_units_Z 64
_cell_length_a 30.740255
_cell_length_b 8.441100
_cell_length_c 12.003097
_cell_angle_alpha 90.000000
_cell_angle_beta 90.000000
_cell_angle_gamma 90.000000
_cell_volume 3114.582412
_symmetry_space_group_name_H-M "I M M 2"
_symmetry_group_IT_number 44
_symmetry_cell_setting 'orthorhombic'
loop_
_space_group_symop_operation_xyz
x,y,z
-x,-y,z
-x,y,z
x,-y,z
1/2+x,1/2+y,1/2+z
1/2-x,1/2-y,1/2+z
1/2-x,1/2+y,1/2+z
1/2+x,1/2-y,1/2+z
loop_
_atom_site_type_symbol
_atom_site_label
_atom_site_fract_x
_atom_site_fract_y
_atom_site_fract_z
Si Si1 0.372885 0.311544 0.266590
Si Si2 0.081256 0.184741 0.153648
Si Si3 0.874636 0.187890 0.514804
Si Si4 0.451773 0.311694 0.414539
Si Si5 0.326691 0.818590 0.643255
Si Si6 0.548515 0.818585 0.870905
Si Si7 0.205182 0.183243 0.920801
Si Si8 0.704872 0.684035 0.862503
O O1 0.374647 0.500000 0.270116
O O2 0.371097 0.246643 0.140837
O O3 0.415972 0.243198 0.328468
O O4 0.329562 0.253551 0.330167
O O5 0.124273 0.284536 0.180074
O O6 0.049707 0.217598 0.257084
O O7 0.092960 0.000000 0.146871
O O8 0.059551 0.244990 0.039439
O O9 0.918478 0.254905 0.462747
O O10 0.832399 0.246190 0.446724
O O11 0.877329 0.000000 0.514927
O O12 0.500000 0.247520 0.383024
O O13 0.451674 0.500000 0.410987
O O14 0.315403 0.702949 0.542142
O O15 0.295983 0.781710 0.748086
O O16 0.320197 0.000000 0.607188
O O17 0.500000 0.800339 0.920608
O O18 0.559520 0.000000 0.843132
O O19 0.248354 0.288496 0.917032
O O20 0.216602 0.000000 0.900444
O O21 0.697551 0.500000 0.836854
#
# Coordination Sequence:
#
# PCOD8190185 Si02
#       8
#     8   8   8   8   8   8   8   8
#     4   9  19  37  59  88 122 156 199 251 303 357
#     4  11  20  36  61  91 123 157 203 257 309 365
#     4  10  22  40  63  87 118 160 205 255 305 363
#     4   9  17  31  56  89 121 153 193 246 304 360
#     4  12  24  40  64  92 125 165 207 253 308 367
#     4  11  24  40  59  87 124 163 203 250 307 370
#     4  11  23  41  65  93 126 163 203 253 313 370
#     4  11  24  41  62  93 126 159 208 259 308 369
#
# _framework density 20.548501999999999
#
# number of rings (size 3 to 8) (size 9 to 14) (size 15 to 20)
#    0.000    1.500    2.500    3.000    1.750    2.500 
#    0.000    2.500    0.000    0.000    0.000    0.000 
#    0.000    0.000    0.000    0.000    0.000    0.000 
#
# Total GULP energy -396922.020125 kJ/mol
# GULP energy per Si atom -12403.813129 kJ/mol
# Density = 2.050173 g / cm^3
# Si number density = 20.548502 Si / 1000 Ang^3
#
#
#
# Elastic Constant Matrix: (Units=GPa)
#
#
# Indices 1 2 3 4 5 6 
#
# 1 137.4076 17.5490 63.1083 0.0000 0.0000 0.0000
# 2 17.5490 41.1906 22.3112 0.0000 0.0000 0.0000
# 3 63.1083 22.3112 156.3780 0.0000 0.0000 0.0000
# 4 0.0000 0.0000 0.0000 17.6412 0.0000 0.0000
# 5 0.0000 0.0000 0.0000 0.0000 25.1645 0.0000
# 6 0.0000 0.0000 0.0000 0.0000 0.0000 23.6083
#
#
#
# Elastic Compliance Matrix: (Units=1/GPa)
#
#
# Indices 1 2 3 4 5 6 
#
# 1 0.009089 -0.002044 -0.003377 0.000000 0.000000 0.000000
# 2 -0.002044 0.026770 -0.002995 0.000000 0.000000 0.000000
# 3 -0.003377 -0.002995 0.008185 0.000000 0.000000 0.000000
# 4 0.000000 0.000000 0.000000 0.056685 0.000000 0.000000
# 5 0.000000 0.000000 0.000000 0.000000 0.039739 0.000000
# 6 0.000000 0.000000 0.000000 0.000000 0.000000 0.042358
#
#
# Mechanical properties :
#
#
# Convention : Reuss Voigt Hill
#
# Bulk Modulus (GPa) = 36.74505 60.10147 48.42326
# Shear Modulus (GPa) = 23.95469 28.74998 26.35234
#
# Velocity S-wave (km/s) = 3.41803 3.74455 3.58501
# Velocity P-wave (km/s) = 5.78776 6.92875 6.38380
#
# Compressibility (1/GPa) = 0.02721455
#
# Stress axis : x y z
#
# Youngs Moduli (GPa) = 110.01834 37.35502 122.17922
#
# Poissons Ratio (x) = 0.07634 0.41255
# Poissons Ratio (y) = 0.22483 0.36590
# Poissons Ratio (z) = 0.37149 0.11187
#
# Static dielectric constant tensor:
#      x y z
#    x 3.817400 0.000000 0.000000 
#    y 0.000000 3.371160 0.000000 
#    z 0.000000 0.000000 3.802270 
# 
# 
# High freq. dielectric constant tensor:
#      x y z
#    x 1.814690 0.000000 0.000000 
#    y 0.000000 1.777900 0.000000 
#    z 0.000000 0.000000 1.806880 
# 
# From -- ./inp_files/15043.got.cif
#   From: 2010.03.12/outbox.cif.g09.slc.cpg/sg44_8_cif.got.tgz:15043.got - 2010.04.14 02:36:11.
