data_PCOD8190649
_publ_section_title
;
Structure prediction by ZEFSAII (Michael W. Deem and Ramdas Pophale) SiO2 
 PCOD8190649
Probable space group: I B A 2
;
_chemical_formula_sum "Si O2"
_cell_formula_units_Z 64
_cell_length_a 18.481450
_cell_length_b 19.232310
_cell_length_c 9.167835
_cell_angle_alpha 90.000000
_cell_angle_beta 90.000000
_cell_angle_gamma 90.000000
_cell_volume 3258.624217
_symmetry_space_group_name_H-M "I B A 2"
_symmetry_group_IT_number 45
_symmetry_cell_setting 'orthorhombic'
loop_
_space_group_symop_operation_xyz
x,y,z
-x,-y,z
-x,y,1/2+z
x,-y,1/2+z
1/2+x,1/2+y,1/2+z
1/2-x,1/2-y,1/2+z
1/2-x,1/2+y,z
1/2+x,1/2-y,z
loop_
_atom_site_type_symbol
_atom_site_label
_atom_site_fract_x
_atom_site_fract_y
_atom_site_fract_z
Si Si1 0.077697 0.126312 0.893260
Si Si2 0.074252 0.270888 0.720985
Si Si3 0.165699 0.926238 0.655046
Si Si4 0.414743 0.629184 0.402134
Si Si5 0.715094 0.179553 0.320250
Si Si6 0.230115 0.688140 0.157977
Si Si7 0.936243 0.281032 0.881657
Si Si8 0.673133 0.418906 0.664420
O O1 0.087862 0.198830 0.806033
O O2 0.107869 0.069717 0.779314
O O3 0.996811 0.110334 0.948391
O O4 0.129824 0.121220 0.031026
O O5 0.148204 0.314321 0.718453
O O6 0.049525 0.264812 0.552797
O O7 0.009718 0.310090 0.807843
O O8 0.110024 0.929795 0.789272
O O9 0.236527 0.884880 0.710648
O O10 0.189835 0.003505 0.604630
O O11 0.414739 0.704268 0.321632
O O12 0.358004 0.630453 0.536589
O O13 0.727615 0.247228 0.224244
O O14 0.740579 0.193542 0.484260
O O15 0.628114 0.166035 0.336157
O O16 0.756216 0.114903 0.242761
#
# Coordination Sequence:
#
# PCOD8190649 Si02
#       8
#     8   8   8   8   8   8   8   8
#     4  11  22  40  58  84 122 166 199 247 294 360
#     4  10  21  37  62  87 118 147 200 249 304 359
#     4  12  25  36  59  85 120 165 205 246 304 364
#     4  11  23  36  57  86 119 158 208 239 293 365
#     4  11  22  39  63  83 119 156 203 251 308 358
#     4  11  21  40  60  88 114 161 198 254 304 364
#     4  10  21  37  60  90 114 151 195 251 301 362
#     4  12  23  41  55  85 122 162 206 251 298 362
#
# _framework density 19.640191999999999
#
# number of rings (size 3 to 8) (size 9 to 14) (size 15 to 20)
#    0.000    1.000    5.000    2.250    5.250    4.000 
#    0.000    0.000    0.000    0.750    0.000    3.500 
#    0.000    0.000    0.000    0.000    0.000    0.000 
#
# Total GULP energy -396472.163991 kJ/mol
# GULP energy per Si atom -12389.755125 kJ/mol
# Density = 1.959549 g / cm^3
# Si number density = 19.640192 Si / 1000 Ang^3
#
#
#
# Elastic Constant Matrix: (Units=GPa)
#
#
# Indices 1 2 3 4 5 6 
#
# 1 140.1514 59.9139 64.2629 0.0000 0.0000 0.0000
# 2 59.9139 73.3038 26.7209 0.0000 0.0000 0.0000
# 3 64.2629 26.7209 85.8938 0.0000 0.0000 0.0000
# 4 0.0000 0.0000 0.0000 17.7827 0.0000 0.0000
# 5 0.0000 0.0000 0.0000 0.0000 40.1162 0.0000
# 6 0.0000 0.0000 0.0000 0.0000 0.0000 10.8804
#
#
#
# Elastic Compliance Matrix: (Units=1/GPa)
#
#
# Indices 1 2 3 4 5 6 
#
# 1 0.014804 -0.009094 -0.008247 0.000000 0.000000 0.000000
# 2 -0.009094 0.020973 0.000279 0.000000 0.000000 0.000000
# 3 -0.008247 0.000279 0.017726 0.000000 0.000000 0.000000
# 4 0.000000 0.000000 0.000000 0.056234 0.000000 0.000000
# 5 0.000000 0.000000 0.000000 0.000000 0.024928 0.000000
# 6 0.000000 0.000000 0.000000 0.000000 0.000000 0.091908
#
#
# Mechanical properties :
#
#
# Convention : Reuss Voigt Hill
#
# Bulk Modulus (GPa) = 51.60129 66.79382 59.19756
# Shear Modulus (GPa) = 18.71572 23.65262 21.18417
#
# Velocity S-wave (km/s) = 3.09030 3.47406 3.28779
# Velocity P-wave (km/s) = 6.25009 7.08341 6.67976
#
# Compressibility (1/GPa) = 0.01937936
#
# Stress axis : x y z
#
# Youngs Moduli (GPa) = 67.54886 47.68089 56.41585
#
# Poissons Ratio (x) = 0.43360 0.46526
# Poissons Ratio (y) = 0.61427 -0.01575
# Poissons Ratio (z) = 0.55707 -0.01331
#
# Static dielectric constant tensor:
#      x y z
#    x 3.904190 0.000000 0.000000 
#    y 0.000000 3.196260 0.000000 
#    z 0.000000 0.000000 3.791450 
# 
# 
# High freq. dielectric constant tensor:
#      x y z
#    x 1.770110 0.000000 0.000000 
#    y 0.000000 1.717110 0.000000 
#    z 0.000000 0.000000 1.780290 
# 
# From -- ./inp_files/2219.got.cif
#   From: 2010.03.12/outbox.cif.g09.slc.cpg/sg45_2_cif.got.tgz:2219.got - 2010.04.14 02:50:11.
