data_PCOD8190416
_publ_section_title
;
Structure prediction by ZEFSAII (Michael W. Deem and Ramdas Pophale) SiO2 
 PCOD8190416
Probable space group: I B A 2
;
_chemical_formula_sum "Si O2"
_cell_formula_units_Z 44
_cell_length_a 13.635018
_cell_length_b 9.508946
_cell_length_c 15.026673
_cell_angle_alpha 90.000000
_cell_angle_beta 90.000000
_cell_angle_gamma 90.000000
_cell_volume 1948.278027
_symmetry_space_group_name_H-M "I B A 2"
_symmetry_group_IT_number 45
_symmetry_cell_setting 'orthorhombic'
loop_
_space_group_symop_operation_xyz
x,y,z
-x,-y,z
-x,y,1/2+z
x,-y,1/2+z
1/2+x,1/2+y,1/2+z
1/2-x,1/2-y,1/2+z
1/2-x,1/2+y,z
1/2+x,1/2-y,z
loop_
_atom_site_type_symbol
_atom_site_label
_atom_site_fract_x
_atom_site_fract_y
_atom_site_fract_z
Si Si1 0.369544 0.684783 0.524070
Si Si2 0.000000 0.500000 0.722091
Si Si3 0.203616 0.526280 0.776570
Si Si4 0.955956 0.793636 0.151104
Si Si5 0.361978 0.673554 0.328082
Si Si6 0.734253 0.572229 0.585175
O O1 0.451323 0.642162 0.597913
O O2 0.413922 0.695920 0.423860
O O3 0.291679 0.557663 0.520863
O O4 0.322608 0.836043 0.545636
O O5 0.907299 0.536029 0.786050
O O6 0.970342 0.373343 0.657063
O O7 0.282624 0.451020 0.839448
O O8 0.202195 0.691493 0.798100
O O9 0.236898 0.501578 0.676257
O O10 0.945261 0.855770 0.252431
O O11 0.857898 0.823563 0.096243
#
# Coordination Sequence:
#
# PCOD8190416 Si02
#       6
#     8   4   8   8   8   8
#     4  12  23  44  67  98 137 171 226 280 327 412
#     4  10  18  38  68  92 130 176 222 266 328 394
#     4  10  20  41  66  95 131 176 221 271 336 396
#     4  10  23  42  65  98 134 178 220 271 334 397
#     4  10  23  42  67 100 130 177 220 274 339 385
#     4  11  23  41  70  95 135 180 219 275 341 387
#
# _framework density 22.584046000000001
#
# number of rings (size 3 to 8) (size 9 to 14) (size 15 to 20)
#    0.000    1.455    1.818    4.909    0.000    0.000 
#    6.545    8.182    0.000    0.000    0.000    0.000 
#    0.000    0.000    0.000    0.000    0.000    0.000 
#
# Total GULP energy -272685.797558 kJ/mol
# GULP energy per Si atom -12394.808980 kJ/mol
# Density = 2.253264 g / cm^3
# Si number density = 22.584046 Si / 1000 Ang^3
#
#
#
# Elastic Constant Matrix: (Units=GPa)
#
#
# Indices 1 2 3 4 5 6 
#
# 1 105.2886 17.2725 49.5242 0.0000 0.0000 0.0000
# 2 17.2725 67.6794 20.2167 0.0000 0.0000 0.0000
# 3 49.5242 20.2167 153.3706 0.0000 0.0000 0.0000
# 4 0.0000 0.0000 0.0000 13.1020 0.0000 0.0000
# 5 0.0000 0.0000 0.0000 0.0000 20.5656 0.0000
# 6 0.0000 0.0000 0.0000 0.0000 0.0000 37.5874
#
#
#
# Elastic Compliance Matrix: (Units=1/GPa)
#
#
# Indices 1 2 3 4 5 6 
#
# 1 0.011426 -0.001888 -0.003441 0.000000 0.000000 0.000000
# 2 -0.001888 0.015693 -0.001459 0.000000 0.000000 0.000000
# 3 -0.003441 -0.001459 0.007823 0.000000 0.000000 0.000000
# 4 0.000000 0.000000 0.000000 0.076324 0.000000 0.000000
# 5 0.000000 0.000000 0.000000 0.000000 0.048625 0.000000
# 6 0.000000 0.000000 0.000000 0.000000 0.000000 0.026605
#
#
# Mechanical properties :
#
#
# Convention : Reuss Voigt Hill
#
# Bulk Modulus (GPa) = 46.80098 55.59616 51.19857
# Shear Modulus (GPa) = 24.13197 30.20603 27.16900
#
# Velocity S-wave (km/s) = 3.27240 3.66114 3.47222
# Velocity P-wave (km/s) = 5.91998 6.52249 6.22852
#
# Compressibility (1/GPa) = 0.02136707
#
# Stress axis : x y z
#
# Youngs Moduli (GPa) = 87.52136 63.72178 127.82122
#
# Poissons Ratio (x) = 0.12032 0.43977
# Poissons Ratio (y) = 0.16526 0.18648
# Poissons Ratio (z) = 0.30112 0.09296
#
# Static dielectric constant tensor:
#      x y z
#    x 4.302560 0.000000 0.000000 
#    y 0.000000 4.071590 0.000000 
#    z 0.000000 0.000000 3.961030 
# 
# 
# High freq. dielectric constant tensor:
#      x y z
#    x 1.883130 0.000000 0.000000 
#    y 0.000000 1.898800 0.000000 
#    z 0.000000 0.000000 1.874150 
# 
# From -- ./inp_files/8125.got.cif
#   From: 2010.03.12/outbox.cif.g09.slc.cpg/sg45_5_cif.got.tgz:8125.got - 2010.04.14 02:50:11.
