data_PCOD8190608
_publ_section_title
;
Structure prediction by ZEFSAII (Michael W. Deem and Ramdas Pophale) SiO2 
 PCOD8190608
Probable space group: I B A 2
;
_chemical_formula_sum "Si O2"
_cell_formula_units_Z 56
_cell_length_a 13.497170
_cell_length_b 13.905514
_cell_length_c 13.601909
_cell_angle_alpha 90.000000
_cell_angle_beta 90.000000
_cell_angle_gamma 90.000000
_cell_volume 2552.875466
_symmetry_space_group_name_H-M "I B A 2"
_symmetry_group_IT_number 45
_symmetry_cell_setting 'orthorhombic'
loop_
_space_group_symop_operation_xyz
x,y,z
-x,-y,z
-x,y,1/2+z
x,-y,1/2+z
1/2+x,1/2+y,1/2+z
1/2-x,1/2-y,1/2+z
1/2-x,1/2+y,z
1/2+x,1/2-y,z
loop_
_atom_site_type_symbol
_atom_site_label
_atom_site_fract_x
_atom_site_fract_y
_atom_site_fract_z
Si Si1 0.532192 0.685351 0.628250
Si Si2 0.092626 0.943454 0.005890
Si Si3 0.395087 0.967889 0.124926
Si Si4 0.796517 0.239986 0.928653
Si Si5 0.231762 0.895659 0.581085
Si Si6 0.444417 0.170155 0.792114
Si Si7 0.908654 0.323638 0.461478
O O1 0.453208 0.599170 0.609857
O O2 0.644945 0.648693 0.648972
O O3 0.502002 0.751118 0.721056
O O4 0.533315 0.743427 0.524704
O O5 0.180117 0.020736 0.016787
O O6 0.135794 0.853957 0.946063
O O7 0.000000 0.000000 0.953030
O O8 0.412833 0.921857 0.230549
O O9 0.500000 0.000000 0.081210
O O10 0.318088 0.053951 0.144632
O O11 0.357796 0.897277 0.038814
O O12 0.841836 0.291331 0.834557
O O13 0.683844 0.216272 0.899938
O O14 0.789682 0.313338 0.020741
O O15 0.515746 0.135889 0.880372
#
# Coordination Sequence:
#
# PCOD8190608 Si02
#       7
#     8   8   8   8   8   8   8
#     4   9  21  41  67  93 130 173 221 277 336 391
#     4  10  20  42  73  96 126 177 227 276 334 402
#     4  11  24  40  62  91 135 181 221 273 331 409
#     4  11  22  42  71  94 132 177 223 284 334 398
#     4  10  22  41  68  96 127 181 225 273 342 399
#     4  11  24  40  62 101 133 172 224 277 339 399
#     4  10  21  42  64  92 129 177 221 271 337 398
#
# _framework density 21.936048
#
# number of rings (size 3 to 8) (size 9 to 14) (size 15 to 20)
#    0.000    1.714    2.857    0.857    2.000    4.000 
#    2.571    2.143    0.000    0.000    0.000    0.000 
#    0.000    0.000    0.000    0.000    0.000    0.000 
#
# Total GULP energy -346946.459128 kJ/mol
# GULP energy per Si atom -12390.944969 kJ/mol
# Density = 2.188612 g / cm^3
# Si number density = 21.936048 Si / 1000 Ang^3
#
#
#
# Elastic Constant Matrix: (Units=GPa)
#
#
# Indices 1 2 3 4 5 6 
#
# 1 81.6153 27.6812 35.3830 0.0000 0.0000 0.0000
# 2 27.6812 96.1955 19.2262 0.0000 0.0000 0.0000
# 3 35.3830 19.2262 77.1951 0.0000 0.0000 0.0000
# 4 0.0000 0.0000 0.0000 15.4118 0.0000 0.0000
# 5 0.0000 0.0000 0.0000 0.0000 14.7484 0.0000
# 6 0.0000 0.0000 0.0000 0.0000 0.0000 42.4961
#
#
#
# Elastic Compliance Matrix: (Units=1/GPa)
#
#
# Indices 1 2 3 4 5 6 
#
# 1 0.016260 -0.003356 -0.006617 0.000000 0.000000 0.000000
# 2 -0.003356 0.011633 -0.001359 0.000000 0.000000 0.000000
# 3 -0.006617 -0.001359 0.016325 0.000000 0.000000 0.000000
# 4 0.000000 0.000000 0.000000 0.064885 0.000000 0.000000
# 5 0.000000 0.000000 0.000000 0.000000 0.067804 0.000000
# 6 0.000000 0.000000 0.000000 0.000000 0.000000 0.023532
#
#
# Mechanical properties :
#
#
# Convention : Reuss Voigt Hill
#
# Bulk Modulus (GPa) = 46.39524 46.62074 46.50799
# Shear Modulus (GPa) = 21.71197 26.04562 23.87880
#
# Velocity S-wave (km/s) = 3.14950 3.44952 3.30292
# Velocity P-wave (km/s) = 5.86702 6.09629 5.98275
#
# Compressibility (1/GPa) = 0.02155394
#
# Stress axis : x y z
#
# Youngs Moduli (GPa) = 61.50222 85.96298 61.25394
#
# Poissons Ratio (x) = 0.28852 0.40530
# Poissons Ratio (y) = 0.20643 0.08324
# Poissons Ratio (z) = 0.40695 0.11681
#
# Static dielectric constant tensor:
#      x y z
#    x 4.099690 0.000000 0.000000 
#    y 0.000000 4.245950 0.000000 
#    z 0.000000 0.000000 3.423330 
# 
# 
# High freq. dielectric constant tensor:
#      x y z
#    x 1.878040 0.000000 0.000000 
#    y 0.000000 1.876750 0.000000 
#    z 0.000000 0.000000 1.817220 
# 
# From -- ./inp_files/4152.got.cif
#   From: 2010.03.12/outbox.cif.g09.slc.cpg/sg45_3_cif.got.tgz:4152.got - 2010.04.14 02:50:11.
