data_PCOD8190285
_publ_section_title
;
Structure prediction by ZEFSAII (Michael W. Deem and Ramdas Pophale) SiO2 
 PCOD8190285
Probable space group: I M M 2
;
_chemical_formula_sum "Si O2"
_cell_formula_units_Z 40
_cell_length_a 16.570525
_cell_length_b 23.399871
_cell_length_c 4.963997
_cell_angle_alpha 90.000000
_cell_angle_beta 90.000000
_cell_angle_gamma 90.000000
_cell_volume 1924.780640
_symmetry_space_group_name_H-M "I M M 2"
_symmetry_group_IT_number 44
_symmetry_cell_setting 'orthorhombic'
loop_
_space_group_symop_operation_xyz
x,y,z
-x,-y,z
-x,y,z
x,-y,z
1/2+x,1/2+y,1/2+z
1/2-x,1/2-y,1/2+z
1/2-x,1/2+y,1/2+z
1/2+x,1/2-y,1/2+z
loop_
_atom_site_type_symbol
_atom_site_label
_atom_site_fract_x
_atom_site_fract_y
_atom_site_fract_z
Si Si1 0.908558 0.065148 0.784760
Si Si2 0.856817 0.565124 0.600976
Si Si3 0.185203 0.102528 0.273713
Si Si4 0.909064 0.366394 0.086299
Si Si5 0.266286 0.786076 0.479671
O O1 0.858240 0.069299 0.512399
O O2 0.000000 0.084319 0.726026
O O3 0.904653 0.000000 0.888738
O O4 0.872752 0.106066 0.015205
O O5 0.883491 0.500000 0.551391
O O6 0.764635 0.567269 0.695693
O O7 0.866000 0.599885 0.326127
O O8 0.913704 0.592625 0.827328
O O9 0.206009 0.166314 0.365654
O O10 0.856621 0.310160 0.021949
O O11 0.000000 0.347878 0.163814
O O12 0.269800 0.735209 0.262699
#
# Coordination Sequence:
#
# PCOD8190285 Si02
#       5
#     8   8   8   8   8
#     4  11  22  37  59  89 127 162 191 238 302 357
#     4  11  22  37  62  92 123 162 197 232 288 361
#     4  11  22  39  61  87 118 156 207 249 287 357
#     4  11  24  41  61  90 125 156 195 246 297 351
#     4  11  23  43  65  84 112 156 206 253 301 346
#
# _framework density 20.781590000000001
#
# number of rings (size 3 to 8) (size 9 to 14) (size 15 to 20)
#    0.000    1.000    0.000    9.600    0.000    4.000 
#    0.000    6.000    0.000    0.000    0.000    0.000 
#    0.000    0.000    0.000    0.000    0.000    0.000 
#
# Total GULP energy -248124.505943 kJ/mol
# GULP energy per Si atom -12406.225297 kJ/mol
# Density = 2.073429 g / cm^3
# Si number density = 20.781590 Si / 1000 Ang^3
#
#
#
# Elastic Constant Matrix: (Units=GPa)
#
#
# Indices 1 2 3 4 5 6 
#
# 1 135.9203 57.8571 37.8025 0.0000 0.0000 0.0000
# 2 57.8571 80.5647 28.9777 0.0000 0.0000 0.0000
# 3 37.8025 28.9777 116.5647 0.0000 0.0000 0.0000
# 4 0.0000 0.0000 0.0000 31.4304 0.0000 0.0000
# 5 0.0000 0.0000 0.0000 0.0000 -30.3431 0.0000
# 6 0.0000 0.0000 0.0000 0.0000 0.0000 12.7491
#
#
#
# Elastic Compliance Matrix: (Units=1/GPa)
#
#
# Indices 1 2 3 4 5 6 
#
# 1 0.010911 -0.007207 -0.001747 0.000000 0.000000 0.000000
# 2 -0.007207 0.018392 -0.002235 0.000000 0.000000 0.000000
# 3 -0.001747 -0.002235 0.009701 0.000000 0.000000 0.000000
# 4 0.000000 0.000000 0.000000 0.031816 0.000000 0.000000
# 5 0.000000 0.000000 0.000000 0.000000 -0.032956 0.000000
# 6 0.000000 0.000000 0.000000 0.000000 0.000000 0.078437
#
#
# Mechanical properties :
#
#
# Convention : Reuss Voigt Hill
#
# Bulk Modulus (GPa) = 60.14618 64.70270 62.42444
# Shear Modulus (GPa) = 34.66897 16.66142 25.66519
#
# Velocity S-wave (km/s) = 4.08886 2.83457 3.51806
# Velocity P-wave (km/s) = 7.16216 6.47420 6.82685
#
# Compressibility (1/GPa) = 0.01662616
#
# Stress axis : x y z
#
# Youngs Moduli (GPa) = 91.65025 54.37086 103.08227
#
# Poissons Ratio (x) = 0.39187 0.18006
# Poissons Ratio (y) = 0.66056 0.23037
# Poissons Ratio (z) = 0.16009 0.12151
#
# Static dielectric constant tensor:
#      x y z
#    x 3.790050 0.000000 0.000000 
#    y 0.000000 3.644420 0.000000 
#    z 0.000000 0.000000 4.009710 
# 
# 
# High freq. dielectric constant tensor:
#      x y z
#    x 1.814230 0.000000 0.000000 
#    y 0.000000 1.801670 0.000000 
#    z 0.000000 0.000000 1.835430 
# 
# From -- ./inp_files/1480.got.cif
#   From: 2010.03.12/outbox.cif.g09.slc.cpg/sg44_1_cif.got.tgz:1480.got - 2010.04.14 02:36:11.
