data_PCOD8190458
_publ_section_title
;
Structure prediction by ZEFSAII (Michael W. Deem and Ramdas Pophale) SiO2 
 PCOD8190458
Probable space group: I B A 2
;
_chemical_formula_sum "Si O2"
_cell_formula_units_Z 56
_cell_length_a 15.302022
_cell_length_b 19.813047
_cell_length_c 8.958361
_cell_angle_alpha 90.000000
_cell_angle_beta 90.000000
_cell_angle_gamma 90.000000
_cell_volume 2715.993031
_symmetry_space_group_name_H-M "I B A 2"
_symmetry_group_IT_number 45
_symmetry_cell_setting 'orthorhombic'
loop_
_space_group_symop_operation_xyz
x,y,z
-x,-y,z
-x,y,1/2+z
x,-y,1/2+z
1/2+x,1/2+y,1/2+z
1/2-x,1/2-y,1/2+z
1/2-x,1/2+y,z
1/2+x,1/2-y,z
loop_
_atom_site_type_symbol
_atom_site_label
_atom_site_fract_x
_atom_site_fract_y
_atom_site_fract_z
Si Si1 0.000000 0.000000 0.468920
Si Si2 0.581257 0.410326 0.216319
Si Si3 0.765461 0.813047 0.236763
Si Si4 0.413958 0.192279 0.410812
Si Si5 0.344343 0.777762 0.471617
Si Si6 0.946444 0.410245 0.943204
Si Si7 0.502152 0.270247 0.152325
Si Si8 0.000000 0.500000 0.192073
O O1 0.058247 0.049658 0.367339
O O2 0.932584 0.041952 0.572312
O O3 0.681604 0.383649 0.222956
O O4 0.516581 0.346635 0.202873
O O5 0.680382 0.821428 0.341442
O O6 0.826815 0.757250 0.313720
O O7 0.741442 0.783335 0.075136
O O8 0.455526 0.120630 0.455418
O O9 0.484474 0.222761 0.293866
O O10 0.414966 0.241868 0.555749
O O11 0.372359 0.854316 0.444345
O O12 0.415496 0.731202 0.551870
O O13 0.936964 0.454389 0.794467
O O14 0.934664 0.455899 0.090320
#
# Coordination Sequence:
#
# PCOD8190458 Si02
#       8
#     4   8   8   8   8   8   8   4
#     4  10  24  40  62  80 110 162 204 226 264 338
#     4  11  21  40  60  84 113 150 196 239 278 335
#     4  11  22  36  58  90 119 143 180 242 302 333
#     4  10  20  35  59  89 116 144 185 240 294 341
#     4  10  22  37  58  89 117 145 184 237 299 346
#     4  10  20  38  56  83 114 152 196 228 270 346
#     4  10  19  35  62  85 110 148 187 233 295 353
#     4  10  20  34  60  78 104 152 200 228 256 320
#
# _framework density 20.61861
#
# number of rings (size 3 to 8) (size 9 to 14) (size 15 to 20)
#    0.000    1.714    0.000    6.857    0.000    2.286 
#    0.000    5.714    0.000    0.000    0.000    0.000 
#    0.000    0.000    0.000    0.000    0.000    0.000 
#
# Total GULP energy -347172.581811 kJ/mol
# GULP energy per Si atom -12399.020779 kJ/mol
# Density = 2.057168 g / cm^3
# Si number density = 20.618610 Si / 1000 Ang^3
#
#
#
# Elastic Constant Matrix: (Units=GPa)
#
#
# Indices 1 2 3 4 5 6 
#
# 1 78.3597 47.1922 28.9826 0.0000 0.0000 0.0000
# 2 47.1922 131.4159 65.3445 0.0000 0.0000 0.0000
# 3 28.9826 65.3445 139.1632 0.0000 0.0000 0.0000
# 4 0.0000 0.0000 0.0000 26.3454 0.0000 0.0000
# 5 0.0000 0.0000 0.0000 0.0000 30.5569 0.0000
# 6 0.0000 0.0000 0.0000 0.0000 0.0000 28.7041
#
#
#
# Elastic Compliance Matrix: (Units=1/GPa)
#
#
# Indices 1 2 3 4 5 6 
#
# 1 0.016359 -0.005454 -0.000846 0.000000 0.000000 0.000000
# 2 -0.005454 0.011746 -0.004379 0.000000 0.000000 0.000000
# 3 -0.000846 -0.004379 0.009418 0.000000 0.000000 0.000000
# 4 0.000000 0.000000 0.000000 0.037957 0.000000 0.000000
# 5 0.000000 0.000000 0.000000 0.000000 0.032726 0.000000
# 6 0.000000 0.000000 0.000000 0.000000 0.000000 0.034838
#
#
# Mechanical properties :
#
#
# Convention : Reuss Voigt Hill
#
# Bulk Modulus (GPa) = 61.86444 70.21973 66.04208
# Shear Modulus (GPa) = 29.44791 30.94925 30.19858
#
# Velocity S-wave (km/s) = 3.78328 3.87852 3.83120
# Velocity P-wave (km/s) = 7.01096 7.36123 7.18823
#
# Compressibility (1/GPa) = 0.01616437
#
# Stress axis : x y z
#
# Youngs Moduli (GPa) = 61.12733 85.13881 106.17599
#
# Poissons Ratio (x) = 0.46435 0.08983
# Poissons Ratio (y) = 0.33339 0.46497
# Poissons Ratio (z) = 0.05172 0.37285
#
# Static dielectric constant tensor:
#      x y z
#    x 3.583830 0.000000 0.000000 
#    y 0.000000 3.759470 0.000000 
#    z 0.000000 0.000000 4.146840 
# 
# 
# High freq. dielectric constant tensor:
#      x y z
#    x 1.785350 0.000000 0.000000 
#    y 0.000000 1.805620 0.000000 
#    z 0.000000 0.000000 1.834070 
# 
# From -- ./inp_files/1837.got.cif
#   From: 2010.03.12/outbox.cif.g09.slc.cpg/sg45_1_cif.got.tgz:1837.got - 2010.04.14 02:50:11.
