data_PCOD8190728
_publ_section_title
;
Structure prediction by ZEFSAII (Michael W. Deem and Ramdas Pophale) SiO2 
 PCOD8190728
Probable space group: I B A 2
;
_chemical_formula_sum "Si O2"
_cell_formula_units_Z 64
_cell_length_a 15.716475
_cell_length_b 17.290086
_cell_length_c 10.760053
_cell_angle_alpha 90.000000
_cell_angle_beta 90.000000
_cell_angle_gamma 90.000000
_cell_volume 2923.928241
_symmetry_space_group_name_H-M "I B A 2"
_symmetry_group_IT_number 45
_symmetry_cell_setting 'orthorhombic'
loop_
_space_group_symop_operation_xyz
x,y,z
-x,-y,z
-x,y,1/2+z
x,-y,1/2+z
1/2+x,1/2+y,1/2+z
1/2-x,1/2-y,1/2+z
1/2-x,1/2+y,z
1/2+x,1/2-y,z
loop_
_atom_site_type_symbol
_atom_site_label
_atom_site_fract_x
_atom_site_fract_y
_atom_site_fract_z
Si Si1 0.852767 0.927021 0.026600
Si Si2 0.423640 0.132464 0.168914
Si Si3 0.220127 0.372126 0.338314
Si Si4 0.850829 0.095282 0.939393
Si Si5 0.763394 0.542706 0.743765
Si Si6 0.518818 0.333481 0.889517
Si Si7 0.145107 0.195812 0.683169
Si Si8 0.530374 0.159748 0.405319
O O1 0.823724 0.945460 0.166184
O O2 0.771922 0.884532 0.964636
O O3 0.936041 0.872514 0.010830
O O4 0.877687 0.007626 0.964389
O O5 0.346200 0.073341 0.174358
O O6 0.385520 0.218145 0.156331
O O7 0.479968 0.117713 0.292746
O O8 0.477172 0.116935 0.040680
O O9 0.217476 0.452695 0.263952
O O10 0.265166 0.305643 0.255553
O O11 0.128632 0.337529 0.368037
O O12 0.759031 0.091095 0.869078
O O13 0.927371 0.130501 0.858112
O O14 0.840546 0.149071 0.058024
O O15 0.575927 0.348437 0.768020
O O16 0.509860 0.243747 0.922147
#
# Coordination Sequence:
#
# PCOD8190728 Si02
#       8
#     8   8   8   8   8   8   8   8
#     4  10  21  42  64  95 136 171 222 276 333 419
#     4  11  25  45  67 101 133 173 235 281 351 406
#     4  10  22  44  69  92 133 178 220 283 345 407
#     4  11  22  38  64 100 132 173 220 271 340 417
#     4  11  24  41  69  99 129 180 227 276 347 417
#     4  10  23  40  63  95 134 180 216 274 345 407
#     4  10  22  41  64  97 135 169 223 276 341 419
#     4  11  24  45  68  97 135 178 230 291 341 415
#
# _framework density 21.888362000000001
#
# number of rings (size 3 to 8) (size 9 to 14) (size 15 to 20)
#    0.000    1.500    3.750    0.375    3.500    1.500 
#    2.250    1.250    0.000    0.000    0.000    0.000 
#    0.000    0.000    0.000    0.000    0.000    0.000 
#
# Total GULP energy -396665.479699 kJ/mol
# GULP energy per Si atom -12395.796241 kJ/mol
# Density = 2.183854 g / cm^3
# Si number density = 21.888362 Si / 1000 Ang^3
#
#
#
# Elastic Constant Matrix: (Units=GPa)
#
#
# Indices 1 2 3 4 5 6 
#
# 1 64.8019 6.7884 27.1395 0.0000 0.0000 0.0000
# 2 6.7884 26.1535 18.3404 0.0000 0.0000 0.0000
# 3 27.1395 18.3404 118.2494 0.0000 0.0000 0.0000
# 4 0.0000 0.0000 0.0000 25.9866 0.0000 0.0000
# 5 0.0000 0.0000 0.0000 0.0000 41.2183 0.0000
# 6 0.0000 0.0000 0.0000 0.0000 0.0000 38.9650
#
#
#
# Elastic Compliance Matrix: (Units=1/GPa)
#
#
# Indices 1 2 3 4 5 6 
#
# 1 0.017156 -0.001898 -0.003643 0.000000 0.000000 0.000000
# 2 -0.001898 0.043112 -0.006251 0.000000 0.000000 0.000000
# 3 -0.003643 -0.006251 0.010262 0.000000 0.000000 0.000000
# 4 0.000000 0.000000 0.000000 0.038481 0.000000 0.000000
# 5 0.000000 0.000000 0.000000 0.000000 0.024261 0.000000
# 6 0.000000 0.000000 0.000000 0.000000 0.000000 0.025664
#
#
# Mechanical properties :
#
#
# Convention : Reuss Voigt Hill
#
# Bulk Modulus (GPa) = 21.30106 34.86012 28.08059
# Shear Modulus (GPa) = 25.23077 31.69641 28.46359
#
# Velocity S-wave (km/s) = 3.39883 3.80951 3.61002
# Velocity P-wave (km/s) = 5.01553 5.94228 5.49847
#
# Compressibility (1/GPa) = 0.04694601
#
# Stress axis : x y z
#
# Youngs Moduli (GPa) = 58.28771 23.19533 97.44355
#
# Poissons Ratio (x) = 0.04403 0.35500
# Poissons Ratio (y) = 0.11065 0.60912
# Poissons Ratio (z) = 0.21235 0.14499
#
# Static dielectric constant tensor:
#      x y z
#    x 4.002220 0.000000 0.000000 
#    y 0.000000 3.797910 0.000000 
#    z 0.000000 0.000000 4.222860 
# 
# 
# High freq. dielectric constant tensor:
#      x y z
#    x 1.858180 0.000000 0.000000 
#    y 0.000000 1.850830 0.000000 
#    z 0.000000 0.000000 1.867380 
# 
# From -- ./inp_files/4271.got.cif
#   From: 2010.03.12/outbox.cif.g09.slc.cpg/sg45_3_cif.got.tgz:4271.got - 2010.04.14 02:50:11.
