data_PCOD8190283
_publ_section_title
;
Structure prediction by ZEFSAII (Michael W. Deem and Ramdas Pophale) SiO2 
 PCOD8190283
Probable space group: I M M 2
;
_chemical_formula_sum "Si O2"
_cell_formula_units_Z 48
_cell_length_a 12.734861
_cell_length_b 27.339052
_cell_length_c 6.881041
_cell_angle_alpha 90.000000
_cell_angle_beta 90.000000
_cell_angle_gamma 90.000000
_cell_volume 2395.696540
_symmetry_space_group_name_H-M "I M M 2"
_symmetry_group_IT_number 44
_symmetry_cell_setting 'orthorhombic'
loop_
_space_group_symop_operation_xyz
x,y,z
-x,-y,z
-x,y,z
x,-y,z
1/2+x,1/2+y,1/2+z
1/2-x,1/2-y,1/2+z
1/2-x,1/2+y,1/2+z
1/2+x,1/2-y,1/2+z
loop_
_atom_site_type_symbol
_atom_site_label
_atom_site_fract_x
_atom_site_fract_y
_atom_site_fract_z
Si Si1 0.379597 0.271621 0.454790
Si Si2 0.738068 0.686860 0.112863
Si Si3 0.888237 0.552319 0.947045
Si Si4 0.120134 0.857499 0.259455
Si Si5 0.761732 0.055638 0.097979
Si Si6 0.619055 0.884540 0.812523
O O1 0.500000 0.253980 0.462882
O O2 0.357539 0.290036 0.235344
O O3 0.303818 0.226416 0.494718
O O4 0.358139 0.312752 0.615610
O O5 0.813057 0.664363 0.282723
O O6 0.690941 0.648709 0.954174
O O7 0.882063 0.500000 0.057960
O O8 0.793058 0.555289 0.803503
O O9 0.000000 0.555869 0.833193
O O10 0.884907 0.595736 0.096382
O O11 0.142240 0.907154 0.134846
O O12 0.000000 0.859664 0.327217
O O13 0.797768 0.000000 0.040070
O O14 0.679212 0.076405 0.943953
O O15 0.500000 0.874247 0.890733
#
# Coordination Sequence:
#
# PCOD8190283 Si02
#       6
#     8   8   8   8   8   8
#     4  11  24  42  66  94 124 161 207 258 314 376
#     4  12  22  43  65  95 125 163 205 258 313 380
#     4   9  18  33  54  82 119 160 198 242 299 358
#     4  11  24  43  65  89 122 165 212 262 315 365
#     4  11  22  39  62  89 123 164 211 256 304 366
#     4  11  22  36  60  93 128 161 201 252 309 373
#
# _framework density 20.035927000000001
#
# number of rings (size 3 to 8) (size 9 to 14) (size 15 to 20)
#    0.000    1.167    5.000    2.000    0.000    2.000 
#    0.000    1.667    0.000    0.000    0.000    0.000 
#    0.000    0.000    0.000    0.000    0.000    0.000 
#
# Total GULP energy -297405.546250 kJ/mol
# GULP energy per Si atom -12391.897760 kJ/mol
# Density = 1.999032 g / cm^3
# Si number density = 20.035927 Si / 1000 Ang^3
#
#
#
# Elastic Constant Matrix: (Units=GPa)
#
#
# Indices 1 2 3 4 5 6 
#
# 1 104.4197 46.0394 33.8551 0.0070 0.0018 -0.0020
# 2 46.0394 97.6700 20.7834 0.0155 0.0003 -0.0057
# 3 33.8551 20.7834 63.3568 0.1060 -0.0399 -0.0221
# 4 0.0070 0.0155 0.1060 36.3187 -0.0057 -0.0128
# 5 0.0018 0.0003 -0.0399 -0.0057 24.2925 -0.0038
# 6 -0.0020 -0.0057 -0.0221 -0.0128 -0.0038 25.5581
#
#
#
# Elastic Compliance Matrix: (Units=1/GPa)
#
#
# Indices 1 2 3 4 5 6 
#
# 1 0.013718 -0.005275 -0.005600 0.000016 -0.000010 -0.000005
# 2 -0.005275 0.013035 -0.001457 0.000000 -0.000002 0.000001
# 3 -0.005600 -0.001457 0.019254 -0.000054 0.000032 0.000016
# 4 0.000016 0.000000 -0.000054 0.027534 0.000006 0.000014
# 5 -0.000010 -0.000002 0.000032 0.000006 0.041165 0.000006
# 6 -0.000005 0.000001 0.000016 0.000014 0.000006 0.039126
#
#
# Mechanical properties :
#
#
# Convention : Reuss Voigt Hill
#
# Bulk Modulus (GPa) = 46.85380 51.86693 49.36037
# Shear Modulus (GPa) = 26.93794 28.21844 27.57819
#
# Velocity S-wave (km/s) = 3.67070 3.75693 3.71406
# Velocity P-wave (km/s) = 6.43436 6.69048 6.56367
#
# Compressibility (1/GPa) = 0.02134298
#
# Stress axis : x y z
#
# Youngs Moduli (GPa) = 72.89658 76.71608 51.93661
#
# Poissons Ratio (x) = 0.40466 0.29085
# Poissons Ratio (y) = 0.38451 0.07569
# Poissons Ratio (z) = 0.40822 0.11181
#
# Static dielectric constant tensor:
#      x y z
#    x 3.765190 -0.000030 0.000130 
#    y -0.000030 3.945910 -0.000050 
#    z 0.000130 -0.000050 3.474960 
# 
# 
# High freq. dielectric constant tensor:
#      x y z
#    x 1.782010 0.000000 0.000000 
#    y 0.000000 1.785950 0.000000 
#    z 0.000000 0.000000 1.775040 
# 
# From -- ./inp_files/1656.got.cif
#   From: 2010.03.12/outbox.cif.g09.slc.cpg/sg44_1_cif.got.tgz:1656.got - 2010.04.14 02:36:11.
