data_PCOD8190022
_publ_section_title
;
Structure prediction by ZEFSAII (Michael W. Deem and Ramdas Pophale) SiO2 
 PCOD8190022
Probable space group: I M M 2
;
_chemical_formula_sum "Si O2"
_cell_formula_units_Z 40
_cell_length_a 7.678373
_cell_length_b 7.765862
_cell_length_c 32.672949
_cell_angle_alpha 90.000000
_cell_angle_beta 90.000000
_cell_angle_gamma 90.000000
_cell_volume 1948.261324
_symmetry_space_group_name_H-M "I M M 2"
_symmetry_group_IT_number 44
_symmetry_cell_setting 'orthorhombic'
loop_
_space_group_symop_operation_xyz
x,y,z
-x,-y,z
-x,y,z
x,-y,z
1/2+x,1/2+y,1/2+z
1/2-x,1/2-y,1/2+z
1/2-x,1/2+y,1/2+z
1/2+x,1/2-y,1/2+z
loop_
_atom_site_type_symbol
_atom_site_label
_atom_site_fract_x
_atom_site_fract_y
_atom_site_fract_z
Si Si1 0.000000 0.703785 0.305230
Si Si2 0.803407 0.796457 0.864810
Si Si3 0.793900 0.500000 0.600066
Si Si4 0.500000 0.303873 0.713472
Si Si5 0.704553 0.809545 0.453143
Si Si6 0.300060 0.305609 0.157951
Si Si7 0.803305 0.500000 0.510654
O O1 0.173504 0.764724 0.329192
O O2 0.000000 0.797604 0.262174
O O3 0.000000 0.500000 0.298954
O O4 0.725581 0.725188 0.907484
O O5 0.000000 0.727632 0.855856
O O6 0.805308 0.000000 0.868559
O O7 0.732589 0.673078 0.623392
O O8 0.705121 0.500000 0.554713
O O9 0.000000 0.500000 0.598205
O O10 0.500000 0.500000 0.698636
O O11 0.324813 0.211942 0.697246
O O12 0.500000 0.793069 0.451034
O O13 0.769351 0.671532 0.485392
O O14 0.765097 0.000000 0.467332
O O15 0.500000 0.265880 0.171237
O O16 0.285380 0.500000 0.140544
O O17 0.000000 0.500000 0.523741
#
# Coordination Sequence:
#
# PCOD8190022 Si02
#       7
#     4   8   4   4   8   8   4
#     4  10  22  36  56  88 124 157 205 264 305 371
#     4   9  18  35  58  81 115 164 207 251 311 366
#     4   9  20  40  62  92 123 159 209 254 313 381
#     4  12  24  40  62  93 129 164 209 257 318 379
#     4  10  21  38  59  84 119 165 210 251 305 369
#     4  10  21  41  68  90 120 166 206 254 316 378
#     4  11  23  37  61  91 125 159 203 265 312 368
#
# _framework density 20.531127999999999
#
# number of rings (size 3 to 8) (size 9 to 14) (size 15 to 20)
#    0.000    2.000    2.000    1.200    1.400    2.800 
#    3.600    4.000    0.000    0.000    0.000    0.000 
#    0.000    0.000    0.000    0.000    0.000    0.000 
#
# Total GULP energy -247943.599697 kJ/mol
# GULP energy per Si atom -12397.179985 kJ/mol
# Density = 2.048440 g / cm^3
# Si number density = 20.531128 Si / 1000 Ang^3
#
#
#
# Elastic Constant Matrix: (Units=GPa)
#
#
# Indices 1 2 3 4 5 6 
#
# 1 89.5125 33.6867 55.7583 0.0000 0.0000 0.0000
# 2 33.6867 124.3187 62.4707 0.0000 0.0001 0.0000
# 3 55.7583 62.4707 149.4744 0.0000 0.0000 0.0000
# 4 0.0000 0.0000 0.0000 24.8558 0.0000 0.0000
# 5 0.0000 0.0001 0.0000 0.0000 -3.3584 0.0000
# 6 0.0000 0.0000 0.0000 0.0000 0.0000 12.9589
#
#
#
# Elastic Compliance Matrix: (Units=1/GPa)
#
#
# Indices 1 2 3 4 5 6 
#
# 1 0.014790 -0.001564 -0.004863 0.000000 0.000000 0.000000
# 2 -0.001564 0.010348 -0.003741 0.000000 0.000000 0.000000
# 3 -0.004863 -0.003741 0.010068 0.000000 0.000000 0.000000
# 4 0.000000 0.000000 0.000000 0.040232 0.000000 0.000000
# 5 0.000000 0.000000 0.000000 0.000000 -0.297764 0.000000
# 6 0.000000 0.000000 0.000000 0.000000 0.000000 0.077167
#
#
# Mechanical properties :
#
#
# Convention : Reuss Voigt Hill
#
# Bulk Modulus (GPa) = 67.25734 74.12634 70.69184
# Shear Modulus (GPa) = -41.71285 20.98394 -10.36445
#
# Velocity S-wave (km/s) = -4.51232 3.20043 -2.24925
# Velocity P-wave (km/s) = 2.38366 7.05973 5.26885
#
# Compressibility (1/GPa) = 0.01486827
#
# Stress axis : x y z
#
# Youngs Moduli (GPa) = 67.61523 96.64092 99.32503
#
# Poissons Ratio (x) = 0.15111 0.48306
# Poissons Ratio (y) = 0.10573 0.37161
# Poissons Ratio (z) = 0.32884 0.36157
#
# Static dielectric constant tensor:
#      x y z
#    x 4.061440 0.000000 0.000000 
#    y 0.000000 3.806660 0.000000 
#    z 0.000000 0.000000 3.821540 
# 
# 
# High freq. dielectric constant tensor:
#      x y z
#    x 1.802390 0.000000 0.000000 
#    y 0.000000 1.809870 0.000000 
#    z 0.000000 0.000000 1.790350 
# 
# From -- ./inp_files/25981.got.cif
#   From: 2010.03.12/outbox.cif.g09.slc.cpg/sg44_13_cif.got.tgz:25981.got - 2010.04.14 02:36:11.
