data_PCOD8190701
_publ_section_title
;
Structure prediction by ZEFSAII (Michael W. Deem and Ramdas Pophale) SiO2 
 PCOD8190701
Probable space group: I B A 2
;
_chemical_formula_sum "Si O2"
_cell_formula_units_Z 56
_cell_length_a 16.847056
_cell_length_b 7.096050
_cell_length_c 21.360611
_cell_angle_alpha 90.000000
_cell_angle_beta 90.000000
_cell_angle_gamma 90.000000
_cell_volume 2553.608748
_symmetry_space_group_name_H-M "I B A 2"
_symmetry_group_IT_number 45
_symmetry_cell_setting 'orthorhombic'
loop_
_space_group_symop_operation_xyz
x,y,z
-x,-y,z
-x,y,1/2+z
x,-y,1/2+z
1/2+x,1/2+y,1/2+z
1/2-x,1/2-y,1/2+z
1/2-x,1/2+y,z
1/2+x,1/2-y,z
loop_
_atom_site_type_symbol
_atom_site_label
_atom_site_fract_x
_atom_site_fract_y
_atom_site_fract_z
Si Si1 0.000000 0.000000 0.148911
Si Si2 0.555871 0.829390 0.572616
Si Si3 0.853403 0.589655 0.310158
Si Si4 0.158317 0.085906 0.706967
Si Si5 0.688432 0.329093 0.841663
Si Si6 0.430574 0.654636 0.945209
Si Si7 0.672346 0.011171 0.175057
Si Si8 0.000000 0.500000 0.876257
O O1 0.995864 0.190235 0.108459
O O2 0.921397 0.976248 0.190330
O O3 0.594088 0.704841 0.516382
O O4 0.500000 0.000000 0.548878
O O5 0.628270 0.904773 0.614907
O O6 0.783882 0.688884 0.351625
O O7 0.847629 0.367234 0.321628
O O8 0.845329 0.641636 0.236527
O O9 0.941696 0.634081 0.334584
O O10 0.174943 0.037739 0.780457
O O11 0.142364 0.303335 0.690608
O O12 0.232164 0.010167 0.665092
O O13 0.645102 0.414296 0.903508
O O14 0.500000 0.500000 0.942594
O O15 0.454584 0.856535 0.919705
#
# Coordination Sequence:
#
# PCOD8190701 Si02
#       8
#     4   8   8   8   8   8   8   4
#     4  12  24  40  66  98 126 168 224 272 330 390
#     4  12  24  43  65  89 133 175 219 273 317 386
#     4   9  20  38  62  94 129 163 211 270 328 378
#     4  10  21  40  65  99 134 167 215 275 332 387
#     4   9  21  39  62  95 129 169 213 265 329 383
#     4  11  24  42  63  92 128 173 220 262 316 385
#     4  10  21  40  63  94 135 174 212 269 329 390
#     4  10  22  40  64  90 130 166 212 272 322 378
#
# _framework density 21.929748
#
# number of rings (size 3 to 8) (size 9 to 14) (size 15 to 20)
#    0.000    1.714    2.857    0.857    4.000    2.286 
#    0.000    7.143    0.000    0.000    0.000    0.000 
#    0.000    0.000    0.000    0.000    0.000    0.000 
#
# Total GULP energy -347046.207317 kJ/mol
# GULP energy per Si atom -12394.507404 kJ/mol
# Density = 2.187983 g / cm^3
# Si number density = 21.929748 Si / 1000 Ang^3
#
#
#
# Elastic Constant Matrix: (Units=GPa)
#
#
# Indices 1 2 3 4 5 6 
#
# 1 138.3020 10.6365 72.2615 0.0000 0.0000 0.0000
# 2 10.6365 37.3012 18.7434 0.0000 0.0000 0.0000
# 3 72.2615 18.7434 127.9833 0.0000 0.0000 0.0000
# 4 0.0000 0.0000 0.0000 24.3778 0.0000 0.0000
# 5 0.0000 0.0000 0.0000 0.0000 32.5577 0.0000
# 6 0.0000 0.0000 0.0000 0.0000 0.0000 31.1775
#
#
#
# Elastic Compliance Matrix: (Units=1/GPa)
#
#
# Indices 1 2 3 4 5 6 
#
# 1 0.010256 -0.000016 -0.005789 0.000000 0.000000 0.000000
# 2 -0.000016 0.028938 -0.004229 0.000000 0.000000 0.000000
# 3 -0.005789 -0.004229 0.011701 0.000000 0.000000 0.000000
# 4 0.000000 0.000000 0.000000 0.041021 0.000000 0.000000
# 5 0.000000 0.000000 0.000000 0.000000 0.030715 0.000000
# 6 0.000000 0.000000 0.000000 0.000000 0.000000 0.032074
#
#
# Mechanical properties :
#
#
# Convention : Reuss Voigt Hill
#
# Bulk Modulus (GPa) = 32.43726 56.31880 44.37803
# Shear Modulus (GPa) = 27.01986 31.08562 29.05274
#
# Velocity S-wave (km/s) = 3.51395 3.76907 3.64374
# Velocity P-wave (km/s) = 5.59351 6.68419 6.16302
#
# Compressibility (1/GPa) = 0.03082874
#
# Stress axis : x y z
#
# Youngs Moduli (GPa) = 97.50182 34.55616 85.46154
#
# Poissons Ratio (x) = 0.00055 0.49469
# Poissons Ratio (y) = 0.00155 0.36143
# Poissons Ratio (z) = 0.56439 0.14614
#
# Static dielectric constant tensor:
#      x y z
#    x 4.066600 0.000000 0.000000 
#    y 0.000000 3.828680 0.000000 
#    z 0.000000 0.000000 4.068810 
# 
# 
# High freq. dielectric constant tensor:
#      x y z
#    x 1.858560 0.000000 0.000000 
#    y 0.000000 1.868270 0.000000 
#    z 0.000000 0.000000 1.843180 
# 
# From -- ./inp_files/8913.got.cif
#   From: 2010.03.12/outbox.cif.g09.slc.cpg/sg45_5_cif.got.tgz:8913.got - 2010.04.14 02:50:11.
