data_PCOD8190362
_publ_section_title
;
Structure prediction by ZEFSAII (Michael W. Deem and Ramdas Pophale) SiO2 
 PCOD8190362
Probable space group: I B A 2
;
_chemical_formula_sum "Si O2"
_cell_formula_units_Z 48
_cell_length_a 9.866021
_cell_length_b 15.246460
_cell_length_c 17.317779
_cell_angle_alpha 90.000000
_cell_angle_beta 90.000000
_cell_angle_gamma 90.000000
_cell_volume 2604.973126
_symmetry_space_group_name_H-M "I B A 2"
_symmetry_group_IT_number 45
_symmetry_cell_setting 'orthorhombic'
loop_
_space_group_symop_operation_xyz
x,y,z
-x,-y,z
-x,y,1/2+z
x,-y,1/2+z
1/2+x,1/2+y,1/2+z
1/2-x,1/2-y,1/2+z
1/2-x,1/2+y,z
1/2+x,1/2-y,z
loop_
_atom_site_type_symbol
_atom_site_label
_atom_site_fract_x
_atom_site_fract_y
_atom_site_fract_z
Si Si1 0.655714 0.175498 0.461060
Si Si2 0.503647 0.648495 0.665008
Si Si3 0.224666 0.997449 0.916637
Si Si4 0.651813 0.821968 0.458344
Si Si5 0.249580 0.252633 0.109034
Si Si6 0.500000 0.500000 0.541882
Si Si7 0.500000 0.500000 0.289937
O O1 0.502900 0.205357 0.444683
O O2 0.754640 0.246312 0.419750
O O3 0.684144 0.176947 0.553916
O O4 0.679144 0.081245 0.423654
O O5 0.364630 0.704110 0.662758
O O6 0.634353 0.712318 0.664816
O O7 0.514030 0.588557 0.589661
O O8 0.504590 0.588576 0.740465
O O9 0.320969 0.913011 0.915212
O O10 0.136190 0.003192 0.839692
O O11 0.132253 0.989608 0.991189
O O12 0.683201 0.825453 0.550990
#
# Coordination Sequence:
#
# PCOD8190362 Si02
#       7
#     8   8   8   8   8   4   4
#     4  10  20  35  62 100 118 151 206 274 317 343
#     4  11  20  40  60  89 121 163 208 245 313 372
#     4  11  21  38  59  91 125 161 211 253 306 362
#     4  10  20  35  62 100 118 151 206 274 317 343
#     4  10  18  34  64  96 114 148 208 266 302 350
#     4  10  16  32  64  84 110 152 206 264 280 356
#     4  10  28  40  58  86 130 184 196 234 322 394
#
# _framework density 18.426293000000001
#
# number of rings (size 3 to 8) (size 9 to 14) (size 15 to 20)
#    1.000    0.667    5.000    0.500    4.667    0.000 
#    3.000    0.000    3.667    0.000    0.000    0.000 
#    0.000    0.000    0.000    0.000    0.000    0.000 
#
# Total GULP energy -297505.254896 kJ/mol
# GULP energy per Si atom -12396.052287 kJ/mol
# Density = 1.838435 g / cm^3
# Si number density = 18.426293 Si / 1000 Ang^3
#
#
#
# Elastic Constant Matrix: (Units=GPa)
#
#
# Indices 1 2 3 4 5 6 
#
# 1 137.2210 45.4291 24.1584 0.0000 0.0000 0.0000
# 2 45.4291 107.0504 25.7052 0.0000 0.0000 0.0000
# 3 24.1584 25.7052 71.7520 0.0000 0.0000 0.0000
# 4 0.0000 0.0000 0.0000 17.2719 0.0000 0.0000
# 5 0.0000 0.0000 0.0000 0.0000 9.5777 0.0000
# 6 0.0000 0.0000 0.0000 0.0000 0.0000 39.9015
#
#
#
# Elastic Compliance Matrix: (Units=1/GPa)
#
#
# Indices 1 2 3 4 5 6 
#
# 1 0.008676 -0.003261 -0.001753 0.000000 0.000000 0.000000
# 2 -0.003261 0.011446 -0.003003 0.000000 0.000000 0.000000
# 3 -0.001753 -0.003003 0.015603 0.000000 0.000000 0.000000
# 4 0.000000 0.000000 0.000000 0.057897 0.000000 0.000000
# 5 0.000000 0.000000 0.000000 0.000000 0.104409 0.000000
# 6 0.000000 0.000000 0.000000 0.000000 0.000000 0.025062
#
#
# Mechanical properties :
#
#
# Convention : Reuss Voigt Hill
#
# Bulk Modulus (GPa) = 50.78226 56.28984 53.53605
# Shear Modulus (GPa) = 20.35089 28.06561 24.20825
#
# Velocity S-wave (km/s) = 3.32693 3.90696 3.62855
# Velocity P-wave (km/s) = 6.50980 7.13915 6.83172
#
# Compressibility (1/GPa) = 0.01969191
#
# Stress axis : x y z
#
# Youngs Moduli (GPa) = 115.26513 87.36521 64.09116
#
# Poissons Ratio (x) = 0.28488 0.11234
# Poissons Ratio (y) = 0.37586 0.19245
# Poissons Ratio (z) = 0.20204 0.26233
#
# Static dielectric constant tensor:
#      x y z
#    x 3.344800 0.000000 0.000000 
#    y 0.000000 3.407200 0.000000 
#    z 0.000000 0.000000 3.043500 
# 
# 
# High freq. dielectric constant tensor:
#      x y z
#    x 1.724690 0.000000 0.000000 
#    y 0.000000 1.715200 0.000000 
#    z 0.000000 0.000000 1.676160 
# 
# From -- ./inp_files/7590.got.cif
#   From: 2010.03.12/outbox.cif.g09.slc.cpg/sg45_4_cif.got.tgz:7590.got - 2010.04.14 02:50:11.
