data_PCOD8190796
_publ_section_title
;
Structure prediction by ZEFSAII (Michael W. Deem and Ramdas Pophale) SiO2 
 PCOD8190796
Probable space group: I B A 2
;
_chemical_formula_sum "Si O2"
_cell_formula_units_Z 40
_cell_length_a 20.518607
_cell_length_b 7.969777
_cell_length_c 11.155607
_cell_angle_alpha 90.000000
_cell_angle_beta 90.000000
_cell_angle_gamma 90.000000
_cell_volume 1824.262157
_symmetry_space_group_name_H-M "I B A 2"
_symmetry_group_IT_number 45
_symmetry_cell_setting 'orthorhombic'
loop_
_space_group_symop_operation_xyz
x,y,z
-x,-y,z
-x,y,1/2+z
x,-y,1/2+z
1/2+x,1/2+y,1/2+z
1/2-x,1/2-y,1/2+z
1/2-x,1/2+y,z
1/2+x,1/2-y,z
loop_
_atom_site_type_symbol
_atom_site_label
_atom_site_fract_x
_atom_site_fract_y
_atom_site_fract_z
Si Si1 0.566602 0.576812 0.368480
Si Si2 0.679163 0.141911 0.306585
Si Si3 0.193992 0.011214 0.227573
Si Si4 0.565717 0.896946 0.238532
Si Si5 0.627029 0.330149 0.538884
O O1 0.500000 0.500000 0.317211
O O2 0.624726 0.529784 0.282594
O O3 0.559790 0.780446 0.359360
O O4 0.582766 0.489500 0.496081
O O5 0.695221 0.288658 0.210819
O O6 0.655774 0.215579 0.433053
O O7 0.746528 0.038375 0.315502
O O8 0.624629 0.024318 0.251867
O O9 0.191609 0.908239 0.102909
O O10 0.580397 0.782992 0.122079
O O11 0.500000 0.000000 0.217556
#
# Coordination Sequence:
#
# PCOD8190796 Si02
#       5
#     8   8   8   8   8
#     4  10  22  41  64  93 129 168 215 267 319 382
#     4  11  24  43  65  96 132 170 218 273 326 390
#     4  10  22  41  64  95 131 169 219 273 321 385
#     4  11  24  43  66  99 134 169 219 273 320 388
#     4  10  24  42  66  93 129 178 218 266 335 385
#
# _framework density 21.926673000000001
#
# number of rings (size 3 to 8) (size 9 to 14) (size 15 to 20)
#    0.000    1.600    0.000    4.800    0.000   15.200 
#    0.000    0.000    0.000    0.000    0.000    0.000 
#    0.000    0.000    0.000    0.000    0.000    0.000 
#
# Total GULP energy -247783.236992 kJ/mol
# GULP energy per Si atom -12389.161850 kJ/mol
# Density = 2.187677 g / cm^3
# Si number density = 21.926673 Si / 1000 Ang^3
#
#
#
# Elastic Constant Matrix: (Units=GPa)
#
#
# Indices 1 2 3 4 5 6 
#
# 1 168.7344 69.6509 45.7204 0.0000 0.0000 0.0000
# 2 69.6509 174.3927 64.9785 0.0000 0.0000 0.0000
# 3 45.7204 64.9785 103.0820 0.0000 0.0000 0.0000
# 4 0.0000 0.0000 0.0000 132.6107 0.0000 0.0000
# 5 0.0000 0.0000 0.0000 0.0000 33.5255 0.0000
# 6 0.0000 0.0000 0.0000 0.0000 0.0000 42.5028
#
#
#
# Elastic Compliance Matrix: (Units=1/GPa)
#
#
# Indices 1 2 3 4 5 6 
#
# 1 0.007355 -0.002251 -0.001843 0.000000 0.000000 0.000000
# 2 -0.002251 0.008183 -0.004160 0.000000 0.000000 0.000000
# 3 -0.001843 -0.004160 0.013141 0.000000 0.000000 0.000000
# 4 0.000000 0.000000 0.000000 0.007541 0.000000 0.000000
# 5 0.000000 0.000000 0.000000 0.000000 0.029828 0.000000
# 6 0.000000 0.000000 0.000000 0.000000 0.000000 0.023528
#
#
# Mechanical properties :
#
#
# Convention : Reuss Voigt Hill
#
# Bulk Modulus (GPa) = 82.16422 89.65649 85.91036
# Shear Modulus (GPa) = 45.39631 59.45177 52.42404
#
# Velocity S-wave (km/s) = 4.55507 5.21275 4.89497
# Velocity P-wave (km/s) = 8.07580 8.78683 8.43880
#
# Compressibility (1/GPa) = 0.01217075
#
# Stress axis : x y z
#
# Youngs Moduli (GPa) = 135.96158 122.20319 76.09787
#
# Poissons Ratio (x) = 0.27504 0.14029
# Poissons Ratio (y) = 0.30600 0.31657
# Poissons Ratio (z) = 0.25064 0.50837
#
# Static dielectric constant tensor:
#      x y z
#    x 4.094890 0.000000 0.000000 
#    y 0.000000 4.890470 0.000000 
#    z 0.000000 0.000000 4.201960 
# 
# 
# High freq. dielectric constant tensor:
#      x y z
#    x 1.877850 0.000000 0.000000 
#    y 0.000000 1.884580 0.000000 
#    z 0.000000 0.000000 1.837270 
# 
# From -- ./inp_files/3133.got.cif
#   From: 2010.03.12/outbox.cif.g09.slc.cpg/sg45_2_cif.got.tgz:3133.got - 2010.04.14 02:50:11.
