data_PCOD8190040
_publ_section_title
;
Structure prediction by ZEFSAII (Michael W. Deem and Ramdas Pophale) SiO2 
 PCOD8190040
Probable space group: I M M 2
;
_chemical_formula_sum "Si O2"
_cell_formula_units_Z 64
_cell_length_a 24.489955
_cell_length_b 9.070601
_cell_length_c 15.016752
_cell_angle_alpha 90.000000
_cell_angle_beta 90.000000
_cell_angle_gamma 90.000000
_cell_volume 3335.800421
_symmetry_space_group_name_H-M "I M M 2"
_symmetry_group_IT_number 44
_symmetry_cell_setting 'orthorhombic'
loop_
_space_group_symop_operation_xyz
x,y,z
-x,-y,z
-x,y,z
x,-y,z
1/2+x,1/2+y,1/2+z
1/2-x,1/2-y,1/2+z
1/2-x,1/2+y,1/2+z
1/2+x,1/2-y,1/2+z
loop_
_atom_site_type_symbol
_atom_site_label
_atom_site_fract_x
_atom_site_fract_y
_atom_site_fract_z
Si Si1 0.151196 0.826375 0.228890
Si Si2 0.109839 0.673375 0.923858
Si Si3 0.865411 0.173176 0.587989
Si Si4 0.741395 0.331085 0.192831
Si Si5 0.339517 0.826528 0.914169
Si Si6 0.564268 0.170700 0.234150
Si Si7 0.715937 0.667481 0.393531
Si Si8 0.561760 0.668543 0.586917
O O1 0.206691 0.774573 0.179942
O O2 0.141561 0.743171 0.321439
O O3 0.100978 0.780641 0.166547
O O4 0.154488 0.000000 0.246763
O O5 0.108860 0.500000 0.931190
O O6 0.087903 0.727113 0.828207
O O7 0.171581 0.728747 0.940374
O O8 0.070359 0.735581 0.999121
O O9 0.804170 0.209359 0.620615
O O10 0.873928 0.252744 0.493345
O O11 0.910148 0.233670 0.655675
O O12 0.874684 0.000000 0.576872
O O13 0.761391 0.500000 0.185063
O O14 0.713966 0.304078 0.288279
O O15 0.275624 0.792702 0.930533
O O16 0.351076 0.000000 0.910648
O O17 0.500000 0.196684 0.233826
O O18 0.579314 0.000000 0.218824
O O19 0.700478 0.500000 0.416455
O O20 0.500000 0.690598 0.620479
O O21 0.573991 0.500000 0.561409
#
# Coordination Sequence:
#
# PCOD8190040 Si02
#       8
#     8   8   8   8   8   8   8   8
#     4  10  21  38  61  86 112 149 198 246 294 348
#     4  11  22  35  57  88 120 153 192 238 288 345
#     4  11  22  37  59  88 119 154 200 244 290 348
#     4   9  19  35  55  83 118 152 186 233 288 346
#     4  10  22  39  59  84 120 158 192 240 298 351
#     4  10  22  40  59  83 119 159 198 242 294 349
#     4   9  18  35  55  80 116 155 192 228 280 346
#     4  10  23  42  61  83 114 153 197 243 291 346
#
# _framework density 19.185798999999999
#
# number of rings (size 3 to 8) (size 9 to 14) (size 15 to 20)
#    0.000    2.000    1.250    2.625    1.750    6.000 
#    0.000    0.625    0.000    2.250    0.000    0.000 
#    0.000    0.000    0.000    0.000    0.000    0.000 
#
# Total GULP energy -396928.172256 kJ/mol
# GULP energy per Si atom -12404.005383 kJ/mol
# Density = 1.914213 g / cm^3
# Si number density = 19.185799 Si / 1000 Ang^3
#
#
#
# Elastic Constant Matrix: (Units=GPa)
#
#
# Indices 1 2 3 4 5 6 
#
# 1 92.2334 44.8280 48.7625 0.0000 0.0000 0.0000
# 2 44.8280 83.7457 54.5465 0.0000 0.0000 0.0000
# 3 48.7625 54.5465 97.5071 0.0000 0.0000 0.0000
# 4 0.0000 0.0000 0.0000 32.9258 0.0000 0.0000
# 5 0.0000 0.0000 0.0000 0.0000 27.2498 0.0000
# 6 0.0000 0.0000 0.0000 0.0000 0.0000 28.8985
#
#
#
# Elastic Compliance Matrix: (Units=1/GPa)
#
#
# Indices 1 2 3 4 5 6 
#
# 1 0.016113 -0.005312 -0.005086 0.000000 0.000000 0.000000
# 2 -0.005312 0.020537 -0.008832 0.000000 0.000000 0.000000
# 3 -0.005086 -0.008832 0.017740 0.000000 0.000000 0.000000
# 4 0.000000 0.000000 0.000000 0.030371 0.000000 0.000000
# 5 0.000000 0.000000 0.000000 0.000000 0.036697 0.000000
# 6 0.000000 0.000000 0.000000 0.000000 0.000000 0.034604
#
#
# Mechanical properties :
#
#
# Convention : Reuss Voigt Hill
#
# Bulk Modulus (GPa) = 62.77857 63.30668 63.04263
# Shear Modulus (GPa) = 25.02083 26.17144 25.59613
#
# Velocity S-wave (km/s) = 3.61520 3.69739 3.65652
# Velocity P-wave (km/s) = 7.08651 7.16211 7.12441
#
# Compressibility (1/GPa) = 0.01592900
#
# Stress axis : x y z
#
# Youngs Moduli (GPa) = 62.06183 48.69237 56.36981
#
# Poissons Ratio (x) = 0.25866 0.28671
# Poissons Ratio (y) = 0.32969 0.49786
# Poissons Ratio (z) = 0.31566 0.43005
#
# Static dielectric constant tensor:
#      x y z
#    x 3.395990 0.000000 0.000000 
#    y 0.000000 3.486780 0.000000 
#    z 0.000000 0.000000 3.472960 
# 
# 
# High freq. dielectric constant tensor:
#      x y z
#    x 1.736940 0.000000 0.000000 
#    y 0.000000 1.750100 0.000000 
#    z 0.000000 0.000000 1.747100 
# 
# From -- ./inp_files/19484.got.cif
#   From: 2010.03.12/outbox.cif.g09.slc.cpg/sg44_10_cif.got.tgz:19484.got - 2010.04.14 02:36:11.
