data_PCOD8190797
_publ_section_title
;
Structure prediction by ZEFSAII (Michael W. Deem and Ramdas Pophale) SiO2 
 PCOD8190797
Probable space group: I B A 2
;
_chemical_formula_sum "Si O2"
_cell_formula_units_Z 44
_cell_length_a 18.584677
_cell_length_b 11.962532
_cell_length_c 8.806945
_cell_angle_alpha 90.000000
_cell_angle_beta 90.000000
_cell_angle_gamma 90.000000
_cell_volume 1957.958192
_symmetry_space_group_name_H-M "I B A 2"
_symmetry_group_IT_number 45
_symmetry_cell_setting 'orthorhombic'
loop_
_space_group_symop_operation_xyz
x,y,z
-x,-y,z
-x,y,1/2+z
x,-y,1/2+z
1/2+x,1/2+y,1/2+z
1/2-x,1/2-y,1/2+z
1/2-x,1/2+y,z
1/2+x,1/2-y,z
loop_
_atom_site_type_symbol
_atom_site_label
_atom_site_fract_x
_atom_site_fract_y
_atom_site_fract_z
Si Si1 0.397246 0.434978 0.813710
Si Si2 0.664025 0.678338 0.357821
Si Si3 0.000000 0.000000 0.562676
Si Si4 0.201302 0.242486 0.188260
Si Si5 0.552303 0.866293 0.350386
Si Si6 0.584404 0.919032 0.684314
O O1 0.355030 0.552138 0.815617
O O2 0.447591 0.423272 0.664188
O O3 0.337760 0.338172 0.810377
O O4 0.449352 0.420771 0.959148
O O5 0.717386 0.733393 0.235852
O O6 0.700410 0.683890 0.523738
O O7 0.589791 0.746151 0.349978
O O8 0.162003 0.361825 0.186011
O O9 0.551737 0.919178 0.516766
O O10 0.470277 0.851641 0.294717
O O11 0.593273 0.953376 0.239144
#
# Coordination Sequence:
#
# PCOD8190797 Si02
#       6
#     8   8   4   8   8   8
#     4  11  24  46  68 106 131 176 226 280 353 396
#     4  11  27  44  66  96 136 178 221 276 333 403
#     4  10  24  42  76  98 138 166 222 298 332 420
#     4  11  27  44  66  96 136 178 221 276 333 403
#     4  10  22  41  64  94 125 167 217 265 319 382
#     4  10  22  41  64  94 125 167 217 265 319 382
#
# _framework density 22.472389
#
# number of rings (size 3 to 8) (size 9 to 14) (size 15 to 20)
#    0.000    1.455    1.818    2.182   10.182    2.909 
#    0.000    0.000    0.000    0.000    0.000    0.000 
#    0.000    0.000    0.000    0.000    0.000    0.000 
#
# Total GULP energy -272865.855228 kJ/mol
# GULP energy per Si atom -12402.993419 kJ/mol
# Density = 2.242124 g / cm^3
# Si number density = 22.472389 Si / 1000 Ang^3
#
#
#
# Elastic Constant Matrix: (Units=GPa)
#
#
# Indices 1 2 3 4 5 6 
#
# 1 79.0864 16.6517 26.1718 0.0000 0.0000 0.0000
# 2 16.6517 63.9419 10.5063 0.0000 0.0000 0.0000
# 3 26.1718 10.5063 115.0430 0.0000 0.0000 0.0000
# 4 0.0000 0.0000 0.0000 25.8175 0.0000 0.0000
# 5 0.0000 0.0000 0.0000 0.0000 28.9118 0.0000
# 6 0.0000 0.0000 0.0000 0.0000 0.0000 26.3430
#
#
#
# Elastic Compliance Matrix: (Units=1/GPa)
#
#
# Indices 1 2 3 4 5 6 
#
# 1 0.014306 -0.003239 -0.002959 0.000000 0.000000 0.000000
# 2 -0.003239 0.016611 -0.000780 0.000000 0.000000 0.000000
# 3 -0.002959 -0.000780 0.009437 0.000000 0.000000 0.000000
# 4 0.000000 0.000000 0.000000 0.038733 0.000000 0.000000
# 5 0.000000 0.000000 0.000000 0.000000 0.034588 0.000000
# 6 0.000000 0.000000 0.000000 0.000000 0.000000 0.037961
#
#
# Mechanical properties :
#
#
# Convention : Reuss Voigt Hill
#
# Bulk Modulus (GPa) = 37.88277 40.52564 39.20421
# Shear Modulus (GPa) = 28.67131 29.86389 29.26760
#
# Velocity S-wave (km/s) = 3.57577 3.64938 3.61277
# Velocity P-wave (km/s) = 5.82600 5.98582 5.90645
#
# Compressibility (1/GPa) = 0.02639722
#
# Stress axis : x y z
#
# Youngs Moduli (GPa) = 69.90306 60.20123 105.96913
#
# Poissons Ratio (x) = 0.19501 0.31352
# Poissons Ratio (y) = 0.22644 0.08266
# Poissons Ratio (z) = 0.20682 0.04696
#
# Static dielectric constant tensor:
#      x y z
#    x 3.970490 0.000000 0.000000 
#    y 0.000000 3.770900 0.000000 
#    z 0.000000 0.000000 4.307720 
# 
# 
# High freq. dielectric constant tensor:
#      x y z
#    x 1.881990 0.000000 0.000000 
#    y 0.000000 1.877840 0.000000 
#    z 0.000000 0.000000 1.898050 
# 
# From -- ./inp_files/2061.got.cif
#   From: 2010.03.12/outbox.cif.g09.slc.cpg/sg45_2_cif.got.tgz:2061.got - 2010.04.14 02:50:11.
