data_PCOD8190751
_publ_section_title
;
Structure prediction by ZEFSAII (Michael W. Deem and Ramdas Pophale) SiO2 
 PCOD8190751
Probable space group: I B A 2
;
_chemical_formula_sum "Si O2"
_cell_formula_units_Z 48
_cell_length_a 5.159387
_cell_length_b 23.609179
_cell_length_c 18.256989
_cell_angle_alpha 90.000000
_cell_angle_beta 90.000000
_cell_angle_gamma 90.000000
_cell_volume 2223.863587
_symmetry_space_group_name_H-M "I B A 2"
_symmetry_group_IT_number 45
_symmetry_cell_setting 'orthorhombic'
loop_
_space_group_symop_operation_xyz
x,y,z
-x,-y,z
-x,y,1/2+z
x,-y,1/2+z
1/2+x,1/2+y,1/2+z
1/2-x,1/2-y,1/2+z
1/2-x,1/2+y,z
1/2+x,1/2-y,z
loop_
_atom_site_type_symbol
_atom_site_label
_atom_site_fract_x
_atom_site_fract_y
_atom_site_fract_z
Si Si1 0.903658 0.783214 0.022410
Si Si2 0.460862 0.593615 0.468062
Si Si3 0.042676 0.564221 0.881339
Si Si4 0.144521 0.830802 0.676768
Si Si5 0.648811 0.867037 0.736771
Si Si6 0.579402 0.438280 0.627193
O O1 0.120179 0.737722 0.997800
O O2 0.901670 0.787055 0.110904
O O3 0.970591 0.841339 0.982819
O O4 0.721158 0.563355 0.439093
O O5 0.360222 0.561525 0.540697
O O6 0.224255 0.589875 0.411679
O O7 0.124889 0.603791 0.814616
O O8 0.000000 0.500000 0.854655
O O9 0.414192 0.823748 0.719536
O O10 0.905931 0.827258 0.734606
O O11 0.156071 0.894531 0.642127
O O12 0.673045 0.915682 0.673623
O O13 0.500000 0.500000 0.655452
#
# Coordination Sequence:
#
# PCOD8190751 Si02
#       6
#     8   8   8   8   8   8
#     4  11  22  41  72  94 120 162 218 278 341 378
#     4  11  25  42  60  98 127 171 219 274 312 378
#     4  12  25  40  63  92 142 183 210 242 322 391
#     4   9  21  36  59  92 121 149 212 269 308 367
#     4  10  22  37  60  88 130 166 210 245 307 382
#     4   9  21  35  61  88 127 161 213 256 307 365
#
# _framework density 21.584057999999999
#
# number of rings (size 3 to 8) (size 9 to 14) (size 15 to 20)
#    1.000    0.667    0.000    4.500    7.000    0.000 
#    0.000    0.000    0.000   20.000    0.000    0.000 
#    0.000    0.000    0.000    0.000    0.000    0.000 
#
# Total GULP energy -297460.701113 kJ/mol
# GULP energy per Si atom -12394.195880 kJ/mol
# Density = 2.153493 g / cm^3
# Si number density = 21.584058 Si / 1000 Ang^3
#
#
#
# Elastic Constant Matrix: (Units=GPa)
#
#
# Indices 1 2 3 4 5 6 
#
# 1 149.6426 15.6395 22.9839 0.0000 0.0000 0.0000
# 2 15.6395 32.2552 0.0264 0.0000 0.0000 0.0000
# 3 22.9839 0.0264 61.2330 0.0000 0.0000 0.0000
# 4 0.0000 0.0000 0.0000 26.6508 0.0000 0.0000
# 5 0.0000 0.0000 0.0000 0.0000 29.2939 0.0000
# 6 0.0000 0.0000 0.0000 0.0000 0.0000 29.4711
#
#
#
# Elastic Compliance Matrix: (Units=1/GPa)
#
#
# Indices 1 2 3 4 5 6 
#
# 1 0.007494 -0.003631 -0.002811 0.000000 0.000000 0.000000
# 2 -0.003631 0.032762 0.001349 0.000000 0.000000 0.000000
# 3 -0.002811 0.001349 0.017386 0.000000 0.000000 0.000000
# 4 0.000000 0.000000 0.000000 0.037522 0.000000 0.000000
# 5 0.000000 0.000000 0.000000 0.000000 0.034137 0.000000
# 6 0.000000 0.000000 0.000000 0.000000 0.000000 0.033932
#
#
# Mechanical properties :
#
#
# Convention : Reuss Voigt Hill
#
# Bulk Modulus (GPa) = 21.07277 35.60338 28.33807
# Shear Modulus (GPa) = 26.42173 30.71522 28.56848
#
# Velocity S-wave (km/s) = 3.50256 3.77643 3.64207
# Velocity P-wave (km/s) = 5.11288 5.96207 5.55373
#
# Compressibility (1/GPa) = 0.04745462
#
# Stress axis : x y z
#
# Youngs Moduli (GPa) = 133.44200 30.52282 57.51853
#
# Poissons Ratio (x) = 0.11084 0.16170
# Poissons Ratio (y) = 0.48456 -0.07758
# Poissons Ratio (z) = 0.37514 -0.04117
#
# Static dielectric constant tensor:
#      x y z
#    x 3.910410 0.000000 0.000000 
#    y 0.000000 3.672900 0.000000 
#    z 0.000000 0.000000 3.661750 
# 
# 
# High freq. dielectric constant tensor:
#      x y z
#    x 1.855740 0.000000 0.000000 
#    y 0.000000 1.837640 0.000000 
#    z 0.000000 0.000000 1.828270 
# 
# From -- ./inp_files/7297.got.cif
#   From: 2010.03.12/outbox.cif.g09.slc.cpg/sg45_4_cif.got.tgz:7297.got - 2010.04.14 02:50:11.
