data_PCOD8190427
_publ_section_title
;
Structure prediction by ZEFSAII (Michael W. Deem and Ramdas Pophale) SiO2 
 PCOD8190427
Probable space group: I B A 2
;
_chemical_formula_sum "Si O2"
_cell_formula_units_Z 48
_cell_length_a 16.952901
_cell_length_b 5.040919
_cell_length_c 28.703281
_cell_angle_alpha 90.000000
_cell_angle_beta 90.000000
_cell_angle_gamma 90.000000
_cell_volume 2452.930750
_symmetry_space_group_name_H-M "I B A 2"
_symmetry_group_IT_number 45
_symmetry_cell_setting 'orthorhombic'
loop_
_space_group_symop_operation_xyz
x,y,z
-x,-y,z
-x,y,1/2+z
x,-y,1/2+z
1/2+x,1/2+y,1/2+z
1/2-x,1/2-y,1/2+z
1/2-x,1/2+y,z
1/2+x,1/2-y,z
loop_
_atom_site_type_symbol
_atom_site_label
_atom_site_fract_x
_atom_site_fract_y
_atom_site_fract_z
Si Si1 0.447688 0.749299 0.657640
Si Si2 0.553747 0.742066 0.054950
Si Si3 0.800500 0.198705 0.882666
Si Si4 0.906435 0.032746 0.801562
Si Si5 0.593736 0.964507 0.248889
Si Si6 0.699604 0.320032 0.489551
O O1 0.500000 0.500000 0.676642
O O2 0.410613 0.681182 0.607129
O O3 0.384946 0.845627 0.697354
O O4 0.500000 0.000000 0.645803
O O5 0.500000 0.500000 0.038560
O O6 0.626917 0.765829 0.020866
O O7 0.500000 0.000000 0.051367
O O8 0.769660 0.492623 0.871476
O O9 0.876276 0.125832 0.851734
O O10 0.828356 0.189757 0.936020
O O11 0.874181 0.245403 0.762762
O O12 0.872844 0.746402 0.786428
O O13 0.000000 0.000000 0.804079
O O14 0.500000 0.000000 0.250303
O O15 0.729451 0.615813 0.500310
#
# Coordination Sequence:
#
# PCOD8190427 Si02
#       6
#     8   8   8   8   8   8
#     4   9  16  28  48  75 105 134 165 205 255 308
#     4  10  20  34  56  84 107 133 176 226 264 300
#     4  10  21  37  54  72 100 140 174 203 255 319
#     4  10  19  31  51  77 100 127 169 215 249 284
#     4   9  16  28  47  74 104 131 162 203 251 301
#     4  10  21  38  57  76 105 145 178 210 266 330
#
# _framework density 19.568427
#
# number of rings (size 3 to 8) (size 9 to 14) (size 15 to 20)
#    0.000    2.333    0.000    4.500    0.000    0.667 
#    0.000    2.500    0.000    6.000    0.000    0.000 
#    0.000    0.000    0.000    0.000    0.000    0.000 
#
# Total GULP energy -297355.320644 kJ/mol
# GULP energy per Si atom -12389.805027 kJ/mol
# Density = 1.952389 g / cm^3
# Si number density = 19.568427 Si / 1000 Ang^3
#
#
#
# Elastic Constant Matrix: (Units=GPa)
#
#
# Indices 1 2 3 4 5 6 
#
# 1 41.6657 19.4500 49.5287 0.0000 0.0000 0.0000
# 2 19.4500 111.4161 32.5717 0.0000 0.0000 0.0000
# 3 49.5287 32.5717 122.3450 0.0000 0.0000 0.0000
# 4 0.0000 0.0000 0.0000 31.6523 0.0000 0.0000
# 5 0.0000 0.0000 0.0000 0.0000 8.0057 0.0000
# 6 0.0000 0.0000 0.0000 0.0000 0.0000 19.5089
#
#
#
# Elastic Compliance Matrix: (Units=1/GPa)
#
#
# Indices 1 2 3 4 5 6 
#
# 1 0.047096 -0.002871 -0.018301 0.000000 0.000000 0.000000
# 2 -0.002871 0.009908 -0.001475 0.000000 0.000000 0.000000
# 3 -0.018301 -0.001475 0.015975 0.000000 0.000000 0.000000
# 4 0.000000 0.000000 0.000000 0.031593 0.000000 0.000000
# 5 0.000000 0.000000 0.000000 0.000000 0.124911 0.000000
# 6 0.000000 0.000000 0.000000 0.000000 0.000000 0.051259
#
#
# Mechanical properties :
#
#
# Convention : Reuss Voigt Hill
#
# Bulk Modulus (GPa) = 36.12303 53.16971 44.64637
# Shear Modulus (GPa) = 14.91354 23.42516 19.16935
#
# Velocity S-wave (km/s) = 2.76365 3.46365 3.13326
# Velocity P-wave (km/s) = 5.35571 6.57465 5.99623
#
# Compressibility (1/GPa) = 0.02768317
#
# Stress axis : x y z
#
# Youngs Moduli (GPa) = 21.23317 100.92928 62.59656
#
# Poissons Ratio (x) = 0.28980 1.14561
# Poissons Ratio (y) = 0.06097 0.09235
# Poissons Ratio (z) = 0.38860 0.14891
#
# Static dielectric constant tensor:
#      x y z
#    x 2.960160 0.000000 0.000000 
#    y 0.000000 3.953370 0.000000 
#    z 0.000000 0.000000 3.875950 
# 
# 
# High freq. dielectric constant tensor:
#      x y z
#    x 1.696440 0.000000 0.000000 
#    y 0.000000 1.793100 0.000000 
#    z 0.000000 0.000000 1.772740 
# 
# From -- ./inp_files/9815.got.cif
#   From: 2010.03.12/outbox.cif.g09.slc.cpg/sg45_5_cif.got.tgz:9815.got - 2010.04.14 02:50:11.
