data_PCOD8190345
_publ_section_title
;
Structure prediction by ZEFSAII (Michael W. Deem and Ramdas Pophale) SiO2 
 PCOD8190345
Probable space group: I M M 2
;
_chemical_formula_sum "Si O2"
_cell_formula_units_Z 48
_cell_length_a 16.488555
_cell_length_b 9.556601
_cell_length_c 18.709277
_cell_angle_alpha 90.000000
_cell_angle_beta 90.000000
_cell_angle_gamma 90.000000
_cell_volume 2948.105739
_symmetry_space_group_name_H-M "I M M 2"
_symmetry_group_IT_number 44
_symmetry_cell_setting 'orthorhombic'
loop_
_space_group_symop_operation_xyz
x,y,z
-x,-y,z
-x,y,z
x,-y,z
1/2+x,1/2+y,1/2+z
1/2-x,1/2-y,1/2+z
1/2-x,1/2+y,1/2+z
1/2+x,1/2-y,1/2+z
loop_
_atom_site_type_symbol
_atom_site_label
_atom_site_fract_x
_atom_site_fract_y
_atom_site_fract_z
Si Si1 0.673482 0.339918 0.025170
Si Si2 0.906394 0.163549 0.083704
Si Si3 0.500000 0.665361 0.066354
Si Si4 0.000000 0.832416 0.724910
Si Si5 0.834423 0.166137 0.789848
Si Si6 0.221684 0.660864 0.163887
Si Si7 0.300576 0.663690 0.448796
O O1 0.681630 0.500000 0.999741
O O2 0.580370 0.288021 0.024116
O O3 0.708410 0.322538 0.104770
O O4 0.718752 0.242065 0.969534
O O5 0.856869 0.247131 0.144194
O O6 0.872350 0.199522 0.004681
O O7 0.000000 0.210217 0.086194
O O8 0.896600 0.000000 0.100229
O O9 0.500000 0.500000 0.076119
O O10 0.500000 0.730637 0.145343
O O11 0.079702 0.772585 0.763989
O O12 0.000000 0.000000 0.725444
O O13 0.760495 0.215619 0.738453
O O14 0.837787 0.000000 0.786510
O O15 0.823463 0.219721 0.870548
O O16 0.193219 0.500000 0.169645
O O17 0.281825 0.500000 0.448056
#
# Coordination Sequence:
#
# PCOD8190345 Si02
#       7
#     8   8   4   4   8   8   8
#     4   9  16  28  46  68  91 118 150 183 218 261
#     4   9  18  31  46  66  91 119 151 184 219 263
#     4   9  14  24  45  71  93 110 143 190 224 255
#     4   9  14  22  42  73  97 112 137 182 230 265
#     4   9  16  26  44  70  96 117 143 181 225 269
#     4   9  16  28  47  69  90 115 149 186 223 261
#     4   9  18  30  45  67  95 121 144 178 225 271
#
# _framework density 16.281642000000002
#
# number of rings (size 3 to 8) (size 9 to 14) (size 15 to 20)
#    0.000    3.000    1.667    0.000    1.167    0.333 
#    0.000    1.250    1.833    0.000    0.000    1.750 
#    0.000    0.000    0.000    0.000    0.000    0.000 
#
# Total GULP energy -297522.503176 kJ/mol
# GULP energy per Si atom -12396.770966 kJ/mol
# Density = 1.624458 g / cm^3
# Si number density = 16.281642 Si / 1000 Ang^3
#
#
#
# Elastic Constant Matrix: (Units=GPa)
#
#
# Indices 1 2 3 4 5 6 
#
# 1 159.1081 42.7148 68.9797 0.0000 0.0000 0.0000
# 2 42.7148 31.6080 29.0217 0.0000 0.0000 0.0000
# 3 68.9797 29.0217 104.0779 0.0000 0.0000 0.0000
# 4 0.0000 0.0000 0.0000 19.3233 0.0000 0.0000
# 5 0.0000 0.0000 0.0000 0.0000 19.6311 0.0000
# 6 0.0000 0.0000 0.0000 0.0000 0.0000 22.6659
#
#
#
# Elastic Compliance Matrix: (Units=1/GPa)
#
#
# Indices 1 2 3 4 5 6 
#
# 1 0.011118 -0.011101 -0.004273 0.000000 0.000000 0.000000
# 2 -0.011101 0.053610 -0.007591 0.000000 0.000000 0.000000
# 3 -0.004273 -0.007591 0.014557 0.000000 0.000000 0.000000
# 4 0.000000 0.000000 0.000000 0.051751 0.000000 0.000000
# 5 0.000000 0.000000 0.000000 0.000000 0.050940 0.000000
# 6 0.000000 0.000000 0.000000 0.000000 0.000000 0.044119
#
#
# Mechanical properties :
#
#
# Convention : Reuss Voigt Hill
#
# Bulk Modulus (GPa) = 29.98186 64.02516 47.00351
# Shear Modulus (GPa) = 17.65890 22.59590 20.12740
#
# Velocity S-wave (km/s) = 3.29688 3.72938 3.51978
# Velocity P-wave (km/s) = 5.73995 7.61270 6.74167
#
# Compressibility (1/GPa) = 0.03335350
#
# Stress axis : x y z
#
# Youngs Moduli (GPa) = 89.94562 18.65334 68.69518
#
# Poissons Ratio (x) = 0.20707 0.29354
# Poissons Ratio (y) = 0.99850 0.52149
# Poissons Ratio (z) = 0.38434 0.14160
#
# Static dielectric constant tensor:
#      x y z
#    x 3.207050 0.000000 0.000000 
#    y 0.000000 2.756970 0.000000 
#    z 0.000000 0.000000 3.101830 
# 
# 
# High freq. dielectric constant tensor:
#      x y z
#    x 1.630670 0.000000 0.000000 
#    y 0.000000 1.588700 0.000000 
#    z 0.000000 0.000000 1.615750 
# 
# From -- ./inp_files/17717.got.cif
#   From: 2010.03.12/outbox.cif.g09.slc.cpg/sg44_9_cif.got.tgz:17717.got - 2010.04.14 02:36:11.
