data_PCOD8190080
_publ_section_title
;
Structure prediction by ZEFSAII (Michael W. Deem and Ramdas Pophale) SiO2 
 PCOD8190080
Probable space group: I M M 2
;
_chemical_formula_sum "Si O2"
_cell_formula_units_Z 64
_cell_length_a 14.474391
_cell_length_b 8.755189
_cell_length_c 24.191119
_cell_angle_alpha 90.000000
_cell_angle_beta 90.000000
_cell_angle_gamma 90.000000
_cell_volume 3065.644445
_symmetry_space_group_name_H-M "I M M 2"
_symmetry_group_IT_number 44
_symmetry_cell_setting 'orthorhombic'
loop_
_space_group_symop_operation_xyz
x,y,z
-x,-y,z
-x,y,z
x,-y,z
1/2+x,1/2+y,1/2+z
1/2-x,1/2-y,1/2+z
1/2-x,1/2+y,1/2+z
1/2+x,1/2-y,1/2+z
loop_
_atom_site_type_symbol
_atom_site_label
_atom_site_fract_x
_atom_site_fract_y
_atom_site_fract_z
Si Si1 0.609766 0.327265 0.765050
Si Si2 0.106272 0.679879 0.378636
Si Si3 0.109186 0.676457 0.152805
Si Si4 0.395068 0.317544 0.110881
Si Si5 0.892314 0.820114 0.849573
Si Si6 0.233232 0.320454 0.941266
Si Si7 0.890720 0.166581 0.730068
Si Si8 0.225622 0.180283 0.056032
O O1 0.500000 0.323576 0.762922
O O2 0.647319 0.500000 0.766742
O O3 0.643941 0.238802 0.819520
O O4 0.648880 0.243667 0.710451
O O5 0.120178 0.500000 0.380646
O O6 0.164863 0.757133 0.427279
O O7 0.000000 0.727188 0.387678
O O8 0.136772 0.500000 0.149924
O O9 0.154621 0.763063 0.101949
O O10 0.000000 0.701316 0.148799
O O11 0.500000 0.269877 0.097001
O O12 0.384333 0.500000 0.109378
O O13 0.363911 0.252441 0.171929
O O14 0.329439 0.239264 0.066437
O O15 0.837069 0.721060 0.893015
O O16 0.863373 0.754000 0.788312
O O17 0.000000 0.793628 0.860705
O O18 0.868039 0.000000 0.854425
O O19 0.238908 0.500000 0.949446
O O20 0.194322 0.245007 0.997003
O O21 0.000000 0.145093 0.729567
O O22 0.844084 0.000000 0.730106
O O23 0.223962 0.000000 0.054282
#
# Coordination Sequence:
#
# PCOD8190080 Si02
#       8
#     8   8   8   8   8   8   8   8
#     4   9  17  32  57  90 124 154 188 232 285 346
#     4  10  21  39  63  89 118 153 193 239 292 348
#     4  10  21  39  63  89 118 153 193 239 292 348
#     4   9  18  36  62  89 118 152 189 231 281 338
#     4   9  18  36  62  89 118 152 189 231 281 338
#     4  12  26  42  59  81 113 152 198 247 292 346
#     4   7  12  27  55  88 116 144 180 220 267 329
#     4  12  26  42  59  81 113 152 198 247 292 346
#
# _framework density 20.876525000000001
#
# number of rings (size 3 to 8) (size 9 to 14) (size 15 to 20)
#    0.000    2.250    0.000    4.875    0.000    5.500 
#    0.000    4.375    0.000    2.250    0.000    0.000 
#    0.000    0.000    0.000    0.000    0.000    0.000 
#
# Total GULP energy -396693.765867 kJ/mol
# GULP energy per Si atom -12396.680183 kJ/mol
# Density = 2.082901 g / cm^3
# Si number density = 20.876525 Si / 1000 Ang^3
#
#
#
# Elastic Constant Matrix: (Units=GPa)
#
#
# Indices 1 2 3 4 5 6 
#
# 1 31.2408 16.8588 2.0228 0.0000 0.0000 0.0000
# 2 16.8588 112.8588 29.8851 0.0000 0.0000 0.0000
# 3 2.0228 29.8851 91.8674 0.0000 0.0000 0.0000
# 4 0.0000 0.0000 0.0000 35.4162 0.0000 0.0000
# 5 0.0000 0.0000 0.0000 0.0000 29.4706 0.0000
# 6 0.0000 0.0000 0.0000 0.0000 0.0000 30.1099
#
#
#
# Elastic Compliance Matrix: (Units=1/GPa)
#
#
# Indices 1 2 3 4 5 6 
#
# 1 0.034902 -0.005482 0.001015 0.000000 0.000000 0.000000
# 2 -0.005482 0.010557 -0.003314 0.000000 0.000000 0.000000
# 3 0.001015 -0.003314 0.011941 0.000000 0.000000 0.000000
# 4 0.000000 0.000000 0.000000 0.028236 0.000000 0.000000
# 5 0.000000 0.000000 0.000000 0.000000 0.033932 0.000000
# 6 0.000000 0.000000 0.000000 0.000000 0.000000 0.033212
#
#
# Mechanical properties :
#
#
# Convention : Reuss Voigt Hill
#
# Bulk Modulus (GPa) = 23.90170 37.05561 30.47865
# Shear Modulus (GPa) = 27.42919 31.47937 29.45428
#
# Velocity S-wave (km/s) = 3.62868 3.88736 3.76024
# Velocity P-wave (km/s) = 5.38798 6.15932 5.78651
#
# Compressibility (1/GPa) = 0.04183804
#
# Stress axis : x y z
#
# Youngs Moduli (GPa) = 28.65148 94.72365 83.74627
#
# Poissons Ratio (x) = 0.51932 -0.08500
# Poissons Ratio (y) = 0.15708 0.27750
# Poissons Ratio (z) = -0.02908 0.31387
#
# Static dielectric constant tensor:
#      x y z
#    x 3.687730 0.000000 0.000000 
#    y 0.000000 3.584930 0.000000 
#    z 0.000000 0.000000 4.042310 
# 
# 
# High freq. dielectric constant tensor:
#      x y z
#    x 1.812220 0.000000 0.000000 
#    y 0.000000 1.800470 0.000000 
#    z 0.000000 0.000000 1.828280 
# 
# From -- ./inp_files/25800.got.cif
#   From: 2010.03.12/outbox.cif.g09.slc.cpg/sg44_13_cif.got.tgz:25800.got - 2010.04.14 02:36:11.
