data_PCOD8190791
_publ_section_title
;
Structure prediction by ZEFSAII (Michael W. Deem and Ramdas Pophale) SiO2 
 PCOD8190791
Probable space group: I B A 2
;
_chemical_formula_sum "Si O2"
_cell_formula_units_Z 56
_cell_length_a 14.916080
_cell_length_b 20.509249
_cell_length_c 8.746862
_cell_angle_alpha 90.000000
_cell_angle_beta 90.000000
_cell_angle_gamma 90.000000
_cell_volume 2675.819020
_symmetry_space_group_name_H-M "I B A 2"
_symmetry_group_IT_number 45
_symmetry_cell_setting 'orthorhombic'
loop_
_space_group_symop_operation_xyz
x,y,z
-x,-y,z
-x,y,1/2+z
x,-y,1/2+z
1/2+x,1/2+y,1/2+z
1/2-x,1/2-y,1/2+z
1/2-x,1/2+y,z
1/2+x,1/2-y,z
loop_
_atom_site_type_symbol
_atom_site_label
_atom_site_fract_x
_atom_site_fract_y
_atom_site_fract_z
Si Si1 0.063611 0.283615 0.177330
Si Si2 0.082845 0.414694 0.328252
Si Si3 0.263028 0.274791 0.136046
Si Si4 0.000000 0.000000 0.750469
Si Si5 0.251394 0.658221 0.944119
Si Si6 0.565622 0.702699 0.972619
Si Si7 0.000000 0.500000 0.585688
Si Si8 0.430142 0.412758 0.495024
O O1 0.033017 0.350314 0.262044
O O2 0.159876 0.293361 0.090745
O O3 0.081712 0.227167 0.301295
O O4 0.986039 0.260356 0.063851
O O5 0.183864 0.394842 0.373050
O O6 0.036484 0.440952 0.482261
O O7 0.078231 0.470405 0.196014
O O8 0.277613 0.287982 0.315781
O O9 0.286407 0.199788 0.087717
O O10 0.338694 0.316795 0.047361
O O11 0.057709 0.950014 0.652784
O O12 0.927760 0.962842 0.854753
O O13 0.336925 0.622670 0.008139
O O14 0.510359 0.636961 0.967497
#
# Coordination Sequence:
#
# PCOD8190791 Si02
#       8
#     8   8   8   4   8   8   4   8
#     4  11  23  38  63  97 126 167 207 266 327 386
#     4  10  22  41  62  89 125 169 213 268 309 383
#     4  11  22  40  57 100 134 161 206 264 329 406
#     4  10  24  42  64  88 124 168 224 252 310 378
#     4  11  23  41  62  92 134 161 216 265 327 391
#     4  12  22  39  68  93 132 167 204 267 337 380
#     4  10  22  44  64  86 126 172 228 256 314 382
#     4  11  23  42  64  94 124 172 211 266 316 390
#
# _framework density 20.928172
#
# number of rings (size 3 to 8) (size 9 to 14) (size 15 to 20)
#    0.000    1.143    4.286    3.429    0.000    1.143 
#    0.000    1.429    0.000    0.000    0.000    0.000 
#    0.000    0.000    0.000    0.000    0.000    0.000 
#
# Total GULP energy -347094.746671 kJ/mol
# GULP energy per Si atom -12396.240953 kJ/mol
# Density = 2.088054 g / cm^3
# Si number density = 20.928172 Si / 1000 Ang^3
#
#
#
# Elastic Constant Matrix: (Units=GPa)
#
#
# Indices 1 2 3 4 5 6 
#
# 1 82.8767 9.9807 9.1860 0.0000 0.0000 0.0000
# 2 9.9807 81.8845 9.9090 0.0000 0.0000 0.0000
# 3 9.1860 9.9090 55.6263 0.0000 0.0000 0.0000
# 4 0.0000 0.0000 0.0000 42.5782 0.0000 0.0000
# 5 0.0000 0.0000 0.0000 0.0000 10.2652 0.0000
# 6 0.0000 0.0000 0.0000 0.0000 0.0000 33.3744
#
#
#
# Elastic Compliance Matrix: (Units=1/GPa)
#
#
# Indices 1 2 3 4 5 6 
#
# 1 0.012424 -0.001294 -0.001821 0.000000 0.000000 0.000000
# 2 -0.001294 0.012616 -0.002034 0.000000 0.000000 0.000000
# 3 -0.001821 -0.002034 0.018640 0.000000 0.000000 0.000000
# 4 0.000000 0.000000 0.000000 0.023486 0.000000 0.000000
# 5 0.000000 0.000000 0.000000 0.000000 0.097416 0.000000
# 6 0.000000 0.000000 0.000000 0.000000 0.000000 0.029963
#
#
# Mechanical properties :
#
#
# Convention : Reuss Voigt Hill
#
# Bulk Modulus (GPa) = 29.95581 30.94877 30.45229
# Shear Modulus (GPa) = 23.15131 29.99770 26.57451
#
# Velocity S-wave (km/s) = 3.32961 3.79009 3.56729
# Velocity P-wave (km/s) = 5.39689 5.82865 5.61692
#
# Compressibility (1/GPa) = 0.03338251
#
# Stress axis : x y z
#
# Youngs Moduli (GPa) = 80.49068 79.26356 53.64777
#
# Poissons Ratio (x) = 0.10256 0.09770
# Poissons Ratio (y) = 0.10415 0.10910
# Poissons Ratio (z) = 0.14659 0.16120
#
# Static dielectric constant tensor:
#      x y z
#    x 3.701090 0.000000 0.000000 
#    y 0.000000 3.912820 0.000000 
#    z 0.000000 0.000000 3.985090 
# 
# 
# High freq. dielectric constant tensor:
#      x y z
#    x 1.808820 0.000000 0.000000 
#    y 0.000000 1.816910 0.000000 
#    z 0.000000 0.000000 1.831250 
# 
# From -- ./inp_files/1834.got.cif
#   From: 2010.03.12/outbox.cif.g09.slc.cpg/sg45_1_cif.got.tgz:1834.got - 2010.04.14 02:50:11.
