data_PCOD8190888
_publ_section_title
;
Structure prediction by ZEFSAII (Michael W. Deem and Ramdas Pophale) SiO2 
 PCOD8190888
Probable space group: I B A 2
;
_chemical_formula_sum "Si O2"
_cell_formula_units_Z 60
_cell_length_a 17.836958
_cell_length_b 17.837651
_cell_length_c 7.978466
_cell_angle_alpha 90.000000
_cell_angle_beta 90.000000
_cell_angle_gamma 90.000000
_cell_volume 2538.503993
_symmetry_space_group_name_H-M "I B A 2"
_symmetry_group_IT_number 45
_symmetry_cell_setting 'orthorhombic'
loop_
_space_group_symop_operation_xyz
x,y,z
-x,-y,z
-x,y,1/2+z
x,-y,1/2+z
1/2+x,1/2+y,1/2+z
1/2-x,1/2-y,1/2+z
1/2-x,1/2+y,z
1/2+x,1/2-y,z
loop_
_atom_site_type_symbol
_atom_site_label
_atom_site_fract_x
_atom_site_fract_y
_atom_site_fract_z
Si Si1 0.642458 0.581293 0.149160
Si Si2 0.000000 0.000000 0.557229
Si Si3 0.961834 0.305646 0.452632
Si Si4 0.918699 0.142451 0.465310
Si Si5 0.305657 0.038181 0.661921
Si Si6 0.388543 0.832111 0.305795
Si Si7 0.832141 0.388558 0.308733
Si Si8 0.670133 0.329891 0.307228
O O1 0.572799 0.524048 0.163867
O O2 0.638000 0.638000 0.307225
O O3 0.715954 0.530755 0.177639
O O4 0.644408 0.624120 0.971345
O O5 0.975949 0.072796 0.450596
O O6 0.969236 0.215947 0.436880
O O7 0.929168 0.326919 0.629289
O O8 0.905482 0.335888 0.307207
O O9 0.044749 0.340761 0.440237
O O10 0.875859 0.144386 0.643112
O O11 0.335873 0.094549 0.807338
O O12 0.326929 0.070852 0.485272
O O13 0.340804 0.955284 0.674346
O O14 0.339562 0.758406 0.342127
O O15 0.758434 0.339587 0.272323
#
# Coordination Sequence:
#
# PCOD8190888 Si02
#       8
#     8   4   8   8   8   8   8   8
#     4  11  26  42  66 100 137 184 228 273 343 415
#     4  12  26  40  66 102 144 178 218 280 334 410
#     4  10  24  44  67  97 134 177 232 289 351 417
#     4  11  26  42  66 100 137 184 228 273 343 415
#     4  10  24  44  67  97 134 177 232 289 351 417
#     4  10  23  45  67  99 135 175 232 290 348 422
#     4  10  23  45  67  99 135 175 232 290 348 422
#     4  10  24  45  68  96 140 179 224 282 334 424
#
# _framework density 23.635967000000001
#
# number of rings (size 3 to 8) (size 9 to 14) (size 15 to 20)
#    0.000    1.600    0.000    2.000   16.800    1.600 
#    0.000    2.667    0.000    0.000    0.000    0.000 
#    0.000    0.000    0.000    0.000    0.000    0.000 
#
# Total GULP energy -371912.306022 kJ/mol
# GULP energy per Si atom -12397.076867 kJ/mol
# Density = 2.358217 g / cm^3
# Si number density = 23.635967 Si / 1000 Ang^3
#
#
#
# Elastic Constant Matrix: (Units=GPa)
#
#
# Indices 1 2 3 4 5 6 
#
# 1 91.3986 66.2616 24.1462 0.0000 0.0000 0.0000
# 2 66.2616 91.5698 24.2351 0.0000 0.0000 0.0000
# 3 24.1462 24.2351 88.5170 0.0000 0.0000 0.0000
# 4 0.0000 0.0000 0.0000 21.0241 0.0000 0.0000
# 5 0.0000 0.0000 0.0000 0.0000 21.0382 0.0000
# 6 0.0000 0.0000 0.0000 0.0000 0.0000 47.0560
#
#
#
# Elastic Compliance Matrix: (Units=1/GPa)
#
#
# Indices 1 2 3 4 5 6 
#
# 1 0.023300 -0.016364 -0.001876 0.000000 0.000000 0.000000
# 2 -0.016364 0.023266 -0.001906 0.000000 0.000000 0.000000
# 3 -0.001876 -0.001906 0.012331 0.000000 0.000000 0.000000
# 4 0.000000 0.000000 0.000000 0.047565 0.000000 0.000000
# 5 0.000000 0.000000 0.000000 0.000000 0.047532 0.000000
# 6 0.000000 0.000000 0.000000 0.000000 0.000000 0.021251
#
#
# Mechanical properties :
#
#
# Convention : Reuss Voigt Hill
#
# Bulk Modulus (GPa) = 53.74728 55.64126 54.69427
# Shear Modulus (GPa) = 22.54903 28.27982 25.41443
#
# Velocity S-wave (km/s) = 3.09206 3.46276 3.28265
# Velocity P-wave (km/s) = 5.96127 6.29124 6.12848
#
# Compressibility (1/GPa) = 0.01860559
#
# Stress axis : x y z
#
# Youngs Moduli (GPa) = 42.91842 42.98048 81.09757
#
# Poissons Ratio (x) = 0.70333 0.15211
# Poissons Ratio (y) = 0.70231 0.15459
# Poissons Ratio (z) = 0.08050 0.08193
#
# Static dielectric constant tensor:
#      x y z
#    x 4.546300 0.000000 0.000000 
#    y 0.000000 4.546500 0.000000 
#    z 0.000000 0.000000 4.316590 
# 
# 
# High freq. dielectric constant tensor:
#      x y z
#    x 1.936840 0.000000 0.000000 
#    y 0.000000 1.936840 0.000000 
#    z 0.000000 0.000000 1.939600 
# 
# From -- ./inp_files/2166.got.cif
#   From: 2010.03.12/outbox.cif.g09.slc.cpg/sg45_2_cif.got.tgz:2166.got - 2010.04.14 02:50:11.
