data_PCOD8190532
_publ_section_title
;
Structure prediction by ZEFSAII (Michael W. Deem and Ramdas Pophale) SiO2 
 PCOD8190532
Probable space group: I B A 2
;
_chemical_formula_sum "Si O2"
_cell_formula_units_Z 64
_cell_length_a 8.346141
_cell_length_b 30.281359
_cell_length_c 12.413029
_cell_angle_alpha 90.000000
_cell_angle_beta 90.000000
_cell_angle_gamma 90.000000
_cell_volume 3137.175751
_symmetry_space_group_name_H-M "I B A 2"
_symmetry_group_IT_number 45
_symmetry_cell_setting 'orthorhombic'
loop_
_space_group_symop_operation_xyz
x,y,z
-x,-y,z
-x,y,1/2+z
x,-y,1/2+z
1/2+x,1/2+y,1/2+z
1/2-x,1/2-y,1/2+z
1/2-x,1/2+y,z
1/2+x,1/2-y,z
loop_
_atom_site_type_symbol
_atom_site_label
_atom_site_fract_x
_atom_site_fract_y
_atom_site_fract_z
Si Si1 0.308089 0.703014 0.007170
Si Si2 0.759134 0.803601 0.761967
Si Si3 0.125773 0.040558 0.457964
Si Si4 0.704585 0.594118 0.281094
Si Si5 0.525271 0.237213 0.636653
Si Si6 0.327595 0.021534 0.650455
Si Si7 0.635520 0.396064 0.021252
Si Si8 0.360037 0.442084 0.727186
O O1 0.432751 0.741382 0.035815
O O2 0.159382 0.704910 0.089253
O O3 0.393944 0.656053 0.021983
O O4 0.248026 0.710091 0.886358
O O5 0.795383 0.855076 0.745658
O O6 0.589330 0.792664 0.709064
O O7 0.902608 0.776432 0.708364
O O8 0.282497 0.028096 0.525684
O O9 0.202991 0.061855 0.349723
O O10 0.035007 0.079248 0.522612
O O11 0.000000 0.000000 0.436319
O O12 0.843439 0.566668 0.220544
O O13 0.728274 0.590011 0.411131
O O14 0.545598 0.570516 0.237654
O O15 0.500000 0.000000 0.658860
O O16 0.179581 0.992299 0.695421
O O17 0.722385 0.411198 0.133621
#
# Coordination Sequence:
#
# PCOD8190532 Si02
#       8
#     8   8   8   8   8   8   8   8
#     4  10  21  38  63  93 125 163 201 254 305 369
#     4  10  21  39  64  93 127 160 206 254 306 373
#     4  11  21  38  62  87 113 159 205 249 298 358
#     4  10  21  40  63  89 118 163 207 253 299 359
#     4  10  21  37  63  93 128 162 201 246 318 368
#     4  12  25  39  60  87 127 158 201 257 312 364
#     4  10  20  36  66  88 115 155 210 252 297 351
#     4  11  21  39  64  86 115 155 210 246 292 363
#
# _framework density 20.400513
#
# number of rings (size 3 to 8) (size 9 to 14) (size 15 to 20)
#    0.000    1.500    2.500    3.375    0.000    1.500 
#    0.000    0.000    2.750    0.000    0.000    0.000 
#    0.000    0.000    0.000    0.000    0.000    0.000 
#
# Total GULP energy -396545.563734 kJ/mol
# GULP energy per Si atom -12392.048867 kJ/mol
# Density = 2.035408 g / cm^3
# Si number density = 20.400513 Si / 1000 Ang^3
#
#
#
# Elastic Constant Matrix: (Units=GPa)
#
#
# Indices 1 2 3 4 5 6 
#
# 1 85.0284 51.0173 41.4605 0.0003 -0.0003 -0.0001
# 2 51.0173 114.5552 56.4687 0.0010 -0.0001 0.0002
# 3 41.4605 56.4687 149.6906 0.0039 0.0003 0.0005
# 4 0.0003 0.0010 0.0039 38.0447 -0.0001 0.0003
# 5 -0.0003 -0.0001 0.0003 -0.0001 13.1013 0.0004
# 6 -0.0001 0.0002 0.0005 0.0003 0.0004 24.7673
#
#
#
# Elastic Compliance Matrix: (Units=1/GPa)
#
#
# Indices 1 2 3 4 5 6 
#
# 1 0.016632 -0.006310 -0.002226 0.000000 0.000000 0.000000
# 2 -0.006310 0.013117 -0.003201 0.000000 0.000000 0.000000
# 3 -0.002226 -0.003201 0.008505 -0.000001 0.000000 0.000000
# 4 0.000000 0.000000 -0.000001 0.026285 0.000000 0.000000
# 5 0.000000 0.000000 0.000000 0.000000 0.076328 -0.000001
# 6 0.000000 0.000000 0.000000 0.000000 -0.000001 0.040376
#
#
# Mechanical properties :
#
#
# Convention : Reuss Voigt Hill
#
# Bulk Modulus (GPa) = 67.65747 71.90748 69.78248
# Shear Modulus (GPa) = 23.85003 28.53784 26.19394
#
# Velocity S-wave (km/s) = 3.42290 3.74422 3.58716
# Velocity P-wave (km/s) = 6.98987 7.34960 7.17199
#
# Compressibility (1/GPa) = 0.01478033
#
# Stress axis : x y z
#
# Youngs Moduli (GPa) = 60.12419 76.23597 117.58445
#
# Poissons Ratio (x) = 0.48102 0.26180
# Poissons Ratio (y) = 0.37936 0.37635
# Poissons Ratio (z) = 0.13387 0.24400
#
# Static dielectric constant tensor:
#      x y z
#    x 3.317080 0.000000 0.000000 
#    y 0.000000 3.733700 0.000000 
#    z 0.000000 0.000000 4.112070 
# 
# 
# High freq. dielectric constant tensor:
#      x y z
#    x 1.760260 0.000000 0.000000 
#    y 0.000000 1.798880 0.000000 
#    z 0.000000 0.000000 1.824510 
# 
# From -- ./inp_files/3402.got.cif
#   From: 2010.03.12/outbox.cif.g09.slc.cpg/sg45_2_cif.got.tgz:3402.got - 2010.04.14 02:50:11.
