data_PCOD8190236
_publ_section_title
;
Structure prediction by ZEFSAII (Michael W. Deem and Ramdas Pophale) SiO2 
 PCOD8190236
Probable space group: I M M 2
;
_chemical_formula_sum "Si O2"
_cell_formula_units_Z 32
_cell_length_a 15.157395
_cell_length_b 8.499827
_cell_length_c 11.835018
_cell_angle_alpha 90.000000
_cell_angle_beta 90.000000
_cell_angle_gamma 90.000000
_cell_volume 1524.767328
_symmetry_space_group_name_H-M "I M M 2"
_symmetry_group_IT_number 44
_symmetry_cell_setting 'orthorhombic'
loop_
_space_group_symop_operation_xyz
x,y,z
-x,-y,z
-x,y,z
x,-y,z
1/2+x,1/2+y,1/2+z
1/2-x,1/2-y,1/2+z
1/2-x,1/2+y,1/2+z
1/2+x,1/2-y,1/2+z
loop_
_atom_site_type_symbol
_atom_site_label
_atom_site_fract_x
_atom_site_fract_y
_atom_site_fract_z
Si Si1 0.099336 0.822680 0.991960
Si Si2 0.652277 0.182259 0.264885
Si Si3 0.000000 0.184627 0.613522
Si Si4 0.500000 0.814530 0.865821
Si Si5 0.664184 0.182701 0.712571
O O1 0.108093 0.706660 0.886336
O O2 0.000000 0.809634 0.037850
O O3 0.122252 0.000000 0.953246
O O4 0.162432 0.774340 0.094168
O O5 0.587676 0.240981 0.166741
O O6 0.742336 0.280523 0.268227
O O7 0.672664 0.000000 0.244743
O O8 0.000000 0.217199 0.480898
O O9 0.000000 0.000000 0.638380
O O10 0.413337 0.762795 0.796563
O O11 0.500000 0.000000 0.892507
O O12 0.653715 0.000000 0.685907
#
# Coordination Sequence:
#
# PCOD8190236 Si02
#       5
#     8   8   4   4   8
#     4  11  23  42  69  98 132 169 216 272 329 388
#     4  12  26  44  68  97 133 174 221 270 329 391
#     4  12  26  45  68  95 132 173 221 273 329 392
#     4  10  24  45  68  95 132 173 215 267 327 390
#     4  11  24  44  69  98 133 172 220 269 326 391
#
# _framework density 20.986808
#
# number of rings (size 3 to 8) (size 9 to 14) (size 15 to 20)
#    0.000    0.750    2.500    4.875    3.500    3.000 
#    0.000    0.000    0.000    0.000    0.000    0.000 
#    0.000    0.000    0.000    0.000    0.000    0.000 
#
# Total GULP energy -198528.210791 kJ/mol
# GULP energy per Si atom -12408.013174 kJ/mol
# Density = 2.093904 g / cm^3
# Si number density = 20.986808 Si / 1000 Ang^3
#
#
#
# Elastic Constant Matrix: (Units=GPa)
#
#
# Indices 1 2 3 4 5 6 
#
# 1 130.9584 27.9788 35.6502 0.0000 0.0000 0.0000
# 2 27.9788 68.3486 32.5105 0.0000 0.0000 0.0000
# 3 35.6502 32.5105 118.1644 0.0000 0.0000 0.0000
# 4 0.0000 0.0000 0.0000 38.9253 0.0000 0.0000
# 5 0.0000 0.0000 0.0000 0.0000 24.9265 0.0000
# 6 0.0000 0.0000 0.0000 0.0000 0.0000 32.2398
#
#
#
# Elastic Compliance Matrix: (Units=1/GPa)
#
#
# Indices 1 2 3 4 5 6 
#
# 1 0.008723 -0.002668 -0.001898 0.000000 0.000000 0.000000
# 2 -0.002668 0.017650 -0.004051 0.000000 0.000000 0.000000
# 3 -0.001898 -0.004051 0.010150 0.000000 0.000000 0.000000
# 4 0.000000 0.000000 0.000000 0.025690 0.000000 0.000000
# 5 0.000000 0.000000 0.000000 0.000000 0.040118 0.000000
# 6 0.000000 0.000000 0.000000 0.000000 0.000000 0.031018
#
#
# Mechanical properties :
#
#
# Convention : Reuss Voigt Hill
#
# Bulk Modulus (GPa) = 51.84285 56.63895 54.24090
# Shear Modulus (GPa) = 31.84487 33.97378 32.90933
#
# Velocity S-wave (km/s) = 3.89958 4.02782 3.96422
# Velocity P-wave (km/s) = 6.71057 6.97693 6.84505
#
# Compressibility (1/GPa) = 0.01928906
#
# Stress axis : x y z
#
# Youngs Moduli (GPa) = 114.64478 56.65732 98.52369
#
# Poissons Ratio (x) = 0.15116 0.18695
# Poissons Ratio (y) = 0.30588 0.39913
# Poissons Ratio (z) = 0.21754 0.22952
#
# Static dielectric constant tensor:
#      x y z
#    x 3.814130 0.000000 0.000000 
#    y 0.000000 3.753110 0.000000 
#    z 0.000000 0.000000 3.661930 
# 
# 
# High freq. dielectric constant tensor:
#      x y z
#    x 1.830800 0.000000 0.000000 
#    y 0.000000 1.829940 0.000000 
#    z 0.000000 0.000000 1.828120 
# 
# From -- ./inp_files/10625.got.cif
#   From: 2010.03.12/outbox.cif.g09.slc.cpg/sg44_6_cif.got.tgz:10625.got - 2010.04.14 02:36:11.
