data_PCOD8190919
_publ_section_title
;
Structure prediction by ZEFSAII (Michael W. Deem and Ramdas Pophale) SiO2 
 PCOD8190919
Probable space group: I B A 2
;
_chemical_formula_sum "Si O2"
_cell_formula_units_Z 40
_cell_length_a 14.249384
_cell_length_b 9.098026
_cell_length_c 12.752873
_cell_angle_alpha 90.000000
_cell_angle_beta 90.000000
_cell_angle_gamma 90.000000
_cell_volume 1653.298602
_symmetry_space_group_name_H-M "I B A 2"
_symmetry_group_IT_number 45
_symmetry_cell_setting 'orthorhombic'
loop_
_space_group_symop_operation_xyz
x,y,z
-x,-y,z
-x,y,1/2+z
x,-y,1/2+z
1/2+x,1/2+y,1/2+z
1/2-x,1/2-y,1/2+z
1/2-x,1/2+y,z
1/2+x,1/2-y,z
loop_
_atom_site_type_symbol
_atom_site_label
_atom_site_fract_x
_atom_site_fract_y
_atom_site_fract_z
Si Si1 0.324543 0.846394 0.590830
Si Si2 0.531814 0.192154 0.894781
Si Si3 0.816421 0.038854 0.195190
Si Si4 0.000000 0.500000 0.088239
Si Si5 0.500000 0.500000 0.814023
Si Si6 0.653041 0.059328 0.353716
O O1 0.340210 0.677018 0.620923
O O2 0.325751 0.869219 0.466965
O O3 0.224561 0.904421 0.628946
O O4 0.405356 0.950268 0.649746
O O5 0.533092 0.367012 0.888345
O O6 0.445614 0.136086 0.819871
O O7 0.630833 0.117461 0.858593
O O8 0.517107 0.143276 0.014949
O O9 0.742256 0.092857 0.282625
O O10 0.910116 0.967556 0.242414
#
# Coordination Sequence:
#
# PCOD8190919 Si02
#       6
#     8   8   8   4   4   8
#     4  10  24  43  66  95 127 168 217 269 330 397
#     4   8  18  39  66  92 124 164 206 264 330 390
#     4  12  25  40  65  95 129 173 217 270 326 391
#     4   8  20  44  68  90 122 170 214 262 330 396
#     4  12  24  36  58 100 132 162 216 268 322 386
#     4   9  21  45  68  90 125 172 217 263 330 398
#
# _framework density 24.194057000000001
#
# number of rings (size 3 to 8) (size 9 to 14) (size 15 to 20)
#    0.000    2.800    0.000    2.400    0.000   12.800 
#    0.000    7.000    0.000    0.000    0.000    0.000 
#    0.000    0.000    0.000    0.000    0.000    0.000 
#
# Total GULP energy -247801.092998 kJ/mol
# GULP energy per Si atom -12390.054650 kJ/mol
# Density = 2.413899 g / cm^3
# Si number density = 24.194057 Si / 1000 Ang^3
#
#
#
# Elastic Constant Matrix: (Units=GPa)
#
#
# Indices 1 2 3 4 5 6 
#
# 1 114.6610 4.1751 21.8125 0.0000 0.0000 0.0000
# 2 4.1751 140.7029 22.1431 0.0000 0.0000 0.0000
# 3 21.8125 22.1431 47.9389 0.0000 0.0000 0.0000
# 4 0.0000 0.0000 0.0000 27.9826 0.0000 0.0000
# 5 0.0000 0.0000 0.0000 0.0000 15.4521 0.0000
# 6 0.0000 0.0000 0.0000 0.0000 0.0000 36.4279
#
#
#
# Elastic Compliance Matrix: (Units=1/GPa)
#
#
# Indices 1 2 3 4 5 6 
#
# 1 0.009572 0.000433 -0.004555 0.000000 0.000000 0.000000
# 2 0.000433 0.007684 -0.003746 0.000000 0.000000 0.000000
# 3 -0.004555 -0.003746 0.024663 0.000000 0.000000 0.000000
# 4 0.000000 0.000000 0.000000 0.035737 0.000000 0.000000
# 5 0.000000 0.000000 0.000000 0.000000 0.064716 0.000000
# 6 0.000000 0.000000 0.000000 0.000000 0.000000 0.027451
#
#
# Mechanical properties :
#
#
# Convention : Reuss Voigt Hill
#
# Bulk Modulus (GPa) = 38.19455 44.39601 41.29528
# Shear Modulus (GPa) = 25.73500 32.98397 29.35949
#
# Velocity S-wave (km/s) = 3.26497 3.69631 3.48731
# Velocity P-wave (km/s) = 5.48036 6.05035 5.77239
#
# Compressibility (1/GPa) = 0.02618175
#
# Stress axis : x y z
#
# Youngs Moduli (GPa) = 104.46937 130.14255 40.54664
#
# Poissons Ratio (x) = -0.05633 0.18470
# Poissons Ratio (y) = -0.04522 0.15189
# Poissons Ratio (z) = 0.47589 0.48753
#
# Static dielectric constant tensor:
#      x y z
#    x 4.802280 0.000000 0.000000 
#    y 0.000000 4.063070 0.000000 
#    z 0.000000 0.000000 4.112140 
# 
# 
# High freq. dielectric constant tensor:
#      x y z
#    x 1.971700 0.000000 0.000000 
#    y 0.000000 1.947940 0.000000 
#    z 0.000000 0.000000 1.948650 
# 
# From -- ./inp_files/6413.got.cif
#   From: 2010.03.12/outbox.cif.g09.slc.cpg/sg45_4_cif.got.tgz:6413.got - 2010.04.14 02:50:11.
