data_PCOD8190009
_publ_section_title
;
Structure prediction by ZEFSAII (Michael W. Deem and Ramdas Pophale) SiO2 
 PCOD8190009
Probable space group: I M M 2
;
_chemical_formula_sum "Si O2"
_cell_formula_units_Z 48
_cell_length_a 9.986346
_cell_length_b 8.690156
_cell_length_c 27.824260
_cell_angle_alpha 90.000000
_cell_angle_beta 90.000000
_cell_angle_gamma 90.000000
_cell_volume 2414.670101
_symmetry_space_group_name_H-M "I M M 2"
_symmetry_group_IT_number 44
_symmetry_cell_setting 'orthorhombic'
loop_
_space_group_symop_operation_xyz
x,y,z
-x,-y,z
-x,y,z
x,-y,z
1/2+x,1/2+y,1/2+z
1/2-x,1/2-y,1/2+z
1/2-x,1/2+y,1/2+z
1/2+x,1/2-y,1/2+z
loop_
_atom_site_type_symbol
_atom_site_label
_atom_site_fract_x
_atom_site_fract_y
_atom_site_fract_z
Si Si1 0.241625 0.176150 0.623870
Si Si2 0.741428 0.182079 0.838716
Si Si3 0.000000 0.318135 0.791208
Si Si4 0.000000 0.318163 0.681698
Si Si5 0.651318 0.182727 0.943304
Si Si6 0.000000 0.329220 0.187374
Si Si7 0.653972 0.317158 0.527355
Si Si8 0.500000 0.321562 0.783760
O O1 0.374118 0.193262 0.654068
O O2 0.267002 0.254463 0.572956
O O3 0.128406 0.262603 0.653141
O O4 0.199245 0.000000 0.615671
O O5 0.875433 0.261059 0.821525
O O6 0.702071 0.241495 0.891640
O O7 0.628634 0.233530 0.802218
O O8 0.759407 0.000000 0.837437
O O9 0.000000 0.252228 0.736472
O O10 0.000000 0.500000 0.789011
O O11 0.000000 0.500000 0.683292
O O12 0.500000 0.245992 0.953275
O O13 0.646357 0.000000 0.943742
O O14 0.759156 0.242981 0.982054
O O15 0.000000 0.194804 0.226467
O O16 0.000000 0.500000 0.211078
O O17 0.500000 0.255502 0.524031
O O18 0.652396 0.500000 0.529495
O O19 0.500000 0.500000 0.798497
#
# Coordination Sequence:
#
# PCOD8190009 Si02
#       8
#     8   8   4   4   8   4   8   4
#     4  11  23  41  63  90 124 159 202 256 309 366
#     4  11  22  40  66  92 123 166 212 255 303 369
#     4  11  25  43  62  93 130 164 205 260 318 369
#     4  11  25  43  62  87 122 165 209 251 306 371
#     4   9  19  37  62  92 122 157 208 257 295 355
#     4  10  22  40  63  88 119 161 207 249 301 372
#     4  10  21  37  62  93 124 160 205 253 304 364
#     4  12  24  38  61  92 127 160 201 260 315 366
#
# _framework density 19.878491
#
# number of rings (size 3 to 8) (size 9 to 14) (size 15 to 20)
#    0.000    1.500    1.667    3.250    2.333    5.333 
#    0.000    1.667    0.000    0.000    0.000    0.000 
#    0.000    0.000    0.000    0.000    0.000    0.000 
#
# Total GULP energy -297619.335686 kJ/mol
# GULP energy per Si atom -12400.805654 kJ/mol
# Density = 1.983325 g / cm^3
# Si number density = 19.878491 Si / 1000 Ang^3
#
#
#
# Elastic Constant Matrix: (Units=GPa)
#
#
# Indices 1 2 3 4 5 6 
#
# 1 152.8728 30.6484 58.0376 0.0000 0.0000 0.0000
# 2 30.6484 48.8879 28.3013 0.0000 0.0000 0.0000
# 3 58.0376 28.3013 132.3535 0.0000 0.0000 0.0000
# 4 0.0000 0.0000 0.0000 27.5490 0.0000 0.0000
# 5 0.0000 0.0000 0.0000 0.0000 33.4166 0.0000
# 6 0.0000 0.0000 0.0000 0.0000 0.0000 29.4056
#
#
#
# Elastic Compliance Matrix: (Units=1/GPa)
#
#
# Indices 1 2 3 4 5 6 
#
# 1 0.008357 -0.003558 -0.002904 0.000000 0.000000 0.000000
# 2 -0.003558 0.024860 -0.003755 0.000000 0.000000 0.000000
# 3 -0.002904 -0.003755 0.009632 0.000000 0.000000 0.000000
# 4 0.000000 0.000000 0.000000 0.036299 0.000000 0.000000
# 5 0.000000 0.000000 0.000000 0.000000 0.029925 0.000000
# 6 0.000000 0.000000 0.000000 0.000000 0.000000 0.034007
#
#
# Mechanical properties :
#
#
# Convention : Reuss Voigt Hill
#
# Bulk Modulus (GPa) = 44.61541 63.12097 53.86819
# Shear Modulus (GPa) = 29.24211 32.54937 30.89574
#
# Velocity S-wave (km/s) = 3.83958 4.05089 3.94665
# Velocity P-wave (km/s) = 6.49225 7.32816 6.92283
#
# Compressibility (1/GPa) = 0.02241378
#
# Stress axis : x y z
#
# Youngs Moduli (GPa) = 119.65792 40.22577 103.82173
#
# Poissons Ratio (x) = 0.14313 0.30148
# Poissons Ratio (y) = 0.42577 0.38990
# Poissons Ratio (z) = 0.34746 0.15107
#
# Static dielectric constant tensor:
#      x y z
#    x 4.354290 0.000000 0.000000 
#    y 0.000000 3.523990 0.000000 
#    z 0.000000 0.000000 3.846100 
# 
# 
# High freq. dielectric constant tensor:
#      x y z
#    x 1.795270 0.000000 0.000000 
#    y 0.000000 1.759890 0.000000 
#    z 0.000000 0.000000 1.789340 
# 
# From -- ./inp_files/27031.got.cif
#   From: 2010.03.12/outbox.cif.g09.slc.cpg/sg44_14_cif.got.tgz:27031.got - 2010.04.14 02:36:11.
