data_PCOD8190931
_publ_section_title
;
Structure prediction by ZEFSAII (Michael W. Deem and Ramdas Pophale) SiO2 
 PCOD8190931
Probable space group: I B A 2
;
_chemical_formula_sum "Si O2"
_cell_formula_units_Z 40
_cell_length_a 19.848264
_cell_length_b 8.525590
_cell_length_c 9.617044
_cell_angle_alpha 90.000000
_cell_angle_beta 90.000000
_cell_angle_gamma 90.000000
_cell_volume 1627.378501
_symmetry_space_group_name_H-M "I B A 2"
_symmetry_group_IT_number 45
_symmetry_cell_setting 'orthorhombic'
loop_
_space_group_symop_operation_xyz
x,y,z
-x,-y,z
-x,y,1/2+z
x,-y,1/2+z
1/2+x,1/2+y,1/2+z
1/2-x,1/2-y,1/2+z
1/2-x,1/2+y,z
1/2+x,1/2-y,z
loop_
_atom_site_type_symbol
_atom_site_label
_atom_site_fract_x
_atom_site_fract_y
_atom_site_fract_z
Si Si1 0.844708 0.440886 0.527850
Si Si2 0.750000 0.298676 0.928201
Si Si3 0.930022 0.915688 0.599856
Si Si4 0.844708 0.940886 0.328551
Si Si5 0.069978 0.415688 0.756545
O O1 0.807582 0.605144 0.504862
O O2 0.786603 0.310233 0.543892
O O3 0.886614 0.459300 0.668519
O O4 0.893885 0.389249 0.403033
O O5 0.692418 0.394857 0.851541
O O6 0.786603 0.189768 0.812510
O O7 0.940263 0.750000 0.678200
O O8 0.893886 0.889249 0.453366
O O9 0.886613 0.040699 0.687881
O O10 0.000000 0.000000 0.568154
O O11 0.000000 0.500000 0.788250
#
# Coordination Sequence:
#
# PCOD8190931 Si02
#       5
#     8   8   8   8   8
#     4  11  25  46  72 104 139 179 232 282 350 407
#     4  10  24  44  74 104 136 184 224 286 344 420
#     4  12  28  47  71 102 140 185 234 286 341 408
#     4  11  25  46  72 104 139 179 232 282 350 407
#     4  12  28  47  71 102 140 185 234 286 341 408
#
# _framework density 24.579407
#
# number of rings (size 3 to 8) (size 9 to 14) (size 15 to 20)
#    0.000    0.800    4.000    1.200    5.600   12.800 
#    0.000    0.000    0.000    0.000    0.000    0.000 
#    0.000    0.000    0.000    0.000    0.000    0.000 
#
# Total GULP energy -248061.861072 kJ/mol
# GULP energy per Si atom -12403.093054 kJ/mol
# Density = 2.452346 g / cm^3
# Si number density = 24.579407 Si / 1000 Ang^3
#
#
#
# Elastic Constant Matrix: (Units=GPa)
#
#
# Indices 1 2 3 4 5 6 
#
# 1 121.7059 33.5065 6.5797 0.0000 0.0000 0.0000
# 2 33.5065 96.1524 -20.4827 0.0000 0.0000 0.0000
# 3 6.5797 -20.4827 60.6536 0.0000 0.0000 0.0000
# 4 0.0000 0.0000 0.0000 19.3012 0.0000 0.0000
# 5 0.0000 0.0000 0.0000 0.0000 -2.3173 0.0000
# 6 0.0000 0.0000 0.0000 0.0000 0.0000 -3.1708
#
#
#
# Elastic Compliance Matrix: (Units=1/GPa)
#
#
# Indices 1 2 3 4 5 6 
#
# 1 0.009373 -0.003753 -0.002284 0.000000 0.000000 0.000000
# 2 -0.003753 0.012709 0.004699 0.000000 0.000000 0.000000
# 3 -0.002284 0.004699 0.018322 0.000000 0.000000 0.000000
# 4 0.000000 0.000000 0.000000 0.051810 0.000000 0.000000
# 5 0.000000 0.000000 0.000000 0.000000 -0.431530 0.000000
# 6 0.000000 0.000000 0.000000 0.000000 0.000000 -0.315379
#
#
# Mechanical properties :
#
#
# Convention : Reuss Voigt Hill
#
# Bulk Modulus (GPa) = 26.50587 35.30212 30.90399
# Shear Modulus (GPa) = -7.81930 20.02318 6.10194
#
# Velocity S-wave (km/s) = -1.78554 2.85727 1.57732
# Velocity P-wave (km/s) = 2.56053 5.02782 3.98969
#
# Compressibility (1/GPa) = 0.03772749
#
# Stress axis : x y z
#
# Youngs Moduli (GPa) = 106.68704 78.68496 54.58022
#
# Poissons Ratio (x) = 0.29530 0.12467
# Poissons Ratio (y) = 0.40038 -0.25647
# Poissons Ratio (z) = 0.24369 -0.36973
#
# Static dielectric constant tensor:
#      x y z
#    x 4.670430 0.000000 0.000000 
#    y 0.000000 4.603580 0.000000 
#    z 0.000000 0.000000 4.105570 
# 
# 
# High freq. dielectric constant tensor:
#      x y z
#    x 1.998670 0.000000 0.000000 
#    y 0.000000 1.996170 0.000000 
#    z 0.000000 0.000000 1.959290 
# 
# From -- ./inp_files/1268.got.cif
#   From: 2010.03.12/outbox.cif.g09.slc.cpg/sg45_1_cif.got.tgz:1268.got - 2010.04.14 02:50:11.
