data_PCOD8190509
_publ_section_title
;
Structure prediction by ZEFSAII (Michael W. Deem and Ramdas Pophale) SiO2 
 PCOD8190509
Probable space group: I B A 2
;
_chemical_formula_sum "Si O2"
_cell_formula_units_Z 56
_cell_length_a 22.034793
_cell_length_b 22.032850
_cell_length_c 5.453206
_cell_angle_alpha 90.000000
_cell_angle_beta 90.000000
_cell_angle_gamma 90.000000
_cell_volume 2647.473103
_symmetry_space_group_name_H-M "I B A 2"
_symmetry_group_IT_number 45
_symmetry_cell_setting 'orthorhombic'
loop_
_space_group_symop_operation_xyz
x,y,z
-x,-y,z
-x,y,1/2+z
x,-y,1/2+z
1/2+x,1/2+y,1/2+z
1/2-x,1/2-y,1/2+z
1/2-x,1/2+y,z
1/2+x,1/2-y,z
loop_
_atom_site_type_symbol
_atom_site_label
_atom_site_fract_x
_atom_site_fract_y
_atom_site_fract_z
Si Si1 0.752389 0.339258 0.513010
Si Si2 0.384760 0.017842 0.021195
Si Si3 0.029382 0.253311 0.210170
Si Si4 0.642519 0.142530 0.665513
Si Si5 0.017842 0.384717 0.809907
Si Si6 0.246631 0.470616 0.120984
Si Si7 0.660736 0.247641 0.318021
O O1 0.792214 0.363673 0.287569
O O2 0.735955 0.399720 0.664369
O O3 0.690843 0.309175 0.415543
O O4 0.789481 0.289446 0.665434
O O5 0.364093 0.087233 0.970242
O O6 0.420747 0.012647 0.288643
O O7 0.326411 0.977746 0.105788
O O8 0.100269 0.235894 0.166781
O O9 0.004501 0.226103 0.469117
O O10 0.022251 0.326360 0.225354
O O11 0.587231 0.135943 0.860816
O O12 0.636332 0.207799 0.543435
O O13 0.012638 0.420709 0.542468
O O14 0.273837 0.504501 0.362038
#
# Coordination Sequence:
#
# PCOD8190509 Si02
#       7
#     8   8   8   8   8   8   8
#     4  12  24  35  56  91 127 153 188 249 320 374
#     4  10  20  35  55  76  98 150 195 231 273 338
#     4  10  20  39  57  76 110 161 203 232 278 369
#     4  12  22  36  58  79 114 150 190 235 292 360
#     4  10  20  35  55  76  98 150 195 231 273 338
#     4  10  20  39  57  76 110 161 203 232 278 369
#     4  12  24  35  56  91 127 153 188 249 320 374
#
# _framework density 21.152244
#
# number of rings (size 3 to 8) (size 9 to 14) (size 15 to 20)
#    0.000    1.143    7.143    3.429    0.000    0.000 
#    0.000    0.000    0.000    2.571    0.000    0.000 
#    0.000    3.429    0.000    0.000    0.000    0.000 
#
# Total GULP energy -346982.404995 kJ/mol
# GULP energy per Si atom -12392.228750 kJ/mol
# Density = 2.110410 g / cm^3
# Si number density = 21.152244 Si / 1000 Ang^3
#
#
#
# Elastic Constant Matrix: (Units=GPa)
#
#
# Indices 1 2 3 4 5 6 
#
# 1 66.2072 45.3094 23.1753 0.0000 0.0000 0.0000
# 2 45.3094 66.0665 23.1432 0.0000 0.0000 0.0000
# 3 23.1753 23.1432 141.4740 0.0000 0.0000 0.0000
# 4 0.0000 0.0000 0.0000 27.8743 0.0000 0.0000
# 5 0.0000 0.0000 0.0000 0.0000 27.8797 0.0000
# 6 0.0000 0.0000 0.0000 0.0000 0.0000 2.9047
#
#
#
# Elastic Compliance Matrix: (Units=1/GPa)
#
#
# Indices 1 2 3 4 5 6 
#
# 1 0.028791 -0.019193 -0.001577 0.000000 0.000000 0.000000
# 2 -0.019193 0.028851 -0.001576 0.000000 0.000000 0.000000
# 3 -0.001577 -0.001576 0.007584 0.000000 0.000000 0.000000
# 4 0.000000 0.000000 0.000000 0.035875 0.000000 0.000000
# 5 0.000000 0.000000 0.000000 0.000000 0.035868 0.000000
# 6 0.000000 0.000000 0.000000 0.000000 0.000000 0.344267
#
#
# Mechanical properties :
#
#
# Convention : Reuss Voigt Hill
#
# Bulk Modulus (GPa) = 48.69483 50.77817 49.73650
# Shear Modulus (GPa) = 9.38488 23.87306 16.62897
#
# Velocity S-wave (km/s) = 2.10866 3.36315 2.80689
# Velocity P-wave (km/s) = 5.38514 6.25614 5.83691
#
# Compressibility (1/GPa) = 0.02053606
#
# Stress axis : x y z
#
# Youngs Moduli (GPa) = 34.73333 34.66089 131.84878
#
# Poissons Ratio (x) = 0.66524 0.20788
# Poissons Ratio (y) = 0.66663 0.20774
# Poissons Ratio (z) = 0.05476 0.05461
#
# Static dielectric constant tensor:
#      x y z
#    x 3.634510 0.000000 0.000000 
#    y 0.000000 3.634130 0.000000 
#    z 0.000000 0.000000 5.018070 
# 
# 
# High freq. dielectric constant tensor:
#      x y z
#    x 1.788970 0.000000 0.000000 
#    y 0.000000 1.788940 0.000000 
#    z 0.000000 0.000000 1.856830 
# 
# From -- ./inp_files/442.got.cif
#   From: 2010.03.12/outbox.cif.g09.slc.cpg/sg45_1_cif.got.tgz:442.got - 2010.04.14 02:50:11.
