data_PCOD8190230
_publ_section_title
;
Structure prediction by ZEFSAII (Michael W. Deem and Ramdas Pophale) SiO2 
 PCOD8190230
Probable space group: I M M 2
;
_chemical_formula_sum "Si O2"
_cell_formula_units_Z 40
_cell_length_a 28.517521
_cell_length_b 8.535081
_cell_length_c 7.798475
_cell_angle_alpha 90.000000
_cell_angle_beta 90.000000
_cell_angle_gamma 90.000000
_cell_volume 1898.143759
_symmetry_space_group_name_H-M "I M M 2"
_symmetry_group_IT_number 44
_symmetry_cell_setting 'orthorhombic'
loop_
_space_group_symop_operation_xyz
x,y,z
-x,-y,z
-x,y,z
x,-y,z
1/2+x,1/2+y,1/2+z
1/2-x,1/2-y,1/2+z
1/2-x,1/2+y,1/2+z
1/2+x,1/2-y,1/2+z
loop_
_atom_site_type_symbol
_atom_site_label
_atom_site_fract_x
_atom_site_fract_y
_atom_site_fract_z
Si Si1 0.699748 0.182420 0.449770
Si Si2 0.891705 0.317255 0.451548
Si Si3 0.554663 0.182031 0.613367
Si Si4 0.390376 0.318077 0.303344
Si Si5 0.699343 0.681938 0.815847
O O1 0.657496 0.219031 0.321029
O O2 0.690307 0.284137 0.617581
O O3 0.748213 0.235094 0.363013
O O4 0.700137 0.000000 0.498649
O O5 0.900079 0.500000 0.478678
O O6 0.919507 0.256439 0.284306
O O7 0.911848 0.228110 0.618437
O O8 0.836588 0.280821 0.430546
O O9 0.500000 0.212658 0.637583
O O10 0.572312 0.278151 0.450112
O O11 0.566387 0.000000 0.582587
O O12 0.378242 0.500000 0.309780
O O13 0.690916 0.500000 0.853691
#
# Coordination Sequence:
#
# PCOD8190230 Si02
#       5
#     8   8   8   8   8
#     4  11  23  39  60  89 128 173 218 262 320 389
#     4  11  23  41  67  95 130 173 217 266 324 388
#     4  10  23  45  71  97 127 169 220 271 327 392
#     4  12  25  41  65  96 133 171 215 271 328 382
#     4  11  23  38  60  92 129 169 216 269 323 379
#
# _framework density 21.073217
#
# number of rings (size 3 to 8) (size 9 to 14) (size 15 to 20)
#    0.000    1.000    2.000    4.800    0.000    8.400 
#    0.000    2.000    0.000    0.000    0.000    0.000 
#    0.000    0.000    0.000    0.000    0.000    0.000 
#
# Total GULP energy -248155.295793 kJ/mol
# GULP energy per Si atom -12407.764790 kJ/mol
# Density = 2.102525 g / cm^3
# Si number density = 21.073217 Si / 1000 Ang^3
#
#
#
# Elastic Constant Matrix: (Units=GPa)
#
#
# Indices 1 2 3 4 5 6 
#
# 1 101.9472 23.9938 37.4296 0.0000 0.0000 0.0000
# 2 23.9938 62.5046 28.7505 0.0000 0.0000 0.0000
# 3 37.4296 28.7505 143.6639 0.0000 0.0000 0.0000
# 4 0.0000 0.0000 0.0000 31.1642 0.0000 0.0000
# 5 0.0000 0.0000 0.0000 0.0000 28.5152 0.0000
# 6 0.0000 0.0000 0.0000 0.0000 0.0000 28.8835
#
#
#
# Elastic Compliance Matrix: (Units=1/GPa)
#
#
# Indices 1 2 3 4 5 6 
#
# 1 0.011442 -0.003327 -0.002315 0.000000 0.000000 0.000000
# 2 -0.003327 0.018588 -0.002853 0.000000 0.000000 0.000000
# 3 -0.002315 -0.002853 0.008135 0.000000 0.000000 0.000000
# 4 0.000000 0.000000 0.000000 0.032088 0.000000 0.000000
# 5 0.000000 0.000000 0.000000 0.000000 0.035069 0.000000
# 6 0.000000 0.000000 0.000000 0.000000 0.000000 0.034622
#
#
# Mechanical properties :
#
#
# Convention : Reuss Voigt Hill
#
# Bulk Modulus (GPa) = 47.22749 54.27372 50.75061
# Shear Modulus (GPa) = 30.48897 32.24204 31.36550
#
# Velocity S-wave (km/s) = 3.80782 3.91577 3.86217
# Velocity P-wave (km/s) = 6.46471 6.80111 6.63504
#
# Compressibility (1/GPa) = 0.02117411
#
# Stress axis : x y z
#
# Youngs Moduli (GPa) = 87.39629 53.79688 122.92787
#
# Poissons Ratio (x) = 0.17900 0.28460
# Poissons Ratio (y) = 0.29080 0.35072
# Poissons Ratio (z) = 0.20234 0.15349
#
# Static dielectric constant tensor:
#      x y z
#    x 3.793290 0.000000 0.000000 
#    y 0.000000 3.675420 0.000000 
#    z 0.000000 0.000000 3.938930 
# 
# 
# High freq. dielectric constant tensor:
#      x y z
#    x 1.821210 0.000000 0.000000 
#    y 0.000000 1.823690 0.000000 
#    z 0.000000 0.000000 1.840020 
# 
# From -- ./inp_files/9598.got.cif
#   From: 2010.03.12/outbox.cif.g09.slc.cpg/sg44_5_cif.got.tgz:9598.got - 2010.04.14 02:36:11.
