data_PCOD8190041
_publ_section_title
;
Structure prediction by ZEFSAII (Michael W. Deem and Ramdas Pophale) SiO2 
 PCOD8190041
Probable space group: I M M 2
;
_chemical_formula_sum "Si O2"
_cell_formula_units_Z 64
_cell_length_a 21.324904
_cell_length_b 16.736415
_cell_length_c 8.715824
_cell_angle_alpha 90.000000
_cell_angle_beta 90.000000
_cell_angle_gamma 90.000000
_cell_volume 3110.698880
_symmetry_space_group_name_H-M "I M M 2"
_symmetry_group_IT_number 44
_symmetry_cell_setting 'orthorhombic'
loop_
_space_group_symop_operation_xyz
x,y,z
-x,-y,z
-x,y,z
x,-y,z
1/2+x,1/2+y,1/2+z
1/2-x,1/2-y,1/2+z
1/2-x,1/2+y,1/2+z
1/2+x,1/2-y,1/2+z
loop_
_atom_site_type_symbol
_atom_site_label
_atom_site_fract_x
_atom_site_fract_y
_atom_site_fract_z
Si Si1 0.928560 0.638734 0.832670
Si Si2 0.931406 0.749031 0.342946
Si Si3 0.700215 0.691120 0.836334
Si Si4 0.717640 0.126046 0.834986
Si Si5 0.824988 0.910626 0.629623
Si Si6 0.068977 0.796444 0.681917
Si Si7 0.197655 0.412696 0.672844
Si Si8 0.096634 0.591296 0.177856
O O1 0.918888 0.734665 0.821255
O O2 0.872620 0.599916 0.735525
O O3 0.000000 0.617198 0.773983
O O4 0.923277 0.610833 0.006140
O O5 0.872639 0.801021 0.273624
O O6 0.919597 0.746345 0.525364
O O7 0.934435 0.656884 0.289684
O O8 0.000000 0.788161 0.304392
O O9 0.725443 0.779787 0.863036
O O10 0.748212 0.650007 0.718766
O O11 0.704353 0.642926 0.994933
O O12 0.782663 0.088870 0.781248
O O13 0.670977 0.102428 0.696311
O O14 0.692774 0.086306 0.989627
O O15 0.889348 0.874571 0.690629
O O16 0.836201 0.000000 0.568014
O O17 0.000000 0.832150 0.689665
O O18 0.219491 0.500000 0.729983
O O19 0.075727 0.500000 0.217164
#
# Coordination Sequence:
#
# PCOD8190041 Si02
#       8
#     8   8   8   8   8   8   8   8
#     4  11  23  39  59  84 117 156 194 233 283 348
#     4   9  19  37  60  85 115 153 194 236 284 346
#     4  10  21  38  61  86 115 154 194 235 286 347
#     4  11  23  40  59  83 115 155 196 233 285 351
#     4  11  21  36  60  89 119 148 191 250 299 338
#     4   9  20  39  60  83 114 154 198 236 284 353
#     4  12  24  39  60  86 117 150 191 241 290 340
#     4  11  22  36  56  85 119 151 190 240 290 339
#
# _framework density 20.574155000000001
#
# number of rings (size 3 to 8) (size 9 to 14) (size 15 to 20)
#    0.000    1.500    0.000    6.750    0.000    5.000 
#    0.000    1.250    0.000   10.125    0.000    0.000 
#    0.000    4.000    0.000    0.000    0.000    0.000 
#
# Total GULP energy -396541.077958 kJ/mol
# GULP energy per Si atom -12391.908686 kJ/mol
# Density = 2.052733 g / cm^3
# Si number density = 20.574155 Si / 1000 Ang^3
#
#
#
# Elastic Constant Matrix: (Units=GPa)
#
#
# Indices 1 2 3 4 5 6 
#
# 1 143.2903 54.0564 43.9177 0.0000 0.0000 0.0000
# 2 54.0564 130.3287 32.0895 0.0000 0.0000 0.0000
# 3 43.9177 32.0895 61.2371 0.0000 0.0000 0.0000
# 4 0.0000 0.0000 0.0000 25.0171 0.0000 0.0000
# 5 0.0000 0.0000 0.0000 0.0000 23.4462 0.0000
# 6 0.0000 0.0000 0.0000 0.0000 0.0000 14.6671
#
#
#
# Elastic Compliance Matrix: (Units=1/GPa)
#
#
# Indices 1 2 3 4 5 6 
#
# 1 0.009680 -0.002647 -0.005555 0.000000 0.000000 0.000000
# 2 -0.002647 0.009533 -0.003097 0.000000 0.000000 0.000000
# 3 -0.005555 -0.003097 0.021937 0.000000 0.000000 0.000000
# 4 0.000000 0.000000 0.000000 0.039973 0.000000 0.000000
# 5 0.000000 0.000000 0.000000 0.000000 0.042651 0.000000
# 6 0.000000 0.000000 0.000000 0.000000 0.000000 0.068180
#
#
# Mechanical properties :
#
#
# Convention : Reuss Voigt Hill
#
# Bulk Modulus (GPa) = 53.90424 66.10925 60.00675
# Shear Modulus (GPa) = 22.65141 26.27892 24.46517
#
# Velocity S-wave (km/s) = 3.32168 3.57778 3.45210
# Velocity P-wave (km/s) = 6.40064 7.01921 6.71705
#
# Compressibility (1/GPa) = 0.01855142
#
# Stress axis : x y z
#
# Youngs Moduli (GPa) = 103.30443 104.89334 45.58514
#
# Poissons Ratio (x) = 0.27768 0.25323
# Poissons Ratio (y) = 0.27347 0.14119
# Poissons Ratio (z) = 0.57387 0.32488
#
# Static dielectric constant tensor:
#      x y z
#    x 4.051380 0.000000 0.000000 
#    y 0.000000 3.734700 0.000000 
#    z 0.000000 0.000000 3.597560 
# 
# 
# High freq. dielectric constant tensor:
#      x y z
#    x 1.820360 0.000000 0.000000 
#    y 0.000000 1.798070 0.000000 
#    z 0.000000 0.000000 1.788280 
# 
# From -- ./inp_files/9036.got.cif
#   From: 2010.03.12/outbox.cif.g09.slc.cpg/sg44_5_cif.got.tgz:9036.got - 2010.04.14 02:36:11.
