data_PCOD8190672
_publ_section_title
;
Structure prediction by ZEFSAII (Michael W. Deem and Ramdas Pophale) SiO2 
 PCOD8190672
Probable space group: I B A 2
;
_chemical_formula_sum "Si O2"
_cell_formula_units_Z 52
_cell_length_a 7.912554
_cell_length_b 22.770186
_cell_length_c 12.072117
_cell_angle_alpha 90.000000
_cell_angle_beta 90.000000
_cell_angle_gamma 90.000000
_cell_volume 2175.037259
_symmetry_space_group_name_H-M "I B A 2"
_symmetry_group_IT_number 45
_symmetry_cell_setting 'orthorhombic'
loop_
_space_group_symop_operation_xyz
x,y,z
-x,-y,z
-x,y,1/2+z
x,-y,1/2+z
1/2+x,1/2+y,1/2+z
1/2-x,1/2-y,1/2+z
1/2-x,1/2+y,z
1/2+x,1/2-y,z
loop_
_atom_site_type_symbol
_atom_site_label
_atom_site_fract_x
_atom_site_fract_y
_atom_site_fract_z
Si Si1 0.406265 0.190450 0.557310
Si Si2 0.406265 0.809550 0.796573
Si Si3 0.000000 0.000000 0.676942
Si Si4 0.895144 0.107490 0.058223
Si Si5 0.285106 0.320198 0.556802
Si Si6 0.214895 0.179802 0.797082
Si Si7 0.895144 0.892510 0.295661
O O1 0.415637 0.178990 0.426942
O O2 0.366255 0.257656 0.583341
O O3 0.593839 0.175811 0.609488
O O4 0.253165 0.149860 0.606612
O O5 0.593838 0.824189 0.744395
O O6 0.366255 0.742344 0.770543
O O7 0.253165 0.850140 0.747272
O O8 0.121519 0.959565 0.753776
O O9 0.878481 0.959565 0.600109
O O10 0.083621 0.129286 0.097348
O O11 0.882162 0.109699 0.926942
O O12 0.259794 0.327684 0.426942
O O13 0.083621 0.129285 0.756535
#
# Coordination Sequence:
#
# PCOD8190672 Si02
#       7
#     8   8   4   8   8   8   8
#     4   9  15  28  57  93 119 143 180 231 297 355
#     4   9  15  28  57  93 119 143 180 231 297 355
#     4  12  26  44  58  78 112 166 214 230 266 334
#     4  10  21  39  61  84 117 153 190 240 284 334
#     4   9  15  28  57  93 119 143 180 231 297 355
#     4   9  15  28  57  93 119 143 180 231 297 355
#     4  10  21  39  61  84 117 153 190 240 284 334
#
# _framework density 23.907637999999999
#
# number of rings (size 3 to 8) (size 9 to 14) (size 15 to 20)
#    0.000    2.462    3.077    0.462    0.000    0.000 
#    0.000    6.154    0.000    7.385    0.000    0.000 
#    0.000    0.000    0.000    0.000    0.000    0.000 
#
# Total GULP energy -322553.930233 kJ/mol
# GULP energy per Si atom -12405.920394 kJ/mol
# Density = 2.385322 g / cm^3
# Si number density = 23.907638 Si / 1000 Ang^3
#
#
#
# Elastic Constant Matrix: (Units=GPa)
#
#
# Indices 1 2 3 4 5 6 
#
# 1 205.8952 88.1809 96.6519 0.0000 0.0000 0.0000
# 2 88.1809 166.0971 28.8605 0.0002 0.0000 0.0000
# 3 96.6519 28.8605 85.6175 0.0007 -0.0001 0.0001
# 4 0.0000 0.0002 0.0007 45.9834 0.0000 0.0000
# 5 0.0000 0.0000 -0.0001 0.0000 60.4493 0.0000
# 6 0.0000 0.0000 0.0001 0.0000 0.0000 28.1226
#
#
#
# Elastic Compliance Matrix: (Units=1/GPa)
#
#
# Indices 1 2 3 4 5 6 
#
# 1 0.012984 -0.004617 -0.013101 0.000000 0.000000 0.000000
# 2 -0.004617 0.008037 0.002503 0.000000 0.000000 0.000000
# 3 -0.013101 0.002503 0.025626 0.000000 0.000000 0.000000
# 4 0.000000 0.000000 0.000000 0.021747 0.000000 0.000000
# 5 0.000000 0.000000 0.000000 0.000000 0.016543 0.000000
# 6 0.000000 0.000000 0.000000 0.000000 0.000000 0.035559
#
#
# Mechanical properties :
#
#
# Convention : Reuss Voigt Hill
#
# Bulk Modulus (GPa) = 61.66667 98.33292 79.99980
# Shear Modulus (GPa) = 31.98330 43.17218 37.57774
#
# Velocity S-wave (km/s) = 3.66154 4.25407 3.96888
# Velocity P-wave (km/s) = 6.61253 8.08388 7.38494
#
# Compressibility (1/GPa) = 0.01621621
#
# Stress axis : x y z
#
# Youngs Moduli (GPa) = 77.01655 124.42782 39.02283
#
# Poissons Ratio (x) = 0.57447 0.51125
# Poissons Ratio (y) = 0.35558 -0.09767
# Poissons Ratio (z) = 1.00902 -0.31142
#
# Static dielectric constant tensor:
#      x y z
#    x 4.900980 0.000000 0.000000 
#    y 0.000000 3.894050 0.000000 
#    z 0.000000 0.000000 5.200490 
# 
# 
# High freq. dielectric constant tensor:
#      x y z
#    x 1.968570 0.000000 0.000000 
#    y 0.000000 1.895730 0.000000 
#    z 0.000000 0.000000 2.060660 
# 
# From -- ./inp_files/5695.got.cif
#   From: 2010.03.12/outbox.cif.g09.slc.cpg/sg45_3_cif.got.tgz:5695.got - 2010.04.14 02:50:11.
