data_PCOD8190573
_publ_section_title
;
Structure prediction by ZEFSAII (Michael W. Deem and Ramdas Pophale) SiO2 
 PCOD8190573
Probable space group: I B A 2
;
_chemical_formula_sum "Si O2"
_cell_formula_units_Z 52
_cell_length_a 7.177885
_cell_length_b 17.002727
_cell_length_c 20.097805
_cell_angle_alpha 90.000000
_cell_angle_beta 90.000000
_cell_angle_gamma 90.000000
_cell_volume 2452.808858
_symmetry_space_group_name_H-M "I B A 2"
_symmetry_group_IT_number 45
_symmetry_cell_setting 'orthorhombic'
loop_
_space_group_symop_operation_xyz
x,y,z
-x,-y,z
-x,y,1/2+z
x,-y,1/2+z
1/2+x,1/2+y,1/2+z
1/2-x,1/2-y,1/2+z
1/2-x,1/2+y,z
1/2+x,1/2-y,z
loop_
_atom_site_type_symbol
_atom_site_label
_atom_site_fract_x
_atom_site_fract_y
_atom_site_fract_z
Si Si1 0.890024 0.636714 0.415940
Si Si2 0.370412 0.573493 0.537148
Si Si3 0.822206 0.817519 0.275416
Si Si4 0.694107 0.308298 0.424959
Si Si5 0.101474 0.642555 0.768072
Si Si6 0.500000 0.000000 0.501875
Si Si7 0.909440 0.916271 0.686511
O O1 0.786067 0.715295 0.443507
O O2 0.831080 0.614842 0.341151
O O3 0.104520 0.657470 0.416738
O O4 0.865390 0.558732 0.459912
O O5 0.500000 0.500000 0.518536
O O6 0.410204 0.641203 0.482061
O O7 0.151492 0.549039 0.543668
O O8 0.420591 0.608438 0.609212
O O9 0.899797 0.819726 0.352082
O O10 0.809499 0.727442 0.253468
O O11 0.622558 0.858742 0.263454
O O12 0.973968 0.855656 0.229052
O O13 0.195751 0.584312 0.713889
O O14 0.000000 0.000000 0.697478
#
# Coordination Sequence:
#
# PCOD8190573 Si02
#       7
#     8   8   8   8   8   4   8
#     4   9  20  36  64  94 120 153 210 254 320 373
#     4  10  24  43  60  87 128 167 210 253 310 373
#     4  10  20  39  66  93 125 161 210 261 313 366
#     4   9  20  38  61  95 120 159 208 262 310 363
#     4  10  20  39  65  90 126 160 200 266 309 370
#     4  10  22  42  60  90 126 164 200 264 312 370
#     4  11  25  41  59  94 127 168 216 248 313 382
#
# _framework density 21.200184
#
# number of rings (size 3 to 8) (size 9 to 14) (size 15 to 20)
#    0.000    2.154    1.538    0.000    4.308    7.385 
#    5.538    0.000    0.000    0.000    0.000    0.000 
#    0.000    0.000    0.000    0.000    0.000    0.000 
#
# Total GULP energy -322254.903809 kJ/mol
# GULP energy per Si atom -12394.419377 kJ/mol
# Density = 2.115193 g / cm^3
# Si number density = 21.200184 Si / 1000 Ang^3
#
#
#
# Elastic Constant Matrix: (Units=GPa)
#
#
# Indices 1 2 3 4 5 6 
#
# 1 60.8608 16.1872 31.5263 0.0000 0.0000 0.0000
# 2 16.1872 83.4358 66.0030 0.0000 0.0000 0.0000
# 3 31.5263 66.0030 122.9058 0.0000 0.0000 0.0000
# 4 0.0000 0.0000 0.0000 -5.2183 0.0000 0.0000
# 5 0.0000 0.0000 0.0000 0.0000 29.7158 0.0000
# 6 0.0000 0.0000 0.0000 0.0000 0.0000 -25.0382
#
#
#
# Elastic Compliance Matrix: (Units=1/GPa)
#
#
# Indices 1 2 3 4 5 6 
#
# 1 0.018953 0.000293 -0.005019 0.000000 0.000000 0.000000
# 2 0.000293 0.020842 -0.011268 0.000000 0.000000 0.000000
# 3 -0.005019 -0.011268 0.015475 0.000000 0.000000 0.000000
# 4 0.000000 0.000000 0.000000 -0.191635 0.000000 0.000000
# 5 0.000000 0.000000 0.000000 0.000000 0.033652 0.000000
# 6 0.000000 0.000000 0.000000 0.000000 0.000000 -0.039939
#
#
# Mechanical properties :
#
#
# Convention : Reuss Voigt Hill
#
# Bulk Modulus (GPa) = 42.95061 54.95948 48.95504
# Shear Modulus (GPa) = -48.58891 10.12427 -19.23232
#
# Velocity S-wave (km/s) = -4.79258 2.18768 -3.01521
# Velocity P-wave (km/s) = 3.21273 5.68872 3.31964
#
# Compressibility (1/GPa) = 0.02328256
#
# Stress axis : x y z
#
# Youngs Moduli (GPa) = 52.76258 47.98031 64.62113
#
# Poissons Ratio (x) = -0.01408 0.32434
# Poissons Ratio (y) = -0.01548 0.72814
# Poissons Ratio (z) = 0.26482 0.54063
#
# Static dielectric constant tensor:
#      x y z
#    x 3.958720 0.000000 0.000000 
#    y 0.000000 4.427910 0.000000 
#    z 0.000000 0.000000 4.028780 
# 
# 
# High freq. dielectric constant tensor:
#      x y z
#    x 1.839150 0.000000 0.000000 
#    y 0.000000 1.824300 0.000000 
#    z 0.000000 0.000000 1.816900 
# 
# From -- ./inp_files/7663.got.cif
#   From: 2010.03.12/outbox.cif.g09.slc.cpg/sg45_4_cif.got.tgz:7663.got - 2010.04.14 02:50:11.
