data_PCOD8190460
_publ_section_title
;
Structure prediction by ZEFSAII (Michael W. Deem and Ramdas Pophale) SiO2 
 PCOD8190460
Probable space group: I B A 2
;
_chemical_formula_sum "Si O2"
_cell_formula_units_Z 56
_cell_length_a 14.933661
_cell_length_b 20.713888
_cell_length_c 8.765181
_cell_angle_alpha 90.000000
_cell_angle_beta 90.000000
_cell_angle_gamma 90.000000
_cell_volume 2711.370089
_symmetry_space_group_name_H-M "I B A 2"
_symmetry_group_IT_number 45
_symmetry_cell_setting 'orthorhombic'
loop_
_space_group_symop_operation_xyz
x,y,z
-x,-y,z
-x,y,1/2+z
x,-y,1/2+z
1/2+x,1/2+y,1/2+z
1/2-x,1/2-y,1/2+z
1/2-x,1/2+y,z
1/2+x,1/2-y,z
loop_
_atom_site_type_symbol
_atom_site_label
_atom_site_fract_x
_atom_site_fract_y
_atom_site_fract_z
Si Si1 0.196447 0.410360 0.146500
Si Si2 0.458969 0.160293 0.796883
Si Si3 0.373178 0.838636 0.618139
Si Si4 0.684756 0.588863 0.657368
Si Si5 0.765876 0.002172 0.408386
Si Si6 0.722819 0.284757 0.534574
Si Si7 0.863887 0.219369 0.715284
O O1 0.100477 0.377132 0.170546
O O2 0.217029 0.445938 0.304107
O O3 0.273507 0.356482 0.109247
O O4 0.193184 0.463364 0.011560
O O5 0.563459 0.146184 0.764237
O O6 0.446977 0.237867 0.770126
O O7 0.428591 0.141021 0.966269
O O8 0.284690 0.881606 0.634274
O O9 0.352369 0.761875 0.609297
O O10 0.676906 0.548879 0.812829
O O11 0.664985 0.540884 0.517354
O O12 0.610692 0.646061 0.666501
O O13 0.818778 0.252129 0.567752
O O14 0.709586 0.287609 0.352405
#
# Coordination Sequence:
#
# PCOD8190460 Si02
#       7
#     8   8   8   8   8   8   8
#     4  10  19  36  52  77 103 132 172 214 248 300
#     4  10  21  35  51  75 105 136 169 210 257 303
#     4  10  21  35  51  75 105 136 169 210 257 303
#     4  10  19  36  52  77 103 132 172 214 248 300
#     4  10  20  32  55  74 103 136 174 206 248 298
#     4   9  18  32  53  75  99 128 166 215 260 296
#     4   9  18  32  53  75  99 128 166 215 260 296
#
# _framework density 20.653763999999999
#
# number of rings (size 3 to 8) (size 9 to 14) (size 15 to 20)
#    0.000    2.286    2.857    0.000    4.000    1.143 
#    0.000    4.286    0.000    0.000    0.000    6.000 
#    0.000    0.000    0.000    0.000    0.000    0.000 
#
# Total GULP energy -346900.103480 kJ/mol
# GULP energy per Si atom -12389.289410 kJ/mol
# Density = 2.060676 g / cm^3
# Si number density = 20.653764 Si / 1000 Ang^3
#
#
#
# Elastic Constant Matrix: (Units=GPa)
#
#
# Indices 1 2 3 4 5 6 
#
# 1 6.4241 -8.2859 -0.0830 0.0000 0.0000 0.0000
# 2 -8.2859 116.9619 36.7792 0.0000 0.0000 0.0000
# 3 -0.0830 36.7792 87.1069 0.0000 0.0000 0.0000
# 4 0.0000 0.0000 0.0000 33.6368 0.0000 0.0000
# 5 0.0000 0.0000 0.0000 0.0000 18.3657 0.0000
# 6 0.0000 0.0000 0.0000 0.0000 0.0000 11.7308
#
#
#
# Elastic Compliance Matrix: (Units=1/GPa)
#
#
# Indices 1 2 3 4 5 6 
#
# 1 0.173827 0.014140 -0.005805 0.000000 0.000000 0.000000
# 2 0.014140 0.011009 -0.004635 0.000000 0.000000 0.000000
# 3 -0.005805 -0.004635 0.013432 0.000000 0.000000 0.000000
# 4 0.000000 0.000000 0.000000 0.029729 0.000000 0.000000
# 5 0.000000 0.000000 0.000000 0.000000 0.054449 0.000000
# 6 0.000000 0.000000 0.000000 0.000000 0.000000 0.085246
#
#
# Mechanical properties :
#
#
# Convention : Reuss Voigt Hill
#
# Bulk Modulus (GPa) = 4.86221 29.70148 17.28184
# Shear Modulus (GPa) = 11.65917 24.88549 18.27233
#
# Velocity S-wave (km/s) = 2.37851 3.47492 2.97761
# Velocity P-wave (km/s) = 3.14680 5.52376 4.49524
#
# Compressibility (1/GPa) = 0.20566774
#
# Stress axis : x y z
#
# Youngs Moduli (GPa) = 5.75286 90.83533 74.45136
#
# Poissons Ratio (x) = -1.28438 0.43216
# Poissons Ratio (y) = -0.08134 0.34507
# Poissons Ratio (z) = 0.03339 0.42101
#
# Static dielectric constant tensor:
#      x y z
#    x 3.064950 0.000000 0.000000 
#    y 0.000000 4.185250 0.000000 
#    z 0.000000 0.000000 3.907840 
# 
# 
# High freq. dielectric constant tensor:
#      x y z
#    x 1.730870 0.000000 0.000000 
#    y 0.000000 1.825630 0.000000 
#    z 0.000000 0.000000 1.824000 
# 
# From -- ./inp_files/1807.got.cif
#   From: 2010.03.12/outbox.cif.g09.slc.cpg/sg45_1_cif.got.tgz:1807.got - 2010.04.14 02:50:11.
