data_PCOD8190811
_publ_section_title
;
Structure prediction by ZEFSAII (Michael W. Deem and Ramdas Pophale) SiO2 
 PCOD8190811
Probable space group: I B A 2
;
_chemical_formula_sum "Si O2"
_cell_formula_units_Z 48
_cell_length_a 8.262982
_cell_length_b 27.135420
_cell_length_c 8.871246
_cell_angle_alpha 90.000000
_cell_angle_beta 90.000000
_cell_angle_gamma 90.000000
_cell_volume 1989.106227
_symmetry_space_group_name_H-M "I B A 2"
_symmetry_group_IT_number 45
_symmetry_cell_setting 'orthorhombic'
loop_
_space_group_symop_operation_xyz
x,y,z
-x,-y,z
-x,y,1/2+z
x,-y,1/2+z
1/2+x,1/2+y,1/2+z
1/2-x,1/2-y,1/2+z
1/2-x,1/2+y,z
1/2+x,1/2-y,z
loop_
_atom_site_type_symbol
_atom_site_label
_atom_site_fract_x
_atom_site_fract_y
_atom_site_fract_z
Si Si1 0.414995 0.293472 0.250000
Si Si2 0.173456 0.388526 0.585487
Si Si3 0.005492 0.899099 0.231901
Si Si4 0.874146 0.042903 0.990839
Si Si5 0.962849 0.552746 0.855367
Si Si6 0.725525 0.282569 0.071925
O O1 0.377350 0.351754 0.244735
O O2 0.606119 0.289627 0.215081
O O3 0.368982 0.272695 0.414778
O O4 0.325640 0.266108 0.113008
O O5 0.365839 0.395589 0.602914
O O6 0.082651 0.405656 0.735799
O O7 0.151230 0.329438 0.559343
O O8 0.108629 0.422195 0.449057
O O9 0.925611 0.909821 0.391601
O O10 0.116098 0.943627 0.168435
O O11 0.685467 0.034463 0.961807
O O12 0.000000 0.000000 0.949308
O O13 0.000000 0.500000 0.776171
#
# Coordination Sequence:
#
# PCOD8190811 Si02
#       6
#     8   8   8   8   8   8
#     4  11  24  44  70  99 134 173 220 277 333 400
#     4  10  24  43  64  94 130 171 217 269 328 391
#     4  10  22  42  65  92 128 169 215 266 322 389
#     4  11  23  39  64  94 127 170 217 265 324 391
#     4  11  24  41  63  93 129 169 217 270 325 390
#     4  11  25  45  70 100 134 174 223 275 336 401
#
# _framework density 24.131442
#
# number of rings (size 3 to 8) (size 9 to 14) (size 15 to 20)
#    0.000    1.333    0.000    5.000    0.000   13.333 
#    0.000    0.000    0.000    0.000    0.000    0.000 
#    0.000    0.000    0.000    0.000    0.000    0.000 
#
# Total GULP energy -297423.322380 kJ/mol
# GULP energy per Si atom -12392.638433 kJ/mol
# Density = 2.407652 g / cm^3
# Si number density = 24.131442 Si / 1000 Ang^3
#
#
#
# Elastic Constant Matrix: (Units=GPa)
#
#
# Indices 1 2 3 4 5 6 
#
# 1 57.1015 40.1449 23.5963 0.0006 -0.0021 -0.0004
# 2 40.1449 127.3359 33.3502 -0.0008 0.0002 0.0005
# 3 23.5963 33.3502 92.2072 0.0108 0.0050 -0.0009
# 4 0.0006 -0.0008 0.0108 37.9284 0.0004 -0.0002
# 5 -0.0021 0.0002 0.0050 0.0004 40.0336 0.0006
# 6 -0.0004 0.0005 -0.0009 -0.0002 0.0006 46.3577
#
#
#
# Elastic Compliance Matrix: (Units=1/GPa)
#
#
# Indices 1 2 3 4 5 6 
#
# 1 0.023588 -0.006468 -0.003697 0.000001 0.000002 0.000000
# 2 -0.006468 0.010449 -0.002124 0.000001 0.000000 0.000000
# 3 -0.003697 -0.002124 0.012559 -0.000004 -0.000002 0.000000
# 4 0.000001 0.000001 -0.000004 0.026365 0.000000 0.000000
# 5 0.000002 0.000000 -0.000002 0.000000 0.024979 0.000000
# 6 0.000000 0.000000 0.000000 0.000000 0.000000 0.021571
#
#
# Mechanical properties :
#
#
# Convention : Reuss Voigt Hill
#
# Bulk Modulus (GPa) = 45.41733 52.31414 48.86573
# Shear Modulus (GPa) = 33.01880 36.83417 34.92648
#
# Velocity S-wave (km/s) = 3.70305 3.91115 3.80852
# Velocity P-wave (km/s) = 6.09468 6.49015 6.29552
#
# Compressibility (1/GPa) = 0.02201803
#
# Stress axis : x y z
#
# Youngs Moduli (GPa) = 42.39482 95.70521 79.62200
#
# Poissons Ratio (x) = 0.61905 0.29434
# Poissons Ratio (y) = 0.27422 0.16911
# Poissons Ratio (z) = 0.15672 0.20327
#
# Static dielectric constant tensor:
#      x y z
#    x 4.281450 0.000000 0.000000 
#    y 0.000000 4.399720 -0.000010 
#    z 0.000000 -0.000010 4.152190 
# 
# 
# High freq. dielectric constant tensor:
#      x y z
#    x 1.950270 0.000000 0.000000 
#    y 0.000000 1.959090 0.000000 
#    z 0.000000 0.000000 1.961790 
# 
# From -- ./inp_files/1074.got.cif
#   From: 2010.03.12/outbox.cif.g09.slc.cpg/sg45_1_cif.got.tgz:1074.got - 2010.04.14 02:50:11.
