data_PCOD8190015
_publ_section_title
;
Structure prediction by ZEFSAII (Michael W. Deem and Ramdas Pophale) SiO2 
 PCOD8190015
Probable space group: I M M 2
;
_chemical_formula_sum "Si O2"
_cell_formula_units_Z 64
_cell_length_a 8.890474
_cell_length_b 14.928081
_cell_length_c 24.771130
_cell_angle_alpha 90.000000
_cell_angle_beta 90.000000
_cell_angle_gamma 90.000000
_cell_volume 3287.567796
_symmetry_space_group_name_H-M "I M M 2"
_symmetry_group_IT_number 44
_symmetry_cell_setting 'orthorhombic'
loop_
_space_group_symop_operation_xyz
x,y,z
-x,-y,z
-x,y,z
x,-y,z
1/2+x,1/2+y,1/2+z
1/2-x,1/2-y,1/2+z
1/2-x,1/2+y,1/2+z
1/2+x,1/2-y,1/2+z
loop_
_atom_site_type_symbol
_atom_site_label
_atom_site_fract_x
_atom_site_fract_y
_atom_site_fract_z
Si Si1 0.323009 0.896101 0.081880
Si Si2 0.169096 0.106322 0.972393
Si Si3 0.677672 0.598874 0.973194
Si Si4 0.322878 0.897812 0.863645
Si Si5 0.821334 0.747963 0.280021
Si Si6 0.824981 0.893998 0.589614
Si Si7 0.679146 0.600907 0.857139
Si Si8 0.178077 0.247041 0.158136
O O1 0.500000 0.881359 0.081155
O O2 0.252141 0.838464 0.129803
O O3 0.280298 0.000000 0.091640
O O4 0.259812 0.860272 0.024794
O O5 0.247091 0.141587 0.917825
O O6 0.000000 0.144170 0.975593
O O7 0.170829 0.000000 0.971373
O O8 0.500000 0.590634 0.975871
O O9 0.747820 0.500000 0.971771
O O10 0.727541 0.643355 0.030056
O O11 0.727018 0.643382 0.916072
O O12 0.500000 0.889392 0.872715
O O13 0.267795 0.840744 0.812052
O O14 0.274115 0.000000 0.852517
O O15 0.755128 0.835195 0.310734
O O16 0.759812 0.748782 0.219317
O O17 0.000000 0.750988 0.279558
O O18 0.724347 0.841283 0.632133
O O19 0.000000 0.872362 0.599990
O O20 0.794683 0.000000 0.595128
O O21 0.500000 0.598395 0.854105
O O22 0.742190 0.500000 0.849165
O O23 0.000000 0.235643 0.155861
#
# Coordination Sequence:
#
# PCOD8190015 Si02
#       8
#     8   8   8   8   8   8   8   8
#     4  10  21  38  59  80 104 139 182 225 271 327
#     4   9  17  31  53  82 112 136 163 208 269 330
#     4   7  11  22  43  71  98 122 155 204 257 305
#     4   9  17  31  51  74 103 139 176 213 253 305
#     4   9  19  32  45  67  99 137 180 217 253 305
#     4   9  18  34  55  78 105 137 174 218 267 320
#     4   8  13  24  44  69  95 120 150 196 252 305
#     4  11  23  36  51  76 110 144 182 229 274 314
#
# _framework density 19.467279999999999
#
# number of rings (size 3 to 8) (size 9 to 14) (size 15 to 20)
#    0.000    3.000    0.000    2.625    0.000    4.500 
#    0.000    6.250    0.000    1.500    0.000    1.750 
#    0.000    2.000    0.000    0.000    0.000    0.000 
#
# Total GULP energy -396501.175335 kJ/mol
# GULP energy per Si atom -12390.661729 kJ/mol
# Density = 1.942297 g / cm^3
# Si number density = 19.467280 Si / 1000 Ang^3
#
#
#
# Elastic Constant Matrix: (Units=GPa)
#
#
# Indices 1 2 3 4 5 6 
#
# 1 54.8154 28.3961 44.9948 0.0000 0.0000 0.0000
# 2 28.3961 94.9171 77.0845 0.0000 0.0000 0.0000
# 3 44.9948 77.0845 207.5825 0.0000 0.0000 0.0000
# 4 0.0000 0.0000 0.0000 31.9653 0.0000 0.0000
# 5 0.0000 0.0000 0.0000 0.0000 26.1935 0.0000
# 6 0.0000 0.0000 0.0000 0.0000 0.0000 20.9575
#
#
#
# Elastic Compliance Matrix: (Units=1/GPa)
#
#
# Indices 1 2 3 4 5 6 
#
# 1 0.023255 -0.004100 -0.003518 0.000000 0.000000 0.000000
# 2 -0.004100 0.015808 -0.004981 0.000000 0.000000 0.000000
# 3 -0.003518 -0.004981 0.007430 0.000000 0.000000 0.000000
# 4 0.000000 0.000000 0.000000 0.031284 0.000000 0.000000
# 5 0.000000 0.000000 0.000000 0.000000 0.038177 0.000000
# 6 0.000000 0.000000 0.000000 0.000000 0.000000 0.047716
#
#
# Mechanical properties :
#
#
# Convention : Reuss Voigt Hill
#
# Bulk Modulus (GPa) = 46.96325 73.14063 60.05194
# Shear Modulus (GPa) = 25.51470 29.61258 27.56364
#
# Velocity S-wave (km/s) = 3.62421 3.90442 3.76692
# Velocity P-wave (km/s) = 6.45676 7.61437 7.05933
#
# Compressibility (1/GPa) = 0.02129325
#
# Stress axis : x y z
#
# Youngs Moduli (GPa) = 43.00197 63.26090 134.59428
#
# Poissons Ratio (x) = 0.25936 0.47352
# Poissons Ratio (y) = 0.17630 0.67046
# Poissons Ratio (z) = 0.15129 0.31513
#
# Static dielectric constant tensor:
#      x y z
#    x 3.159300 0.000000 0.000000 
#    y 0.000000 3.499010 0.000000 
#    z 0.000000 0.000000 3.949550 
# 
# 
# High freq. dielectric constant tensor:
#      x y z
#    x 1.714230 0.000000 0.000000 
#    y 0.000000 1.751080 0.000000 
#    z 0.000000 0.000000 1.767980 
# 
# From -- ./inp_files/25109.got.cif
#   From: 2010.03.12/outbox.cif.g09.slc.cpg/sg44_13_cif.got.tgz:25109.got - 2010.04.14 02:36:11.
