data_PCOD8190977
_publ_section_title
;
Structure prediction by ZEFSAII (Michael W. Deem and Ramdas Pophale) SiO2 
 PCOD8190977
Probable space group: I B A 2
;
_chemical_formula_sum "Si O2"
_cell_formula_units_Z 40
_cell_length_a 8.373131
_cell_length_b 17.171447
_cell_length_c 11.684738
_cell_angle_alpha 90.000000
_cell_angle_beta 90.000000
_cell_angle_gamma 90.000000
_cell_volume 1680.017318
_symmetry_space_group_name_H-M "I B A 2"
_symmetry_group_IT_number 45
_symmetry_cell_setting 'orthorhombic'
loop_
_space_group_symop_operation_xyz
x,y,z
-x,-y,z
-x,y,1/2+z
x,-y,1/2+z
1/2+x,1/2+y,1/2+z
1/2-x,1/2-y,1/2+z
1/2-x,1/2+y,z
1/2+x,1/2-y,z
loop_
_atom_site_type_symbol
_atom_site_label
_atom_site_fract_x
_atom_site_fract_y
_atom_site_fract_z
Si Si1 0.270838 0.691555 0.659870
Si Si2 0.323725 0.469720 0.816628
Si Si3 0.908677 0.418504 0.501562
Si Si4 0.208560 0.376394 0.381980
Si Si5 0.869675 0.854068 0.110107
O O1 0.140058 0.630103 0.613161
O O2 0.253274 0.694846 0.798208
O O3 0.241173 0.778109 0.616374
O O4 0.446562 0.665740 0.624624
O O5 0.500000 0.500000 0.842105
O O6 0.252744 0.425685 0.927116
O O7 0.214785 0.546565 0.800898
O O8 0.313992 0.417721 0.702729
O O9 0.000000 0.500000 0.531939
O O10 0.031641 0.364638 0.430871
O O11 0.338504 0.387523 0.483443
#
# Coordination Sequence:
#
# PCOD8190977 Si02
#       5
#     8   8   8   8   8
#     4  12  28  49  76 110 157 197 253 315 386 451
#     4  11  24  48  77 106 150 199 255 312 368 448
#     4  10  26  46  80 108 150 196 260 310 378 446
#     4  11  27  48  77 111 150 200 253 312 380 446
#     4  12  29  48  77 113 153 201 256 309 385 457
#
# _framework density 23.809277000000002
#
# number of rings (size 3 to 8) (size 9 to 14) (size 15 to 20)
#    0.000    0.800    2.000    2.400   14.000    1.600 
#    0.000    0.000    0.000    0.000    0.000    0.000 
#    0.000    0.000    0.000    0.000    0.000    0.000 
#
# Total GULP energy -247973.584886 kJ/mol
# GULP energy per Si atom -12398.679244 kJ/mol
# Density = 2.375509 g / cm^3
# Si number density = 23.809277 Si / 1000 Ang^3
#
#
#
# Elastic Constant Matrix: (Units=GPa)
#
#
# Indices 1 2 3 4 5 6 
#
# 1 124.6615 25.8481 64.9178 0.0000 0.0000 0.0000
# 2 25.8481 96.6961 63.5015 0.0000 0.0000 0.0000
# 3 64.9178 63.5015 130.9412 0.0001 0.0000 0.0000
# 4 0.0000 0.0000 0.0001 33.1604 0.0000 0.0000
# 5 0.0000 0.0000 0.0000 0.0000 28.8710 0.0000
# 6 0.0000 0.0000 0.0000 0.0000 0.0000 38.5749
#
#
#
# Elastic Compliance Matrix: (Units=1/GPa)
#
#
# Indices 1 2 3 4 5 6 
#
# 1 0.010870 0.000929 -0.005840 0.000000 0.000000 0.000000
# 2 0.000929 0.015254 -0.007858 0.000000 0.000000 0.000000
# 3 -0.005840 -0.007858 0.014343 0.000000 0.000000 0.000000
# 4 0.000000 0.000000 0.000000 0.030156 0.000000 0.000000
# 5 0.000000 0.000000 0.000000 0.000000 0.034637 0.000000
# 6 0.000000 0.000000 0.000000 0.000000 0.000000 0.025924
#
#
# Mechanical properties :
#
#
# Convention : Reuss Voigt Hill
#
# Bulk Modulus (GPa) = 66.98066 73.42595 70.20330
# Shear Modulus (GPa) = 30.92173 33.32335 32.12254
#
# Velocity S-wave (km/s) = 3.60769 3.74517 3.67708
# Velocity P-wave (km/s) = 6.74886 7.04329 6.89765
#
# Compressibility (1/GPa) = 0.01492968
#
# Stress axis : x y z
#
# Youngs Moduli (GPa) = 91.99491 65.55699 69.71881
#
# Poissons Ratio (x) = -0.06093 0.40715
# Poissons Ratio (y) = -0.08550 0.54787
# Poissons Ratio (z) = 0.53724 0.51517
#
# Static dielectric constant tensor:
#      x y z
#    x 4.293970 0.000000 0.000000 
#    y 0.000000 4.343260 0.000000 
#    z 0.000000 0.000000 4.275040 
# 
# 
# High freq. dielectric constant tensor:
#      x y z
#    x 1.955060 0.000000 0.000000 
#    y 0.000000 1.940640 0.000000 
#    z 0.000000 0.000000 1.948940 
# 
# From -- ./inp_files/3144.got.cif
#   From: 2010.03.12/outbox.cif.g09.slc.cpg/sg45_2_cif.got.tgz:3144.got - 2010.04.14 02:50:11.
