data_PCOD8190789
_publ_section_title
;
Structure prediction by ZEFSAII (Michael W. Deem and Ramdas Pophale) SiO2 
 PCOD8190789
Probable space group: I B A 2
;
_chemical_formula_sum "Si O2"
_cell_formula_units_Z 48
_cell_length_a 17.929247
_cell_length_b 13.568526
_cell_length_c 8.680234
_cell_angle_alpha 90.000000
_cell_angle_beta 90.000000
_cell_angle_gamma 90.000000
_cell_volume 2111.670507
_symmetry_space_group_name_H-M "I B A 2"
_symmetry_group_IT_number 45
_symmetry_cell_setting 'orthorhombic'
loop_
_space_group_symop_operation_xyz
x,y,z
-x,-y,z
-x,y,1/2+z
x,-y,1/2+z
1/2+x,1/2+y,1/2+z
1/2-x,1/2-y,1/2+z
1/2-x,1/2+y,z
1/2+x,1/2-y,z
loop_
_atom_site_type_symbol
_atom_site_label
_atom_site_fract_x
_atom_site_fract_y
_atom_site_fract_z
Si Si1 0.323948 0.247799 0.689440
Si Si2 0.000000 0.000000 0.883340
Si Si3 0.500000 0.000000 0.096983
Si Si4 0.058171 0.363313 0.353906
Si Si5 0.066475 0.201723 0.917620
Si Si6 0.322035 0.628299 0.679880
Si Si7 0.156056 0.056809 0.342124
O O1 0.362227 0.189364 0.831937
O O2 0.378446 0.253601 0.544196
O O3 0.247765 0.196676 0.639770
O O4 0.304183 0.355978 0.750385
O O5 0.070086 0.959531 0.782995
O O6 0.967947 0.903556 0.975575
O O7 0.543329 0.080074 0.195312
O O8 0.439344 0.056917 0.990945
O O9 0.997475 0.280067 0.386023
O O10 0.110631 0.190616 0.755265
O O11 0.298491 0.543042 0.802654
O O12 0.348492 0.575445 0.524127
#
# Coordination Sequence:
#
# PCOD8190789 Si02
#       7
#     8   4   4   8   8   8   8
#     4  12  25  46  69 102 142 190 237 289 367 432
#     4  10  22  40  74 106 138 170 240 302 356 418
#     4  10  24  44  64 102 130 178 234 294 354 406
#     4  11  23  44  71 100 135 181 243 297 347 428
#     4  11  24  44  71 107 140 187 238 301 366 426
#     4  11  27  45  67 102 145 185 234 292 367 436
#     4  11  24  44  73 104 140 184 237 299 365 423
#
# _framework density 22.730819
#
# number of rings (size 3 to 8) (size 9 to 14) (size 15 to 20)
#    0.000    1.000    3.333    3.000    4.667    4.667 
#    6.000    0.000    0.000    0.000    0.000    0.000 
#    0.000    0.000    0.000    0.000    0.000    0.000 
#
# Total GULP energy -297511.362830 kJ/mol
# GULP energy per Si atom -12396.306785 kJ/mol
# Density = 2.267908 g / cm^3
# Si number density = 22.730819 Si / 1000 Ang^3
#
#
#
# Elastic Constant Matrix: (Units=GPa)
#
#
# Indices 1 2 3 4 5 6 
#
# 1 90.4762 50.3566 17.4394 0.0000 0.0000 0.0000
# 2 50.3566 128.7468 31.7086 0.0000 0.0000 0.0000
# 3 17.4394 31.7086 92.7337 0.0000 0.0000 0.0000
# 4 0.0000 0.0000 0.0000 37.2465 0.0000 0.0000
# 5 0.0000 0.0000 0.0000 0.0000 23.2259 0.0000
# 6 0.0000 0.0000 0.0000 0.0000 0.0000 42.6645
#
#
#
# Elastic Compliance Matrix: (Units=1/GPa)
#
#
# Indices 1 2 3 4 5 6 
#
# 1 0.014188 -0.005342 -0.000842 0.000000 0.000000 0.000000
# 2 -0.005342 0.010493 -0.002583 0.000000 0.000000 0.000000
# 3 -0.000842 -0.002583 0.011825 0.000000 0.000000 0.000000
# 4 0.000000 0.000000 0.000000 0.026848 0.000000 0.000000
# 5 0.000000 0.000000 0.000000 0.000000 0.043055 0.000000
# 6 0.000000 0.000000 0.000000 0.000000 0.000000 0.023439
#
#
# Mechanical properties :
#
#
# Convention : Reuss Voigt Hill
#
# Bulk Modulus (GPa) = 52.70839 56.77397 54.74118
# Shear Modulus (GPa) = 32.52962 34.79087 33.66024
#
# Velocity S-wave (km/s) = 3.78707 3.91648 3.85232
# Velocity P-wave (km/s) = 6.50853 6.74408 6.62735
#
# Compressibility (1/GPa) = 0.01897231
#
# Stress axis : x y z
#
# Youngs Moduli (GPa) = 70.48149 95.30301 84.56585
#
# Poissons Ratio (x) = 0.50912 0.07117
# Poissons Ratio (y) = 0.37652 0.21845
# Poissons Ratio (z) = 0.05931 0.24619
#
# Static dielectric constant tensor:
#      x y z
#    x 3.849660 0.000000 0.000000 
#    y 0.000000 4.538570 0.000000 
#    z 0.000000 0.000000 4.055900 
# 
# 
# High freq. dielectric constant tensor:
#      x y z
#    x 1.871600 0.000000 0.000000 
#    y 0.000000 1.923000 0.000000 
#    z 0.000000 0.000000 1.894130 
# 
# From -- ./inp_files/1728.got.cif
#   From: 2010.03.12/outbox.cif.g09.slc.cpg/sg45_1_cif.got.tgz:1728.got - 2010.04.14 02:50:11.
