data_PCOD8190689
_publ_section_title
;
Structure prediction by ZEFSAII (Michael W. Deem and Ramdas Pophale) SiO2 
 PCOD8190689
Probable space group: I B A 2
;
_chemical_formula_sum "Si O2"
_cell_formula_units_Z 48
_cell_length_a 9.520072
_cell_length_b 16.285505
_cell_length_c 16.482612
_cell_angle_alpha 90.000000
_cell_angle_beta 90.000000
_cell_angle_gamma 90.000000
_cell_volume 2555.450651
_symmetry_space_group_name_H-M "I B A 2"
_symmetry_group_IT_number 45
_symmetry_cell_setting 'orthorhombic'
loop_
_space_group_symop_operation_xyz
x,y,z
-x,-y,z
-x,y,1/2+z
x,-y,1/2+z
1/2+x,1/2+y,1/2+z
1/2-x,1/2-y,1/2+z
1/2-x,1/2+y,z
1/2+x,1/2-y,z
loop_
_atom_site_type_symbol
_atom_site_label
_atom_site_fract_x
_atom_site_fract_y
_atom_site_fract_z
Si Si1 0.497046 0.405605 0.762520
Si Si2 0.793406 0.327135 0.743770
Si Si3 0.897867 0.226655 0.887621
Si Si4 0.860266 0.717650 0.996721
Si Si5 0.795650 0.169858 0.638124
Si Si6 0.006053 0.596368 0.618377
O O1 0.500000 0.500000 0.788019
O O2 0.656550 0.382508 0.745008
O O3 0.429022 0.354282 0.835446
O O4 0.405524 0.391258 0.681251
O O5 0.835549 0.300792 0.834120
O O6 0.755070 0.246005 0.694342
O O7 0.920598 0.377922 0.702946
O O8 0.795250 0.202532 0.961405
O O9 0.041654 0.262903 0.921192
O O10 0.865367 0.796241 0.055995
O O11 0.908852 0.635777 0.043479
O O12 0.653872 0.124076 0.616618
O O13 0.000000 0.500000 0.607052
#
# Coordination Sequence:
#
# PCOD8190689 Si02
#       6
#     8   8   8   8   8   8
#     4  11  23  40  60  94 121 155 203 256 305 346
#     4  10  21  39  66  85 118 161 207 241 288 370
#     4  11  22  41  64  86 120 162 204 243 297 372
#     4  11  22  41  64  86 120 162 204 243 297 372
#     4  10  21  39  66  85 118 161 207 241 288 370
#     4  11  23  40  60  94 121 155 203 256 305 346
#
# _framework density 18.783380000000001
#
# number of rings (size 3 to 8) (size 9 to 14) (size 15 to 20)
#    0.000    1.333    3.333    4.000    4.667    0.000 
#    6.000    0.000    0.000    0.000    0.000    0.000 
#    0.000    0.000    0.000    0.000    0.000    0.000 
#
# Total GULP energy -297702.224140 kJ/mol
# GULP energy per Si atom -12404.259339 kJ/mol
# Density = 1.874063 g / cm^3
# Si number density = 18.783380 Si / 1000 Ang^3
#
#
#
# Elastic Constant Matrix: (Units=GPa)
#
#
# Indices 1 2 3 4 5 6 
#
# 1 74.3921 37.4381 21.2171 0.0000 0.0000 0.0000
# 2 37.4381 119.4887 29.8697 0.0000 0.0000 0.0000
# 3 21.2171 29.8697 86.8193 0.0000 0.0000 0.0000
# 4 0.0000 0.0000 0.0000 18.1750 0.0000 0.0000
# 5 0.0000 0.0000 0.0000 0.0000 85.3210 0.0000
# 6 0.0000 0.0000 0.0000 0.0000 0.0000 25.9343
#
#
#
# Elastic Compliance Matrix: (Units=1/GPa)
#
#
# Indices 1 2 3 4 5 6 
#
# 1 0.016423 -0.004532 -0.002454 0.000000 0.000000 0.000000
# 2 -0.004532 0.010407 -0.002473 0.000000 0.000000 0.000000
# 3 -0.002454 -0.002473 0.012969 0.000000 0.000000 0.000000
# 4 0.000000 0.000000 0.000000 0.055021 0.000000 0.000000
# 5 0.000000 0.000000 0.000000 0.000000 0.011720 0.000000
# 6 0.000000 0.000000 0.000000 0.000000 0.000000 0.038559
#
#
# Mechanical properties :
#
#
# Convention : Reuss Voigt Hill
#
# Bulk Modulus (GPa) = 47.89200 50.86107 49.37653
# Shear Modulus (GPa) = 29.24353 38.69774 33.97064
#
# Velocity S-wave (km/s) = 3.95002 4.54388 4.25732
# Velocity P-wave (km/s) = 6.80851 7.39362 7.10709
#
# Compressibility (1/GPa) = 0.02088032
#
# Stress axis : x y z
#
# Youngs Moduli (GPa) = 60.88994 96.08742 77.10837
#
# Poissons Ratio (x) = 0.43548 0.18924
# Poissons Ratio (y) = 0.27596 0.19069
# Poissons Ratio (z) = 0.14944 0.23762
#
# Static dielectric constant tensor:
#      x y z
#    x 2.898900 0.000000 0.000000 
#    y 0.000000 3.353300 0.000000 
#    z 0.000000 0.000000 3.566370 
# 
# 
# High freq. dielectric constant tensor:
#      x y z
#    x 1.749330 0.000000 0.000000 
#    y 0.000000 1.715490 0.000000 
#    z 0.000000 0.000000 1.734050 
# 
# From -- ./inp_files/1701.got.cif
#   From: 2010.03.12/outbox.cif.g09.slc.cpg/sg45_1_cif.got.tgz:1701.got - 2010.04.14 02:50:11.
