data_PCOD8190629
_publ_section_title
;
Structure prediction by ZEFSAII (Michael W. Deem and Ramdas Pophale) SiO2 
 PCOD8190629
Probable space group: I B A 2
;
_chemical_formula_sum "Si O2"
_cell_formula_units_Z 56
_cell_length_a 5.007084
_cell_length_b 32.544439
_cell_length_c 14.958048
_cell_angle_alpha 90.000000
_cell_angle_beta 90.000000
_cell_angle_gamma 90.000000
_cell_volume 2437.454904
_symmetry_space_group_name_H-M "I B A 2"
_symmetry_group_IT_number 45
_symmetry_cell_setting 'orthorhombic'
loop_
_space_group_symop_operation_xyz
x,y,z
-x,-y,z
-x,y,1/2+z
x,-y,1/2+z
1/2+x,1/2+y,1/2+z
1/2-x,1/2-y,1/2+z
1/2-x,1/2+y,z
1/2+x,1/2-y,z
loop_
_atom_site_type_symbol
_atom_site_label
_atom_site_fract_x
_atom_site_fract_y
_atom_site_fract_z
Si Si1 0.442200 0.365898 0.159260
Si Si2 0.578015 0.633244 0.357847
Si Si3 0.738681 0.027958 0.766456
Si Si4 0.954204 0.774745 0.110079
Si Si5 0.110017 0.411090 0.917240
Si Si6 0.061540 0.225013 0.899113
Si Si7 0.576634 0.086599 0.607833
O O1 0.525927 0.379622 0.259228
O O2 0.455353 0.317103 0.153698
O O3 0.654231 0.386887 0.091730
O O4 0.143412 0.381981 0.144742
O O5 0.338549 0.624124 0.428897
O O6 0.639580 0.681503 0.357113
O O7 0.846132 0.607948 0.374963
O O8 0.767321 0.057772 0.851598
O O9 0.648940 0.049496 0.673983
O O10 0.500000 0.000000 0.798603
O O11 0.000000 0.000000 0.750230
O O12 0.663277 0.760124 0.141865
O O13 0.947066 0.780548 0.004658
O O14 0.031051 0.430952 0.012904
O O15 0.276765 0.258490 0.866003
#
# Coordination Sequence:
#
# PCOD8190629 Si02
#       7
#     8   8   8   8   8   8   8
#     4  12  23  42  68  99 139 183 239 294 342 406
#     4  12  23  42  68  99 139 183 239 294 342 406
#     4  12  26  48  76 106 144 174 218 286 344 416
#     4  10  21  36  56  89 133 181 235 292 347 401
#     4  12  25  46  73 104 139 185 232 277 346 419
#     4  10  21  36  56  89 133 181 235 292 347 401
#     4  12  25  46  73 104 139 185 232 277 346 419
#
# _framework density 22.974782000000001
#
# number of rings (size 3 to 8) (size 9 to 14) (size 15 to 20)
#    0.000    0.571    2.857    6.000    0.000    4.000 
#    0.000    1.429    0.000    0.000    0.000    0.000 
#    0.000    0.000    0.000    0.000    0.000    0.000 
#
# Total GULP energy -347177.835731 kJ/mol
# GULP energy per Si atom -12399.208419 kJ/mol
# Density = 2.292249 g / cm^3
# Si number density = 22.974782 Si / 1000 Ang^3
#
#
#
# Elastic Constant Matrix: (Units=GPa)
#
#
# Indices 1 2 3 4 5 6 
#
# 1 131.0603 25.7974 21.7436 0.0000 0.0000 0.0000
# 2 25.7974 87.4034 37.8521 0.0000 0.0000 0.0000
# 3 21.7436 37.8521 100.2602 0.0000 0.0000 0.0000
# 4 0.0000 0.0000 0.0000 31.4549 0.0000 0.0000
# 5 0.0000 0.0000 0.0000 0.0000 27.9632 0.0000
# 6 0.0000 0.0000 0.0000 0.0000 0.0000 50.5932
#
#
#
# Elastic Compliance Matrix: (Units=1/GPa)
#
#
# Indices 1 2 3 4 5 6 
#
# 1 0.008189 -0.001970 -0.001032 0.000000 0.000000 0.000000
# 2 -0.001970 0.014151 -0.004915 0.000000 0.000000 0.000000
# 3 -0.001032 -0.004915 0.012054 0.000000 0.000000 0.000000
# 4 0.000000 0.000000 0.000000 0.031792 0.000000 0.000000
# 5 0.000000 0.000000 0.000000 0.000000 0.035761 0.000000
# 6 0.000000 0.000000 0.000000 0.000000 0.000000 0.019766
#
#
# Mechanical properties :
#
#
# Convention : Reuss Voigt Hill
#
# Bulk Modulus (GPa) = 53.88281 54.39000 54.13640
# Shear Modulus (GPa) = 34.78642 37.55764 36.17203
#
# Velocity S-wave (km/s) = 3.89538 4.04757 3.97220
# Velocity P-wave (km/s) = 6.61332 6.75048 6.68225
#
# Compressibility (1/GPa) = 0.01855879
#
# Stress axis : x y z
#
# Youngs Moduli (GPa) = 122.11358 70.66432 82.96215
#
# Poissons Ratio (x) = 0.13921 0.08564
# Poissons Ratio (y) = 0.24056 0.40780
# Poissons Ratio (z) = 0.12605 0.34735
#
# Static dielectric constant tensor:
#      x y z
#    x 4.292000 0.000000 0.000000 
#    y 0.000000 3.975060 0.000000 
#    z 0.000000 0.000000 4.182070 
# 
# 
# High freq. dielectric constant tensor:
#      x y z
#    x 1.926310 0.000000 0.000000 
#    y 0.000000 1.902470 0.000000 
#    z 0.000000 0.000000 1.908720 
# 
# From -- ./inp_files/5261.got.cif
#   From: 2010.03.12/outbox.cif.g09.slc.cpg/sg45_3_cif.got.tgz:5261.got - 2010.04.14 02:50:11.
