data_PCOD8190327
_publ_section_title
;
Structure prediction by ZEFSAII (Michael W. Deem and Ramdas Pophale) SiO2 
 PCOD8190327
Probable space group: I M M 2
;
_chemical_formula_sum "Si O2"
_cell_formula_units_Z 48
_cell_length_a 9.595449
_cell_length_b 9.697133
_cell_length_c 31.142155
_cell_angle_alpha 90.000000
_cell_angle_beta 90.000000
_cell_angle_gamma 90.000000
_cell_volume 2897.725987
_symmetry_space_group_name_H-M "I M M 2"
_symmetry_group_IT_number 44
_symmetry_cell_setting 'orthorhombic'
loop_
_space_group_symop_operation_xyz
x,y,z
-x,-y,z
-x,y,z
x,-y,z
1/2+x,1/2+y,1/2+z
1/2-x,1/2-y,1/2+z
1/2-x,1/2+y,1/2+z
1/2+x,1/2-y,1/2+z
loop_
_atom_site_type_symbol
_atom_site_label
_atom_site_fract_x
_atom_site_fract_y
_atom_site_fract_z
Si Si1 0.155701 0.164032 0.804070
Si Si2 0.156694 0.164054 0.649298
Si Si3 0.334302 0.346525 0.398654
Si Si4 0.337085 0.160086 0.475913
Si Si5 0.343971 0.663742 0.054251
Si Si6 0.342590 0.164732 0.726629
O O1 0.211502 0.207275 0.851396
O O2 0.261802 0.222268 0.768444
O O3 0.000000 0.223390 0.795486
O O4 0.148401 0.000000 0.801821
O O5 0.200918 0.216643 0.601709
O O6 0.264665 0.222934 0.684302
O O7 0.000000 0.215086 0.660207
O O8 0.159045 0.000000 0.650428
O O9 0.500000 0.352221 0.399442
O O10 0.274255 0.500000 0.407611
O O11 0.278167 0.242172 0.434760
O O12 0.500000 0.185404 0.482812
O O13 0.261089 0.220265 0.518170
O O14 0.302863 0.000000 0.468268
O O15 0.500000 0.715428 0.043621
O O16 0.339599 0.500000 0.054321
O O17 0.500000 0.222062 0.727016
O O18 0.342433 0.000000 0.726668
#
# Coordination Sequence:
#
# PCOD8190327 Si02
#       6
#     8   8   8   8   8   8
#     4   8  13  22  35  47  62  91 127 153 175 214
#     4   8  13  21  32  45  64  94 128 152 172 213
#     4   8  14  25  40  56  75 102 133 159 185 224
#     4   9  16  25  39  59  79  98 125 163 198 222
#     4   8  14  24  36  50  71 100 129 154 185 228
#     4   9  15  20  28  46  71  94 116 148 189 224
#
# _framework density 16.564713999999999
#
# number of rings (size 3 to 8) (size 9 to 14) (size 15 to 20)
#    0.000    3.667    0.000    2.500    0.000    2.667 
#    0.000    4.167    0.000    1.500    0.000    0.000 
#    0.000    1.333    0.000    5.667    0.000    7.500 
#
# Total GULP energy -297384.204685 kJ/mol
# GULP energy per Si atom -12391.008529 kJ/mol
# Density = 1.652701 g / cm^3
# Si number density = 16.564714 Si / 1000 Ang^3
#
#
#
# Elastic Constant Matrix: (Units=GPa)
#
#
# Indices 1 2 3 4 5 6 
#
# 1 92.4945 16.7801 86.2943 0.0000 0.0000 0.0000
# 2 16.7801 18.1530 30.3760 0.0000 0.0000 0.0000
# 3 86.2943 30.3760 184.0418 0.0000 0.0000 0.0000
# 4 0.0000 0.0000 0.0000 16.6255 0.0000 0.0000
# 5 0.0000 0.0000 0.0000 0.0000 30.3987 0.0000
# 6 0.0000 0.0000 0.0000 0.0000 0.0000 5.3302
#
#
#
# Elastic Compliance Matrix: (Units=1/GPa)
#
#
# Indices 1 2 3 4 5 6 
#
# 1 0.019401 -0.003746 -0.008479 0.000000 0.000000 0.000000
# 2 -0.003746 0.076830 -0.010924 0.000000 0.000000 0.000000
# 3 -0.008479 -0.010924 0.011212 0.000000 0.000000 0.000000
# 4 0.000000 0.000000 0.000000 0.060149 0.000000 0.000000
# 5 0.000000 0.000000 0.000000 0.000000 0.032896 0.000000
# 6 0.000000 0.000000 0.000000 0.000000 0.000000 0.187612
#
#
# Mechanical properties :
#
#
# Convention : Reuss Voigt Hill
#
# Bulk Modulus (GPa) = 16.35454 62.39889 39.37671
# Shear Modulus (GPa) = 10.99432 21.22013 16.10723
#
# Velocity S-wave (km/s) = 2.57907 3.58305 3.12169
# Velocity P-wave (km/s) = 4.33167 7.40738 6.06764
#
# Compressibility (1/GPa) = 0.06114511
#
# Stress axis : x y z
#
# Youngs Moduli (GPa) = 51.54252 13.01575 89.18948
#
# Poissons Ratio (x) = 0.04876 0.75621
# Poissons Ratio (y) = 0.19310 0.97431
# Poissons Ratio (z) = 0.43701 0.14219
#
# Static dielectric constant tensor:
#      x y z
#    x 3.129410 0.000000 0.000000 
#    y 0.000000 2.512050 0.000000 
#    z 0.000000 0.000000 3.656520 
# 
# 
# High freq. dielectric constant tensor:
#      x y z
#    x 1.621450 0.000000 0.000000 
#    y 0.000000 1.554790 0.000000 
#    z 0.000000 0.000000 1.657730 
# 
# From -- ./inp_files/26031.got.cif
#   From: 2010.03.12/outbox.cif.g09.slc.cpg/sg44_14_cif.got.tgz:26031.got - 2010.04.14 02:36:11.
