data_PCOD8190760
_publ_section_title
;
Structure prediction by ZEFSAII (Michael W. Deem and Ramdas Pophale) SiO2 
 PCOD8190760
Probable space group: I B A 2
;
_chemical_formula_sum "Si O2"
_cell_formula_units_Z 56
_cell_length_a 14.795283
_cell_length_b 17.159503
_cell_length_c 8.431390
_cell_angle_alpha 90.000000
_cell_angle_beta 90.000000
_cell_angle_gamma 90.000000
_cell_volume 2140.558789
_symmetry_space_group_name_H-M "I B A 2"
_symmetry_group_IT_number 45
_symmetry_cell_setting 'orthorhombic'
loop_
_space_group_symop_operation_xyz
x,y,z
-x,-y,z
-x,y,1/2+z
x,-y,1/2+z
1/2+x,1/2+y,1/2+z
1/2-x,1/2-y,1/2+z
1/2-x,1/2+y,z
1/2+x,1/2-y,z
loop_
_atom_site_type_symbol
_atom_site_label
_atom_site_fract_x
_atom_site_fract_y
_atom_site_fract_z
Si Si1 0.103421 0.285587 0.040280
Si Si2 0.187034 0.233853 0.547324
Si Si3 0.114869 0.893287 0.255462
Si Si4 0.368183 0.913271 0.578999
Si Si5 0.681641 0.530305 0.574076
Si Si6 0.989397 0.623460 0.307826
Si Si7 0.914983 0.848059 0.264544
O O1 0.074526 0.200731 0.101903
O O2 0.080217 0.348969 0.173902
O O3 0.210069 0.287115 0.003239
O O4 0.039523 0.301965 0.889147
O O5 0.157990 0.190767 0.711734
O O6 0.173742 0.325760 0.572782
O O7 0.123150 0.206226 0.403885
O O8 0.162918 0.931683 0.404784
O O9 0.010799 0.886687 0.303188
O O10 0.132562 0.946766 0.097713
O O11 0.290152 0.978094 0.583348
O O12 0.429594 0.927512 0.733709
O O13 0.432528 0.928366 0.428985
O O14 0.653555 0.582374 0.725365
#
# Coordination Sequence:
#
# PCOD8190760 Si02
#       7
#     8   8   8   8   8   8   8
#     4  11  23  38  65 103 147 186 244 309 378 444
#     4  12  25  42  72 108 147 198 251 313 384 446
#     4  12  28  46  71 104 149 201 248 313 374 463
#     4  11  23  43  73 107 149 187 246 320 381 453
#     4  12  27  47  71 100 149 200 253 305 378 463
#     4  10  22  38  64 104 141 181 238 314 382 439
#     4  12  25  42  67 103 149 197 251 304 374 454
#
# _framework density 26.161391999999999
#
# number of rings (size 3 to 8) (size 9 to 14) (size 15 to 20)
#    0.000    0.571    2.857    5.571    4.000    1.143 
#    0.000    0.000    0.000   14.571    0.000    0.000 
#    0.000    0.000    0.000    0.000    0.000    0.000 
#
# Total GULP energy -347290.114435 kJ/mol
# GULP energy per Si atom -12403.218373 kJ/mol
# Density = 2.610185 g / cm^3
# Si number density = 26.161392 Si / 1000 Ang^3
#
#
#
# Elastic Constant Matrix: (Units=GPa)
#
#
# Indices 1 2 3 4 5 6 
#
# 1 190.9173 17.1688 44.0424 0.0000 0.0000 0.0000
# 2 17.1688 37.9474 9.9251 0.0000 0.0000 0.0000
# 3 44.0424 9.9251 82.1577 0.0000 0.0000 0.0000
# 4 0.0000 0.0000 0.0000 28.4635 0.0000 0.0000
# 5 0.0000 0.0000 0.0000 0.0000 38.1869 0.0000
# 6 0.0000 0.0000 0.0000 0.0000 0.0000 30.7523
#
#
#
# Elastic Compliance Matrix: (Units=1/GPa)
#
#
# Indices 1 2 3 4 5 6 
#
# 1 0.006117 -0.001972 -0.003041 0.000000 0.000000 0.000000
# 2 -0.001972 0.027848 -0.002307 0.000000 0.000000 0.000000
# 3 -0.003041 -0.002307 0.014080 0.000000 0.000000 0.000000
# 4 0.000000 0.000000 0.000000 0.035133 0.000000 0.000000
# 5 0.000000 0.000000 0.000000 0.000000 0.026187 0.000000
# 6 0.000000 0.000000 0.000000 0.000000 0.000000 0.032518
#
#
# Mechanical properties :
#
#
# Convention : Reuss Voigt Hill
#
# Bulk Modulus (GPa) = 29.93530 50.36612 40.15071
# Shear Modulus (GPa) = 29.82272 35.47296 32.64784
#
# Velocity S-wave (km/s) = 3.37998 3.68629 3.53645
# Velocity P-wave (km/s) = 5.16718 6.11655 5.66180
#
# Compressibility (1/GPa) = 0.03340538
#
# Stress axis : x y z
#
# Youngs Moduli (GPa) = 163.48733 35.90934 71.02039
#
# Poissons Ratio (x) = 0.07082 0.21595
# Poissons Ratio (y) = 0.32241 0.16384
# Poissons Ratio (z) = 0.49712 0.08284
#
# Static dielectric constant tensor:
#      x y z
#    x 4.925770 0.000000 0.000000 
#    y 0.000000 4.597050 0.000000 
#    z 0.000000 0.000000 4.834030 
# 
# 
# High freq. dielectric constant tensor:
#      x y z
#    x 2.062710 0.000000 0.000000 
#    y 0.000000 2.031120 0.000000 
#    z 0.000000 0.000000 2.059100 
# 
# From -- ./inp_files/1812.got.cif
#   From: 2010.03.12/outbox.cif.g09.slc.cpg/sg45_1_cif.got.tgz:1812.got - 2010.04.14 02:50:11.
