data_PCOD8190668
_publ_section_title
;
Structure prediction by ZEFSAII (Michael W. Deem and Ramdas Pophale) SiO2 
 PCOD8190668
Probable space group: I B A 2
;
_chemical_formula_sum "Si O2"
_cell_formula_units_Z 40
_cell_length_a 19.421481
_cell_length_b 9.399442
_cell_length_c 8.674345
_cell_angle_alpha 90.000000
_cell_angle_beta 90.000000
_cell_angle_gamma 90.000000
_cell_volume 1583.511085
_symmetry_space_group_name_H-M "I B A 2"
_symmetry_group_IT_number 45
_symmetry_cell_setting 'orthorhombic'
loop_
_space_group_symop_operation_xyz
x,y,z
-x,-y,z
-x,y,1/2+z
x,-y,1/2+z
1/2+x,1/2+y,1/2+z
1/2-x,1/2-y,1/2+z
1/2-x,1/2+y,z
1/2+x,1/2-y,z
loop_
_atom_site_type_symbol
_atom_site_label
_atom_site_fract_x
_atom_site_fract_y
_atom_site_fract_z
Si Si1 0.087016 0.990713 0.209940
Si Si2 0.883866 0.202628 0.957676
Si Si3 0.183589 0.325319 0.973208
Si Si4 0.538540 0.297695 0.962911
Si Si5 0.275851 0.106510 0.824479
O O1 0.037521 0.886424 0.305255
O O2 0.131859 0.094530 0.316243
O O3 0.137091 0.887438 0.110300
O O4 0.042065 0.088006 0.097871
O O5 0.835691 0.336039 0.937172
O O6 0.961610 0.266867 0.968924
O O7 0.211618 0.353667 0.145691
O O8 0.099627 0.320289 0.973349
O O9 0.205986 0.172456 0.899215
O O10 0.217491 0.437877 0.854309
#
# Coordination Sequence:
#
# PCOD8190668 Si02
#       5
#     8   8   8   8   8
#     4  10  21  38  70 112 144 180 229 288 349 410
#     4  11  22  41  71 106 143 184 234 288 347 413
#     4  12  30  51  73 103 141 188 236 291 357 423
#     4  11  22  41  71 106 143 184 234 288 347 413
#     4  12  30  51  73 103 141 188 236 291 357 423
#
# _framework density 25.260321999999999
#
# number of rings (size 3 to 8) (size 9 to 14) (size 15 to 20)
#    0.000    0.800    2.000    6.000   11.200    0.800 
#    0.000    2.000    0.000    0.000    0.000    0.000 
#    0.000    0.000    0.000    0.000    0.000    0.000 
#
# Total GULP energy -247852.704001 kJ/mol
# GULP energy per Si atom -12392.635200 kJ/mol
# Density = 2.520283 g / cm^3
# Si number density = 25.260322 Si / 1000 Ang^3
#
#
#
# Elastic Constant Matrix: (Units=GPa)
#
#
# Indices 1 2 3 4 5 6 
#
# 1 107.7467 8.6658 0.6681 0.0000 0.0000 0.0000
# 2 8.6658 75.3290 15.1081 0.0000 0.0000 0.0000
# 3 0.6681 15.1081 146.5963 0.0000 0.0000 0.0000
# 4 0.0000 0.0000 0.0000 46.3828 0.0000 0.0000
# 5 0.0000 0.0000 0.0000 0.0000 19.7387 0.0000
# 6 0.0000 0.0000 0.0000 0.0000 0.0000 32.6749
#
#
#
# Elastic Compliance Matrix: (Units=1/GPa)
#
#
# Indices 1 2 3 4 5 6 
#
# 1 0.009368 -0.001092 0.000070 0.000000 0.000000 0.000000
# 2 -0.001092 0.013683 -0.001405 0.000000 0.000000 0.000000
# 3 0.000070 -0.001405 0.006966 0.000000 0.000000 0.000000
# 4 0.000000 0.000000 0.000000 0.021560 0.000000 0.000000
# 5 0.000000 0.000000 0.000000 0.000000 0.050662 0.000000
# 6 0.000000 0.000000 0.000000 0.000000 0.000000 0.030605
#
#
# Mechanical properties :
#
#
# Convention : Reuss Voigt Hill
#
# Bulk Modulus (GPa) = 39.74131 42.06180 40.90155
# Shear Modulus (GPa) = 34.22673 40.10795 37.16734
#
# Velocity S-wave (km/s) = 3.68497 3.98902 3.84001
# Velocity P-wave (km/s) = 5.81998 6.15661 5.99066
#
# Compressibility (1/GPa) = 0.02516273
#
# Stress axis : x y z
#
# Youngs Moduli (GPa) = 106.74184 73.08603 143.55541
#
# Poissons Ratio (x) = 0.07979 -0.01002
# Poissons Ratio (y) = 0.11653 0.20172
# Poissons Ratio (z) = -0.00745 0.10270
#
# Static dielectric constant tensor:
#      x y z
#    x 4.456990 0.000000 0.000000 
#    y 0.000000 4.253670 0.000000 
#    z 0.000000 0.000000 5.041830 
# 
# 
# High freq. dielectric constant tensor:
#      x y z
#    x 2.020440 0.000000 0.000000 
#    y 0.000000 1.971750 0.000000 
#    z 0.000000 0.000000 2.037000 
# 
# From -- ./inp_files/2455.got.cif
#   From: 2010.03.12/outbox.cif.g09.slc.cpg/sg45_2_cif.got.tgz:2455.got - 2010.04.14 02:50:11.
