data_PCOD8190960
_publ_section_title
;
Structure prediction by ZEFSAII (Michael W. Deem and Ramdas Pophale) SiO2 
 PCOD8190960
Probable space group: I B A 2
;
_chemical_formula_sum "Si O2"
_cell_formula_units_Z 48
_cell_length_a 9.714264
_cell_length_b 17.119070
_cell_length_c 12.580347
_cell_angle_alpha 90.000000
_cell_angle_beta 90.000000
_cell_angle_gamma 90.000000
_cell_volume 2092.101207
_symmetry_space_group_name_H-M "I B A 2"
_symmetry_group_IT_number 45
_symmetry_cell_setting 'orthorhombic'
loop_
_space_group_symop_operation_xyz
x,y,z
-x,-y,z
-x,y,1/2+z
x,-y,1/2+z
1/2+x,1/2+y,1/2+z
1/2-x,1/2-y,1/2+z
1/2-x,1/2+y,z
1/2+x,1/2-y,z
loop_
_atom_site_type_symbol
_atom_site_label
_atom_site_fract_x
_atom_site_fract_y
_atom_site_fract_z
Si Si1 0.628506 0.149006 0.501420
Si Si2 0.422301 0.415747 0.459206
Si Si3 0.969873 0.223776 0.839589
Si Si4 0.000000 0.500000 0.917989
Si Si5 0.218616 0.030661 0.321900
Si Si6 0.500000 0.500000 0.152793
Si Si7 0.213788 0.693511 0.235403
O O1 0.778254 0.129499 0.456744
O O2 0.571556 0.224225 0.440640
O O3 0.517418 0.077499 0.491988
O O4 0.648661 0.170439 0.624374
O O5 0.520817 0.367280 0.378832
O O6 0.383416 0.506021 0.420454
O O7 0.482841 0.422629 0.578813
O O8 0.864748 0.234094 0.739312
O O9 0.116412 0.248336 0.797399
O O10 0.868313 0.493440 0.840903
O O11 0.141741 0.993070 0.219341
O O12 0.254879 0.120602 0.311729
#
# Coordination Sequence:
#
# PCOD8190960 Si02
#       7
#     8   8   8   4   8   4   8
#     4  11  25  47  72 106 144 194 245 300 367 440
#     4  11  25  45  71 108 144 185 241 307 368 421
#     4  12  26  48  71 107 153 188 236 312 362 445
#     4  10  24  50  70 102 148 184 246 314 356 422
#     4  11  24  46  73 103 145 187 248 303 355 434
#     4  12  22  44  76 104 138 188 240 294 354 450
#     4  12  26  46  74 106 143 196 247 290 377 435
#
# _framework density 22.943439000000001
#
# number of rings (size 3 to 8) (size 9 to 14) (size 15 to 20)
#    0.000    0.667    5.000    2.500    2.333    0.667 
#    0.000    0.000    0.000    0.000    0.000    0.000 
#    0.000    0.000    0.000    0.000    0.000    0.000 
#
# Total GULP energy -297377.668519 kJ/mol
# GULP energy per Si atom -12390.736188 kJ/mol
# Density = 2.289122 g / cm^3
# Si number density = 22.943439 Si / 1000 Ang^3
#
#
#
# Elastic Constant Matrix: (Units=GPa)
#
#
# Indices 1 2 3 4 5 6 
#
# 1 137.2846 29.3552 57.2057 0.0001 0.0001 0.0000
# 2 29.3552 113.8250 34.7121 0.0000 0.0000 0.0000
# 3 57.2057 34.7121 119.3468 0.0000 -0.0001 0.0000
# 4 0.0001 0.0000 0.0000 35.3008 -0.0001 0.0000
# 5 0.0001 0.0000 -0.0001 -0.0001 32.9094 0.0000
# 6 0.0000 0.0000 0.0000 0.0000 0.0000 29.0811
#
#
#
# Elastic Compliance Matrix: (Units=1/GPa)
#
#
# Indices 1 2 3 4 5 6 
#
# 1 0.009233 -0.001132 -0.004096 0.000000 0.000000 0.000000
# 2 -0.001132 0.009779 -0.002302 0.000000 0.000000 0.000000
# 3 -0.004096 -0.002302 0.011012 0.000000 0.000000 0.000000
# 4 0.000000 0.000000 0.000000 0.028328 0.000000 0.000000
# 5 0.000000 0.000000 0.000000 0.000000 0.030386 0.000000
# 6 0.000000 0.000000 0.000000 0.000000 0.000000 0.034387
#
#
# Mechanical properties :
#
#
# Convention : Reuss Voigt Hill
#
# Bulk Modulus (GPa) = 66.82662 68.11137 67.46899
# Shear Modulus (GPa) = 34.92263 36.07049 35.49656
#
# Velocity S-wave (km/s) = 3.90567 3.96933 3.93763
# Velocity P-wave (km/s) = 7.03768 7.12451 7.08122
#
# Compressibility (1/GPa) = 0.01496410
#
# Stress axis : x y z
#
# Youngs Moduli (GPa) = 108.30550 102.25702 90.81069
#
# Poissons Ratio (x) = 0.11575 0.37200
# Poissons Ratio (y) = 0.12260 0.20902
# Poissons Ratio (z) = 0.44367 0.23537
#
# Static dielectric constant tensor:
#      x y z
#    x 4.721050 0.000000 0.000000 
#    y 0.000000 4.363810 0.000000 
#    z 0.000000 0.000000 3.965650 
# 
# 
# High freq. dielectric constant tensor:
#      x y z
#    x 1.938730 0.000000 0.000000 
#    y 0.000000 1.911790 0.000000 
#    z 0.000000 0.000000 1.892100 
# 
# From -- ./inp_files/5638.got.cif
#   From: 2010.03.12/outbox.cif.g09.slc.cpg/sg45_3_cif.got.tgz:5638.got - 2010.04.14 02:50:11.
