data_PCOD8190656
_publ_section_title
;
Structure prediction by ZEFSAII (Michael W. Deem and Ramdas Pophale) SiO2 
 PCOD8190656
Probable space group: I B A 2
;
_chemical_formula_sum "Si O2"
_cell_formula_units_Z 56
_cell_length_a 28.253589
_cell_length_b 16.182870
_cell_length_c 5.240622
_cell_angle_alpha 90.000000
_cell_angle_beta 90.000000
_cell_angle_gamma 90.000000
_cell_volume 2396.138980
_symmetry_space_group_name_H-M "I B A 2"
_symmetry_group_IT_number 45
_symmetry_cell_setting 'orthorhombic'
loop_
_space_group_symop_operation_xyz
x,y,z
-x,-y,z
-x,y,1/2+z
x,-y,1/2+z
1/2+x,1/2+y,1/2+z
1/2-x,1/2-y,1/2+z
1/2-x,1/2+y,z
1/2+x,1/2-y,z
loop_
_atom_site_type_symbol
_atom_site_label
_atom_site_fract_x
_atom_site_fract_y
_atom_site_fract_z
Si Si1 0.739541 0.202658 0.282100
Si Si2 0.197475 0.952036 0.298072
Si Si3 0.913436 0.766991 0.805457
Si Si4 0.586302 0.550333 0.310800
Si Si5 0.869112 0.294338 0.807879
Si Si6 0.617522 0.975626 0.809033
Si Si7 0.030196 0.397519 0.799385
O O1 0.748354 0.273140 0.492209
O O2 0.772853 0.128298 0.365145
O O3 0.684896 0.176365 0.297026
O O4 0.142108 0.932013 0.315860
O O5 0.210861 0.018253 0.515109
O O6 0.937271 0.858213 0.804303
O O7 0.879220 0.759075 0.559463
O O8 0.953944 0.698236 0.795556
O O9 0.882213 0.758856 0.061191
O O10 0.569957 0.501325 0.563379
O O11 0.899367 0.380057 0.814831
O O12 0.648107 0.996711 0.555568
O O13 0.573402 0.038485 0.787412
O O14 0.997679 0.415498 0.557672
#
# Coordination Sequence:
#
# PCOD8190656 Si02
#       7
#     8   8   8   8   8   8   8
#     4  12  25  41  64  93 127 176 225 271 335 381
#     4  10  21  38  59  89 119 158 212 264 321 381
#     4  12  24  45  66  98 129 167 224 271 338 404
#     4  10  21  39  67  94 121 160 208 275 330 396
#     4  12  24  42  64  93 134 181 220 278 317 394
#     4  12  23  43  61  97 136 176 234 258 325 391
#     4  12  26  44  69  99 138 177 224 277 326 397
#
# _framework density 23.370930000000001
#
# number of rings (size 3 to 8) (size 9 to 14) (size 15 to 20)
#    0.000    0.571    2.857    6.000    0.000    5.143 
#    0.000    0.000    0.000    2.571    0.000    0.000 
#    0.000    0.000    0.000    0.000    0.000    0.000 
#
# Total GULP energy -347200.749079 kJ/mol
# GULP energy per Si atom -12400.026753 kJ/mol
# Density = 2.331774 g / cm^3
# Si number density = 23.370930 Si / 1000 Ang^3
#
#
#
# Elastic Constant Matrix: (Units=GPa)
#
#
# Indices 1 2 3 4 5 6 
#
# 1 37.2513 11.0396 2.1115 0.0000 0.0000 0.0000
# 2 11.0396 163.5152 32.5425 0.0000 0.0000 0.0000
# 3 2.1115 32.5425 187.4220 0.0000 0.0000 0.0000
# 4 0.0000 0.0000 0.0000 39.8114 0.0000 0.0000
# 5 0.0000 0.0000 0.0000 0.0000 -0.5809 0.0000
# 6 0.0000 0.0000 0.0000 0.0000 0.0000 27.5655
#
#
#
# Elastic Compliance Matrix: (Units=1/GPa)
#
#
# Indices 1 2 3 4 5 6 
#
# 1 0.027393 -0.001852 0.000013 0.000000 0.000000 0.000000
# 2 -0.001852 0.006460 -0.001101 0.000000 0.000000 0.000000
# 3 0.000013 -0.001101 0.005527 0.000000 0.000000 0.000000
# 4 0.000000 0.000000 0.000000 0.025118 0.000000 0.000000
# 5 0.000000 0.000000 0.000000 0.000000 -1.721339 0.000000
# 6 0.000000 0.000000 0.000000 0.000000 0.000000 0.036277
#
#
# Mechanical properties :
#
#
# Convention : Reuss Voigt Hill
#
# Bulk Modulus (GPa) = 29.85119 53.28619 41.56869
# Shear Modulus (GPa) = -3.11814 36.19218 16.53702
#
# Velocity S-wave (km/s) = -1.15633 3.93949 2.66294
# Velocity P-wave (km/s) = 3.31930 6.59867 5.22304
#
# Compressibility (1/GPa) = 0.03349950
#
# Stress axis : x y z
#
# Youngs Moduli (GPa) = 36.50596 154.80490 180.94525
#
# Poissons Ratio (x) = 0.28670 -0.00234
# Poissons Ratio (y) = 0.06761 0.19918
# Poissons Ratio (z) = -0.00047 0.17040
#
# Static dielectric constant tensor:
#      x y z
#    x 3.832770 0.000000 0.000000 
#    y 0.000000 4.435590 0.000000 
#    z 0.000000 0.000000 7.021440 
# 
# 
# High freq. dielectric constant tensor:
#      x y z
#    x 1.883970 0.000000 0.000000 
#    y 0.000000 1.936360 0.000000 
#    z 0.000000 0.000000 1.960450 
# 
# From -- ./inp_files/670.got.cif
#   From: 2010.03.12/outbox.cif.g09.slc.cpg/sg45_1_cif.got.tgz:670.got - 2010.04.14 02:50:11.
