data_PCOD8190932
_publ_section_title
;
Structure prediction by ZEFSAII (Michael W. Deem and Ramdas Pophale) SiO2 
 PCOD8190932
Probable space group: I B A 2
;
_chemical_formula_sum "Si O2"
_cell_formula_units_Z 60
_cell_length_a 8.876739
_cell_length_b 25.924686
_cell_length_c 11.765597
_cell_angle_alpha 90.000000
_cell_angle_beta 90.000000
_cell_angle_gamma 90.000000
_cell_volume 2707.577673
_symmetry_space_group_name_H-M "I B A 2"
_symmetry_group_IT_number 45
_symmetry_cell_setting 'orthorhombic'
loop_
_space_group_symop_operation_xyz
x,y,z
-x,-y,z
-x,y,1/2+z
x,-y,1/2+z
1/2+x,1/2+y,1/2+z
1/2-x,1/2-y,1/2+z
1/2-x,1/2+y,z
1/2+x,1/2-y,z
loop_
_atom_site_type_symbol
_atom_site_label
_atom_site_fract_x
_atom_site_fract_y
_atom_site_fract_z
Si Si1 0.212374 0.076771 0.908860
Si Si2 0.039003 0.174012 0.820368
Si Si3 0.417738 0.922391 0.618988
Si Si4 0.215910 0.530134 0.674280
Si Si5 0.000000 0.000000 0.041334
Si Si6 0.137659 0.754876 0.128843
Si Si7 0.794648 0.335368 0.279263
Si Si8 0.603325 0.227785 0.970928
O O1 0.151888 0.130783 0.863967
O O2 0.280455 0.044958 0.805479
O O3 0.347959 0.089022 0.995746
O O4 0.081908 0.042755 0.965660
O O5 0.088408 0.193128 0.694659
O O6 0.045934 0.221090 0.907674
O O7 0.873558 0.147717 0.814557
O O8 0.598132 0.931986 0.608463
O O9 0.382573 0.876561 0.705345
O O10 0.340880 0.972045 0.673258
O O11 0.381113 0.532422 0.617484
O O12 0.232853 0.718312 0.212019
O O13 0.226273 0.768391 0.014326
O O14 0.996401 0.720701 0.084165
O O15 0.900650 0.321935 0.387969
#
# Coordination Sequence:
#
# PCOD8190932 Si02
#       8
#     8   8   8   8   4   8   8   8
#     4  11  25  44  72 100 140 186 228 292 364 424
#     4  11  25  41  68  99 135 178 235 286 352 435
#     4  10  25  46  70 103 144 179 232 296 356 426
#     4  10  24  47  70 103 140 180 238 289 353 432
#     4  10  24  44  74 104 138 186 236 290 352 432
#     4  11  23  43  67  95 139 179 232 287 349 419
#     4  11  24  42  69 101 133 181 235 288 351 434
#     4  11  23  43  66  95 134 182 223 291 352 415
#
# _framework density 22.160028000000001
#
# number of rings (size 3 to 8) (size 9 to 14) (size 15 to 20)
#    0.000    1.333    2.667    1.200    5.600    7.467 
#    2.400    0.000    0.000    0.000    0.000    0.000 
#    0.000    0.000    0.000    0.000    0.000    0.000 
#
# Total GULP energy -372022.295976 kJ/mol
# GULP energy per Si atom -12400.743199 kJ/mol
# Density = 2.210959 g / cm^3
# Si number density = 22.160028 Si / 1000 Ang^3
#
#
#
# Elastic Constant Matrix: (Units=GPa)
#
#
# Indices 1 2 3 4 5 6 
#
# 1 140.3130 45.1469 66.1348 0.0003 0.0000 0.0002
# 2 45.1469 81.9345 48.1518 0.0001 0.0000 0.0001
# 3 66.1348 48.1518 137.4323 0.0013 -0.0006 0.0009
# 4 0.0003 0.0001 0.0013 45.5573 -0.0003 0.0003
# 5 0.0000 0.0000 -0.0006 -0.0003 29.4704 -0.0001
# 6 0.0002 0.0001 0.0009 0.0003 -0.0001 25.3717
#
#
#
# Elastic Compliance Matrix: (Units=1/GPa)
#
#
# Indices 1 2 3 4 5 6 
#
# 1 0.009895 -0.003342 -0.003591 0.000000 0.000000 0.000000
# 2 -0.003342 0.016498 -0.004172 0.000000 0.000000 0.000000
# 3 -0.003591 -0.004172 0.010466 0.000000 0.000000 0.000000
# 4 0.000000 0.000000 0.000000 0.021950 0.000000 0.000000
# 5 0.000000 0.000000 0.000000 0.000000 0.033932 0.000000
# 6 0.000000 0.000000 0.000000 0.000000 0.000000 0.039414
#
#
# Mechanical properties :
#
#
# Convention : Reuss Voigt Hill
#
# Bulk Modulus (GPa) = 68.26232 75.39409 71.82821
# Shear Modulus (GPa) = 31.39754 33.42964 32.41359
#
# Velocity S-wave (km/s) = 3.76820 3.88823 3.82868
# Velocity P-wave (km/s) = 7.05716 7.36574 7.21310
#
# Compressibility (1/GPa) = 0.01464937
#
# Stress axis : x y z
#
# Youngs Moduli (GPa) = 101.06554 60.61229 95.54781
#
# Poissons Ratio (x) = 0.20256 0.34307
# Poissons Ratio (y) = 0.33775 0.39865
# Poissons Ratio (z) = 0.36288 0.25289
#
# Static dielectric constant tensor:
#      x y z
#    x 4.137890 0.000000 0.000000 
#    y 0.000000 3.803450 0.000000 
#    z 0.000000 0.000000 4.129070 
# 
# 
# High freq. dielectric constant tensor:
#      x y z
#    x 1.883130 0.000000 0.000000 
#    y 0.000000 1.861310 0.000000 
#    z 0.000000 0.000000 1.883780 
# 
# From -- ./inp_files/3360.got.cif
#   From: 2010.03.12/outbox.cif.g09.slc.cpg/sg45_2_cif.got.tgz:3360.got - 2010.04.14 02:50:11.
