data_PCOD8190659
_publ_section_title
;
Structure prediction by ZEFSAII (Michael W. Deem and Ramdas Pophale) SiO2 
 PCOD8190659
Probable space group: I B A 2
;
_chemical_formula_sum "Si O2"
_cell_formula_units_Z 64
_cell_length_a 11.061635
_cell_length_b 23.422612
_cell_length_c 10.821335
_cell_angle_alpha 90.000000
_cell_angle_beta 90.000000
_cell_angle_gamma 90.000000
_cell_volume 2803.725491
_symmetry_space_group_name_H-M "I B A 2"
_symmetry_group_IT_number 45
_symmetry_cell_setting 'orthorhombic'
loop_
_space_group_symop_operation_xyz
x,y,z
-x,-y,z
-x,y,1/2+z
x,-y,1/2+z
1/2+x,1/2+y,1/2+z
1/2-x,1/2-y,1/2+z
1/2-x,1/2+y,z
1/2+x,1/2-y,z
loop_
_atom_site_type_symbol
_atom_site_label
_atom_site_fract_x
_atom_site_fract_y
_atom_site_fract_z
Si Si1 0.634865 0.525862 0.794870
Si Si2 0.563441 0.710707 0.770632
Si Si3 0.128765 0.032481 0.566294
Si Si4 0.661664 0.351618 0.687286
Si Si5 0.055153 0.322885 0.828256
Si Si6 0.764744 0.131380 0.669838
Si Si7 0.815299 0.357854 0.918079
Si Si8 0.764038 0.771753 0.481029
O O1 0.500000 0.500000 0.803205
O O2 0.704719 0.490853 0.685681
O O3 0.645129 0.591073 0.749107
O O4 0.692201 0.521355 0.932840
O O5 0.449710 0.669296 0.767899
O O6 0.523837 0.776560 0.750192
O O7 0.661240 0.692057 0.664462
O O8 0.628608 0.699753 0.901155
O O9 0.120193 0.100512 0.588380
O O10 0.000000 0.000000 0.568074
O O11 0.754175 0.375979 0.789600
O O12 0.720608 0.297010 0.618724
O O13 0.136066 0.360904 0.737740
O O14 0.133123 0.289146 0.929567
O O15 0.959918 0.363801 0.899776
O O16 0.735471 0.104682 0.533846
O O17 0.781756 0.295413 0.969709
#
# Coordination Sequence:
#
# PCOD8190659 Si02
#       8
#     8   8   8   8   8   8   8   8
#     4  10  22  44  69 102 137 173 225 299 373 433
#     4  10  21  38  61  92 138 183 233 287 352 424
#     4  10  22  40  68  99 140 174 224 291 367 430
#     4  12  24  40  67 102 139 188 239 298 372 429
#     4  10  22  43  62  93 136 192 237 288 348 425
#     4  11  24  42  68 100 140 185 233 299 369 422
#     4  11  26  38  66  99 139 191 245 288 350 444
#     4  10  23  41  61  93 140 192 239 293 352 419
#
# _framework density 22.826771000000001
#
# number of rings (size 3 to 8) (size 9 to 14) (size 15 to 20)
#    0.000    1.500    1.250    3.750    8.750    1.000 
#    2.250    0.000    0.000    0.750    0.000    0.000 
#    0.000    0.000    0.000    0.000    0.000    0.000 
#
# Total GULP energy -396432.138435 kJ/mol
# GULP energy per Si atom -12388.504326 kJ/mol
# Density = 2.277482 g / cm^3
# Si number density = 22.826771 Si / 1000 Ang^3
#
#
#
# Elastic Constant Matrix: (Units=GPa)
#
#
# Indices 1 2 3 4 5 6 
#
# 1 100.2354 14.5805 30.7343 0.0000 0.0000 0.0000
# 2 14.5805 68.2112 28.3489 0.0002 0.0000 0.0000
# 3 30.7343 28.3489 153.5112 0.0008 -0.0004 0.0000
# 4 0.0000 0.0002 0.0008 32.5421 -0.0001 0.0000
# 5 0.0000 0.0000 -0.0004 -0.0001 24.0951 0.0001
# 6 0.0000 0.0000 0.0000 0.0000 0.0001 25.7975
#
#
#
# Elastic Compliance Matrix: (Units=1/GPa)
#
#
# Indices 1 2 3 4 5 6 
#
# 1 0.010773 -0.001523 -0.001876 0.000000 0.000000 0.000000
# 2 -0.001523 0.016094 -0.002667 0.000000 0.000000 0.000000
# 3 -0.001876 -0.002667 0.007382 0.000000 0.000000 0.000000
# 4 0.000000 0.000000 0.000000 0.030729 0.000000 0.000000
# 5 0.000000 0.000000 0.000000 0.000000 0.041502 0.000000
# 6 0.000000 0.000000 0.000000 0.000000 0.000000 0.038763
#
#
# Mechanical properties :
#
#
# Convention : Reuss Voigt Hill
#
# Bulk Modulus (GPa) = 45.21260 52.14281 48.67771
# Shear Modulus (GPa) = 30.34905 33.03987 31.69446
#
# Velocity S-wave (km/s) = 3.65024 3.80862 3.73027
# Velocity P-wave (km/s) = 6.13315 6.49871 6.31857
#
# Compressibility (1/GPa) = 0.02211773
#
# Stress axis : x y z
#
# Youngs Moduli (GPa) = 92.82302 62.13314 135.46031
#
# Poissons Ratio (x) = 0.09465 0.25407
# Poissons Ratio (y) = 0.14140 0.36130
# Poissons Ratio (z) = 0.17410 0.16572
#
# Static dielectric constant tensor:
#      x y z
#    x 4.000460 0.000000 0.000000 
#    y 0.000000 3.977150 0.000000 
#    z 0.000000 0.000000 4.801100 
# 
# 
# High freq. dielectric constant tensor:
#      x y z
#    x 1.874160 0.000000 0.000000 
#    y 0.000000 1.876680 0.000000 
#    z 0.000000 0.000000 1.919180 
# 
# From -- ./inp_files/3893.got.cif
#   From: 2010.03.12/outbox.cif.g09.slc.cpg/sg45_2_cif.got.tgz:3893.got - 2010.04.14 02:50:11.
