data_PCOD8190564
_publ_section_title
;
Structure prediction by ZEFSAII (Michael W. Deem and Ramdas Pophale) SiO2 
 PCOD8190564
Probable space group: I B A 2
;
_chemical_formula_sum "Si O2"
_cell_formula_units_Z 48
_cell_length_a 18.750213
_cell_length_b 5.066446
_cell_length_c 22.773416
_cell_angle_alpha 90.000000
_cell_angle_beta 90.000000
_cell_angle_gamma 90.000000
_cell_volume 2163.404871
_symmetry_space_group_name_H-M "I B A 2"
_symmetry_group_IT_number 45
_symmetry_cell_setting 'orthorhombic'
loop_
_space_group_symop_operation_xyz
x,y,z
-x,-y,z
-x,y,1/2+z
x,-y,1/2+z
1/2+x,1/2+y,1/2+z
1/2-x,1/2-y,1/2+z
1/2-x,1/2+y,z
1/2+x,1/2-y,z
loop_
_atom_site_type_symbol
_atom_site_label
_atom_site_fract_x
_atom_site_fract_y
_atom_site_fract_z
Si Si1 0.798901 0.794255 0.010200
Si Si2 0.922556 0.899236 0.925504
Si Si3 0.636168 0.670099 0.761193
Si Si4 0.566476 0.165873 0.803107
Si Si5 0.705938 0.251155 0.143324
Si Si6 0.792394 0.884945 0.372275
O O1 0.741339 0.567841 0.995526
O O2 0.824122 0.789625 0.078029
O O3 0.874969 0.767202 0.976811
O O4 0.937160 0.690339 0.873524
O O5 0.873403 0.135139 0.897720
O O6 0.000000 0.000000 0.948856
O O7 0.572475 0.458475 0.774020
O O8 0.647316 0.670261 0.691578
O O9 0.703609 0.579318 0.801320
O O10 0.630021 0.971155 0.784923
O O11 0.500000 0.000000 0.778056
O O12 0.772716 0.447195 0.152820
O O13 0.743071 0.652987 0.396795
#
# Coordination Sequence:
#
# PCOD8190564 Si02
#       6
#     8   8   8   8   8   8
#     4  10  23  43  66  91 123 164 210 259 309 363
#     4  11  24  41  62  89 125 166 209 255 307 366
#     4  11  21  36  61  90 121 156 202 251 307 371
#     4  11  23  39  57  86 124 165 202 248 310 369
#     4  10  20  38  63  90 121 156 200 256 312 361
#     4  11  21  35  56  86 119 151 193 245 300 360
#
# _framework density 22.187246999999999
#
# number of rings (size 3 to 8) (size 9 to 14) (size 15 to 20)
#    0.000    1.333    0.000    7.500    0.000    4.000 
#    0.000    1.667    0.000    1.000    0.000    0.000 
#    0.000    0.000    0.000    0.000    0.000    0.000 
#
# Total GULP energy -297378.617300 kJ/mol
# GULP energy per Si atom -12390.775721 kJ/mol
# Density = 2.213675 g / cm^3
# Si number density = 22.187247 Si / 1000 Ang^3
#
#
#
# Elastic Constant Matrix: (Units=GPa)
#
#
# Indices 1 2 3 4 5 6 
#
# 1 116.7427 17.1417 36.1389 0.0000 0.0000 0.0000
# 2 17.1417 93.6601 16.2049 0.0000 0.0000 0.0000
# 3 36.1389 16.2049 110.4640 0.0000 0.0000 0.0000
# 4 0.0000 0.0000 0.0000 29.8458 0.0000 0.0000
# 5 0.0000 0.0000 0.0000 0.0000 22.2451 0.0000
# 6 0.0000 0.0000 0.0000 0.0000 0.0000 26.7027
#
#
#
# Elastic Compliance Matrix: (Units=1/GPa)
#
#
# Indices 1 2 3 4 5 6 
#
# 1 0.009673 -0.001255 -0.002980 0.000000 0.000000 0.000000
# 2 -0.001255 0.011118 -0.001220 0.000000 0.000000 0.000000
# 3 -0.002980 -0.001220 0.010207 0.000000 0.000000 0.000000
# 4 0.000000 0.000000 0.000000 0.033506 0.000000 0.000000
# 5 0.000000 0.000000 0.000000 0.000000 0.044954 0.000000
# 6 0.000000 0.000000 0.000000 0.000000 0.000000 0.037449
#
#
# Mechanical properties :
#
#
# Convention : Reuss Voigt Hill
#
# Bulk Modulus (GPa) = 49.78560 51.09308 50.43934
# Shear Modulus (GPa) = 30.39287 32.51748 31.45518
#
# Velocity S-wave (km/s) = 3.70514 3.83246 3.76934
# Velocity P-wave (km/s) = 6.38684 6.53160 6.45962
#
# Compressibility (1/GPa) = 0.02008613
#
# Stress axis : x y z
#
# Youngs Moduli (GPa) = 103.38388 89.94674 97.97362
#
# Poissons Ratio (x) = 0.11285 0.29200
# Poissons Ratio (y) = 0.12971 0.11958
# Poissons Ratio (z) = 0.30813 0.10978
#
# Static dielectric constant tensor:
#      x y z
#    x 3.808630 0.000000 0.000000 
#    y 0.000000 4.267470 0.000000 
#    z 0.000000 0.000000 4.136220 
# 
# 
# High freq. dielectric constant tensor:
#      x y z
#    x 1.848620 0.000000 0.000000 
#    y 0.000000 1.887770 0.000000 
#    z 0.000000 0.000000 1.871810 
# 
# From -- ./inp_files/9813.got.cif
#   From: 2010.03.12/outbox.cif.g09.slc.cpg/sg45_5_cif.got.tgz:9813.got - 2010.04.14 02:50:11.
