data_PCOD8190517
_publ_section_title
;
Structure prediction by ZEFSAII (Michael W. Deem and Ramdas Pophale) SiO2 
 PCOD8190517
Probable space group: I B A 2
;
_chemical_formula_sum "Si O2"
_cell_formula_units_Z 40
_cell_length_a 18.018383
_cell_length_b 9.230077
_cell_length_c 8.500795
_cell_angle_alpha 90.000000
_cell_angle_beta 90.000000
_cell_angle_gamma 90.000000
_cell_volume 1413.776249
_symmetry_space_group_name_H-M "I B A 2"
_symmetry_group_IT_number 45
_symmetry_cell_setting 'orthorhombic'
loop_
_space_group_symop_operation_xyz
x,y,z
-x,-y,z
-x,y,1/2+z
x,-y,1/2+z
1/2+x,1/2+y,1/2+z
1/2-x,1/2-y,1/2+z
1/2-x,1/2+y,z
1/2+x,1/2-y,z
loop_
_atom_site_type_symbol
_atom_site_label
_atom_site_fract_x
_atom_site_fract_y
_atom_site_fract_z
Si Si1 0.292768 0.742178 0.863190
Si Si2 0.645939 0.941970 0.614109
Si Si3 0.704141 0.564345 0.661466
Si Si4 0.931422 0.813312 0.275472
Si Si5 0.086879 0.233255 0.628041
O O1 0.217881 0.811648 0.795215
O O2 0.339515 0.669445 0.716850
O O3 0.346650 0.864823 0.942410
O O4 0.274014 0.616544 0.986203
O O5 0.596640 0.844589 0.726328
O O6 0.730811 0.945215 0.689703
O O7 0.604048 0.095450 0.604708
O O8 0.613972 0.555850 0.683296
O O9 0.922582 0.841638 0.460493
O O10 0.017859 0.812033 0.235093
#
# Coordination Sequence:
#
# PCOD8190517 Si02
#       5
#     8   8   8   8   8
#     4  10  21  36  57  85 117 151 189 232 284 340
#     4  10  21  36  56  86 118 150 186 230 285 342
#     4  10  20  36  55  83 116 152 188 228 284 340
#     4  11  22  36  58  88 119 149 188 233 287 341
#     4  11  21  36  57  86 120 148 184 241 292 337
#
# _framework density 28.293019000000001
#
# number of rings (size 3 to 8) (size 9 to 14) (size 15 to 20)
#    0.000    1.600    0.000    7.800    0.000    4.800 
#    0.000    2.000    0.000    0.000    0.000   84.000 
#    0.000    0.000    0.000    0.000    0.000    0.000 
#
# Total GULP energy -247855.614821 kJ/mol
# GULP energy per Si atom -12392.780741 kJ/mol
# Density = 2.822862 g / cm^3
# Si number density = 28.293019 Si / 1000 Ang^3
#
#
#
# Elastic Constant Matrix: (Units=GPa)
#
#
# Indices 1 2 3 4 5 6 
#
# 1 163.2828 -9.9089 34.6425 0.0000 0.0000 0.0000
# 2 -9.9089 31.0259 -13.4486 0.0000 0.0000 0.0000
# 3 34.6425 -13.4486 136.2190 0.0000 0.0000 0.0000
# 4 0.0000 0.0000 0.0000 25.6989 0.0000 0.0000
# 5 0.0000 0.0000 0.0000 0.0000 52.1993 0.0000
# 6 0.0000 0.0000 0.0000 0.0000 0.0000 48.2269
#
#
#
# Elastic Compliance Matrix: (Units=1/GPa)
#
#
# Indices 1 2 3 4 5 6 
#
# 1 0.006534 0.001428 -0.001521 0.000000 0.000000 0.000000
# 2 0.001428 0.033984 0.002992 0.000000 0.000000 0.000000
# 3 -0.001521 0.002992 0.008023 0.000000 0.000000 0.000000
# 4 0.000000 0.000000 0.000000 0.038912 0.000000 0.000000
# 5 0.000000 0.000000 0.000000 0.000000 0.019157 0.000000
# 6 0.000000 0.000000 0.000000 0.000000 0.000000 0.020735
#
#
# Mechanical properties :
#
#
# Convention : Reuss Voigt Hill
#
# Bulk Modulus (GPa) = 18.40303 39.23308 28.81806
# Shear Modulus (GPa) = 35.80103 46.50785 41.15444
#
# Velocity S-wave (km/s) = 3.56106 4.05877 3.81803
# Velocity P-wave (km/s) = 4.84012 5.98846 5.44465
#
# Compressibility (1/GPa) = 0.05433888
#
# Stress axis : x y z
#
# Youngs Moduli (GPa) = 153.05496 29.42557 124.63775
#
# Poissons Ratio (x) = -0.04201 0.18953
# Poissons Ratio (y) = -0.21849 -0.37293
# Poissons Ratio (z) = 0.23274 -0.08804
#
# Static dielectric constant tensor:
#      x y z
#    x 5.259480 0.000000 0.000000 
#    y 0.000000 5.539900 0.000000 
#    z 0.000000 0.000000 5.466190 
# 
# 
# High freq. dielectric constant tensor:
#      x y z
#    x 2.155750 0.000000 0.000000 
#    y 0.000000 2.175550 0.000000 
#    z 0.000000 0.000000 2.155950 
# 
# From -- ./inp_files/1253.got.cif
#   From: 2010.03.12/outbox.cif.g09.slc.cpg/sg45_1_cif.got.tgz:1253.got - 2010.04.14 02:50:11.
