data_PCOD8190200
_publ_section_title
;
Structure prediction by ZEFSAII (Michael W. Deem and Ramdas Pophale) SiO2 
 PCOD8190200
Probable space group: I M M 2
;
_chemical_formula_sum "Si O2"
_cell_formula_units_Z 56
_cell_length_a 13.372648
_cell_length_b 21.759904
_cell_length_c 9.526007
_cell_angle_alpha 90.000000
_cell_angle_beta 90.000000
_cell_angle_gamma 90.000000
_cell_volume 2771.949312
_symmetry_space_group_name_H-M "I M M 2"
_symmetry_group_IT_number 44
_symmetry_cell_setting 'orthorhombic'
loop_
_space_group_symop_operation_xyz
x,y,z
-x,-y,z
-x,y,z
x,-y,z
1/2+x,1/2+y,1/2+z
1/2-x,1/2-y,1/2+z
1/2-x,1/2+y,1/2+z
1/2+x,1/2-y,1/2+z
loop_
_atom_site_type_symbol
_atom_site_label
_atom_site_fract_x
_atom_site_fract_y
_atom_site_fract_z
Si Si1 0.385504 0.072017 0.858230
Si Si2 0.780338 0.119859 0.059237
Si Si3 0.617786 0.067973 0.540228
Si Si4 0.118892 0.000000 0.490095
Si Si5 0.882851 0.133410 0.569572
Si Si6 0.384188 0.704080 0.351815
Si Si7 0.726090 0.167877 0.359424
Si Si8 0.118380 0.000000 0.167532
O O1 0.500000 0.091301 0.888268
O O2 0.355478 0.088450 0.698537
O O3 0.371397 0.000000 0.886682
O O4 0.315616 0.110829 0.960619
O O5 0.742066 0.149590 0.200683
O O6 0.838815 0.057686 0.086212
O O7 0.860188 0.165119 0.989369
O O8 0.500000 0.061965 0.525106
O O9 0.654539 0.118245 0.431376
O O10 0.665081 0.000000 0.507606
O O11 0.157957 0.937636 0.566717
O O12 0.154506 0.000000 0.328648
O O13 0.000000 0.000000 0.498035
O O14 0.854468 0.163308 0.717085
O O15 0.830458 0.170965 0.444101
O O16 0.000000 0.135509 0.537899
O O17 0.500000 0.721693 0.348730
O O18 0.321408 0.765580 0.358540
O O19 0.000000 0.000000 0.156334
#
# Coordination Sequence:
#
# PCOD8190200 Si02
#       8
#     8   8   8   4   8   8   8   4
#     4   9  19  38  61  92 132 166 204 259 319 380
#     4  12  24  39  64  97 131 170 207 262 328 381
#     4   9  20  38  63  92 123 165 214 263 316 373
#     4   9  18  37  65  94 121 155 204 262 315 368
#     4  10  22  41  66  93 124 164 213 261 311 375
#     4  11  26  46  62  87 128 173 218 262 305 373
#     4  12  24  40  66  91 128 163 214 258 319 373
#     4  11  22  39  62  98 133 163 207 268 332 388
#
# _framework density 20.202387999999999
#
# number of rings (size 3 to 8) (size 9 to 14) (size 15 to 20)
#    0.000    1.571    2.143    3.429    2.000    2.286 
#    0.000    3.571    0.000    0.000    0.000    0.000 
#    0.000    0.000    0.000    0.000    0.000    0.000 
#
# Total GULP energy -347298.391331 kJ/mol
# GULP energy per Si atom -12403.513976 kJ/mol
# Density = 2.015641 g / cm^3
# Si number density = 20.202388 Si / 1000 Ang^3
#
#
#
# Elastic Constant Matrix: (Units=GPa)
#
#
# Indices 1 2 3 4 5 6 
#
# 1 109.7253 60.9762 79.3541 0.0011 0.0002 0.0002
# 2 60.9762 163.5610 81.0861 0.0002 0.0000 0.0000
# 3 79.3541 81.0861 168.2701 0.0030 -0.0002 0.0001
# 4 0.0011 0.0002 0.0030 45.7296 0.0000 0.0001
# 5 0.0002 0.0000 -0.0002 0.0000 33.7718 0.0001
# 6 0.0002 0.0000 0.0001 0.0001 0.0001 32.4668
#
#
#
# Elastic Compliance Matrix: (Units=1/GPa)
#
#
# Indices 1 2 3 4 5 6 
#
# 1 0.014674 -0.002680 -0.005628 0.000000 0.000000 0.000000
# 2 -0.002680 0.008522 -0.002843 0.000000 0.000000 0.000000
# 3 -0.005628 -0.002843 0.009967 -0.000001 0.000000 0.000000
# 4 0.000000 0.000000 -0.000001 0.021868 0.000000 0.000000
# 5 0.000000 0.000000 0.000000 0.000000 0.029610 0.000000
# 6 0.000000 0.000000 0.000000 0.000000 0.000000 0.030801
#
#
# Mechanical properties :
#
#
# Convention : Reuss Voigt Hill
#
# Bulk Modulus (GPa) = 92.07848 98.26546 95.17197
# Shear Modulus (GPa) = 35.36952 37.06964 36.21958
#
# Velocity S-wave (km/s) = 4.18875 4.28824 4.23878
# Velocity P-wave (km/s) = 8.31090 8.55948 8.43611
#
# Compressibility (1/GPa) = 0.01086030
#
# Stress axis : x y z
#
# Youngs Moduli (GPa) = 68.15005 117.33707 100.33049
#
# Poissons Ratio (x) = 0.31447 0.56470
# Poissons Ratio (y) = 0.18264 0.28523
# Poissons Ratio (z) = 0.38357 0.33358
#
# Static dielectric constant tensor:
#      x y z
#    x 3.770430 0.000000 0.000000 
#    y 0.000000 3.720090 0.000000 
#    z 0.000000 0.000000 3.713860 
# 
# 
# High freq. dielectric constant tensor:
#      x y z
#    x 1.807320 0.000000 0.000000 
#    y 0.000000 1.789400 0.000000 
#    z 0.000000 0.000000 1.792380 
# 
# From -- ./inp_files/7434.got.cif
#   From: 2010.03.12/outbox.cif.g09.slc.cpg/sg44_4_cif.got.tgz:7434.got - 2010.04.14 02:36:11.
