data_PCOD8190505
_publ_section_title
;
Structure prediction by ZEFSAII (Michael W. Deem and Ramdas Pophale) SiO2 
 PCOD8190505
Probable space group: I B A 2
;
_chemical_formula_sum "Si O2"
_cell_formula_units_Z 48
_cell_length_a 9.746829
_cell_length_b 12.794916
_cell_length_c 18.384548
_cell_angle_alpha 90.000000
_cell_angle_beta 90.000000
_cell_angle_gamma 90.000000
_cell_volume 2292.734376
_symmetry_space_group_name_H-M "I B A 2"
_symmetry_group_IT_number 45
_symmetry_cell_setting 'orthorhombic'
loop_
_space_group_symop_operation_xyz
x,y,z
-x,-y,z
-x,y,1/2+z
x,-y,1/2+z
1/2+x,1/2+y,1/2+z
1/2-x,1/2-y,1/2+z
1/2-x,1/2+y,z
1/2+x,1/2-y,z
loop_
_atom_site_type_symbol
_atom_site_label
_atom_site_fract_x
_atom_site_fract_y
_atom_site_fract_z
Si Si1 0.500000 0.500000 0.365391
Si Si2 0.625900 0.139668 0.047491
Si Si3 0.117835 0.623586 0.293741
Si Si4 0.500000 0.000000 0.667020
Si Si5 0.863683 0.265358 0.987672
Si Si6 0.401445 0.295037 0.832582
Si Si7 0.207500 0.513818 0.923093
O O1 0.512830 0.399310 0.311308
O O2 0.629964 0.507617 0.417987
O O3 0.603128 0.073696 0.120925
O O4 0.756724 0.217034 0.046022
O O5 0.497528 0.215277 0.035008
O O6 0.639002 0.056400 0.984131
O O7 0.098745 0.574310 0.214316
O O8 0.250391 0.700538 0.295575
O O9 0.136435 0.525319 0.348209
O O10 0.981485 0.690054 0.312345
O O11 0.886671 0.187163 0.920231
O O12 0.818221 0.367319 0.943493
#
# Coordination Sequence:
#
# PCOD8190505 Si02
#       7
#     4   8   8   4   8   8   8
#     4  10  20  34  64 116 132 154 230 310 358 388
#     4  12  25  43  67 100 141 182 233 282 355 420
#     4  11  24  42  72 100 142 180 235 291 359 419
#     4  12  28  46  62 102 148 198 228 282 364 450
#     4  12  21  40  69  99 134 174 238 293 340 411
#     4  11  21  40  69 107 125 179 232 307 343 402
#     4  11  21  40  71 101 135 176 234 299 337 409
#
# _framework density 20.935699
#
# number of rings (size 3 to 8) (size 9 to 14) (size 15 to 20)
#    0.000    0.667    6.667    3.000    0.000    2.667 
#    0.000    0.000    0.000    6.000    0.000    0.000 
#    0.000    0.000    0.000    0.000    0.000    0.000 
#
# Total GULP energy -297454.470694 kJ/mol
# GULP energy per Si atom -12393.936279 kJ/mol
# Density = 2.088805 g / cm^3
# Si number density = 20.935699 Si / 1000 Ang^3
#
#
#
# Elastic Constant Matrix: (Units=GPa)
#
#
# Indices 1 2 3 4 5 6 
#
# 1 135.4569 50.8647 53.4999 0.0000 0.0000 0.0000
# 2 50.8647 89.1625 24.7926 0.0000 0.0000 0.0000
# 3 53.4999 24.7926 98.6800 0.0000 0.0000 0.0000
# 4 0.0000 0.0000 0.0000 52.6669 0.0000 0.0000
# 5 0.0000 0.0000 0.0000 0.0000 -9.9061 0.0000
# 6 0.0000 0.0000 0.0000 0.0000 0.0000 47.7467
#
#
#
# Elastic Compliance Matrix: (Units=1/GPa)
#
#
# Indices 1 2 3 4 5 6 
#
# 1 0.011165 -0.005038 -0.004787 0.000000 0.000000 0.000000
# 2 -0.005038 0.014331 -0.000869 0.000000 0.000000 0.000000
# 3 -0.004787 -0.000869 0.012948 0.000000 0.000000 0.000000
# 4 0.000000 0.000000 0.000000 0.018987 0.000000 0.000000
# 5 0.000000 0.000000 0.000000 0.000000 -0.100948 0.000000
# 6 0.000000 0.000000 0.000000 0.000000 0.000000 0.020944
#
#
# Mechanical properties :
#
#
# Convention : Reuss Voigt Hill
#
# Bulk Modulus (GPa) = 58.63535 64.62376 61.62956
# Shear Modulus (GPa) = 1110.60759 31.04430 570.82595
#
# Velocity S-wave (km/s) = 23.05725 3.85494 16.53023
# Velocity P-wave (km/s) = 27.14622 7.12382 19.84523
#
# Compressibility (1/GPa) = 0.01705456
#
# Stress axis : x y z
#
# Youngs Moduli (GPa) = 89.56455 69.77729 77.23400
#
# Poissons Ratio (x) = 0.35155 0.36975
# Poissons Ratio (y) = 0.45124 0.06713
# Poissons Ratio (z) = 0.42878 0.06065
#
# Static dielectric constant tensor:
#      x y z
#    x 4.024160 0.000000 0.000000 
#    y 0.000000 4.006420 0.000000 
#    z 0.000000 0.000000 3.453230 
# 
# 
# High freq. dielectric constant tensor:
#      x y z
#    x 1.833630 0.000000 0.000000 
#    y 0.000000 1.849130 0.000000 
#    z 0.000000 0.000000 1.774780 
# 
# From -- ./inp_files/7600.got.cif
#   From: 2010.03.12/outbox.cif.g09.slc.cpg/sg45_4_cif.got.tgz:7600.got - 2010.04.14 02:50:11.
