data_PCOD8190735
_publ_section_title
;
Structure prediction by ZEFSAII (Michael W. Deem and Ramdas Pophale) SiO2 
 PCOD8190735
Probable space group: I B A 2
;
_chemical_formula_sum "Si O2"
_cell_formula_units_Z 48
_cell_length_a 7.813275
_cell_length_b 23.675069
_cell_length_c 11.442725
_cell_angle_alpha 90.000000
_cell_angle_beta 90.000000
_cell_angle_gamma 90.000000
_cell_volume 2116.673265
_symmetry_space_group_name_H-M "I B A 2"
_symmetry_group_IT_number 45
_symmetry_cell_setting 'orthorhombic'
loop_
_space_group_symop_operation_xyz
x,y,z
-x,-y,z
-x,y,1/2+z
x,-y,1/2+z
1/2+x,1/2+y,1/2+z
1/2-x,1/2-y,1/2+z
1/2-x,1/2+y,z
1/2+x,1/2-y,z
loop_
_atom_site_type_symbol
_atom_site_label
_atom_site_fract_x
_atom_site_fract_y
_atom_site_fract_z
Si Si1 0.811054 0.551780 0.596090
Si Si2 0.146711 0.621279 0.868708
Si Si3 0.781228 0.353695 0.255932
Si Si4 0.794467 0.791143 0.037340
Si Si5 0.833185 0.826910 0.491650
Si Si6 0.797558 0.428611 0.635519
O O1 0.822464 0.571199 0.461880
O O2 0.704384 0.593313 0.681696
O O3 0.719639 0.490612 0.607296
O O4 0.002376 0.557746 0.644382
O O5 0.258391 0.600158 0.757810
O O6 0.952608 0.632241 0.828664
O O7 0.210765 0.680154 0.923065
O O8 0.809940 0.305553 0.156530
O O9 0.642893 0.333219 0.351483
O O10 0.798021 0.723886 0.019828
O O11 0.987314 0.813387 0.051735
O O12 0.753062 0.885755 0.534046
#
# Coordination Sequence:
#
# PCOD8190735 Si02
#       6
#     8   8   8   8   8   8
#     4   9  20  40  68 104 129 173 230 275 338 406
#     4  10  21  43  68  97 138 174 227 285 336 410
#     4  10  23  44  69  97 139 177 226 284 344 415
#     4  11  28  43  68 102 136 183 233 283 348 422
#     4  12  26  43  69  97 138 183 230 287 350 403
#     4  10  22  36  70 100 133 174 224 280 335 404
#
# _framework density 22.677095000000001
#
# number of rings (size 3 to 8) (size 9 to 14) (size 15 to 20)
#    0.000    1.667    1.667    1.000   11.667    1.333 
#    0.000    3.333    0.000    0.000    0.000    0.000 
#    0.000    0.000    0.000    0.000    0.000    0.000 
#
# Total GULP energy -297411.353380 kJ/mol
# GULP energy per Si atom -12392.139724 kJ/mol
# Density = 2.262548 g / cm^3
# Si number density = 22.677095 Si / 1000 Ang^3
#
#
#
# Elastic Constant Matrix: (Units=GPa)
#
#
# Indices 1 2 3 4 5 6 
#
# 1 46.7556 28.2822 22.5116 0.0000 0.0000 0.0000
# 2 28.2822 178.0837 67.6371 0.0001 0.0000 0.0000
# 3 22.5116 67.6371 159.9816 0.0005 -0.0001 -0.0001
# 4 0.0000 0.0001 0.0005 26.5464 -0.0001 0.0000
# 5 0.0000 0.0000 -0.0001 -0.0001 24.6731 0.0001
# 6 0.0000 0.0000 -0.0001 0.0000 0.0001 25.6656
#
#
#
# Elastic Compliance Matrix: (Units=1/GPa)
#
#
# Indices 1 2 3 4 5 6 
#
# 1 0.024253 -0.003044 -0.002126 0.000000 0.000000 0.000000
# 2 -0.003044 0.007072 -0.002561 0.000000 0.000000 0.000000
# 3 -0.002126 -0.002561 0.007633 0.000000 0.000000 0.000000
# 4 0.000000 0.000000 0.000000 0.037670 0.000000 0.000000
# 5 0.000000 0.000000 0.000000 0.000000 0.040530 0.000000
# 6 0.000000 0.000000 0.000000 0.000000 0.000000 0.038963
#
#
# Mechanical properties :
#
#
# Convention : Reuss Voigt Hill
#
# Bulk Modulus (GPa) = 42.56321 69.07584 55.81953
# Shear Modulus (GPa) = 27.86854 33.13636 30.50245
#
# Velocity S-wave (km/s) = 3.50941 3.82675 3.67151
# Velocity P-wave (km/s) = 5.93560 7.07475 6.53006
#
# Compressibility (1/GPa) = 0.02349447
#
# Stress axis : x y z
#
# Youngs Moduli (GPa) = 41.23240 141.40979 131.01498
#
# Poissons Ratio (x) = 0.43050 0.27848
# Poissons Ratio (y) = 0.12553 0.33558
# Poissons Ratio (z) = 0.08764 0.36220
#
# Static dielectric constant tensor:
#      x y z
#    x 3.639610 0.000000 0.000000 
#    y 0.000000 4.571210 0.000000 
#    z 0.000000 0.000000 4.317720 
# 
# 
# High freq. dielectric constant tensor:
#      x y z
#    x 1.856690 0.000000 0.000000 
#    y 0.000000 1.902950 0.000000 
#    z 0.000000 0.000000 1.911330 
# 
# From -- ./inp_files/3278.got.cif
#   From: 2010.03.12/outbox.cif.g09.slc.cpg/sg45_2_cif.got.tgz:3278.got - 2010.04.14 02:50:11.
