data_PCOD8190195
_publ_section_title
;
Structure prediction by ZEFSAII (Michael W. Deem and Ramdas Pophale) SiO2 
 PCOD8190195
Probable space group: I M M 2
;
_chemical_formula_sum "Si O2"
_cell_formula_units_Z 56
_cell_length_a 10.647098
_cell_length_b 19.375137
_cell_length_c 13.293173
_cell_angle_alpha 90.000000
_cell_angle_beta 90.000000
_cell_angle_gamma 90.000000
_cell_volume 2742.235131
_symmetry_space_group_name_H-M "I M M 2"
_symmetry_group_IT_number 44
_symmetry_cell_setting 'orthorhombic'
loop_
_space_group_symop_operation_xyz
x,y,z
-x,-y,z
-x,y,z
x,-y,z
1/2+x,1/2+y,1/2+z
1/2-x,1/2-y,1/2+z
1/2-x,1/2+y,1/2+z
1/2+x,1/2-y,1/2+z
loop_
_atom_site_type_symbol
_atom_site_label
_atom_site_fract_x
_atom_site_fract_y
_atom_site_fract_z
Si Si1 0.643743 0.219933 0.316460
Si Si2 0.500000 0.581433 0.936443
Si Si3 0.000000 0.918105 0.208149
Si Si4 0.357922 0.622746 0.298541
Si Si5 0.354141 0.207634 0.538383
Si Si6 0.357326 0.079966 0.955090
Si Si7 0.761445 0.156123 0.135098
Si Si8 0.284381 0.578316 0.086406
O O1 0.500000 0.200117 0.325561
O O2 0.664126 0.296951 0.274448
O O3 0.704523 0.213448 0.426781
O O4 0.701428 0.161586 0.245113
O O5 0.500000 0.500000 0.929569
O O6 0.500000 0.612146 0.822877
O O7 0.378476 0.604795 0.999485
O O8 0.882218 0.892073 0.144309
O O9 0.000000 0.000000 0.209904
O O10 0.500000 0.611755 0.343593
O O11 0.249680 0.597681 0.373917
O O12 0.350069 0.580411 0.195185
O O13 0.500000 0.223940 0.538320
O O14 0.289825 0.265725 0.604856
O O15 0.331781 0.131350 0.584183
O O16 0.500000 0.096762 0.916018
O O17 0.346538 0.000000 0.982197
O O18 0.334848 0.122895 0.056479
O O19 0.237939 0.500000 0.066427
#
# Coordination Sequence:
#
# PCOD8190195 Si02
#       8
#     8   4   4   8   8   8   8   8
#     4  10  22  41  64  93 126 167 217 270 327 390
#     4   9  20  40  61  91 131 162 214 277 324 383
#     4  11  24  40  65  99 130 170 222 279 335 393
#     4  11  22  40  68  99 131 173 222 270 325 395
#     4  11  23  41  61  90 131 166 214 271 318 390
#     4  11  26  45  65  96 136 174 218 274 331 396
#     4  12  22  42  65  94 127 173 216 271 331 392
#     4  11  22  39  64  93 127 170 214 268 331 390
#
# _framework density 20.421296999999999
#
# number of rings (size 3 to 8) (size 9 to 14) (size 15 to 20)
#    0.000    1.143    4.286    2.143    1.000    1.714 
#    2.571    0.714    0.000    1.714    0.000    0.000 
#    0.000    0.000    0.000    0.000    0.000    0.000 
#
# Total GULP energy -347168.950103 kJ/mol
# GULP energy per Si atom -12398.891075 kJ/mol
# Density = 2.037482 g / cm^3
# Si number density = 20.421297 Si / 1000 Ang^3
#
#
#
# Elastic Constant Matrix: (Units=GPa)
#
#
# Indices 1 2 3 4 5 6 
#
# 1 97.0595 37.6533 38.1323 -0.0001 0.0000 0.0000
# 2 37.6533 98.5052 25.2938 0.0001 0.0000 0.0000
# 3 38.1323 25.2938 96.0505 0.0003 0.0000 0.0000
# 4 -0.0001 0.0001 0.0003 33.6563 0.0000 0.0000
# 5 0.0000 0.0000 0.0000 0.0000 43.1599 0.0000
# 6 0.0000 0.0000 0.0000 0.0000 0.0000 29.4985
#
#
#
# Elastic Compliance Matrix: (Units=1/GPa)
#
#
# Indices 1 2 3 4 5 6 
#
# 1 0.013583 -0.004084 -0.004317 0.000000 0.000000 0.000000
# 2 -0.004084 0.012116 -0.001569 0.000000 0.000000 0.000000
# 3 -0.004317 -0.001569 0.012538 0.000000 0.000000 0.000000
# 4 0.000000 0.000000 0.000000 0.029712 0.000000 0.000000
# 5 0.000000 0.000000 0.000000 0.000000 0.023170 0.000000
# 6 0.000000 0.000000 0.000000 0.000000 0.000000 0.033900
#
#
# Mechanical properties :
#
#
# Convention : Reuss Voigt Hill
#
# Bulk Modulus (GPa) = 54.65366 54.86379 54.75873
# Shear Modulus (GPa) = 33.09976 33.96532 33.53254
#
# Velocity S-wave (km/s) = 4.03034 4.08270 4.05660
# Velocity P-wave (km/s) = 6.96271 7.01062 6.98671
#
# Compressibility (1/GPa) = 0.01829704
#
# Stress axis : x y z
#
# Youngs Moduli (GPa) = 73.61986 82.53783 79.75491
#
# Poissons Ratio (x) = 0.33705 0.34432
# Poissons Ratio (y) = 0.30063 0.12516
# Poissons Ratio (z) = 0.31783 0.12953
#
# Static dielectric constant tensor:
#      x y z
#    x 3.570120 0.000000 0.000000 
#    y 0.000000 3.581560 0.000000 
#    z 0.000000 0.000000 3.856260 
# 
# 
# High freq. dielectric constant tensor:
#      x y z
#    x 1.792680 0.000000 0.000000 
#    y 0.000000 1.797900 0.000000 
#    z 0.000000 0.000000 1.805840 
# 
# From -- ./inp_files/16535.got.cif
#   From: 2010.03.12/outbox.cif.g09.slc.cpg/sg44_9_cif.got.tgz:16535.got - 2010.04.14 02:36:11.
