data_PCOD8190098
_publ_section_title
;
Structure prediction by ZEFSAII (Michael W. Deem and Ramdas Pophale) SiO2 
 PCOD8190098
Probable space group: I M M 2
;
_chemical_formula_sum "Si O2"
_cell_formula_units_Z 48
_cell_length_a 18.229654
_cell_length_b 8.848185
_cell_length_c 15.086103
_cell_angle_alpha 90.000000
_cell_angle_beta 90.000000
_cell_angle_gamma 90.000000
_cell_volume 2433.378624
_symmetry_space_group_name_H-M "I M M 2"
_symmetry_group_IT_number 44
_symmetry_cell_setting 'orthorhombic'
loop_
_space_group_symop_operation_xyz
x,y,z
-x,-y,z
-x,y,z
x,-y,z
1/2+x,1/2+y,1/2+z
1/2-x,1/2-y,1/2+z
1/2-x,1/2+y,1/2+z
1/2+x,1/2-y,1/2+z
loop_
_atom_site_type_symbol
_atom_site_label
_atom_site_fract_x
_atom_site_fract_y
_atom_site_fract_z
Si Si1 0.580375 0.673789 0.728660
Si Si2 0.159320 0.672424 0.676780
Si Si3 0.500000 0.824436 0.238432
Si Si4 0.752763 0.674062 0.507991
Si Si5 0.722845 0.177919 0.805738
Si Si6 0.000000 0.823012 0.922076
Si Si7 0.892181 0.677316 0.049321
O O1 0.500000 0.687819 0.775863
O O2 0.603565 0.500000 0.717418
O O3 0.643622 0.757093 0.781906
O O4 0.569614 0.747955 0.633110
O O5 0.173140 0.500000 0.704355
O O6 0.073416 0.714411 0.683284
O O7 0.177839 0.698103 0.572902
O O8 0.210624 0.765691 0.744245
O O9 0.500000 0.709218 0.318953
O O10 0.500000 0.000000 0.268867
O O11 0.726080 0.500000 0.509912
O O12 0.767111 0.726113 0.407806
O O13 0.693148 0.784400 0.550461
O O14 0.718927 0.000000 0.794219
O O15 0.072918 0.747597 0.961225
O O16 0.000000 0.000000 0.941021
O O17 0.905693 0.500000 0.051271
#
# Coordination Sequence:
#
# PCOD8190098 Si02
#       7
#     8   8   4   8   8   4   8
#     4  11  23  40  62  87 122 163 199 245 312 372
#     4  10  21  40  64  87 122 166 207 254 310 367
#     4  10  22  40  62  91 120 159 214 259 302 360
#     4  10  22  40  61  89 124 165 204 248 308 369
#     4  11  23  39  62  93 123 159 210 257 304 365
#     4  12  24  38  58  87 124 163 196 247 318 376
#     4  12  23  36  60  91 121 155 201 254 302 363
#
# _framework density 19.725659
#
# number of rings (size 3 to 8) (size 9 to 14) (size 15 to 20)
#    0.000    1.167    2.500    4.250    0.000    5.667 
#    1.500    0.000    0.000    0.000    0.000    0.000 
#    0.000    0.000    0.000    0.000    0.000    0.000 
#
# Total GULP energy -297584.588712 kJ/mol
# GULP energy per Si atom -12399.357863 kJ/mol
# Density = 1.968076 g / cm^3
# Si number density = 19.725659 Si / 1000 Ang^3
#
#
#
# Elastic Constant Matrix: (Units=GPa)
#
#
# Indices 1 2 3 4 5 6 
#
# 1 148.9473 43.5054 50.2642 0.0000 0.0000 0.0000
# 2 43.5054 85.6653 32.7836 0.0000 0.0000 0.0000
# 3 50.2642 32.7836 106.6330 0.0000 0.0000 0.0000
# 4 0.0000 0.0000 0.0000 28.9844 0.0000 0.0000
# 5 0.0000 0.0000 0.0000 0.0000 33.8317 0.0000
# 6 0.0000 0.0000 0.0000 0.0000 0.0000 22.0757
#
#
#
# Elastic Compliance Matrix: (Units=1/GPa)
#
#
# Indices 1 2 3 4 5 6 
#
# 1 0.008708 -0.003232 -0.003111 0.000000 0.000000 0.000000
# 2 -0.003232 0.014429 -0.002913 0.000000 0.000000 0.000000
# 3 -0.003111 -0.002913 0.011740 0.000000 0.000000 0.000000
# 4 0.000000 0.000000 0.000000 0.034501 0.000000 0.000000
# 5 0.000000 0.000000 0.000000 0.000000 0.029558 0.000000
# 6 0.000000 0.000000 0.000000 0.000000 0.000000 0.045299
#
#
# Mechanical properties :
#
#
# Convention : Reuss Voigt Hill
#
# Bulk Modulus (GPa) = 61.10302 66.03913 63.57108
# Shear Modulus (GPa) = 29.72633 31.29119 30.50876
#
# Velocity S-wave (km/s) = 3.88621 3.98718 3.93702
# Velocity P-wave (km/s) = 7.15405 7.39921 7.27766
#
# Compressibility (1/GPa) = 0.01636580
#
# Stress axis : x y z
#
# Youngs Moduli (GPa) = 114.84319 69.30366 85.17927
#
# Poissons Ratio (x) = 0.22396 0.26499
# Poissons Ratio (y) = 0.37113 0.24812
# Poissons Ratio (z) = 0.35727 0.20187
#
# Static dielectric constant tensor:
#      x y z
#    x 3.748050 0.000000 0.000000 
#    y 0.000000 3.614330 0.000000 
#    z 0.000000 0.000000 3.589560 
# 
# 
# High freq. dielectric constant tensor:
#      x y z
#    x 1.780810 0.000000 0.000000 
#    y 0.000000 1.773360 0.000000 
#    z 0.000000 0.000000 1.760510 
# 
# From -- ./inp_files/16161.got.cif
#   From: 2010.03.12/outbox.cif.g09.slc.cpg/sg44_9_cif.got.tgz:16161.got - 2010.04.14 02:36:11.
