data_PCOD8190264
_publ_section_title
;
Structure prediction by ZEFSAII (Michael W. Deem and Ramdas Pophale) SiO2 
 PCOD8190264
Probable space group: I M M 2
;
_chemical_formula_sum "Si O2"
_cell_formula_units_Z 64
_cell_length_a 8.813699
_cell_length_b 28.589421
_cell_length_c 12.620679
_cell_angle_alpha 90.000000
_cell_angle_beta 90.000000
_cell_angle_gamma 90.000000
_cell_volume 3180.140411
_symmetry_space_group_name_H-M "I M M 2"
_symmetry_group_IT_number 44
_symmetry_cell_setting 'orthorhombic'
loop_
_space_group_symop_operation_xyz
x,y,z
-x,-y,z
-x,y,z
x,-y,z
1/2+x,1/2+y,1/2+z
1/2-x,1/2-y,1/2+z
1/2-x,1/2+y,1/2+z
1/2+x,1/2-y,1/2+z
loop_
_atom_site_type_symbol
_atom_site_label
_atom_site_fract_x
_atom_site_fract_y
_atom_site_fract_z
Si Si1 0.679764 0.395512 0.987400
Si Si2 0.667374 0.678690 0.685312
Si Si3 0.678079 0.608033 0.383199
Si Si4 0.320343 0.946192 0.687592
Si Si5 0.177611 0.304697 0.472349
Si Si6 0.830119 0.552081 0.560779
Si Si7 0.665897 0.574027 0.761653
Si Si8 0.820053 0.796096 0.408937
O O1 0.500000 0.395515 0.008363
O O2 0.720355 0.426932 0.884056
O O3 0.741953 0.342206 0.970276
O O4 0.763778 0.418290 0.085840
O O5 0.500000 0.696302 0.646992
O O6 0.788807 0.680244 0.592066
O O7 0.649929 0.627004 0.727650
O O8 0.730876 0.707750 0.785748
O O9 0.500000 0.608453 0.363095
O O10 0.757912 0.578903 0.291714
O O11 0.738111 0.661358 0.388537
O O12 0.713867 0.584266 0.496363
O O13 0.500000 0.944271 0.691983
O O14 0.263072 0.000000 0.684271
O O15 0.238712 0.251597 0.462298
O O16 0.000000 0.308064 0.448901
O O17 0.826614 0.500000 0.512629
O O18 0.784062 0.548513 0.684455
O O19 0.000000 0.573012 0.551012
O O20 0.500000 0.549870 0.752296
O O21 0.000000 0.799986 0.411318
#
# Coordination Sequence:
#
# PCOD8190264 Si02
#       8
#     8   8   8   8   8   8   8   8
#     4   9  19  39  64  89 121 160 204 250 296 356
#     4   9  17  34  56  78 110 152 193 238 290 346
#     4  12  25  41  61  85 115 155 204 253 302 366
#     4  11  25  44  64  88 122 163 207 260 319 373
#     4  11  21  35  58  88 121 157 198 248 307 364
#     4  11  23  37  56  85 119 150 185 237 298 356
#     4   9  18  34  58  84 113 152 194 236 287 347
#     4   8  18  36  58  86 121 160 201 248 301 356
#
# _framework density 20.124898000000002
#
# number of rings (size 3 to 8) (size 9 to 14) (size 15 to 20)
#    0.000    2.000    1.250    4.125    0.000    5.500 
#    0.000    9.375    0.000    0.000    0.000    0.000 
#    0.000    0.000    0.000    0.000    0.000    0.000 
#
# Total GULP energy -396688.936807 kJ/mol
# GULP energy per Si atom -12396.529275 kJ/mol
# Density = 2.007909 g / cm^3
# Si number density = 20.124898 Si / 1000 Ang^3
#
#
#
# Elastic Constant Matrix: (Units=GPa)
#
#
# Indices 1 2 3 4 5 6 
#
# 1 65.4972 32.7774 28.9564 -0.0001 -0.0005 0.0004
# 2 32.7774 107.3365 46.9750 0.0002 -0.0003 0.0002
# 3 28.9564 46.9750 106.9643 0.0021 -0.0014 0.0031
# 4 -0.0001 0.0002 0.0021 22.5217 -0.0005 0.0007
# 5 -0.0005 -0.0003 -0.0014 -0.0005 25.4686 0.0001
# 6 0.0004 0.0002 0.0031 0.0007 0.0001 18.9589
#
#
#
# Elastic Compliance Matrix: (Units=1/GPa)
#
#
# Indices 1 2 3 4 5 6 
#
# 1 0.018862 -0.004364 -0.003190 0.000000 0.000000 0.000000
# 2 -0.004364 0.012543 -0.004327 0.000000 0.000000 0.000001
# 3 -0.003190 -0.004327 0.012113 -0.000001 0.000001 -0.000002
# 4 0.000000 0.000000 -0.000001 0.044402 0.000001 -0.000002
# 5 0.000000 0.000000 0.000001 0.000001 0.039264 0.000000
# 6 0.000000 0.000001 -0.000002 -0.000002 0.000000 0.052746
#
#
# Mechanical properties :
#
#
# Convention : Reuss Voigt Hill
#
# Bulk Modulus (GPa) = 50.61704 55.24617 52.93160
# Shear Modulus (GPa) = 23.77838 24.79579 24.28709
#
# Velocity S-wave (km/s) = 3.44108 3.51393 3.47770
# Velocity P-wave (km/s) = 6.40267 6.63135 6.51801
#
# Compressibility (1/GPa) = 0.01975619
#
# Stress axis : x y z
#
# Youngs Moduli (GPa) = 53.01704 79.72712 82.55834
#
# Poissons Ratio (x) = 0.34792 0.26333
# Poissons Ratio (y) = 0.23136 0.35723
# Poissons Ratio (z) = 0.16910 0.34498
#
# Static dielectric constant tensor:
#      x y z
#    x 3.527480 0.000000 0.000000 
#    y 0.000000 3.916930 0.000000 
#    z 0.000000 0.000000 3.935740 
# 
# 
# High freq. dielectric constant tensor:
#      x y z
#    x 1.769340 0.000000 0.000000 
#    y 0.000000 1.789520 0.000000 
#    z 0.000000 0.000000 1.786970 
# 
# From -- ./inp_files/11542.got.cif
#   From: 2010.03.12/outbox.cif.g09.slc.cpg/sg44_6_cif.got.tgz:11542.got - 2010.04.14 02:36:11.
