data_PCOD8190457
_publ_section_title
;
Structure prediction by ZEFSAII (Michael W. Deem and Ramdas Pophale) SiO2 
 PCOD8190457
Probable space group: I B A 2
;
_chemical_formula_sum "Si O2"
_cell_formula_units_Z 64
_cell_length_a 20.340671
_cell_length_b 15.585611
_cell_length_c 9.699161
_cell_angle_alpha 90.000000
_cell_angle_beta 90.000000
_cell_angle_gamma 90.000000
_cell_volume 3074.845340
_symmetry_space_group_name_H-M "I B A 2"
_symmetry_group_IT_number 45
_symmetry_cell_setting 'orthorhombic'
loop_
_space_group_symop_operation_xyz
x,y,z
-x,-y,z
-x,y,1/2+z
x,-y,1/2+z
1/2+x,1/2+y,1/2+z
1/2-x,1/2-y,1/2+z
1/2-x,1/2+y,z
1/2+x,1/2-y,z
loop_
_atom_site_type_symbol
_atom_site_label
_atom_site_fract_x
_atom_site_fract_y
_atom_site_fract_z
Si Si1 0.592444 0.837865 0.883030
Si Si2 0.786378 0.824422 0.060740
Si Si3 0.159089 0.502879 0.432245
Si Si4 0.760402 0.497688 0.678440
Si Si5 0.068755 0.242896 0.642830
Si Si6 0.949422 0.370296 0.369208
Si Si7 0.795735 0.183477 0.238847
Si Si8 0.577115 0.742845 0.609761
O O1 0.653009 0.899684 0.920212
O O2 0.524995 0.891313 0.899375
O O3 0.600968 0.806272 0.729039
O O4 0.592616 0.756789 0.986127
O O5 0.743795 0.754976 0.148837
O O6 0.864218 0.824807 0.095145
O O7 0.770370 0.922885 0.095777
O O8 0.775058 0.804512 0.898547
O O9 0.176655 0.531453 0.586745
O O10 0.216692 0.531622 0.327527
O O11 0.090618 0.543545 0.388366
O O12 0.715329 0.413889 0.688664
O O13 0.060431 0.336542 0.713196
O O14 0.125074 0.190637 0.722039
O O15 0.994925 0.199965 0.644048
O O16 0.925124 0.294854 0.468452
#
# Coordination Sequence:
#
# PCOD8190457 Si02
#       8
#     8   8   8   8   8   8   8   8
#     4  10  21  35  58  96 125 166 220 260 323 407
#     4  12  26  46  71  99 135 180 225 279 337 393
#     4  12  21  38  56  88 135 178 204 266 330 392
#     4  12  28  40  62  98 136 170 226 272 326 408
#     4  10  22  40  65  92 125 170 222 274 330 391
#     4  10  19  35  60  90 127 170 216 262 321 399
#     4  12  26  46  71  99 135 180 225 279 337 393
#     4  10  22  40  65  92 125 170 222 274 330 391
#
# _framework density 20.814056000000001
#
# number of rings (size 3 to 8) (size 9 to 14) (size 15 to 20)
#    0.000    1.000    2.500    4.875    3.500    0.000 
#    0.000    5.625    0.000    1.500    0.000    0.000 
#    0.000    0.000    0.000    0.000    0.000    0.000 
#
# Total GULP energy -396635.929447 kJ/mol
# GULP energy per Si atom -12394.872795 kJ/mol
# Density = 2.076668 g / cm^3
# Si number density = 20.814056 Si / 1000 Ang^3
#
#
#
# Elastic Constant Matrix: (Units=GPa)
#
#
# Indices 1 2 3 4 5 6 
#
# 1 94.7404 40.0115 37.7046 0.0000 0.0000 0.0000
# 2 40.0115 84.2246 32.8495 0.0000 0.0000 0.0000
# 3 37.7046 32.8495 92.0952 0.0000 0.0000 0.0000
# 4 0.0000 0.0000 0.0000 24.2026 0.0000 0.0000
# 5 0.0000 0.0000 0.0000 0.0000 32.1838 0.0000
# 6 0.0000 0.0000 0.0000 0.0000 0.0000 38.3299
#
#
#
# Elastic Compliance Matrix: (Units=1/GPa)
#
#
# Indices 1 2 3 4 5 6 
#
# 1 0.014373 -0.005266 -0.004006 0.000000 0.000000 0.000000
# 2 -0.005266 0.015721 -0.003452 0.000000 0.000000 0.000000
# 3 -0.004006 -0.003452 0.013730 0.000000 0.000000 0.000000
# 4 0.000000 0.000000 0.000000 0.041318 0.000000 0.000000
# 5 0.000000 0.000000 0.000000 0.000000 0.031072 0.000000
# 6 0.000000 0.000000 0.000000 0.000000 0.000000 0.026089
#
#
# Mechanical properties :
#
#
# Convention : Reuss Voigt Hill
#
# Bulk Modulus (GPa) = 54.41714 54.68793 54.55253
# Shear Modulus (GPa) = 28.75621 29.64289 29.19955
#
# Velocity S-wave (km/s) = 3.72099 3.77792 3.74956
# Velocity P-wave (km/s) = 6.68298 6.73512 6.70910
#
# Compressibility (1/GPa) = 0.01837656
#
# Stress axis : x y z
#
# Youngs Moduli (GPa) = 69.57278 63.61035 72.83443
#
# Poissons Ratio (x) = 0.33495 0.29181
# Poissons Ratio (y) = 0.36634 0.25140
# Poissons Ratio (z) = 0.27874 0.21956
#
# Static dielectric constant tensor:
#      x y z
#    x 4.086730 0.000000 0.000000 
#    y 0.000000 3.335570 0.000000 
#    z 0.000000 0.000000 4.008620 
# 
# 
# High freq. dielectric constant tensor:
#      x y z
#    x 1.826960 0.000000 0.000000 
#    y 0.000000 1.771330 0.000000 
#    z 0.000000 0.000000 1.838760 
# 
# From -- ./inp_files/2541.got.cif
#   From: 2010.03.12/outbox.cif.g09.slc.cpg/sg45_2_cif.got.tgz:2541.got - 2010.04.14 02:50:11.
