data_PCOD8190127
_publ_section_title
;
Structure prediction by ZEFSAII (Michael W. Deem and Ramdas Pophale) SiO2 
 PCOD8190127
Probable space group: I M M 2
;
_chemical_formula_sum "Si O2"
_cell_formula_units_Z 64
_cell_length_a 19.378663
_cell_length_b 9.001454
_cell_length_c 20.625861
_cell_angle_alpha 90.000000
_cell_angle_beta 90.000000
_cell_angle_gamma 90.000000
_cell_volume 3597.895651
_symmetry_space_group_name_H-M "I M M 2"
_symmetry_group_IT_number 44
_symmetry_cell_setting 'orthorhombic'
loop_
_space_group_symop_operation_xyz
x,y,z
-x,-y,z
-x,y,z
x,-y,z
1/2+x,1/2+y,1/2+z
1/2-x,1/2-y,1/2+z
1/2-x,1/2+y,1/2+z
1/2+x,1/2-y,1/2+z
loop_
_atom_site_type_symbol
_atom_site_label
_atom_site_fract_x
_atom_site_fract_y
_atom_site_fract_z
Si Si1 0.781883 0.172819 0.832910
Si Si2 0.424130 0.174897 0.520780
Si Si3 0.708954 0.326146 0.952800
Si Si4 0.078164 0.670653 0.261554
Si Si5 0.708727 0.675299 0.714081
Si Si6 0.076167 0.830435 0.887666
Si Si7 0.078384 0.670553 0.412846
Si Si8 0.786502 0.673462 0.084578
O O1 0.749518 0.233090 0.899136
O O2 0.754697 0.260161 0.771392
O O3 0.864803 0.197365 0.834085
O O4 0.761865 0.000000 0.826315
O O5 0.500000 0.229917 0.544426
O O6 0.406398 0.233333 0.449888
O O7 0.365239 0.226043 0.570558
O O8 0.421987 0.000000 0.514172
O O9 0.715414 0.500000 0.936732
O O10 0.628904 0.276856 0.953304
O O11 0.739011 0.288257 0.023235
O O12 0.088374 0.500000 0.240379
O O13 0.129520 0.772329 0.220496
O O14 0.095297 0.689684 0.337094
O O15 0.000000 0.721355 0.246767
O O16 0.712459 0.500000 0.716592
O O17 0.739731 0.733629 0.646204
O O18 0.000000 0.790517 0.859109
O O19 0.078103 0.000000 0.911140
O O20 0.089562 0.500000 0.433490
O O21 0.000000 0.719774 0.427468
O O22 0.782705 0.500000 0.101530
#
# Coordination Sequence:
#
# PCOD8190127 Si02
#       8
#     8   8   8   8   8   8   8   8
#     4  11  21  35  57  80 109 146 180 219 274 330
#     4   9  17  31  52  77 107 144 180 213 255 312
#     4  11  21  34  56  85 111 139 182 230 269 316
#     4   9  18  34  55  78 108 147 184 216 263 327
#     4  12  25  37  53  79 110 143 187 233 272 317
#     4   9  18  32  53  82 110 137 174 220 266 314
#     4   9  18  33  55  82 110 143 180 218 269 329
#     4  10  22  38  53  75 111 149 185 222 269 325
#
# _framework density 17.788174999999999
#
# number of rings (size 3 to 8) (size 9 to 14) (size 15 to 20)
#    0.000    2.000    2.500    2.625    0.000    3.000 
#    0.000    2.500    0.000    0.750    0.000    1.750 
#    0.000    0.000    0.000    0.000    0.000    0.000 
#
# Total GULP energy -396778.485757 kJ/mol
# GULP energy per Si atom -12399.327680 kJ/mol
# Density = 1.774769 g / cm^3
# Si number density = 17.788175 Si / 1000 Ang^3
#
#
#
# Elastic Constant Matrix: (Units=GPa)
#
#
# Indices 1 2 3 4 5 6 
#
# 1 96.2734 42.3549 52.8474 0.0000 0.0000 0.0000
# 2 42.3549 74.2103 48.7229 0.0000 0.0000 0.0000
# 3 52.8474 48.7229 100.7189 0.0000 0.0000 0.0000
# 4 0.0000 0.0000 0.0000 28.5456 0.0000 0.0000
# 5 0.0000 0.0000 0.0000 0.0000 20.0817 0.0000
# 6 0.0000 0.0000 0.0000 0.0000 0.0000 22.7818
#
#
#
# Elastic Compliance Matrix: (Units=1/GPa)
#
#
# Indices 1 2 3 4 5 6 
#
# 1 0.015879 -0.005265 -0.005785 0.000000 0.000000 0.000000
# 2 -0.005265 0.021493 -0.007635 0.000000 0.000000 0.000000
# 3 -0.005785 -0.007635 0.016657 0.000000 0.000000 0.000000
# 4 0.000000 0.000000 0.000000 0.035032 0.000000 0.000000
# 5 0.000000 0.000000 0.000000 0.000000 0.049797 0.000000
# 6 0.000000 0.000000 0.000000 0.000000 0.000000 0.043895
#
#
# Mechanical properties :
#
#
# Convention : Reuss Voigt Hill
#
# Bulk Modulus (GPa) = 60.02326 62.11700 61.07013
# Shear Modulus (GPa) = 22.15595 22.76697 22.46146
#
# Velocity S-wave (km/s) = 3.53305 3.58144 3.55733
# Velocity P-wave (km/s) = 7.10351 7.21793 7.16095
#
# Compressibility (1/GPa) = 0.01666021
#
# Stress axis : x y z
#
# Youngs Moduli (GPa) = 62.97752 46.52782 60.03393
#
# Poissons Ratio (x) = 0.24495 0.34729
# Poissons Ratio (y) = 0.33155 0.45834
# Poissons Ratio (z) = 0.36431 0.35523
#
# Static dielectric constant tensor:
#      x y z
#    x 3.645390 0.000000 0.000000 
#    y 0.000000 3.257670 0.000000 
#    z 0.000000 0.000000 3.083180 
# 
# 
# High freq. dielectric constant tensor:
#      x y z
#    x 1.696630 0.000000 0.000000 
#    y 0.000000 1.686450 0.000000 
#    z 0.000000 0.000000 1.662070 
# 
# From -- ./inp_files/20721.got.cif
#   From: 2010.03.12/outbox.cif.g09.slc.cpg/sg44_11_cif.got.tgz:20721.got - 2010.04.14 02:36:11.
