data_PCOD8190874
_publ_section_title
;
Structure prediction by ZEFSAII (Michael W. Deem and Ramdas Pophale) SiO2 
 PCOD8190874
Probable space group: I B A 2
;
_chemical_formula_sum "Si O2"
_cell_formula_units_Z 36
_cell_length_a 7.223516
_cell_length_b 17.973014
_cell_length_c 12.062481
_cell_angle_alpha 90.000000
_cell_angle_beta 90.000000
_cell_angle_gamma 90.000000
_cell_volume 1566.052056
_symmetry_space_group_name_H-M "I B A 2"
_symmetry_group_IT_number 45
_symmetry_cell_setting 'orthorhombic'
loop_
_space_group_symop_operation_xyz
x,y,z
-x,-y,z
-x,y,1/2+z
x,-y,1/2+z
1/2+x,1/2+y,1/2+z
1/2-x,1/2-y,1/2+z
1/2-x,1/2+y,z
1/2+x,1/2-y,z
loop_
_atom_site_type_symbol
_atom_site_label
_atom_site_fract_x
_atom_site_fract_y
_atom_site_fract_z
Si Si1 0.517488 0.692301 0.129860
Si Si2 0.868140 0.654120 0.543116
Si Si3 0.710006 0.072209 0.103468
Si Si4 0.325132 0.621238 0.827425
Si Si5 0.500000 0.500000 0.466728
O O1 0.319020 0.652995 0.114450
O O2 0.509450 0.775281 0.082174
O O3 0.670425 0.644414 0.063244
O O4 0.569517 0.688117 0.261433
O O5 0.994855 0.581141 0.568404
O O6 0.823028 0.657128 0.412061
O O7 0.721683 0.067275 0.237877
O O8 0.812632 0.003319 0.042378
O O9 0.477294 0.572858 0.891805
#
# Coordination Sequence:
#
# PCOD8190874 Si02
#       5
#     8   8   8   8   4
#     4  10  23  43  66 106 142 168 238 287 342 425
#     4  12  22  46  70 105 141 183 229 292 360 407
#     4  10  25  44  68 105 136 182 236 287 334 429
#     4  10  24  43  71  99 139 194 220 291 354 396
#     4  12  22  50  70  98 150 178 240 284 338 424
#
# _framework density 22.987739000000001
#
# number of rings (size 3 to 8) (size 9 to 14) (size 15 to 20)
#    1.333    0.000    4.444    0.667    0.000    6.222 
#    0.000    2.222    0.000    0.000    0.000    0.000 
#    0.000    0.000    0.000    0.000    0.000    0.000 
#
# Total GULP energy -223033.699330 kJ/mol
# GULP energy per Si atom -12390.761074 kJ/mol
# Density = 2.293542 g / cm^3
# Si number density = 22.987739 Si / 1000 Ang^3
#
#
#
# Elastic Constant Matrix: (Units=GPa)
#
#
# Indices 1 2 3 4 5 6 
#
# 1 154.4753 10.7012 65.1401 0.0000 0.0000 0.0000
# 2 10.7012 32.3809 46.1615 0.0001 0.0000 0.0000
# 3 65.1401 46.1615 181.8456 0.0000 0.0001 0.0000
# 4 0.0000 0.0001 0.0000 38.5182 0.0000 0.0000
# 5 0.0000 0.0000 0.0001 0.0000 32.1700 0.0000
# 6 0.0000 0.0000 0.0000 0.0000 0.0000 30.6697
#
#
#
# Elastic Compliance Matrix: (Units=1/GPa)
#
#
# Indices 1 2 3 4 5 6 
#
# 1 0.007722 0.002181 -0.003320 0.000000 0.000000 0.000000
# 2 0.002181 0.049012 -0.013223 0.000000 0.000000 0.000000
# 3 -0.003320 -0.013223 0.010045 0.000000 0.000000 0.000000
# 4 0.000000 0.000000 0.000000 0.025962 0.000000 0.000000
# 5 0.000000 0.000000 0.000000 0.000000 0.031085 0.000000
# 6 0.000000 0.000000 0.000000 0.000000 0.000000 0.032606
#
#
# Mechanical properties :
#
#
# Convention : Reuss Voigt Hill
#
# Bulk Modulus (GPa) = 26.27761 68.07862 47.17811
# Shear Modulus (GPa) = 25.27288 36.71818 30.99553
#
# Velocity S-wave (km/s) = 3.31933 4.00095 3.67597
# Velocity P-wave (km/s) = 5.11337 7.14304 6.21166
#
# Compressibility (1/GPa) = 0.03805521
#
# Stress axis : x y z
#
# Youngs Moduli (GPa) = 129.49349 20.40321 99.55209
#
# Poissons Ratio (x) = -0.04449 0.33050
# Poissons Ratio (y) = -0.28237 1.31636
# Poissons Ratio (z) = 0.42990 0.26979
#
# Static dielectric constant tensor:
#      x y z
#    x 3.940700 0.000000 0.000000 
#    y 0.000000 3.906620 0.000000 
#    z 0.000000 0.000000 4.095590 
# 
# 
# High freq. dielectric constant tensor:
#      x y z
#    x 1.909580 0.000000 0.000000 
#    y 0.000000 1.894130 0.000000 
#    z 0.000000 0.000000 1.899080 
# 
# From -- ./inp_files/3628.got.cif
#   From: 2010.03.12/outbox.cif.g09.slc.cpg/sg45_2_cif.got.tgz:3628.got - 2010.04.14 02:50:11.
