data_PCOD8190887
_publ_section_title
;
Structure prediction by ZEFSAII (Michael W. Deem and Ramdas Pophale) SiO2 
 PCOD8190887
Probable space group: I B A 2
;
_chemical_formula_sum "Si O2"
_cell_formula_units_Z 40
_cell_length_a 12.790467
_cell_length_b 5.377435
_cell_length_c 22.689187
_cell_angle_alpha 90.000000
_cell_angle_beta 90.000000
_cell_angle_gamma 90.000000
_cell_volume 1560.560124
_symmetry_space_group_name_H-M "I B A 2"
_symmetry_group_IT_number 45
_symmetry_cell_setting 'orthorhombic'
loop_
_space_group_symop_operation_xyz
x,y,z
-x,-y,z
-x,y,1/2+z
x,-y,1/2+z
1/2+x,1/2+y,1/2+z
1/2-x,1/2-y,1/2+z
1/2-x,1/2+y,z
1/2+x,1/2-y,z
loop_
_atom_site_type_symbol
_atom_site_label
_atom_site_fract_x
_atom_site_fract_y
_atom_site_fract_z
Si Si1 0.500000 0.500000 0.170851
Si Si2 0.942765 0.745257 0.000284
Si Si3 0.784516 0.643967 0.357795
Si Si4 0.000000 0.500000 0.387841
Si Si5 0.697877 0.647577 0.227515
Si Si6 0.310810 0.669033 0.101651
O O1 0.574548 0.665543 0.214048
O O2 0.427051 0.681344 0.131242
O O3 0.829645 0.778258 0.031541
O O4 0.000000 0.500000 0.027879
O O5 0.000000 0.000000 0.015325
O O6 0.939258 0.702155 0.929290
O O7 0.758798 0.899996 0.392650
O O8 0.910017 0.625595 0.347745
O O9 0.719536 0.655253 0.297031
O O10 0.759245 0.884401 0.199844
O O11 0.268230 0.391818 0.119192
#
# Coordination Sequence:
#
# PCOD8190887 Si02
#       6
#     4   8   8   4   8   8
#     4  12  26  46  74 100 150 186 238 298 364 422
#     4  10  23  45  67 101 139 189 231 288 361 414
#     4  10  24  42  67 102 136 183 241 288 353 418
#     4  10  26  42  74  98 150 184 234 292 358 418
#     4  10  24  45  67 102 135 184 239 293 356 420
#     4  12  27  45  72 106 141 188 242 293 354 435
#
# _framework density 25.631824000000002
#
# number of rings (size 3 to 8) (size 9 to 14) (size 15 to 20)
#    0.600    0.800    1.000    2.400    2.800   10.400 
#    0.000    0.000    0.000    0.000    0.000    0.000 
#    0.000    0.000    0.000    0.000    0.000    0.000 
#
# Total GULP energy -247765.831318 kJ/mol
# GULP energy per Si atom -12388.291566 kJ/mol
# Density = 2.557349 g / cm^3
# Si number density = 25.631824 Si / 1000 Ang^3
#
#
#
# Elastic Constant Matrix: (Units=GPa)
#
#
# Indices 1 2 3 4 5 6 
#
# 1 145.0662 29.4986 33.1980 0.0000 0.0000 0.0000
# 2 29.4986 190.5944 13.8917 0.0000 0.0000 0.0000
# 3 33.1980 13.8917 69.4275 0.0000 0.0000 0.0000
# 4 0.0000 0.0000 0.0000 13.7516 0.0000 0.0000
# 5 0.0000 0.0000 0.0000 0.0000 51.3174 0.0000
# 6 0.0000 0.0000 0.0000 0.0000 0.0000 35.5858
#
#
#
# Elastic Compliance Matrix: (Units=1/GPa)
#
#
# Indices 1 2 3 4 5 6 
#
# 1 0.007911 -0.000963 -0.003590 0.000000 0.000000 0.000000
# 2 -0.000963 0.005442 -0.000628 0.000000 0.000000 0.000000
# 3 -0.003590 -0.000628 0.016246 0.000000 0.000000 0.000000
# 4 0.000000 0.000000 0.000000 0.072719 0.000000 0.000000
# 5 0.000000 0.000000 0.000000 0.000000 0.019487 0.000000
# 6 0.000000 0.000000 0.000000 0.000000 0.000000 0.028101
#
#
# Mechanical properties :
#
#
# Convention : Reuss Voigt Hill
#
# Bulk Modulus (GPa) = 51.98638 62.02939 57.00789
# Shear Modulus (GPa) = 29.99778 42.03094 36.01436
#
# Velocity S-wave (km/s) = 3.42472 4.05383 3.75249
# Velocity P-wave (km/s) = 5.99703 6.79442 6.40814
#
# Compressibility (1/GPa) = 0.01923581
#
# Stress axis : x y z
#
# Youngs Moduli (GPa) = 126.41057 183.77120 61.55395
#
# Poissons Ratio (x) = 0.17692 0.22098
# Poissons Ratio (y) = 0.12169 0.03868
# Poissons Ratio (z) = 0.45382 0.11549
#
# Static dielectric constant tensor:
#      x y z
#    x 4.457040 0.000000 0.000000 
#    y 0.000000 5.731490 0.000000 
#    z 0.000000 0.000000 4.500980 
# 
# 
# High freq. dielectric constant tensor:
#      x y z
#    x 2.012180 0.000000 0.000000 
#    y 0.000000 2.036750 0.000000 
#    z 0.000000 0.000000 2.031540 
# 
# From -- ./inp_files/9990.got.cif
#   From: 2010.03.12/outbox.cif.g09.slc.cpg/sg45_5_cif.got.tgz:9990.got - 2010.04.14 02:50:11.
