data_PCOD8190342
_publ_section_title
;
Structure prediction by ZEFSAII (Michael W. Deem and Ramdas Pophale) SiO2 
 PCOD8190342
Probable space group: I M M 2
;
_chemical_formula_sum "Si O2"
_cell_formula_units_Z 48
_cell_length_a 22.809005
_cell_length_b 9.120144
_cell_length_c 12.996796
_cell_angle_alpha 90.000000
_cell_angle_beta 90.000000
_cell_angle_gamma 90.000000
_cell_volume 2703.611831
_symmetry_space_group_name_H-M "I M M 2"
_symmetry_group_IT_number 44
_symmetry_cell_setting 'orthorhombic'
loop_
_space_group_symop_operation_xyz
x,y,z
-x,-y,z
-x,y,z
x,-y,z
1/2+x,1/2+y,1/2+z
1/2-x,1/2-y,1/2+z
1/2-x,1/2+y,1/2+z
1/2+x,1/2-y,1/2+z
loop_
_atom_site_type_symbol
_atom_site_label
_atom_site_fract_x
_atom_site_fract_y
_atom_site_fract_z
Si Si1 0.738015 0.826319 0.034270
Si Si2 0.645965 0.665851 0.921647
Si Si3 0.128763 0.174301 0.034270
Si Si4 0.565842 0.325076 0.738752
Si Si5 0.854035 0.165851 0.646893
Si Si6 0.065842 0.174924 0.829788
O O1 0.804547 0.769420 0.034270
O O2 0.705517 0.762695 0.136700
O O3 0.734076 0.000000 0.034270
O O4 0.705517 0.762695 0.931840
O O5 0.663771 0.500000 0.890489
O O6 0.602657 0.733812 0.836532
O O7 0.614136 0.666630 0.034270
O O8 0.095775 0.235126 0.134925
O O9 0.127404 0.000000 0.034270
O O10 0.095775 0.235125 0.933616
O O11 0.500000 0.262065 0.745603
O O12 0.564314 0.500000 0.739353
O O13 0.897343 0.233813 0.732008
O O14 0.836229 0.000000 0.678051
O O15 0.000000 0.237936 0.822936
O O16 0.064314 0.000000 0.829187
#
# Coordination Sequence:
#
# PCOD8190342 Si02
#       6
#     8   8   8   8   8   8
#     4   9  17  30  46  67  94 123 150 183 226 266
#     4   8  16  30  46  69  95 116 148 188 225 268
#     4   9  17  27  42  68  95 118 150 187 224 270
#     4   9  16  27  45  67  92 120 148 186 231 269
#     4   8  16  30  46  69  95 116 148 188 225 268
#     4   9  16  27  45  67  92 120 148 186 231 269
#
# _framework density 17.754028999999999
#
# number of rings (size 3 to 8) (size 9 to 14) (size 15 to 20)
#    1.000    2.333    0.000    0.500    0.000    4.000 
#    0.000    3.333    0.000    2.000    0.000    0.000 
#    0.000    8.000    0.000    0.000    0.000    0.000 
#
# Total GULP energy -297336.748490 kJ/mol
# GULP energy per Si atom -12389.031187 kJ/mol
# Density = 1.771362 g / cm^3
# Si number density = 17.754029 Si / 1000 Ang^3
#
#
#
# Elastic Constant Matrix: (Units=GPa)
#
#
# Indices 1 2 3 4 5 6 
#
# 1 167.7067 26.7658 71.4591 0.0000 0.0000 0.0000
# 2 26.7658 29.4872 13.2494 0.0000 0.0000 0.0000
# 3 71.4591 13.2494 115.5118 0.0000 0.0000 0.0000
# 4 0.0000 0.0000 0.0000 11.4466 0.0000 0.0000
# 5 0.0000 0.0000 0.0000 0.0000 38.0050 0.0000
# 6 0.0000 0.0000 0.0000 0.0000 0.0000 20.3769
#
#
#
# Elastic Compliance Matrix: (Units=1/GPa)
#
#
# Indices 1 2 3 4 5 6 
#
# 1 0.008995 -0.005972 -0.004880 0.000000 0.000000 0.000000
# 2 -0.005972 0.039721 -0.000861 0.000000 0.000000 0.000000
# 3 -0.004880 -0.000861 0.011775 0.000000 0.000000 0.000000
# 4 0.000000 0.000000 0.000000 0.087362 0.000000 0.000000
# 5 0.000000 0.000000 0.000000 0.000000 0.026312 0.000000
# 6 0.000000 0.000000 0.000000 0.000000 0.000000 0.049075
#
#
# Mechanical properties :
#
#
# Convention : Reuss Voigt Hill
#
# Bulk Modulus (GPa) = 26.98018 59.51714 43.24866
# Shear Modulus (GPa) = 19.30335 27.38113 23.34224
#
# Velocity S-wave (km/s) = 3.30095 3.93141 3.62989
# Velocity P-wave (km/s) = 5.45509 7.36233 6.47927
#
# Compressibility (1/GPa) = 0.03706425
#
# Stress axis : x y z
#
# Youngs Moduli (GPa) = 111.17045 25.17537 84.92838
#
# Poissons Ratio (x) = 0.15036 0.41442
# Poissons Ratio (y) = 0.66396 0.07315
# Poissons Ratio (z) = 0.54247 0.02168
#
# Static dielectric constant tensor:
#      x y z
#    x 3.364080 0.000000 0.000000 
#    y 0.000000 2.722120 0.000000 
#    z 0.000000 0.000000 3.366860 
# 
# 
# High freq. dielectric constant tensor:
#      x y z
#    x 1.684320 0.000000 0.000000 
#    y 0.000000 1.627510 0.000000 
#    z 0.000000 0.000000 1.688720 
# 
# From -- ./inp_files/14268.got.cif
#   From: 2010.03.12/outbox.cif.g09.slc.cpg/sg44_8_cif.got.tgz:14268.got - 2010.04.14 02:36:11.
