data_PCOD8190435
_publ_section_title
;
Structure prediction by ZEFSAII (Michael W. Deem and Ramdas Pophale) SiO2 
 PCOD8190435
Probable space group: I B A 2
;
_chemical_formula_sum "Si O2"
_cell_formula_units_Z 56
_cell_length_a 21.361509
_cell_length_b 19.391225
_cell_length_c 4.839969
_cell_angle_alpha 90.000000
_cell_angle_beta 90.000000
_cell_angle_gamma 90.000000
_cell_volume 2004.840163
_symmetry_space_group_name_H-M "I B A 2"
_symmetry_group_IT_number 45
_symmetry_cell_setting 'orthorhombic'
loop_
_space_group_symop_operation_xyz
x,y,z
-x,-y,z
-x,y,1/2+z
x,-y,1/2+z
1/2+x,1/2+y,1/2+z
1/2-x,1/2-y,1/2+z
1/2-x,1/2+y,z
1/2+x,1/2-y,z
loop_
_atom_site_type_symbol
_atom_site_label
_atom_site_fract_x
_atom_site_fract_y
_atom_site_fract_z
Si Si1 0.672032 0.074486 0.881200
Si Si2 0.782474 0.779768 0.134211
Si Si3 0.110037 0.959324 0.275790
Si Si4 0.042309 0.175424 0.595924
Si Si5 0.108634 0.706732 0.374081
Si Si6 0.254832 0.425437 0.398132
Si Si7 0.541691 0.918992 0.561014
O O1 0.710840 0.031424 0.635307
O O2 0.655416 0.149180 0.736338
O O3 0.712477 0.097933 0.144376
O O4 0.606093 0.039613 0.979353
O O5 0.766985 0.764423 0.452874
O O6 0.853937 0.757015 0.080379
O O7 0.779518 0.861084 0.075403
O O8 0.090651 0.884497 0.174342
O O9 0.185667 0.967050 0.285491
O O10 0.083369 0.980827 0.573295
O O11 0.020704 0.169830 0.279944
O O12 0.923570 0.248321 0.136468
O O13 0.055898 0.663316 0.542525
O O14 0.482904 0.938673 0.363833
#
# Coordination Sequence:
#
# PCOD8190435 Si02
#       7
#     8   8   8   8   8   8   8
#     4  10  23  34  62  89 129 165 196 243 301 382
#     4  12  20  33  55  86 120 160 197 242 303 384
#     4  12  28  48  70  91 117 161 222 295 341 364
#     4  12  27  44  66  92 126 174 223 264 315 378
#     4  10  22  35  56  91 126 169 208 241 295 374
#     4  12  21  43  58  90 119 155 204 258 327 387
#     4  10  19  33  51  81 130 171 196 224 269 344
#
# _framework density 27.932397999999999
#
# number of rings (size 3 to 8) (size 9 to 14) (size 15 to 20)
#    0.857    0.000    4.286    3.429    0.000    5.143 
#    0.000    0.000    0.000    0.000    0.000    0.000 
#    0.000   40.000    0.000    0.000    0.000    0.000 
#
# Total GULP energy -347176.360422 kJ/mol
# GULP energy per Si atom -12399.155729 kJ/mol
# Density = 2.786882 g / cm^3
# Si number density = 27.932398 Si / 1000 Ang^3
#
#
#
# Elastic Constant Matrix: (Units=GPa)
#
#
# Indices 1 2 3 4 5 6 
#
# 1 101.8903 7.5367 11.1311 0.0000 0.0000 0.0000
# 2 7.5367 79.3046 -33.3467 0.0000 0.0000 0.0000
# 3 11.1311 -33.3467 90.3788 0.0000 0.0000 0.0000
# 4 0.0000 0.0000 0.0000 433.5548 0.0000 0.0000
# 5 0.0000 0.0000 0.0000 0.0000 33.1856 0.0000
# 6 0.0000 0.0000 0.0000 0.0000 0.0000 241.1762
#
#
#
# Elastic Compliance Matrix: (Units=1/GPa)
#
#
# Indices 1 2 3 4 5 6 
#
# 1 0.010153 -0.001764 -0.001901 0.000000 0.000000 0.000000
# 2 -0.001764 0.015232 0.005837 0.000000 0.000000 0.000000
# 3 -0.001901 0.005837 0.013452 0.000000 0.000000 0.000000
# 4 0.000000 0.000000 0.000000 0.002307 0.000000 0.000000
# 5 0.000000 0.000000 0.000000 0.000000 0.030134 0.000000
# 6 0.000000 0.000000 0.000000 0.000000 0.000000 0.004146
#
#
# Mechanical properties :
#
#
# Convention : Reuss Voigt Hill
#
# Bulk Modulus (GPa) = 23.15883 26.91289 25.03586
# Shear Modulus (GPa) = 58.49751 160.66684 109.58218
#
# Velocity S-wave (km/s) = 4.58127 7.59241 6.27028
# Velocity P-wave (km/s) = 6.02437 9.30138 7.83609
#
# Compressibility (1/GPa) = 0.04318007
#
# Stress axis : x y z
#
# Youngs Moduli (GPa) = 98.49594 65.65207 74.33569
#
# Poissons Ratio (x) = 0.11583 0.14134
# Poissons Ratio (y) = 0.17378 -0.43392
# Poissons Ratio (z) = 0.18728 -0.38323
#
# Static dielectric constant tensor:
#      x y z
#    x 5.204590 0.000000 0.000000 
#    y 0.000000 3.225630 0.000000 
#    z 0.000000 0.000000 4.787760 
# 
# 
# High freq. dielectric constant tensor:
#      x y z
#    x 2.135350 0.000000 0.000000 
#    y 0.000000 2.144000 0.000000 
#    z 0.000000 0.000000 2.117850 
# 
# From -- ./inp_files/528.got.cif
#   From: 2010.03.12/outbox.cif.g09.slc.cpg/sg45_1_cif.got.tgz:528.got - 2010.04.14 02:50:11.
