data_PCOD8190026
_publ_section_title
;
Structure prediction by ZEFSAII (Michael W. Deem and Ramdas Pophale) SiO2 
 PCOD8190026
Probable space group: I M M 2
;
_chemical_formula_sum "Si O2"
_cell_formula_units_Z 40
_cell_length_a 9.063575
_cell_length_b 25.615904
_cell_length_c 8.889609
_cell_angle_alpha 90.000000
_cell_angle_beta 90.000000
_cell_angle_gamma 90.000000
_cell_volume 2063.915341
_symmetry_space_group_name_H-M "I M M 2"
_symmetry_group_IT_number 44
_symmetry_cell_setting 'orthorhombic'
loop_
_space_group_symop_operation_xyz
x,y,z
-x,-y,z
-x,y,z
x,-y,z
1/2+x,1/2+y,1/2+z
1/2-x,1/2-y,1/2+z
1/2-x,1/2+y,1/2+z
1/2+x,1/2-y,1/2+z
loop_
_atom_site_type_symbol
_atom_site_label
_atom_site_fract_x
_atom_site_fract_y
_atom_site_fract_z
Si Si1 0.674316 0.000000 0.883200
Si Si2 0.170965 0.905042 0.723932
Si Si3 0.331043 0.500000 0.696123
Si Si4 0.829599 0.104257 0.377763
Si Si5 0.674133 0.802160 0.214689
Si Si6 0.328278 0.700755 0.396640
O O1 0.731796 0.051341 0.801812
O O2 0.500000 0.000000 0.877525
O O3 0.724354 0.000000 0.055002
O O4 0.215845 0.901834 0.550435
O O5 0.207427 0.850008 0.799153
O O6 0.000000 0.920313 0.742935
O O7 0.500000 0.500000 0.639394
O O8 0.296893 0.550051 0.796562
O O9 0.729093 0.148032 0.304967
O O10 0.000000 0.120921 0.361641
O O11 0.500000 0.804671 0.200670
O O12 0.725788 0.750342 0.301401
O O13 0.738827 0.801795 0.049115
O O14 0.500000 0.704509 0.436918
#
# Coordination Sequence:
#
# PCOD8190026 Si02
#       6
#     4   8   4   8   8   8
#     4  12  25  38  56  86 120 150 185 238 296 338
#     4  10  21  40  63  84 111 152 198 235 275 340
#     4  10  21  38  60  84 112 152 197 234 276 340
#     4  10  21  39  63  87 113 150 194 237 282 338
#     4  11  23  38  59  88 119 150 188 238 290 337
#     4  10  22  39  59  84 115 153 194 234 280 340
#
# _framework density 19.38064
#
# number of rings (size 3 to 8) (size 9 to 14) (size 15 to 20)
#    0.000    1.600    0.000    4.500    0.000   12.000 
#    0.000    1.000    0.000    0.000    0.000    0.000 
#    0.000    0.000    0.000    0.000    0.000    0.000 
#
# Total GULP energy -248121.786826 kJ/mol
# GULP energy per Si atom -12406.089341 kJ/mol
# Density = 1.933653 g / cm^3
# Si number density = 19.380640 Si / 1000 Ang^3
#
#
#
# Elastic Constant Matrix: (Units=GPa)
#
#
# Indices 1 2 3 4 5 6 
#
# 1 78.6696 66.6407 71.6980 0.0003 -0.0026 0.0018
# 2 66.6407 162.5813 83.0332 0.0004 -0.0006 0.0001
# 3 71.6980 83.0332 181.9953 -0.0013 -0.0081 0.0048
# 4 0.0003 0.0004 -0.0013 31.4649 0.0013 -0.0003
# 5 -0.0026 -0.0006 -0.0081 0.0013 -19.2812 0.0094
# 6 0.0018 0.0001 0.0048 -0.0003 0.0094 61.0467
#
#
#
# Elastic Compliance Matrix: (Units=1/GPa)
#
#
# Indices 1 2 3 4 5 6 
#
# 1 0.024277 -0.006605 -0.006550 0.000000 0.000000 0.000000
# 2 -0.006605 0.009817 -0.001876 0.000000 0.000001 0.000000
# 3 -0.006550 -0.001876 0.008931 0.000000 -0.000003 -0.000001
# 4 0.000000 0.000000 0.000000 0.031781 0.000002 0.000000
# 5 0.000000 0.000001 -0.000003 0.000002 -0.051864 0.000008
# 6 0.000000 0.000000 -0.000001 0.000000 0.000008 0.016381
#
#
# Mechanical properties :
#
#
# Convention : Reuss Voigt Hill
#
# Bulk Modulus (GPa) = 77.15937 96.22111 86.69024
# Shear Modulus (GPa) = 67.83602 28.10437 47.97020
#
# Velocity S-wave (km/s) = 5.92266 3.81218 4.98050
# Velocity P-wave (km/s) = 9.30965 8.31462 8.82617
#
# Compressibility (1/GPa) = 0.01296019
#
# Stress axis : x y z
#
# Youngs Moduli (GPa) = 41.19191 101.86792 111.96630
#
# Poissons Ratio (x) = 0.67288 0.73341
# Poissons Ratio (y) = 0.27209 0.21010
# Poissons Ratio (z) = 0.26982 0.19115
#
# Static dielectric constant tensor:
#      x y z
#    x 3.496400 0.000000 0.000000 
#    y 0.000000 3.801960 0.000000 
#    z 0.000000 0.000000 3.729020 
# 
# 
# High freq. dielectric constant tensor:
#      x y z
#    x 1.746860 0.000000 0.000000 
#    y 0.000000 1.775200 0.000000 
#    z 0.000000 0.000000 1.774810 
# 
# From -- ./inp_files/4629.got.cif
#   From: 2010.03.12/outbox.cif.g09.slc.cpg/sg44_3_cif.got.tgz:4629.got - 2010.04.14 02:36:11.
