data_PCOD8190754
_publ_section_title
;
Structure prediction by ZEFSAII (Michael W. Deem and Ramdas Pophale) SiO2 
 PCOD8190754
Probable space group: I B A 2
;
_chemical_formula_sum "Si O2"
_cell_formula_units_Z 48
_cell_length_a 11.065069
_cell_length_b 15.115244
_cell_length_c 13.093469
_cell_angle_alpha 90.000000
_cell_angle_beta 90.000000
_cell_angle_gamma 90.000000
_cell_volume 2189.898636
_symmetry_space_group_name_H-M "I B A 2"
_symmetry_group_IT_number 45
_symmetry_cell_setting 'orthorhombic'
loop_
_space_group_symop_operation_xyz
x,y,z
-x,-y,z
-x,y,1/2+z
x,-y,1/2+z
1/2+x,1/2+y,1/2+z
1/2-x,1/2-y,1/2+z
1/2-x,1/2+y,z
1/2+x,1/2-y,z
loop_
_atom_site_type_symbol
_atom_site_label
_atom_site_fract_x
_atom_site_fract_y
_atom_site_fract_z
Si Si1 0.607614 0.064966 0.378090
Si Si2 0.733578 0.602455 0.199415
Si Si3 0.069893 0.752252 0.947969
Si Si4 0.318478 0.741890 0.071838
Si Si5 0.540210 0.408990 0.850575
Si Si6 0.797092 0.949860 0.043008
O O1 0.689241 0.044919 0.279190
O O2 0.566741 0.166956 0.375539
O O3 0.667806 0.044099 0.487430
O O4 0.500000 0.000000 0.364043
O O5 0.811274 0.685969 0.161048
O O6 0.622713 0.640782 0.266508
O O7 0.685802 0.538088 0.109640
O O8 0.065158 0.840313 0.878230
O O9 0.948390 0.746777 0.017139
O O10 0.199394 0.759151 0.002816
O O11 0.307240 0.640115 0.111425
O O12 0.500000 0.500000 0.796097
O O13 0.604709 0.441180 0.954205
#
# Coordination Sequence:
#
# PCOD8190754 Si02
#       6
#     8   8   8   8   8   8
#     4  10  22  38  59  87 120 159 202 249 300 357
#     4  11  23  37  60  92 121 157 205 252 300 358
#     4  10  22  42  64  86 122 164 200 248 304 358
#     4  10  22  40  64  88 118 164 204 246 302 360
#     4  10  22  38  59  87 120 159 202 249 300 357
#     4   9  21  41  58  82 121 161 201 246 300 358
#
# _framework density 21.918823
#
# number of rings (size 3 to 8) (size 9 to 14) (size 15 to 20)
#    0.000    2.000    0.000    3.000    0.000   12.000 
#    0.000    3.333    0.000    0.000    0.000    0.000 
#    0.000    0.000    0.000    0.000    0.000    0.000 
#
# Total GULP energy -297366.651180 kJ/mol
# GULP energy per Si atom -12390.277133 kJ/mol
# Density = 2.186893 g / cm^3
# Si number density = 21.918823 Si / 1000 Ang^3
#
#
#
# Elastic Constant Matrix: (Units=GPa)
#
#
# Indices 1 2 3 4 5 6 
#
# 1 74.9084 -5.5329 0.5147 0.0001 0.0000 0.0000
# 2 -5.5329 76.2281 16.9498 -0.0001 0.0000 0.0000
# 3 0.5147 16.9498 71.5146 -0.0001 0.0000 -0.0001
# 4 0.0001 -0.0001 -0.0001 59.6389 0.0001 0.0001
# 5 0.0000 0.0000 0.0000 0.0001 12.2084 0.0000
# 6 0.0000 0.0000 -0.0001 0.0001 0.0000 21.6356
#
#
#
# Elastic Compliance Matrix: (Units=1/GPa)
#
#
# Indices 1 2 3 4 5 6 
#
# 1 0.013430 0.001052 -0.000346 0.000000 0.000000 0.000000
# 2 0.001052 0.013931 -0.003309 0.000000 0.000000 0.000000
# 3 -0.000346 -0.003309 0.014770 0.000000 0.000000 0.000000
# 4 0.000000 0.000000 0.000000 0.016768 0.000000 0.000000
# 5 0.000000 0.000000 0.000000 0.000000 0.081911 0.000000
# 6 0.000000 0.000000 0.000000 0.000000 0.000000 0.046220
#
#
# Mechanical properties :
#
#
# Convention : Reuss Voigt Hill
#
# Bulk Modulus (GPa) = 27.08317 27.39049 27.23683
# Shear Modulus (GPa) = 24.44468 32.74455 28.59461
#
# Velocity S-wave (km/s) = 3.34314 3.86929 3.61580
# Velocity P-wave (km/s) = 5.22351 5.69959 5.46674
#
# Compressibility (1/GPa) = 0.03692329
#
# Stress axis : x y z
#
# Youngs Moduli (GPa) = 74.46191 71.78386 67.70480
#
# Poissons Ratio (x) = -0.07549 0.02342
# Poissons Ratio (y) = -0.07831 0.22406
# Poissons Ratio (z) = 0.02576 0.23756
#
# Static dielectric constant tensor:
#      x y z
#    x 4.243470 0.000000 0.000000 
#    y 0.000000 3.591590 0.000000 
#    z 0.000000 0.000000 3.785180 
# 
# 
# High freq. dielectric constant tensor:
#      x y z
#    x 1.866640 0.000000 0.000000 
#    y 0.000000 1.873380 0.000000 
#    z 0.000000 0.000000 1.845710 
# 
# From -- ./inp_files/3674.got.cif
#   From: 2010.03.12/outbox.cif.g09.slc.cpg/sg45_2_cif.got.tgz:3674.got - 2010.04.14 02:50:11.
