data_PCOD8190552
_publ_section_title
;
Structure prediction by ZEFSAII (Michael W. Deem and Ramdas Pophale) SiO2 
 PCOD8190552
Probable space group: I B A 2
;
_chemical_formula_sum "Si O2"
_cell_formula_units_Z 64
_cell_length_a 19.007472
_cell_length_b 8.735776
_cell_length_c 18.622878
_cell_angle_alpha 90.000000
_cell_angle_beta 90.000000
_cell_angle_gamma 90.000000
_cell_volume 3092.236107
_symmetry_space_group_name_H-M "I B A 2"
_symmetry_group_IT_number 45
_symmetry_cell_setting 'orthorhombic'
loop_
_space_group_symop_operation_xyz
x,y,z
-x,-y,z
-x,y,1/2+z
x,-y,1/2+z
1/2+x,1/2+y,1/2+z
1/2-x,1/2-y,1/2+z
1/2-x,1/2+y,z
1/2+x,1/2-y,z
loop_
_atom_site_type_symbol
_atom_site_label
_atom_site_fract_x
_atom_site_fract_y
_atom_site_fract_z
Si Si1 0.063445 0.379392 0.699580
Si Si2 0.318373 0.071386 0.630708
Si Si3 0.846863 0.658219 0.833619
Si Si4 0.173791 0.055829 0.477754
Si Si5 0.680981 0.589075 0.671643
Si Si6 0.567183 0.593253 0.094762
Si Si7 0.823852 0.295240 0.488692
Si Si8 0.211724 0.980623 0.323997
O O1 0.134821 0.455446 0.674278
O O2 0.083911 0.335831 0.782380
O O3 0.047204 0.237824 0.646191
O O4 0.000000 0.500000 0.699155
O O5 0.309322 0.230452 0.670943
O O6 0.355259 0.104142 0.553737
O O7 0.241367 0.996519 0.625741
O O8 0.796133 0.510291 0.826710
O O9 0.794520 0.798404 0.817919
O O10 0.869868 0.668785 0.917646
O O11 0.111062 0.140852 0.522400
O O12 0.242712 0.157268 0.485501
O O13 0.164954 0.040699 0.391584
O O14 0.177176 0.883447 0.510065
O O15 0.607495 0.530402 0.642233
O O16 0.678154 0.553808 0.754951
O O17 0.500000 0.500000 0.066932
#
# Coordination Sequence:
#
# PCOD8190552 Si02
#       8
#     8   8   8   8   8   8   8   8
#     4  12  27  44  63  92 131 175 223 275 325 391
#     4  12  22  37  65  99 128 165 217 270 322 383
#     4  10  21  39  63  93 133 163 211 267 332 391
#     4  10  22  38  65  95 132 164 211 267 333 391
#     4  12  21  37  66  97 127 165 217 271 324 383
#     4  12  25  44  64  90 128 174 218 273 325 388
#     4  10  20  37  64  97 130 161 207 268 324 386
#     4  10  20  38  64 100 128 161 206 271 324 386
#
# _framework density 20.696995000000001
#
# number of rings (size 3 to 8) (size 9 to 14) (size 15 to 20)
#    0.000    1.000    5.000    2.250    1.750    0.000 
#    0.000    1.250    2.750    0.000    0.000    0.000 
#    0.000    0.000    0.000    0.000    0.000    0.000 
#
# Total GULP energy -396544.784449 kJ/mol
# GULP energy per Si atom -12392.024514 kJ/mol
# Density = 2.064989 g / cm^3
# Si number density = 20.696995 Si / 1000 Ang^3
#
#
#
# Elastic Constant Matrix: (Units=GPa)
#
#
# Indices 1 2 3 4 5 6 
#
# 1 64.8317 15.0857 23.7879 0.0000 0.0000 0.0000
# 2 15.0857 83.7750 18.9821 0.0000 0.0000 0.0000
# 3 23.7879 18.9821 132.7989 0.0000 0.0000 0.0000
# 4 0.0000 0.0000 0.0000 27.9844 0.0000 0.0000
# 5 0.0000 0.0000 0.0000 0.0000 28.6195 0.0000
# 6 0.0000 0.0000 0.0000 0.0000 0.0000 27.0122
#
#
#
# Elastic Compliance Matrix: (Units=1/GPa)
#
#
# Indices 1 2 3 4 5 6 
#
# 1 0.016982 -0.002448 -0.002692 0.000000 0.000000 0.000000
# 2 -0.002448 0.012689 -0.001375 0.000000 0.000000 0.000000
# 3 -0.002692 -0.001375 0.008209 0.000000 0.000000 0.000000
# 4 0.000000 0.000000 0.000000 0.035734 0.000000 0.000000
# 5 0.000000 0.000000 0.000000 0.000000 0.034941 0.000000
# 6 0.000000 0.000000 0.000000 0.000000 0.000000 0.037020
#
#
# Mechanical properties :
#
#
# Convention : Reuss Voigt Hill
#
# Bulk Modulus (GPa) = 40.24231 44.12411 42.18321
# Shear Modulus (GPa) = 29.95991 31.62653 30.79322
#
# Velocity S-wave (km/s) = 3.80879 3.91330 3.86140
# Velocity P-wave (km/s) = 6.23124 6.46405 6.34871
#
# Compressibility (1/GPa) = 0.02484947
#
# Stress axis : x y z
#
# Youngs Moduli (GPa) = 58.88607 78.80729 121.81786
#
# Poissons Ratio (x) = 0.19292 0.32794
# Poissons Ratio (y) = 0.14416 0.16753
# Poissons Ratio (z) = 0.15852 0.10838
#
# Static dielectric constant tensor:
#      x y z
#    x 3.334040 0.000000 0.000000 
#    y 0.000000 3.961880 0.000000 
#    z 0.000000 0.000000 4.418810 
# 
# 
# High freq. dielectric constant tensor:
#      x y z
#    x 1.764440 0.000000 0.000000 
#    y 0.000000 1.818110 0.000000 
#    z 0.000000 0.000000 1.837300 
# 
# From -- ./inp_files/9260.got.cif
#   From: 2010.03.12/outbox.cif.g09.slc.cpg/sg45_5_cif.got.tgz:9260.got - 2010.04.14 02:50:11.
