data_PCOD8190829
_publ_section_title
;
Structure prediction by ZEFSAII (Michael W. Deem and Ramdas Pophale) SiO2 
 PCOD8190829
Probable space group: I B A 2
;
_chemical_formula_sum "Si O2"
_cell_formula_units_Z 48
_cell_length_a 8.506592
_cell_length_b 14.867492
_cell_length_c 15.895974
_cell_angle_alpha 90.000000
_cell_angle_beta 90.000000
_cell_angle_gamma 90.000000
_cell_volume 2010.390672
_symmetry_space_group_name_H-M "I B A 2"
_symmetry_group_IT_number 45
_symmetry_cell_setting 'orthorhombic'
loop_
_space_group_symop_operation_xyz
x,y,z
-x,-y,z
-x,y,1/2+z
x,-y,1/2+z
1/2+x,1/2+y,1/2+z
1/2-x,1/2-y,1/2+z
1/2-x,1/2+y,z
1/2+x,1/2-y,z
loop_
_atom_site_type_symbol
_atom_site_label
_atom_site_fract_x
_atom_site_fract_y
_atom_site_fract_z
Si Si1 0.128351 0.649541 0.559020
Si Si2 0.371649 0.149541 0.747224
Si Si3 0.307168 0.202274 0.988006
Si Si4 0.177480 0.023998 0.054949
Si Si5 0.307168 0.202274 0.318238
Si Si6 0.822520 0.023998 0.751295
O O1 0.059301 0.637739 0.653122
O O2 0.261892 0.726792 0.561184
O O3 0.205300 0.556327 0.528279
O O4 0.992492 0.680060 0.494060
O O5 0.507509 0.180060 0.812184
O O6 0.238110 0.226793 0.745060
O O7 0.294699 0.056327 0.777965
O O8 0.250000 0.250000 0.903122
O O9 0.214872 0.109535 0.998292
O O10 0.198675 0.046587 0.153122
O O11 0.000000 0.000000 0.033465
O O12 0.214872 0.109534 0.307953
O O13 0.000000 0.000000 0.772780
#
# Coordination Sequence:
#
# PCOD8190829 Si02
#       6
#     8   8   8   8   8   8
#     4  11  23  42  70  99 134 183 236 287 342 417
#     4  11  23  42  70  99 134 183 236 287 342 417
#     4  12  25  42  65 100 141 179 222 285 358 420
#     4  10  22  43  72 102 134 180 238 293 344 413
#     4  12  25  42  65 100 141 179 222 285 358 420
#     4  10  22  43  72 102 134 180 238 293 344 413
#
# _framework density 23.875955999999999
#
# number of rings (size 3 to 8) (size 9 to 14) (size 15 to 20)
#    0.000    1.000    0.000    7.000    0.000    6.667 
#    0.000    5.000    0.000    0.000    0.000    0.000 
#    0.000    0.000    0.000    0.000    0.000    0.000 
#
# Total GULP energy -297602.783576 kJ/mol
# GULP energy per Si atom -12400.115982 kJ/mol
# Density = 2.382161 g / cm^3
# Si number density = 23.875956 Si / 1000 Ang^3
#
#
#
# Elastic Constant Matrix: (Units=GPa)
#
#
# Indices 1 2 3 4 5 6 
#
# 1 154.9907 86.0788 65.6805 0.0000 0.0000 0.0000
# 2 86.0788 223.8381 70.6170 0.0000 0.0000 0.0000
# 3 65.6805 70.6170 96.7007 0.0000 0.0000 0.0000
# 4 0.0000 0.0000 0.0000 44.3157 0.0000 0.0000
# 5 0.0000 0.0000 0.0000 0.0000 32.0887 0.0000
# 6 0.0000 0.0000 0.0000 0.0000 0.0000 54.6729
#
#
#
# Elastic Compliance Matrix: (Units=1/GPa)
#
#
# Indices 1 2 3 4 5 6 
#
# 1 0.009809 -0.002170 -0.005078 0.000000 0.000000 0.000000
# 2 -0.002170 0.006285 -0.003116 0.000000 0.000000 0.000000
# 3 -0.005078 -0.003116 0.016065 0.000000 0.000000 0.000000
# 4 0.000000 0.000000 0.000000 0.022565 0.000000 0.000000
# 5 0.000000 0.000000 0.000000 0.000000 0.031164 0.000000
# 6 0.000000 0.000000 0.000000 0.000000 0.000000 0.018291
#
#
# Mechanical properties :
#
#
# Convention : Reuss Voigt Hill
#
# Bulk Modulus (GPa) = 87.47163 102.25360 94.86262
# Shear Modulus (GPa) = 38.84502 43.09236 40.96869
#
# Velocity S-wave (km/s) = 4.03792 4.25295 4.14683
# Velocity P-wave (km/s) = 7.64560 8.18760 7.92124
#
# Compressibility (1/GPa) = 0.01143228
#
# Stress axis : x y z
#
# Youngs Moduli (GPa) = 101.94661 159.10789 62.24633
#
# Poissons Ratio (x) = 0.34531 0.31606
# Poissons Ratio (y) = 0.22125 0.19394
# Poissons Ratio (z) = 0.51764 0.49573
#
# Static dielectric constant tensor:
#      x y z
#    x 4.408950 0.000000 0.000000 
#    y 0.000000 4.550890 0.000000 
#    z 0.000000 0.000000 4.083950 
# 
# 
# High freq. dielectric constant tensor:
#      x y z
#    x 1.957630 0.000000 0.000000 
#    y 0.000000 1.966180 0.000000 
#    z 0.000000 0.000000 1.937780 
# 
# From -- ./inp_files/6213.got.cif
#   From: 2010.03.12/outbox.cif.g09.slc.cpg/sg45_4_cif.got.tgz:6213.got - 2010.04.14 02:50:11.
