data_PCOD8190217
_publ_section_title
;
Structure prediction by ZEFSAII (Michael W. Deem and Ramdas Pophale) SiO2 
 PCOD8190217
Probable space group: I M M 2
;
_chemical_formula_sum "Si O2"
_cell_formula_units_Z 56
_cell_length_a 18.862115
_cell_length_b 14.707281
_cell_length_c 9.462137
_cell_angle_alpha 90.000000
_cell_angle_beta 90.000000
_cell_angle_gamma 90.000000
_cell_volume 2624.895452
_symmetry_space_group_name_H-M "I M M 2"
_symmetry_group_IT_number 44
_symmetry_cell_setting 'orthorhombic'
loop_
_space_group_symop_operation_xyz
x,y,z
-x,-y,z
-x,y,z
x,-y,z
1/2+x,1/2+y,1/2+z
1/2-x,1/2-y,1/2+z
1/2-x,1/2+y,1/2+z
1/2+x,1/2-y,1/2+z
loop_
_atom_site_type_symbol
_atom_site_label
_atom_site_fract_x
_atom_site_fract_y
_atom_site_fract_z
Si Si1 0.777478 0.104033 0.126700
Si Si2 0.422710 0.400186 0.763430
Si Si3 0.163418 0.392643 0.852530
Si Si4 0.918093 0.746371 0.707051
Si Si5 0.171445 0.602262 0.175533
Si Si6 0.686495 0.396086 0.324749
Si Si7 0.080111 0.715939 0.397206
O O1 0.860837 0.118388 0.153094
O O2 0.727640 0.147333 0.250745
O O3 0.753924 0.000000 0.125960
O O4 0.773032 0.142261 0.966624
O O5 0.500000 0.395147 0.686201
O O6 0.412294 0.500000 0.834290
O O7 0.419112 0.324966 0.883585
O O8 0.154219 0.500000 0.837013
O O9 0.092067 0.340886 0.807481
O O10 0.171929 0.363540 0.014723
O O11 0.876810 0.832927 0.769867
O O12 0.890283 0.706498 0.555970
O O13 0.000000 0.774330 0.697264
O O14 0.140586 0.500000 0.191520
O O15 0.254274 0.604297 0.205908
O O16 0.127230 0.667457 0.278542
O O17 0.658508 0.500000 0.350657
O O18 0.000000 0.677432 0.382192
#
# Coordination Sequence:
#
# PCOD8190217 Si02
#       7
#     8   8   8   8   8   8   8
#     4   9  19  37  62  91 121 159 205 252 308 367
#     4   9  19  35  58  89 125 166 207 247 297 363
#     4  10  23  42  66  94 123 160 208 263 316 374
#     4  11  26  42  61  92 125 168 214 254 315 377
#     4  10  23  42  66  94 122 161 211 260 318 377
#     4  10  23  41  63  93 128 165 205 256 312 370
#     4  10  23  41  62  91 126 165 211 260 312 372
#
# _framework density 21.334184
#
# number of rings (size 3 to 8) (size 9 to 14) (size 15 to 20)
#    0.000    2.143    0.000    0.857    6.000    4.286 
#    0.000    5.714    0.000    0.000    0.000    0.000 
#    0.000    0.000    0.000    0.000    0.000    0.000 
#
# Total GULP energy -346870.571278 kJ/mol
# GULP energy per Si atom -12388.234689 kJ/mol
# Density = 2.128563 g / cm^3
# Si number density = 21.334184 Si / 1000 Ang^3
#
#
#
# Elastic Constant Matrix: (Units=GPa)
#
#
# Indices 1 2 3 4 5 6 
#
# 1 75.7792 37.4283 55.0187 0.0000 0.0000 0.0000
# 2 37.4283 83.4974 56.5804 0.0000 0.0000 0.0000
# 3 55.0187 56.5804 169.9519 0.0000 0.0000 0.0000
# 4 0.0000 0.0000 0.0000 31.2138 0.0000 0.0000
# 5 0.0000 0.0000 0.0000 0.0000 33.4802 0.0000
# 6 0.0000 0.0000 0.0000 0.0000 0.0000 32.0076
#
#
#
# Elastic Compliance Matrix: (Units=1/GPa)
#
#
# Indices 1 2 3 4 5 6 
#
# 1 0.019113 -0.005649 -0.004307 0.000000 0.000000 0.000000
# 2 -0.005649 0.017135 -0.003876 0.000000 0.000000 0.000000
# 3 -0.004307 -0.003876 0.008569 0.000000 0.000000 0.000000
# 4 0.000000 0.000000 0.000000 0.032037 0.000000 0.000000
# 5 0.000000 0.000000 0.000000 0.000000 0.029868 0.000000
# 6 0.000000 0.000000 0.000000 0.000000 0.000000 0.031243
#
#
# Mechanical properties :
#
#
# Convention : Reuss Voigt Hill
#
# Bulk Modulus (GPa) = 58.29775 69.69814 63.99794
# Shear Modulus (GPa) = 29.18061 31.35374 30.26717
#
# Velocity S-wave (km/s) = 3.70237 3.83776 3.77067
# Velocity P-wave (km/s) = 6.75737 7.23730 7.00145
#
# Compressibility (1/GPa) = 0.01715332
#
# Stress axis : x y z
#
# Youngs Moduli (GPa) = 52.31931 58.35984 116.70521
#
# Poissons Ratio (x) = 0.32969 0.50263
# Poissons Ratio (y) = 0.29557 0.45232
# Poissons Ratio (z) = 0.22533 0.22619
#
# Static dielectric constant tensor:
#      x y z
#    x 3.828030 0.000000 0.000000 
#    y 0.000000 3.884370 0.000000 
#    z 0.000000 0.000000 3.949700 
# 
# 
# High freq. dielectric constant tensor:
#      x y z
#    x 1.830050 0.000000 0.000000 
#    y 0.000000 1.836660 0.000000 
#    z 0.000000 0.000000 1.840350 
# 
# From -- ./inp_files/8913.got.cif
#   From: 2010.03.12/outbox.cif.g09.slc.cpg/sg44_5_cif.got.tgz:8913.got - 2010.04.14 02:36:11.
