data_PCOD8190780
_publ_section_title
;
Structure prediction by ZEFSAII (Michael W. Deem and Ramdas Pophale) SiO2 
 PCOD8190780
Probable space group: I B A 2
;
_chemical_formula_sum "Si O2"
_cell_formula_units_Z 36
_cell_length_a 7.212526
_cell_length_b 16.065287
_cell_length_c 14.949307
_cell_angle_alpha 90.000000
_cell_angle_beta 90.000000
_cell_angle_gamma 90.000000
_cell_volume 1732.195639
_symmetry_space_group_name_H-M "I B A 2"
_symmetry_group_IT_number 45
_symmetry_cell_setting 'orthorhombic'
loop_
_space_group_symop_operation_xyz
x,y,z
-x,-y,z
-x,y,1/2+z
x,-y,1/2+z
1/2+x,1/2+y,1/2+z
1/2-x,1/2-y,1/2+z
1/2-x,1/2+y,z
1/2+x,1/2-y,z
loop_
_atom_site_type_symbol
_atom_site_label
_atom_site_fract_x
_atom_site_fract_y
_atom_site_fract_z
Si Si1 0.090958 0.366415 0.992550
Si Si2 0.083871 0.090267 0.607851
Si Si3 0.867096 0.074251 0.307549
Si Si4 0.000000 0.500000 0.353019
Si Si5 0.679924 0.681565 0.479515
O O1 0.107544 0.431591 0.912093
O O2 0.187895 0.280184 0.963674
O O3 0.875675 0.352513 0.015945
O O4 0.201471 0.405300 0.076733
O O5 0.067803 0.111850 0.712821
O O6 0.969435 0.159993 0.555015
O O7 0.000000 0.000000 0.586228
O O8 0.657000 0.042074 0.292223
O O9 0.875377 0.143328 0.384066
O O10 0.000000 0.000000 0.338657
#
# Coordination Sequence:
#
# PCOD8190780 Si02
#       5
#     8   8   8   4   8
#     4  11  22  41  66  91 127 172 215 265 320 379
#     4  11  23  42  65  96 130 170 213 262 319 387
#     4  10  23  41  65  96 128 170 213 262 321 383
#     4  10  22  40  64  92 124 172 218 260 318 386
#     4  11  22  42  65  96 131 169 212 266 324 379
#
# _framework density 20.782871
#
# number of rings (size 3 to 8) (size 9 to 14) (size 15 to 20)
#    0.000    1.333    2.222    4.667    0.000    4.444 
#    8.000    0.000    0.000    0.000    0.000    0.000 
#    0.000    0.000    0.000    0.000    0.000    0.000 
#
# Total GULP energy -223245.365639 kJ/mol
# GULP energy per Si atom -12402.520313 kJ/mol
# Density = 2.073557 g / cm^3
# Si number density = 20.782871 Si / 1000 Ang^3
#
#
#
# Elastic Constant Matrix: (Units=GPa)
#
#
# Indices 1 2 3 4 5 6 
#
# 1 99.3336 27.4838 53.9582 0.0000 0.0000 0.0000
# 2 27.4838 117.5576 60.1600 0.0000 0.0000 0.0000
# 3 53.9582 60.1600 116.5509 0.0000 0.0000 0.0000
# 4 0.0000 0.0000 0.0000 13.6717 0.0000 0.0000
# 5 0.0000 0.0000 0.0000 0.0000 28.0682 0.0000
# 6 0.0000 0.0000 0.0000 0.0000 0.0000 38.3355
#
#
#
# Elastic Compliance Matrix: (Units=1/GPa)
#
#
# Indices 1 2 3 4 5 6 
#
# 1 0.013450 0.000057 -0.006256 0.000000 0.000000 0.000000
# 2 0.000057 0.011560 -0.005994 0.000000 0.000000 0.000000
# 3 -0.006256 -0.005994 0.014570 0.000000 0.000000 0.000000
# 4 0.000000 0.000000 0.000000 0.073144 0.000000 0.000000
# 5 0.000000 0.000000 0.000000 0.000000 0.035628 0.000000
# 6 0.000000 0.000000 0.000000 0.000000 0.000000 0.026085
#
#
# Mechanical properties :
#
#
# Convention : Reuss Voigt Hill
#
# Bulk Modulus (GPa) = 65.81162 68.51623 67.16392
# Shear Modulus (GPa) = 24.52342 28.80441 26.66391
#
# Velocity S-wave (km/s) = 3.43881 3.72690 3.58575
# Velocity P-wave (km/s) = 6.89219 7.18045 7.03780
#
# Compressibility (1/GPa) = 0.01519489
#
# Stress axis : x y z
#
# Youngs Moduli (GPa) = 74.35163 86.50296 68.63442
#
# Poissons Ratio (x) = -0.00495 0.42939
# Poissons Ratio (y) = -0.00425 0.41136
# Poissons Ratio (z) = 0.46515 0.51846
#
# Static dielectric constant tensor:
#      x y z
#    x 4.013630 0.000000 0.000000 
#    y 0.000000 3.857650 0.000000 
#    z 0.000000 0.000000 3.490510 
# 
# 
# High freq. dielectric constant tensor:
#      x y z
#    x 1.834590 0.000000 0.000000 
#    y 0.000000 1.815670 0.000000 
#    z 0.000000 0.000000 1.793800 
# 
# From -- ./inp_files/5422.got.cif
#   From: 2010.03.12/outbox.cif.g09.slc.cpg/sg45_3_cif.got.tgz:5422.got - 2010.04.14 02:50:11.
