data_PCOD8190433
_publ_section_title
;
Structure prediction by ZEFSAII (Michael W. Deem and Ramdas Pophale) SiO2 
 PCOD8190433
Probable space group: I B A 2
;
_chemical_formula_sum "Si O2"
_cell_formula_units_Z 64
_cell_length_a 27.068584
_cell_length_b 9.441711
_cell_length_c 11.994375
_cell_angle_alpha 90.000000
_cell_angle_beta 90.000000
_cell_angle_gamma 90.000000
_cell_volume 3065.447365
_symmetry_space_group_name_H-M "I B A 2"
_symmetry_group_IT_number 45
_symmetry_cell_setting 'orthorhombic'
loop_
_space_group_symop_operation_xyz
x,y,z
-x,-y,z
-x,y,1/2+z
x,-y,1/2+z
1/2+x,1/2+y,1/2+z
1/2-x,1/2-y,1/2+z
1/2-x,1/2+y,z
1/2+x,1/2-y,z
loop_
_atom_site_type_symbol
_atom_site_label
_atom_site_fract_x
_atom_site_fract_y
_atom_site_fract_z
Si Si1 0.443767 0.852652 0.471410
Si Si2 0.867223 0.377344 0.795452
Si Si3 0.208379 0.752716 0.205680
Si Si4 0.294760 0.919668 0.914848
Si Si5 0.276885 0.532942 0.086352
Si Si6 0.598131 0.838701 0.205786
Si Si7 0.140452 0.762097 0.571047
Si Si8 0.052200 0.687327 0.435260
O O1 0.399610 0.799548 0.390821
O O2 0.435525 0.809638 0.599202
O O3 0.494404 0.773129 0.437756
O O4 0.444654 0.021107 0.459230
O O5 0.818043 0.449425 0.846056
O O6 0.899366 0.493738 0.729108
O O7 0.852864 0.261603 0.703481
O O8 0.219316 0.710515 0.333387
O O9 0.241928 0.661502 0.122405
O O10 0.151363 0.725403 0.178673
O O11 0.220003 0.917953 0.185680
O O12 0.335736 0.869257 0.003486
O O13 0.244662 0.963431 0.974798
O O14 0.330610 0.591261 0.050343
O O15 0.574018 0.767352 0.315095
O O16 0.083624 0.772680 0.529498
#
# Coordination Sequence:
#
# PCOD8190433 Si02
#       8
#     8   8   8   8   8   8   8   8
#     4  10  19  32  60  94 129 164 214 265 336 384
#     4  10  19  36  63  91 131 170 209 274 325 384
#     4  11  25  41  64  94 126 167 223 262 328 389
#     4  11  22  43  62  90 134 176 213 270 333 393
#     4  12  27  41  67  95 126 177 214 275 328 395
#     4  10  19  37  58  87 128 163 215 262 323 389
#     4  12  22  41  59  95 137 163 220 272 334 387
#     4  10  21  32  58  94 127 172 203 274 331 387
#
# _framework density 20.877866000000001
#
# number of rings (size 3 to 8) (size 9 to 14) (size 15 to 20)
#    0.000    1.250    6.250    2.250    3.500    1.000 
#    2.250    0.000    0.000    0.750    0.000    0.000 
#    0.000    0.000    0.000    0.000    0.000    0.000 
#
# Total GULP energy -396830.337634 kJ/mol
# GULP energy per Si atom -12400.948051 kJ/mol
# Density = 2.083035 g / cm^3
# Si number density = 20.877866 Si / 1000 Ang^3
#
#
#
# Elastic Constant Matrix: (Units=GPa)
#
#
# Indices 1 2 3 4 5 6 
#
# 1 115.4022 40.0705 50.3550 0.0000 0.0000 0.0000
# 2 40.0705 55.8384 25.8081 0.0000 0.0000 0.0000
# 3 50.3550 25.8081 129.9406 0.0000 0.0000 0.0000
# 4 0.0000 0.0000 0.0000 18.4332 0.0000 0.0000
# 5 0.0000 0.0000 0.0000 0.0000 36.2690 0.0000
# 6 0.0000 0.0000 0.0000 0.0000 0.0000 25.8579
#
#
#
# Elastic Compliance Matrix: (Units=1/GPa)
#
#
# Indices 1 2 3 4 5 6 
#
# 1 0.012811 -0.007596 -0.003456 0.000000 0.000000 0.000000
# 2 -0.007596 0.024223 -0.001867 0.000000 0.000000 0.000000
# 3 -0.003456 -0.001867 0.009406 0.000000 0.000000 0.000000
# 4 0.000000 0.000000 0.000000 0.054250 0.000000 0.000000
# 5 0.000000 0.000000 0.000000 0.000000 0.027572 0.000000
# 6 0.000000 0.000000 0.000000 0.000000 0.000000 0.038673
#
#
# Mechanical properties :
#
#
# Convention : Reuss Voigt Hill
#
# Bulk Modulus (GPa) = 48.54078 59.29428 53.91753
# Shear Modulus (GPa) = 25.04514 28.44186 26.74350
#
# Velocity S-wave (km/s) = 3.46729 3.69494 3.58292
# Velocity P-wave (km/s) = 6.27135 6.83122 6.55726
#
# Compressibility (1/GPa) = 0.02060123
#
# Stress axis : x y z
#
# Youngs Moduli (GPa) = 78.05932 41.28325 106.31599
#
# Poissons Ratio (x) = 0.31359 0.36741
# Poissons Ratio (y) = 0.59294 0.19854
# Poissons Ratio (z) = 0.26976 0.07709
#
# Static dielectric constant tensor:
#      x y z
#    x 3.983250 0.000000 0.000000 
#    y 0.000000 3.265950 0.000000 
#    z 0.000000 0.000000 3.936010 
# 
# 
# High freq. dielectric constant tensor:
#      x y z
#    x 1.819290 0.000000 0.000000 
#    y 0.000000 1.758330 0.000000 
#    z 0.000000 0.000000 1.832990 
# 
# From -- ./inp_files/4981.got.cif
#   From: 2010.03.12/outbox.cif.g09.slc.cpg/sg45_3_cif.got.tgz:4981.got - 2010.04.14 02:50:11.
