data_PCOD8190282
_publ_section_title
;
Structure prediction by ZEFSAII (Michael W. Deem and Ramdas Pophale) SiO2 
 PCOD8190282
Probable space group: I M M 2
;
_chemical_formula_sum "Si O2"
_cell_formula_units_Z 48
_cell_length_a 23.198132
_cell_length_b 8.789384
_cell_length_c 11.546755
_cell_angle_alpha 90.000000
_cell_angle_beta 90.000000
_cell_angle_gamma 90.000000
_cell_volume 2354.352055
_symmetry_space_group_name_H-M "I M M 2"
_symmetry_group_IT_number 44
_symmetry_cell_setting 'orthorhombic'
loop_
_space_group_symop_operation_xyz
x,y,z
-x,-y,z
-x,y,z
x,-y,z
1/2+x,1/2+y,1/2+z
1/2-x,1/2-y,1/2+z
1/2-x,1/2+y,1/2+z
1/2+x,1/2-y,1/2+z
loop_
_atom_site_type_symbol
_atom_site_label
_atom_site_fract_x
_atom_site_fract_y
_atom_site_fract_z
Si Si1 0.654721 0.670373 0.501500
Si Si2 0.935594 0.170244 0.817525
Si Si3 0.862627 0.676945 0.631326
Si Si4 0.771774 0.822137 0.784935
Si Si5 0.856802 0.323924 0.240475
Si Si6 0.433403 0.320394 0.923642
O O1 0.671755 0.500000 0.543876
O O2 0.591941 0.667911 0.444000
O O3 0.699847 0.732274 0.405503
O O4 0.650818 0.786648 0.606103
O O5 0.906334 0.293247 0.735501
O O6 0.000000 0.224900 0.834213
O O7 0.931242 0.000000 0.761888
O O8 0.855433 0.500000 0.605453
O O9 0.800168 0.741564 0.671707
O O10 0.889475 0.751801 0.517098
O O11 0.704621 0.783972 0.798372
O O12 0.784131 0.000000 0.767556
O O13 0.872125 0.500000 0.254980
O O14 0.908334 0.228040 0.298448
O O15 0.500000 0.262508 0.938204
O O16 0.432451 0.500000 0.934101
#
# Coordination Sequence:
#
# PCOD8190282 Si02
#       6
#     8   8   8   8   8   8
#     4   9  19  37  58  83 117 156 199 241 291 362
#     4   9  18  35  59  84 114 156 201 243 292 353
#     4  11  22  36  60  93 124 155 198 253 306 354
#     4   9  21  41  62  87 121 159 200 246 303 367
#     4  11  24  40  61  91 122 155 199 254 308 358
#     4  11  25  44  64  87 121 168 213 249 301 373
#
# _framework density 20.387775000000001
#
# number of rings (size 3 to 8) (size 9 to 14) (size 15 to 20)
#    0.000    2.000    0.000    4.000    2.333    8.333 
#    0.000    1.667    0.000    0.000    0.000    0.000 
#    0.000    0.000    0.000    0.000    0.000    0.000 
#
# Total GULP energy -297548.190277 kJ/mol
# GULP energy per Si atom -12397.841262 kJ/mol
# Density = 2.034137 g / cm^3
# Si number density = 20.387775 Si / 1000 Ang^3
#
#
#
# Elastic Constant Matrix: (Units=GPa)
#
#
# Indices 1 2 3 4 5 6 
#
# 1 82.4663 36.4479 21.8965 0.0000 0.0000 0.0000
# 2 36.4479 78.7596 32.2567 0.0000 0.0000 0.0000
# 3 21.8965 32.2567 93.1948 0.0000 0.0000 0.0000
# 4 0.0000 0.0000 0.0000 35.6355 0.0000 0.0000
# 5 0.0000 0.0000 0.0000 0.0000 20.5165 0.0000
# 6 0.0000 0.0000 0.0000 0.0000 0.0000 26.3332
#
#
#
# Elastic Compliance Matrix: (Units=1/GPa)
#
#
# Indices 1 2 3 4 5 6 
#
# 1 0.015387 -0.006571 -0.001341 0.000000 0.000000 0.000000
# 2 -0.006571 0.017601 -0.004548 0.000000 0.000000 0.000000
# 3 -0.001341 -0.004548 0.012619 0.000000 0.000000 0.000000
# 4 0.000000 0.000000 0.000000 0.028062 0.000000 0.000000
# 5 0.000000 0.000000 0.000000 0.000000 0.048741 0.000000
# 6 0.000000 0.000000 0.000000 0.000000 0.000000 0.037975
#
#
# Mechanical properties :
#
#
# Convention : Reuss Voigt Hill
#
# Bulk Modulus (GPa) = 48.34077 48.40254 48.37166
# Shear Modulus (GPa) = 26.01455 27.41834 26.71644
#
# Velocity S-wave (km/s) = 3.57597 3.67119 3.62389
# Velocity P-wave (km/s) = 6.38845 6.46240 6.42553
#
# Compressibility (1/GPa) = 0.02068647
#
# Stress axis : x y z
#
# Youngs Moduli (GPa) = 64.99188 56.81620 79.24349
#
# Poissons Ratio (x) = 0.37336 0.10623
# Poissons Ratio (y) = 0.42709 0.36040
# Poissons Ratio (z) = 0.08713 0.25840
#
# Static dielectric constant tensor:
#      x y z
#    x 3.969100 0.000000 0.000000 
#    y 0.000000 3.619500 0.000000 
#    z 0.000000 0.000000 3.610400 
# 
# 
# High freq. dielectric constant tensor:
#      x y z
#    x 1.805540 0.000000 0.000000 
#    y 0.000000 1.787370 0.000000 
#    z 0.000000 0.000000 1.792230 
# 
# From -- ./inp_files/14587.got.cif
#   From: 2010.03.12/outbox.cif.g09.slc.cpg/sg44_8_cif.got.tgz:14587.got - 2010.04.14 02:36:11.
