data_PCOD8190056
_publ_section_title
;
Structure prediction by ZEFSAII (Michael W. Deem and Ramdas Pophale) SiO2 
 PCOD8190056
Probable space group: I M M 2
;
_chemical_formula_sum "Si O2"
_cell_formula_units_Z 40
_cell_length_a 18.520140
_cell_length_b 19.113118
_cell_length_c 5.135372
_cell_angle_alpha 90.000000
_cell_angle_beta 90.000000
_cell_angle_gamma 90.000000
_cell_volume 1817.806765
_symmetry_space_group_name_H-M "I M M 2"
_symmetry_group_IT_number 44
_symmetry_cell_setting 'orthorhombic'
loop_
_space_group_symop_operation_xyz
x,y,z
-x,-y,z
-x,y,z
x,-y,z
1/2+x,1/2+y,1/2+z
1/2-x,1/2-y,1/2+z
1/2-x,1/2+y,1/2+z
1/2+x,1/2-y,1/2+z
loop_
_atom_site_type_symbol
_atom_site_label
_atom_site_fract_x
_atom_site_fract_y
_atom_site_fract_z
Si Si1 0.081482 0.841441 0.243130
Si Si2 0.772923 0.788628 0.235984
Si Si3 0.582028 0.575131 0.228509
Si Si4 0.919383 0.417758 0.199444
Si Si5 0.327571 0.916946 0.196479
O O1 0.141048 0.783622 0.171118
O O2 0.113393 0.871284 0.516632
O O3 0.000000 0.810036 0.264729
O O4 0.085147 0.900521 0.024332
O O5 0.763676 0.762457 0.529919
O O6 0.744073 0.868799 0.208110
O O7 0.500000 0.565435 0.137315
O O8 0.622271 0.500000 0.212144
O O9 0.928716 0.500000 0.215323
O O10 0.871957 0.392829 0.443074
O O11 0.000000 0.383743 0.204542
O O12 0.878419 0.396635 0.937252
O O13 0.306847 0.000000 0.193410
#
# Coordination Sequence:
#
# PCOD8190056 Si02
#       5
#     8   8   8   8   8
#     4  10  21  39  61  84 117 161 205 245 290 360
#     4  12  26  45  63  87 127 164 197 249 313 363
#     4   9  17  31  56  91 123 150 190 247 300 341
#     4   9  17  33  59  91 126 159 200 256 304 350
#     4  10  21  38  62  92 123 161 206 247 299 364
#
# _framework density 22.004539000000001
#
# number of rings (size 3 to 8) (size 9 to 14) (size 15 to 20)
#    0.000    2.000    0.000    3.600    0.000    6.400 
#    0.000    8.000    0.000    0.000    0.000    0.000 
#    0.000    0.000    0.000    0.000    0.000    0.000 
#
# Total GULP energy -247869.984042 kJ/mol
# GULP energy per Si atom -12393.499202 kJ/mol
# Density = 2.195446 g / cm^3
# Si number density = 22.004539 Si / 1000 Ang^3
#
#
#
# Elastic Constant Matrix: (Units=GPa)
#
#
# Indices 1 2 3 4 5 6 
#
# 1 131.8608 36.2890 24.2931 0.0000 0.0000 0.0000
# 2 36.2890 59.9243 8.8308 0.0000 0.0000 0.0000
# 3 24.2931 8.8308 119.0636 0.0000 0.0000 0.0000
# 4 0.0000 0.0000 0.0000 22.6662 0.0000 0.0000
# 5 0.0000 0.0000 0.0000 0.0000 52.3922 0.0000
# 6 0.0000 0.0000 0.0000 0.0000 0.0000 19.5400
#
#
#
# Elastic Compliance Matrix: (Units=1/GPa)
#
#
# Indices 1 2 3 4 5 6 
#
# 1 0.009360 -0.005446 -0.001506 0.000000 0.000000 0.000000
# 2 -0.005446 0.020041 -0.000375 0.000000 0.000000 0.000000
# 3 -0.001506 -0.000375 0.008734 0.000000 0.000000 0.000000
# 4 0.000000 0.000000 0.000000 0.044119 0.000000 0.000000
# 5 0.000000 0.000000 0.000000 0.000000 0.019087 0.000000
# 6 0.000000 0.000000 0.000000 0.000000 0.000000 0.051177
#
#
# Mechanical properties :
#
#
# Convention : Reuss Voigt Hill
#
# Bulk Modulus (GPa) = 42.58858 49.96383 46.27621
# Shear Modulus (GPa) = 28.57155 35.01539 31.79347
#
# Velocity S-wave (km/s) = 3.60730 3.99341 3.80525
# Velocity P-wave (km/s) = 6.06190 6.63465 6.35473
#
# Compressibility (1/GPa) = 0.02348047
#
# Stress axis : x y z
#
# Youngs Moduli (GPa) = 106.83693 49.89714 114.49581
#
# Poissons Ratio (x) = 0.27176 0.17241
# Poissons Ratio (y) = 0.58187 0.04296
# Poissons Ratio (z) = 0.16088 0.01872
#
# Static dielectric constant tensor:
#      x y z
#    x 4.053310 0.000000 0.000000 
#    y 0.000000 3.726550 0.000000 
#    z 0.000000 0.000000 4.068860 
# 
# 
# High freq. dielectric constant tensor:
#      x y z
#    x 1.862470 0.000000 0.000000 
#    y 0.000000 1.835290 0.000000 
#    z 0.000000 0.000000 1.883870 
# 
# From -- ./inp_files/1907.got.cif
#   From: 2010.03.12/outbox.cif.g09.slc.cpg/sg44_1_cif.got.tgz:1907.got - 2010.04.14 02:36:11.
