data_PCOD8190481
_publ_section_title
;
Structure prediction by ZEFSAII (Michael W. Deem and Ramdas Pophale) SiO2 
 PCOD8190481
Probable space group: I B A 2
;
_chemical_formula_sum "Si O2"
_cell_formula_units_Z 64
_cell_length_a 12.609719
_cell_length_b 27.282634
_cell_length_c 8.900195
_cell_angle_alpha 90.000000
_cell_angle_beta 90.000000
_cell_angle_gamma 90.000000
_cell_volume 3061.901585
_symmetry_space_group_name_H-M "I B A 2"
_symmetry_group_IT_number 45
_symmetry_cell_setting 'orthorhombic'
loop_
_space_group_symop_operation_xyz
x,y,z
-x,-y,z
-x,y,1/2+z
x,-y,1/2+z
1/2+x,1/2+y,1/2+z
1/2-x,1/2-y,1/2+z
1/2-x,1/2+y,z
1/2+x,1/2-y,z
loop_
_atom_site_type_symbol
_atom_site_label
_atom_site_fract_x
_atom_site_fract_y
_atom_site_fract_z
Si Si1 0.313349 0.931275 0.589590
Si Si2 0.815518 0.847676 0.213329
Si Si3 0.444852 0.335390 0.169562
Si Si4 0.243728 0.357622 0.052674
Si Si5 0.999152 0.765904 0.912658
Si Si6 0.055540 0.432844 0.088472
Si Si7 0.640144 0.001121 0.338890
Si Si8 0.648635 0.762006 0.661011
O O1 0.239926 0.883514 0.593684
O O2 0.435770 0.912559 0.586779
O O3 0.288461 0.965817 0.734243
O O4 0.286247 0.963357 0.441222
O O5 0.761346 0.856397 0.374458
O O6 0.796900 0.791771 0.158720
O O7 0.941283 0.859917 0.206662
O O8 0.421607 0.295296 0.298846
O O9 0.350496 0.375541 0.143384
O O10 0.441184 0.307065 0.009837
O O11 0.142022 0.389880 0.090678
O O12 0.232175 0.304515 0.133092
O O13 0.083938 0.733483 0.818000
O O14 0.931165 0.731115 0.019749
O O15 0.064677 0.465197 0.237336
O O16 0.068226 0.467542 0.945696
#
# Coordination Sequence:
#
# PCOD8190481 Si02
#       8
#     8   8   8   8   8   8   8   8
#     4  11  20  40  67  98 134 162 214 256 336 390
#     4  10  23  43  63  91 127 176 213 269 312 382
#     4  10  19  40  62  82 121 171 216 252 310 377
#     4  12  24  39  64  95 128 165 226 261 326 377
#     4   8  18  38  60  82 116 171 210 249 325 360
#     4  11  22  38  65 101 126 171 197 272 319 402
#     4  10  21  40  66  95 135 165 203 259 339 398
#     4  10  22  40  63  90 129 172 209 281 313 381
#
# _framework density 20.902044
#
# number of rings (size 3 to 8) (size 9 to 14) (size 15 to 20)
#    0.000    2.000    3.750    3.000    1.750    3.000 
#    4.500    0.000    0.000    4.500    0.000    0.000 
#    0.000    0.000    0.000    0.000    0.000    0.000 
#
# Total GULP energy -396471.209839 kJ/mol
# GULP energy per Si atom -12389.725307 kJ/mol
# Density = 2.085447 g / cm^3
# Si number density = 20.902044 Si / 1000 Ang^3
#
#
#
# Elastic Constant Matrix: (Units=GPa)
#
#
# Indices 1 2 3 4 5 6 
#
# 1 94.7869 53.8120 28.0133 -0.0001 0.0016 -0.0001
# 2 53.8120 92.1974 27.1535 -0.0027 0.0005 0.0001
# 3 28.0133 27.1535 119.1626 -0.0169 0.0027 0.0026
# 4 -0.0001 -0.0027 -0.0169 37.8575 0.0015 0.0003
# 5 0.0016 0.0005 0.0027 0.0015 18.5879 0.0002
# 6 -0.0001 0.0001 0.0026 0.0003 0.0002 29.5510
#
#
#
# Elastic Compliance Matrix: (Units=1/GPa)
#
#
# Indices 1 2 3 4 5 6 
#
# 1 0.016117 -0.008887 -0.001764 -0.000001 -0.000001 0.000000
# 2 -0.008887 0.016527 -0.001677 0.000000 0.000001 0.000000
# 3 -0.001764 -0.001677 0.009189 0.000004 -0.000001 -0.000001
# 4 -0.000001 0.000000 0.000004 0.026415 -0.000002 0.000000
# 5 -0.000001 0.000001 -0.000001 -0.000002 0.053799 0.000000
# 6 0.000000 0.000000 -0.000001 0.000000 0.000000 0.033840
#
#
# Mechanical properties :
#
#
# Convention : Reuss Voigt Hill
#
# Bulk Modulus (GPa) = 58.21695 58.23384 58.22539
# Shear Modulus (GPa) = 26.84323 30.34382 28.59352
#
# Velocity S-wave (km/s) = 3.58752 3.81427 3.70263
# Velocity P-wave (km/s) = 6.71365 6.87889 6.79677
#
# Compressibility (1/GPa) = 0.01717713
#
# Stress axis : x y z
#
# Youngs Moduli (GPa) = 62.04769 60.50607 108.83060
#
# Poissons Ratio (x) = 0.53773 0.19194
# Poissons Ratio (y) = 0.55143 0.18249
# Poissons Ratio (z) = 0.10943 0.10146
#
# Static dielectric constant tensor:
#      x y z
#    x 3.639180 0.000000 0.000000 
#    y 0.000000 3.590910 -0.000010 
#    z 0.000000 -0.000010 4.202820 
# 
# 
# High freq. dielectric constant tensor:
#      x y z
#    x 1.803040 0.000000 0.000000 
#    y 0.000000 1.784200 0.000000 
#    z 0.000000 0.000000 1.845670 
# 
# From -- ./inp_files/1514.got.cif
#   From: 2010.03.12/outbox.cif.g09.slc.cpg/sg45_1_cif.got.tgz:1514.got - 2010.04.14 02:50:11.
