data_PCOD8190565
_publ_section_title
;
Structure prediction by ZEFSAII (Michael W. Deem and Ramdas Pophale) SiO2 
 PCOD8190565
Probable space group: I B A 2
;
_chemical_formula_sum "Si O2"
_cell_formula_units_Z 48
_cell_length_a 9.331065
_cell_length_b 16.129426
_cell_length_c 14.596090
_cell_angle_alpha 90.000000
_cell_angle_beta 90.000000
_cell_angle_gamma 90.000000
_cell_volume 2196.780474
_symmetry_space_group_name_H-M "I B A 2"
_symmetry_group_IT_number 45
_symmetry_cell_setting 'orthorhombic'
loop_
_space_group_symop_operation_xyz
x,y,z
-x,-y,z
-x,y,1/2+z
x,-y,1/2+z
1/2+x,1/2+y,1/2+z
1/2-x,1/2-y,1/2+z
1/2-x,1/2+y,z
1/2+x,1/2-y,z
loop_
_atom_site_type_symbol
_atom_site_label
_atom_site_fract_x
_atom_site_fract_y
_atom_site_fract_z
Si Si1 0.079504 0.587386 0.489050
Si Si2 0.949013 0.908952 0.012871
Si Si3 0.173841 0.151196 0.383631
Si Si4 0.193905 0.310286 0.470082
Si Si5 0.981520 0.831589 0.201476
Si Si6 0.284013 0.196267 0.635261
O O1 0.194241 0.587989 0.404653
O O2 0.160358 0.612782 0.583698
O O3 0.000000 0.500000 0.500522
O O4 0.968516 0.659718 0.465762
O O5 0.937658 0.894546 0.121018
O O6 0.796852 0.890837 0.964264
O O7 0.000000 0.000000 0.987111
O O8 0.066801 0.847328 0.971065
O O9 0.226832 0.247347 0.385294
O O10 0.088172 0.127080 0.292158
O O11 0.225562 0.264372 0.565118
O O12 0.915177 0.739240 0.189632
O O13 0.154797 0.826395 0.205410
#
# Coordination Sequence:
#
# PCOD8190565 Si02
#       6
#     8   8   8   8   8   8
#     4  11  21  39  66  97 140 181 228 291 358 417
#     4  11  23  42  65  95 133 179 225 282 352 415
#     4  11  23  40  67  99 135 180 232 285 342 420
#     4  10  20  38  63  92 129 175 229 278 337 409
#     4  11  23  39  68  97 135 175 238 280 342 415
#     4  10  20  40  63  96 129 178 231 288 336 411
#
# _framework density 21.850158
#
# number of rings (size 3 to 8) (size 9 to 14) (size 15 to 20)
#    0.000    1.333    5.000    3.000    4.667    0.667 
#    0.000    0.000    0.000    9.000    0.000    0.000 
#    0.000    0.000    0.000    0.000    0.000    0.000 
#
# Total GULP energy -297477.545338 kJ/mol
# GULP energy per Si atom -12394.897722 kJ/mol
# Density = 2.180043 g / cm^3
# Si number density = 21.850158 Si / 1000 Ang^3
#
#
#
# Elastic Constant Matrix: (Units=GPa)
#
#
# Indices 1 2 3 4 5 6 
#
# 1 155.2276 47.6251 53.1430 0.0000 0.0000 0.0000
# 2 47.6251 88.8017 43.2224 0.0000 0.0000 0.0000
# 3 53.1430 43.2224 93.1038 -0.0001 0.0000 0.0000
# 4 0.0000 0.0000 -0.0001 15.1165 0.0000 0.0000
# 5 0.0000 0.0000 0.0000 0.0000 28.5413 0.0000
# 6 0.0000 0.0000 0.0000 0.0000 0.0000 42.0461
#
#
#
# Elastic Compliance Matrix: (Units=1/GPa)
#
#
# Indices 1 2 3 4 5 6 
#
# 1 0.008530 -0.002849 -0.003547 0.000000 0.000000 0.000000
# 2 -0.002849 0.015500 -0.005570 0.000000 0.000000 0.000000
# 3 -0.003547 -0.005570 0.015351 0.000000 0.000000 0.000000
# 4 0.000000 0.000000 0.000000 0.066153 0.000000 0.000000
# 5 0.000000 0.000000 0.000000 0.000000 0.035037 0.000000
# 6 0.000000 0.000000 0.000000 0.000000 0.000000 0.023783
#
#
# Mechanical properties :
#
#
# Convention : Reuss Voigt Hill
#
# Bulk Modulus (GPa) = 64.72046 69.45712 67.08879
# Shear Modulus (GPa) = 25.84861 30.01696 27.93279
#
# Velocity S-wave (km/s) = 3.44320 3.71045 3.57932
# Velocity P-wave (km/s) = 6.74477 7.08615 6.91757
#
# Compressibility (1/GPa) = 0.01545106
#
# Stress axis : x y z
#
# Youngs Moduli (GPa) = 117.22856 64.51755 65.14373
#
# Poissons Ratio (x) = 0.18379 0.23104
# Poissons Ratio (y) = 0.33394 0.36282
# Poissons Ratio (z) = 0.41576 0.35933
#
# Static dielectric constant tensor:
#      x y z
#    x 4.386900 0.000000 0.000000 
#    y 0.000000 3.704020 0.000000 
#    z 0.000000 0.000000 3.601770 
# 
# 
# High freq. dielectric constant tensor:
#      x y z
#    x 1.882870 0.000000 0.000000 
#    y 0.000000 1.840540 0.000000 
#    z 0.000000 0.000000 1.826620 
# 
# From -- ./inp_files/5611.got.cif
#   From: 2010.03.12/outbox.cif.g09.slc.cpg/sg45_3_cif.got.tgz:5611.got - 2010.04.14 02:50:11.
