data_PCOD8190035
_publ_section_title
;
Structure prediction by ZEFSAII (Michael W. Deem and Ramdas Pophale) SiO2 
 PCOD8190035
Probable space group: I M M 2
;
_chemical_formula_sum "Si O2"
_cell_formula_units_Z 64
_cell_length_a 18.055684
_cell_length_b 14.731667
_cell_length_c 11.797642
_cell_angle_alpha 90.000000
_cell_angle_beta 90.000000
_cell_angle_gamma 90.000000
_cell_volume 3138.058620
_symmetry_space_group_name_H-M "I M M 2"
_symmetry_group_IT_number 44
_symmetry_cell_setting 'orthorhombic'
loop_
_space_group_symop_operation_xyz
x,y,z
-x,-y,z
-x,y,z
x,-y,z
1/2+x,1/2+y,1/2+z
1/2-x,1/2-y,1/2+z
1/2-x,1/2+y,1/2+z
1/2+x,1/2-y,1/2+z
loop_
_atom_site_type_symbol
_atom_site_label
_atom_site_fract_x
_atom_site_fract_y
_atom_site_fract_z
Si Si1 0.201267 0.808550 0.252830
Si Si2 0.171459 0.781473 0.636561
Si Si3 0.152790 0.600428 0.515644
Si Si4 0.586154 0.604872 0.308604
Si Si5 0.583728 0.826120 0.804159
Si Si6 0.322040 0.602394 0.518361
Si Si7 0.418309 0.106085 0.554542
Si Si8 0.736535 0.895043 0.461355
O O1 0.262488 0.732707 0.225616
O O2 0.134493 0.762416 0.321092
O O3 0.166823 0.847209 0.137145
O O4 0.240723 0.885501 0.329455
O O5 0.136010 0.683484 0.601565
O O6 0.107936 0.840154 0.696044
O O7 0.204576 0.835333 0.530022
O O8 0.140324 0.500000 0.572254
O O9 0.101308 0.604115 0.405112
O O10 0.237768 0.610103 0.476542
O O11 0.500000 0.616504 0.329862
O O12 0.608889 0.500000 0.289822
O O13 0.627043 0.645394 0.419864
O O14 0.500000 0.792745 0.814091
O O15 0.599828 0.874477 0.685340
O O16 0.347697 0.500000 0.539111
O O17 0.500000 0.148136 0.520689
O O18 0.348096 0.142131 0.480857
O O19 0.424197 0.000000 0.535971
O O20 0.742109 0.000000 0.498440
#
# Coordination Sequence:
#
# PCOD8190035 Si02
#       8
#     8   8   8   8   8   8   8   8
#     4  11  22  38  59  89 125 156 203 253 299 365
#     4  11  22  38  64  89 123 158 209 251 306 371
#     4  10  21  38  60  88 120 158 204 258 308 360
#     4  10  22  40  63  92 125 161 202 254 311 365
#     4  11  21  34  55  85 122 161 202 248 298 356
#     4   9  20  38  63  88 115 153 201 251 302 362
#     4   9  19  35  57  90 125 157 198 249 306 366
#     4  11  22  38  63  93 126 166 204 251 309 366
#
# _framework density 20.394774999999999
#
# number of rings (size 3 to 8) (size 9 to 14) (size 15 to 20)
#    0.000    1.750    2.500    1.875    1.750    2.250 
#    0.000    1.875    0.000    1.875    0.000    7.000 
#    0.000    0.000    0.000    0.000    0.000    0.000 
#
# Total GULP energy -396706.503215 kJ/mol
# GULP energy per Si atom -12397.078225 kJ/mol
# Density = 2.034836 g / cm^3
# Si number density = 20.394775 Si / 1000 Ang^3
#
#
#
# Elastic Constant Matrix: (Units=GPa)
#
#
# Indices 1 2 3 4 5 6 
#
# 1 81.0738 32.5306 53.3973 0.0000 0.0000 0.0000
# 2 32.5306 85.4153 45.0258 0.0000 0.0000 0.0000
# 3 53.3973 45.0258 98.7835 0.0000 0.0000 0.0000
# 4 0.0000 0.0000 0.0000 32.9642 0.0000 0.0000
# 5 0.0000 0.0000 0.0000 0.0000 27.6793 0.0000
# 6 0.0000 0.0000 0.0000 0.0000 0.0000 21.4352
#
#
#
# Elastic Compliance Matrix: (Units=1/GPa)
#
#
# Indices 1 2 3 4 5 6 
#
# 1 0.019541 -0.002467 -0.009438 0.000000 0.000000 0.000000
# 2 -0.002467 0.015722 -0.005833 0.000000 0.000000 0.000000
# 3 -0.009438 -0.005833 0.017883 0.000000 0.000000 0.000000
# 4 0.000000 0.000000 0.000000 0.030336 0.000000 0.000000
# 5 0.000000 0.000000 0.000000 0.000000 0.036128 0.000000
# 6 0.000000 0.000000 0.000000 0.000000 0.000000 0.046652
#
#
# Mechanical properties :
#
#
# Convention : Reuss Voigt Hill
#
# Bulk Modulus (GPa) = 56.59168 58.57557 57.58363
# Shear Modulus (GPa) = 24.08164 25.37032 24.72598
#
# Velocity S-wave (km/s) = 3.43997 3.53081 3.48569
# Velocity P-wave (km/s) = 6.60199 6.73835 6.67052
#
# Compressibility (1/GPa) = 0.01767044
#
# Stress axis : x y z
#
# Youngs Moduli (GPa) = 51.17572 63.60706 55.91756
#
# Poissons Ratio (x) = 0.15690 0.52776
# Poissons Ratio (y) = 0.12624 0.32614
# Poissons Ratio (z) = 0.48301 0.37099
#
# Static dielectric constant tensor:
#      x y z
#    x 3.778300 0.000000 0.000000 
#    y 0.000000 3.736350 0.000000 
#    z 0.000000 0.000000 3.589910 
# 
# 
# High freq. dielectric constant tensor:
#      x y z
#    x 1.789620 0.000000 0.000000 
#    y 0.000000 1.795580 0.000000 
#    z 0.000000 0.000000 1.787970 
# 
# From -- ./inp_files/13445.got.cif
#   From: 2010.03.12/outbox.cif.g09.slc.cpg/sg44_7_cif.got.tgz:13445.got - 2010.04.14 02:36:11.
