data_PCOD8190129
_publ_section_title
;
Structure prediction by ZEFSAII (Michael W. Deem and Ramdas Pophale) SiO2 
 PCOD8190129
Probable space group: I M M 2
;
_chemical_formula_sum "Si O2"
_cell_formula_units_Z 48
_cell_length_a 9.151480
_cell_length_b 30.257014
_cell_length_c 9.032267
_cell_angle_alpha 90.000000
_cell_angle_beta 90.000000
_cell_angle_gamma 90.000000
_cell_volume 2501.002744
_symmetry_space_group_name_H-M "I M M 2"
_symmetry_group_IT_number 44
_symmetry_cell_setting 'orthorhombic'
loop_
_space_group_symop_operation_xyz
x,y,z
-x,-y,z
-x,y,z
x,-y,z
1/2+x,1/2+y,1/2+z
1/2-x,1/2-y,1/2+z
1/2-x,1/2+y,1/2+z
1/2+x,1/2-y,1/2+z
loop_
_atom_site_type_symbol
_atom_site_label
_atom_site_fract_x
_atom_site_fract_y
_atom_site_fract_z
Si Si1 0.330416 0.289711 0.110710
Si Si2 0.328913 0.949987 0.589963
Si Si3 0.829133 0.125936 0.422123
Si Si4 0.828042 0.126579 0.083450
Si Si5 0.168218 0.448685 0.427853
Si Si6 0.829880 0.704252 0.414977
O O1 0.500000 0.293512 0.155698
O O2 0.231012 0.285552 0.253628
O O3 0.278647 0.332177 0.017711
O O4 0.299904 0.246735 0.014039
O O5 0.500000 0.945546 0.562592
O O6 0.248111 0.918120 0.477378
O O7 0.290666 0.937125 0.758608
O O8 0.277472 0.000000 0.557523
O O9 0.784550 0.135208 0.253084
O O10 0.000000 0.117775 0.436292
O O11 0.000000 0.129747 0.057751
O O12 0.772832 0.078276 0.036562
O O13 0.750906 0.162405 0.981762
O O14 0.195581 0.500000 0.460102
O O15 0.000000 0.436299 0.458782
O O16 0.000000 0.693087 0.402380
#
# Coordination Sequence:
#
# PCOD8190129 Si02
#       6
#     8   8   8   8   8   8
#     4  10  22  40  60  83 113 147 183 227 279 331
#     4   9  19  36  57  81 109 142 182 229 279 330
#     4  10  22  38  55  79 112 148 185 227 275 328
#     4  11  23  38  56  81 116 152 188 231 278 331
#     4   9  19  37  59  83 112 146 188 236 283 335
#     4  11  23  39  61  87 114 146 186 229 276 332
#
# _framework density 19.192302000000002
#
# number of rings (size 3 to 8) (size 9 to 14) (size 15 to 20)
#    0.000    2.000    0.000    4.000    0.000    9.333 
#    0.000    5.000    0.000    0.000    0.000    0.000 
#    0.000    0.000    0.000    0.000    0.000    0.000 
#
# Total GULP energy -297708.865944 kJ/mol
# GULP energy per Si atom -12404.536081 kJ/mol
# Density = 1.914862 g / cm^3
# Si number density = 19.192302 Si / 1000 Ang^3
#
#
#
# Elastic Constant Matrix: (Units=GPa)
#
#
# Indices 1 2 3 4 5 6 
#
# 1 79.6762 53.2652 71.4440 0.0025 0.0000 0.0009
# 2 53.2652 104.2048 55.6429 0.0075 -0.0009 0.0000
# 3 71.4440 55.6429 125.9938 0.0079 -0.0022 0.0007
# 4 0.0025 0.0075 0.0079 30.9767 -0.0014 0.0001
# 5 0.0000 -0.0009 -0.0022 -0.0014 37.0206 0.0028
# 6 0.0009 0.0000 0.0007 0.0001 0.0028 31.9621
#
#
#
# Elastic Compliance Matrix: (Units=1/GPa)
#
#
# Indices 1 2 3 4 5 6 
#
# 1 0.030081 -0.008202 -0.013435 0.000003 -0.000001 -0.000001
# 2 -0.008202 0.014794 -0.001883 -0.000002 0.000000 0.000000
# 3 -0.013435 -0.001883 0.016386 -0.000003 0.000001 0.000000
# 4 0.000003 -0.000002 -0.000003 0.032282 0.000001 0.000000
# 5 -0.000001 0.000000 0.000001 0.000001 0.027012 -0.000002
# 6 -0.000001 0.000000 0.000000 0.000000 -0.000002 0.031287
#
#
# Mechanical properties :
#
#
# Convention : Reuss Voigt Hill
#
# Bulk Modulus (GPa) = 70.31183 74.50878 72.41031
# Shear Modulus (GPa) = 24.55513 28.62672 26.59092
#
# Velocity S-wave (km/s) = 3.58079 3.86628 3.72627
# Velocity P-wave (km/s) = 7.33560 7.67055 7.50494
#
# Compressibility (1/GPa) = 0.01422236
#
# Stress axis : x y z
#
# Youngs Moduli (GPa) = 33.24367 67.59298 61.02595
#
# Poissons Ratio (x) = 0.55442 0.81987
# Poissons Ratio (y) = 0.27267 0.11489
# Poissons Ratio (z) = 0.44662 0.12725
#
# Static dielectric constant tensor:
#      x y z
#    x 3.454000 0.000000 0.000000 
#    y 0.000000 3.592750 -0.000010 
#    z 0.000000 -0.000010 3.559000 
# 
# 
# High freq. dielectric constant tensor:
#      x y z
#    x 1.744440 0.000000 0.000000 
#    y 0.000000 1.761410 0.000000 
#    z 0.000000 0.000000 1.753410 
# 
# From -- ./inp_files/4854.got.cif
#   From: 2010.03.12/outbox.cif.g09.slc.cpg/sg44_3_cif.got.tgz:4854.got - 2010.04.14 02:36:11.
