data_PCOD8190123
_publ_section_title
;
Structure prediction by ZEFSAII (Michael W. Deem and Ramdas Pophale) SiO2 
 PCOD8190123
Probable space group: I M M 2
;
_chemical_formula_sum "Si O2"
_cell_formula_units_Z 48
_cell_length_a 22.636594
_cell_length_b 9.807896
_cell_length_c 11.697734
_cell_angle_alpha 90.000000
_cell_angle_beta 90.000000
_cell_angle_gamma 90.000000
_cell_volume 2597.100018
_symmetry_space_group_name_H-M "I M M 2"
_symmetry_group_IT_number 44
_symmetry_cell_setting 'orthorhombic'
loop_
_space_group_symop_operation_xyz
x,y,z
-x,-y,z
-x,y,z
x,-y,z
1/2+x,1/2+y,1/2+z
1/2-x,1/2-y,1/2+z
1/2-x,1/2+y,1/2+z
1/2+x,1/2-y,1/2+z
loop_
_atom_site_type_symbol
_atom_site_label
_atom_site_fract_x
_atom_site_fract_y
_atom_site_fract_z
Si Si1 0.726134 0.655525 0.339350
Si Si2 0.069222 0.158310 0.248436
Si Si3 0.141782 0.342509 0.412421
Si Si4 0.124104 0.843038 0.009379
Si Si5 0.664022 0.156604 0.167679
Si Si6 0.065757 0.649356 0.844369
O O1 0.710863 0.500000 0.306889
O O2 0.795109 0.676475 0.354308
O O3 0.689220 0.693765 0.456400
O O4 0.712028 0.751543 0.232027
O O5 0.091750 0.250982 0.352849
O O6 0.113246 0.193069 0.142271
O O7 0.000000 0.191459 0.221613
O O8 0.075735 0.000000 0.282423
O O9 0.121019 0.500000 0.408682
O O10 0.151033 0.290351 0.541171
O O11 0.109494 0.000000 0.989452
O O12 0.075212 0.759396 0.941808
O O13 0.603067 0.176518 0.232271
O O14 0.686962 0.000000 0.166069
O O15 0.080371 0.500000 0.896451
O O16 0.000000 0.658902 0.798896
#
# Coordination Sequence:
#
# PCOD8190123 Si02
#       6
#     8   8   8   8   8   8
#     4   9  19  35  55  81 109 136 177 228 276 326
#     4  10  22  38  56  81 112 149 190 225 268 328
#     4  10  22  37  55  80 109 144 184 224 271 329
#     4   9  18  34  56  79 106 139 177 224 270 317
#     4   9  19  35  54  77 105 138 178 219 267 325
#     4   9  17  30  50  77 106 135 172 219 266 313
#
# _framework density 18.482151999999999
#
# number of rings (size 3 to 8) (size 9 to 14) (size 15 to 20)
#    0.000    2.667    0.000    0.500    2.333    4.000 
#    0.000    1.667    0.000    0.000    0.000    0.000 
#    0.000    0.000    0.000    0.000    0.000    0.000 
#
# Total GULP energy -297466.582643 kJ/mol
# GULP energy per Si atom -12394.440943 kJ/mol
# Density = 1.844009 g / cm^3
# Si number density = 18.482152 Si / 1000 Ang^3
#
#
#
# Elastic Constant Matrix: (Units=GPa)
#
#
# Indices 1 2 3 4 5 6 
#
# 1 60.3231 30.6982 23.4826 0.0000 0.0000 0.0000
# 2 30.6982 62.4442 52.0648 0.0000 0.0000 0.0000
# 3 23.4826 52.0648 106.7643 0.0000 0.0000 0.0000
# 4 0.0000 0.0000 0.0000 34.1089 0.0000 0.0000
# 5 0.0000 0.0000 0.0000 0.0000 15.2340 0.0000
# 6 0.0000 0.0000 0.0000 0.0000 0.0000 -110.1962
#
#
#
# Elastic Compliance Matrix: (Units=1/GPa)
#
#
# Indices 1 2 3 4 5 6 
#
# 1 0.022143 -0.011501 0.000739 0.000000 0.000000 0.000000
# 2 -0.011501 0.032962 -0.013544 0.000000 0.000000 0.000000
# 3 0.000739 -0.013544 0.015809 0.000000 0.000000 0.000000
# 4 0.000000 0.000000 0.000000 0.029318 0.000000 0.000000
# 5 0.000000 0.000000 0.000000 0.000000 0.065643 0.000000
# 6 0.000000 0.000000 0.000000 0.000000 0.000000 -0.009075
#
#
# Mechanical properties :
#
#
# Convention : Reuss Voigt Hill
#
# Bulk Modulus (GPa) = 44.84510 49.11364 46.97937
# Shear Modulus (GPa) = 23.49105 -3.95159 9.76973
#
# Velocity S-wave (km/s) = 3.56899 -1.46380 2.30163
# Velocity P-wave (km/s) = 6.42653 4.87589 5.70415
#
# Compressibility (1/GPa) = 0.02229898
#
# Stress axis : x y z
#
# Youngs Moduli (GPa) = 45.16107 30.33840 63.25494
#
# Poissons Ratio (x) = 0.34894 -0.04671
# Poissons Ratio (y) = 0.51942 0.85675
# Poissons Ratio (z) = -0.03335 0.41091
#
# Static dielectric constant tensor:
#      x y z
#    x 3.382810 0.000000 0.000000 
#    y 0.000000 3.500910 0.000000 
#    z 0.000000 0.000000 3.386580 
# 
# 
# High freq. dielectric constant tensor:
#      x y z
#    x 1.717100 0.000000 0.000000 
#    y 0.000000 1.716360 0.000000 
#    z 0.000000 0.000000 1.710200 
# 
# From -- ./inp_files/11142.got.cif
#   From: 2010.03.12/outbox.cif.g09.slc.cpg/sg44_6_cif.got.tgz:11142.got - 2010.04.14 02:36:11.
