data_PCOD8190800
_publ_section_title
;
Structure prediction by ZEFSAII (Michael W. Deem and Ramdas Pophale) SiO2 
 PCOD8190800
Probable space group: I B A 2
;
_chemical_formula_sum "Si O2"
_cell_formula_units_Z 64
_cell_length_a 8.245872
_cell_length_b 27.026044
_cell_length_c 12.693063
_cell_angle_alpha 90.000000
_cell_angle_beta 90.000000
_cell_angle_gamma 90.000000
_cell_volume 2828.690970
_symmetry_space_group_name_H-M "I B A 2"
_symmetry_group_IT_number 45
_symmetry_cell_setting 'orthorhombic'
loop_
_space_group_symop_operation_xyz
x,y,z
-x,-y,z
-x,y,1/2+z
x,-y,1/2+z
1/2+x,1/2+y,1/2+z
1/2-x,1/2-y,1/2+z
1/2-x,1/2+y,z
1/2+x,1/2-y,z
loop_
_atom_site_type_symbol
_atom_site_label
_atom_site_fract_x
_atom_site_fract_y
_atom_site_fract_z
Si Si1 0.655208 0.475776 0.938380
Si Si2 0.196714 0.092856 0.750026
Si Si3 0.597645 0.864447 0.052552
Si Si4 0.893109 0.542605 0.065107
Si Si5 0.136889 0.687963 0.709626
Si Si6 0.515548 0.216146 0.912139
Si Si7 0.950394 0.892697 0.090019
Si Si8 0.157484 0.802273 0.015428
O O1 0.500000 0.500000 0.881140
O O2 0.730816 0.437690 0.855198
O O3 0.786329 0.517101 0.972587
O O4 0.576519 0.445558 0.035246
O O5 0.281367 0.067387 0.650775
O O6 0.260690 0.147623 0.775075
O O7 0.010184 0.097588 0.710118
O O8 0.521097 0.917433 0.017977
O O9 0.498227 0.841644 0.147432
O O10 0.779100 0.865993 0.095320
O O11 0.594411 0.828885 0.952270
O O12 0.000000 0.500000 0.120401
O O13 0.045011 0.724958 0.791284
O O14 0.257161 0.715051 0.625935
O O15 0.704616 0.200403 0.923586
O O16 0.485440 0.264957 0.982934
O O17 0.083146 0.857617 0.028552
#
# Coordination Sequence:
#
# PCOD8190800 Si02
#       8
#     8   8   8   8   8   8   8   8
#     4  12  25  38  66  94 130 177 227 273 338 400
#     4  10  24  43  61  96 131 171 220 278 329 406
#     4  10  22  41  67  92 131 176 220 279 339 396
#     4  11  23  43  62  92 131 174 219 280 333 394
#     4   9  22  43  66  96 134 172 224 277 330 407
#     4  11  22  42  68  99 134 173 227 274 340 404
#     4  11  22  45  65  94 137 173 220 279 341 395
#     4  10  24  42  68  98 136 176 218 280 340 401
#
# _framework density 22.625305000000001
#
# number of rings (size 3 to 8) (size 9 to 14) (size 15 to 20)
#    0.000    1.500    2.500    2.250    1.750    3.500 
#    2.250    3.750    0.000    0.000    0.000    0.000 
#    0.000    0.000    0.000    0.000    0.000    0.000 
#
# Total GULP energy -396564.600158 kJ/mol
# GULP energy per Si atom -12392.643755 kJ/mol
# Density = 2.257381 g / cm^3
# Si number density = 22.625305 Si / 1000 Ang^3
#
#
#
# Elastic Constant Matrix: (Units=GPa)
#
#
# Indices 1 2 3 4 5 6 
#
# 1 115.6490 16.7410 22.9157 0.0000 0.0000 0.0000
# 2 16.7410 76.4989 19.8730 0.0001 0.0000 0.0001
# 3 22.9157 19.8730 75.5112 -0.0004 -0.0003 0.0004
# 4 0.0000 0.0001 -0.0004 35.5798 -0.0002 0.0002
# 5 0.0000 0.0000 -0.0003 -0.0002 12.4257 0.0000
# 6 0.0000 0.0001 0.0004 0.0002 0.0000 37.9079
#
#
#
# Elastic Compliance Matrix: (Units=1/GPa)
#
#
# Indices 1 2 3 4 5 6 
#
# 1 0.009338 -0.001403 -0.002465 0.000000 0.000000 0.000000
# 2 -0.001403 0.014242 -0.003322 0.000000 0.000000 0.000000
# 3 -0.002465 -0.003322 0.014865 0.000000 0.000000 0.000000
# 4 0.000000 0.000000 0.000000 0.028106 0.000000 0.000000
# 5 0.000000 0.000000 0.000000 0.000000 0.080479 0.000000
# 6 0.000000 0.000000 0.000000 0.000000 0.000000 0.026380
#
#
# Mechanical properties :
#
#
# Convention : Reuss Voigt Hill
#
# Bulk Modulus (GPa) = 41.55356 42.96872 42.26114
# Shear Modulus (GPa) = 25.53460 31.05796 28.29628
#
# Velocity S-wave (km/s) = 3.36309 3.70903 3.54029
# Velocity P-wave (km/s) = 5.78674 6.11353 5.95237
#
# Compressibility (1/GPa) = 0.02406533
#
# Stress axis : x y z
#
# Youngs Moduli (GPa) = 107.08518 70.21345 67.27029
#
# Poissons Ratio (x) = 0.09853 0.16580
# Poissons Ratio (y) = 0.15028 0.22350
# Poissons Ratio (z) = 0.26392 0.23328
#
# Static dielectric constant tensor:
#      x y z
#    x 4.346670 0.000000 0.000000 
#    y 0.000000 4.159620 0.000000 
#    z 0.000000 0.000000 3.805490 
# 
# 
# High freq. dielectric constant tensor:
#      x y z
#    x 1.908100 0.000000 0.000000 
#    y 0.000000 1.895340 0.000000 
#    z 0.000000 0.000000 1.867430 
# 
# From -- ./inp_files/3429.got.cif
#   From: 2010.03.12/outbox.cif.g09.slc.cpg/sg45_2_cif.got.tgz:3429.got - 2010.04.14 02:50:11.
