data_PCOD8190060
_publ_section_title
;
Structure prediction by ZEFSAII (Michael W. Deem and Ramdas Pophale) SiO2 
 PCOD8190060
Probable space group: I M M 2
;
_chemical_formula_sum "Si O2"
_cell_formula_units_Z 64
_cell_length_a 8.638986
_cell_length_b 29.596281
_cell_length_c 12.774580
_cell_angle_alpha 90.000000
_cell_angle_beta 90.000000
_cell_angle_gamma 90.000000
_cell_volume 3266.228339
_symmetry_space_group_name_H-M "I M M 2"
_symmetry_group_IT_number 44
_symmetry_cell_setting 'orthorhombic'
loop_
_space_group_symop_operation_xyz
x,y,z
-x,-y,z
-x,y,z
x,-y,z
1/2+x,1/2+y,1/2+z
1/2-x,1/2-y,1/2+z
1/2-x,1/2+y,1/2+z
1/2+x,1/2-y,1/2+z
loop_
_atom_site_type_symbol
_atom_site_label
_atom_site_fract_x
_atom_site_fract_y
_atom_site_fract_z
Si Si1 0.184010 0.949662 0.519290
Si Si2 0.318119 0.118060 0.125342
Si Si3 0.322392 0.246630 0.897593
Si Si4 0.821405 0.715339 0.078523
Si Si5 0.824820 0.053197 0.286876
Si Si6 0.179079 0.712986 0.704441
Si Si7 0.183111 0.873293 0.679537
Si Si8 0.317016 0.142148 0.898627
O O1 0.241268 0.934106 0.402895
O O2 0.241438 0.915582 0.609289
O O3 0.000000 0.951608 0.515029
O O4 0.248238 0.000000 0.544943
O O5 0.500000 0.121964 0.117152
O O6 0.271625 0.074687 0.192300
O O7 0.258755 0.162416 0.186363
O O8 0.258285 0.116767 0.004720
O O9 0.500000 0.253559 0.928871
O O10 0.296252 0.259823 0.777927
O O11 0.270299 0.194548 0.909758
O O12 0.210555 0.284053 0.954106
O O13 0.706235 0.758003 0.099763
O O14 0.768722 0.670321 0.135722
O O15 0.000000 0.723793 0.105432
O O16 0.000000 0.070594 0.276238
O O17 0.814537 0.000000 0.271527
O O18 0.000000 0.714548 0.739332
O O19 0.230367 0.880975 0.800190
O O20 0.000000 0.866922 0.670153
O O21 0.500000 0.137066 0.880681
#
# Coordination Sequence:
#
# PCOD8190060 Si02
#       8
#     8   8   8   8   8   8   8   8
#     4   8  17  37  62  87 115 145 179 230 294 348
#     4  10  22  39  58  82 115 152 190 235 287 344
#     4  11  22  38  56  77 111 155 197 241 288 337
#     4  12  24  37  54  80 116 157 196 239 283 336
#     4   9  19  38  63  89 115 144 184 234 287 347
#     4  11  22  38  56  81 114 151 196 240 284 341
#     4  11  22  36  59  88 115 150 196 241 287 347
#     4  10  21  39  57  78 115 157 193 236 287 338
#
# _framework density 19.594467000000002
#
# number of rings (size 3 to 8) (size 9 to 14) (size 15 to 20)
#    0.000    1.750    2.500    3.000    1.750    2.250 
#    0.000    1.250    0.000    5.250    0.000    0.000 
#    0.000    0.000    0.000    0.000    0.000    0.000 
#
# Total GULP energy -396624.330226 kJ/mol
# GULP energy per Si atom -12394.510320 kJ/mol
# Density = 1.954987 g / cm^3
# Si number density = 19.594467 Si / 1000 Ang^3
#
#
#
# Elastic Constant Matrix: (Units=GPa)
#
#
# Indices 1 2 3 4 5 6 
#
# 1 45.4342 23.1071 32.0882 -0.0001 -0.0001 -0.0001
# 2 23.1071 77.1746 59.0158 -0.0006 0.0000 0.0000
# 3 32.0882 59.0158 130.7533 -0.0006 0.0001 -0.0002
# 4 -0.0001 -0.0006 -0.0006 37.9352 0.0001 0.0000
# 5 -0.0001 0.0000 0.0001 0.0001 32.0539 -0.0001
# 6 -0.0001 0.0000 -0.0002 0.0000 -0.0001 23.8598
#
#
#
# Elastic Compliance Matrix: (Units=1/GPa)
#
#
# Indices 1 2 3 4 5 6 
#
# 1 0.027710 -0.004729 -0.004666 0.000000 0.000000 0.000000
# 2 -0.004729 0.020594 -0.008135 0.000000 0.000000 0.000000
# 3 -0.004666 -0.008135 0.012465 0.000000 0.000000 0.000000
# 4 0.000000 0.000000 0.000000 0.026361 0.000000 0.000000
# 5 0.000000 0.000000 0.000000 0.000000 0.031197 0.000000
# 6 0.000000 0.000000 0.000000 0.000000 0.000000 0.041912
#
#
# Mechanical properties :
#
#
# Convention : Reuss Voigt Hill
#
# Bulk Modulus (GPa) = 38.89516 53.53158 46.21337
# Shear Modulus (GPa) = 24.52569 28.04650 26.28610
#
# Velocity S-wave (km/s) = 3.54172 3.78742 3.66663
# Velocity P-wave (km/s) = 6.05130 6.81947 6.44684
#
# Compressibility (1/GPa) = 0.02571014
#
# Stress axis : x y z
#
# Youngs Moduli (GPa) = 36.08779 48.55753 80.22631
#
# Poissons Ratio (x) = 0.22961 0.37434
# Poissons Ratio (y) = 0.17065 0.65262
# Poissons Ratio (z) = 0.16839 0.39500
#
# Static dielectric constant tensor:
#      x y z
#    x 3.271960 0.000000 0.000000 
#    y 0.000000 3.498640 0.000000 
#    z 0.000000 0.000000 3.830040 
# 
# 
# High freq. dielectric constant tensor:
#      x y z
#    x 1.746250 0.000000 0.000000 
#    y 0.000000 1.744280 0.000000 
#    z 0.000000 0.000000 1.784710 
# 
# From -- ./inp_files/11568.got.cif
#   From: 2010.03.12/outbox.cif.g09.slc.cpg/sg44_6_cif.got.tgz:11568.got - 2010.04.14 02:36:11.
