data_PCOD8190371
_publ_section_title
;
Structure prediction by ZEFSAII (Michael W. Deem and Ramdas Pophale) SiO2 
 PCOD8190371
Probable space group: I B A 2
;
_chemical_formula_sum "Si O2"
_cell_formula_units_Z 48
_cell_length_a 25.347920
_cell_length_b 24.311961
_cell_length_c 5.185763
_cell_angle_alpha 90.000000
_cell_angle_beta 90.000000
_cell_angle_gamma 90.000000
_cell_volume 3195.766081
_symmetry_space_group_name_H-M "I B A 2"
_symmetry_group_IT_number 45
_symmetry_cell_setting 'orthorhombic'
loop_
_space_group_symop_operation_xyz
x,y,z
-x,-y,z
-x,y,1/2+z
x,-y,1/2+z
1/2+x,1/2+y,1/2+z
1/2-x,1/2-y,1/2+z
1/2-x,1/2+y,z
1/2+x,1/2-y,z
loop_
_atom_site_type_symbol
_atom_site_label
_atom_site_fract_x
_atom_site_fract_y
_atom_site_fract_z
Si Si1 0.639451 0.463962 0.598020
Si Si2 0.808523 0.856373 0.665796
Si Si3 0.474366 0.418288 0.159349
Si Si4 0.020445 0.203325 0.145879
Si Si5 0.144013 0.196562 0.165400
Si Si6 0.772360 0.725030 0.067721
O O1 0.641666 0.489226 0.313516
O O2 0.688489 0.422149 0.629337
O O3 0.587677 0.426379 0.626884
O O4 0.843998 0.825419 0.451195
O O5 0.746982 0.837419 0.628894
O O6 0.828429 0.842090 0.952604
O O7 0.494336 0.446887 0.422878
O O8 0.488310 0.353979 0.179277
O O9 0.082211 0.195028 0.117433
O O10 0.004315 0.236441 0.404280
O O11 0.166622 0.259359 0.130976
O O12 0.738126 0.762871 0.266131
#
# Coordination Sequence:
#
# PCOD8190371 Si02
#       6
#     8   8   8   8   8   8
#     4  12  24  33  42  56  77 110 147 178 206 233
#     4  10  18  32  46  60  81 101 131 178 220 248
#     4  10  19  31  41  52  70 101 139 175 207 229
#     4  10  18  27  41  58  78 106 133 160 200 243
#     4  10  17  30  48  64  80 100 133 171 213 259
#     4   8  16  27  46  67  78  94 123 167 218 262
#
# _framework density 15.019873
#
# number of rings (size 3 to 8) (size 9 to 14) (size 15 to 20)
#    0.000    2.000    0.000    7.000    0.000    2.000 
#    0.000    0.000    0.000    0.000    0.000    0.000 
#    0.000    0.000    0.000    0.000    0.000    5.000 
#
# Total GULP energy -297316.552265 kJ/mol
# GULP energy per Si atom -12388.189678 kJ/mol
# Density = 1.498569 g / cm^3
# Si number density = 15.019873 Si / 1000 Ang^3
#
#
#
# Elastic Constant Matrix: (Units=GPa)
#
#
# Indices 1 2 3 4 5 6 
#
# 1 47.2851 35.4667 7.1280 0.0000 0.0000 0.0000
# 2 35.4667 41.8980 -0.3343 0.0000 0.0000 0.0000
# 3 7.1280 -0.3343 92.7451 0.0000 0.0000 0.0000
# 4 0.0000 0.0000 0.0000 8.8838 0.0000 0.0000
# 5 0.0000 0.0000 0.0000 0.0000 18.4714 0.0000
# 6 0.0000 0.0000 0.0000 0.0000 0.0000 28.8212
#
#
#
# Elastic Compliance Matrix: (Units=1/GPa)
#
#
# Indices 1 2 3 4 5 6 
#
# 1 0.059987 -0.050818 -0.004794 0.000000 0.000000 0.000000
# 2 -0.050818 0.066918 0.004147 0.000000 0.000000 0.000000
# 3 -0.004794 0.004147 0.011166 0.000000 0.000000 0.000000
# 4 0.000000 0.000000 0.000000 0.112565 0.000000 0.000000
# 5 0.000000 0.000000 0.000000 0.000000 0.054138 0.000000
# 6 0.000000 0.000000 0.000000 0.000000 0.000000 0.034697
#
#
# Mechanical properties :
#
#
# Convention : Reuss Voigt Hill
#
# Bulk Modulus (GPa) = 28.45597 29.60547 29.03072
# Shear Modulus (GPa) = 11.01049 20.54644 15.77847
#
# Velocity S-wave (km/s) = 2.71045 3.70259 3.24467
# Velocity P-wave (km/s) = 5.36489 6.16706 5.77991
#
# Compressibility (1/GPa) = 0.03514201
#
# Stress axis : x y z
#
# Youngs Moduli (GPa) = 16.67022 14.94374 89.56082
#
# Poissons Ratio (x) = 0.75940 0.42931
# Poissons Ratio (y) = 0.84714 -0.37139
# Poissons Ratio (z) = 0.07991 -0.06197
#
# Static dielectric constant tensor:
#      x y z
#    x 2.910930 0.000000 0.000000 
#    y 0.000000 2.687850 0.000000 
#    z 0.000000 0.000000 4.400470 
# 
# 
# High freq. dielectric constant tensor:
#      x y z
#    x 1.547930 0.000000 0.000000 
#    y 0.000000 1.516730 0.000000 
#    z 0.000000 0.000000 1.617710 
# 
# From -- ./inp_files/309.got.cif
#   From: 2010.03.12/outbox.cif.g09.slc.cpg/sg45_1_cif.got.tgz:309.got - 2010.04.14 02:50:11.
