data_PCOD8190986
_publ_section_title
;
Structure prediction by ZEFSAII (Michael W. Deem and Ramdas Pophale) SiO2 
 PCOD8190986
Probable space group: I B A 2
;
_chemical_formula_sum "Si O2"
_cell_formula_units_Z 64
_cell_length_a 14.010995
_cell_length_b 17.800974
_cell_length_c 13.899060
_cell_angle_alpha 90.000000
_cell_angle_beta 90.000000
_cell_angle_gamma 90.000000
_cell_volume 3466.555627
_symmetry_space_group_name_H-M "I B A 2"
_symmetry_group_IT_number 45
_symmetry_cell_setting 'orthorhombic'
loop_
_space_group_symop_operation_xyz
x,y,z
-x,-y,z
-x,y,1/2+z
x,-y,1/2+z
1/2+x,1/2+y,1/2+z
1/2-x,1/2-y,1/2+z
1/2-x,1/2+y,z
1/2+x,1/2-y,z
loop_
_atom_site_type_symbol
_atom_site_label
_atom_site_fract_x
_atom_site_fract_y
_atom_site_fract_z
Si Si1 0.860640 0.037780 0.736430
Si Si2 0.607840 0.258614 0.656359
Si Si3 0.053028 0.107771 0.782334
Si Si4 0.553029 0.607771 0.492556
Si Si5 0.757813 0.818688 0.498039
Si Si6 0.139360 0.037779 0.538461
Si Si7 0.392160 0.741386 0.118532
Si Si8 0.257813 0.318688 0.776852
O O1 0.777605 0.091439 0.776722
O O2 0.955444 0.089620 0.724855
O O3 0.885736 0.967618 0.804586
O O4 0.829123 1.000000 0.637446
O O5 0.614023 0.335027 0.718559
O O6 0.660290 0.271671 0.554281
O O7 0.500000 0.231985 0.637446
O O8 0.658794 0.194531 0.720267
O O9 0.028006 0.142392 0.887445
O O10 0.455445 0.589619 0.550036
O O11 0.614266 0.532384 0.470305
O O12 0.614023 0.664974 0.556331
O O13 0.777605 0.908561 0.498169
O O14 0.658794 0.805470 0.554625
O O15 0.752486 0.790587 0.387446
O O16 0.339710 0.728329 0.220610
#
# Coordination Sequence:
#
# PCOD8190986 Si02
#       8
#     8   8   8   8   8   8   8   8
#     4  11  19  33  52  83 120 150 183 231 283 338
#     4  11  22  38  57  84 118 151 190 235 283 342
#     4  11  19  31  55  86 119 152 182 226 289 343
#     4  11  19  31  55  86 119 152 182 226 289 343
#     4  11  23  37  56  84 116 153 192 232 284 343
#     4  11  19  33  52  83 120 150 183 231 283 338
#     4  11  22  38  57  84 118 151 190 235 283 342
#     4  11  23  37  56  84 116 153 192 232 284 343
#
# _framework density 18.462129999999998
#
# number of rings (size 3 to 8) (size 9 to 14) (size 15 to 20)
#    0.000    1.000    5.000    5.250    0.000    1.000 
#    0.000    0.000    0.000    0.750    0.000    1.750 
#    0.000    0.000    0.000    0.000    0.000    0.000 
#
# Total GULP energy -396603.406071 kJ/mol
# GULP energy per Si atom -12393.856440 kJ/mol
# Density = 1.842011 g / cm^3
# Si number density = 18.462130 Si / 1000 Ang^3
#
#
#
# Elastic Constant Matrix: (Units=GPa)
#
#
# Indices 1 2 3 4 5 6 
#
# 1 112.4117 45.7511 41.5770 0.0000 0.0000 0.0000
# 2 45.7511 76.4445 22.1016 0.0000 0.0000 0.0000
# 3 41.5770 22.1016 129.5955 -0.0001 0.0000 0.0000
# 4 0.0000 0.0000 -0.0001 17.9725 0.0000 0.0000
# 5 0.0000 0.0000 0.0000 0.0000 11.8714 0.0000
# 6 0.0000 0.0000 0.0000 0.0000 0.0000 33.9732
#
#
#
# Elastic Compliance Matrix: (Units=1/GPa)
#
#
# Indices 1 2 3 4 5 6 
#
# 1 0.012738 -0.006776 -0.002931 0.000000 0.000000 0.000000
# 2 -0.006776 0.017364 -0.000787 0.000000 0.000000 0.000000
# 3 -0.002931 -0.000787 0.008791 0.000000 0.000000 0.000000
# 4 0.000000 0.000000 0.000000 0.055641 0.000000 0.000000
# 5 0.000000 0.000000 0.000000 0.000000 0.084236 0.000000
# 6 0.000000 0.000000 0.000000 0.000000 0.000000 0.029435
#
#
# Mechanical properties :
#
#
# Convention : Reuss Voigt Hill
#
# Bulk Modulus (GPa) = 55.85273 59.70121 57.77697
# Shear Modulus (GPa) = 21.26197 26.69823 23.98010
#
# Velocity S-wave (km/s) = 3.39728 3.80690 3.60791
# Velocity P-wave (km/s) = 6.76069 7.19240 6.97989
#
# Compressibility (1/GPa) = 0.01790423
#
# Stress axis : x y z
#
# Youngs Moduli (GPa) = 78.50706 57.58913 113.75368
#
# Poissons Ratio (x) = 0.39022 0.33340
# Poissons Ratio (y) = 0.53196 0.08958
# Poissons Ratio (z) = 0.23010 0.04535
#
# Static dielectric constant tensor:
#      x y z
#    x 3.245680 0.000000 0.000000 
#    y 0.000000 3.396880 0.000000 
#    z 0.000000 0.000000 3.495090 
# 
# 
# High freq. dielectric constant tensor:
#      x y z
#    x 1.675480 0.000000 0.000000 
#    y 0.000000 1.692870 0.000000 
#    z 0.000000 0.000000 1.743810 
# 
# From -- ./inp_files/6641.got.cif
#   From: 2010.03.12/outbox.cif.g09.slc.cpg/sg45_4_cif.got.tgz:6641.got - 2010.04.14 02:50:11.
