data_PCOD8190809
_publ_section_title
;
Structure prediction by ZEFSAII (Michael W. Deem and Ramdas Pophale) SiO2 
 PCOD8190809
Probable space group: I B A 2
;
_chemical_formula_sum "Si O2"
_cell_formula_units_Z 60
_cell_length_a 10.921372
_cell_length_b 9.013959
_cell_length_c 27.414370
_cell_angle_alpha 90.000000
_cell_angle_beta 90.000000
_cell_angle_gamma 90.000000
_cell_volume 2698.802156
_symmetry_space_group_name_H-M "I B A 2"
_symmetry_group_IT_number 45
_symmetry_cell_setting 'orthorhombic'
loop_
_space_group_symop_operation_xyz
x,y,z
-x,-y,z
-x,y,1/2+z
x,-y,1/2+z
1/2+x,1/2+y,1/2+z
1/2-x,1/2-y,1/2+z
1/2-x,1/2+y,z
1/2+x,1/2-y,z
loop_
_atom_site_type_symbol
_atom_site_label
_atom_site_fract_x
_atom_site_fract_y
_atom_site_fract_z
Si Si1 0.000000 0.500000 0.711120
Si Si2 0.785055 0.672480 0.067955
Si Si3 0.356211 0.676903 0.368574
Si Si4 0.642521 0.502720 0.708469
Si Si5 0.629657 0.357706 0.900795
Si Si6 0.373971 0.557993 0.011580
Si Si7 0.172847 0.423169 0.632334
Si Si8 0.810493 0.297432 0.761670
O O1 0.922216 0.609670 0.675888
O O2 0.919158 0.405421 0.747101
O O3 0.721260 0.562292 0.030060
O O4 0.863530 0.779725 0.034485
O O5 0.873238 0.563375 0.099378
O O6 0.696424 0.773296 0.102207
O O7 0.345035 0.497791 0.364509
O O8 0.495271 0.715784 0.388004
O O9 0.242804 0.741163 0.400925
O O10 0.328650 0.754595 0.317430
O O11 0.500000 0.500000 0.701483
O O12 0.703931 0.500178 0.654959
O O13 0.682024 0.376049 0.747509
O O14 0.690029 0.655429 0.728997
O O15 0.626885 0.432640 0.953496
O O16 0.500000 0.500000 0.031845
#
# Coordination Sequence:
#
# PCOD8190809 Si02
#       8
#     4   8   8   8   8   8   8   8
#     4  10  24  40  66  94 144 174 232 284 328 412
#     4  10  24  41  66 102 130 178 230 286 339 421
#     4  11  25  45  74 104 144 178 242 283 355 418
#     4  11  26  43  70  98 145 189 232 292 341 409
#     4  11  25  47  73 106 139 186 223 303 351 435
#     4  11  23  45  71  97 138 175 226 285 360 409
#     4  10  22  42  63 100 137 182 233 274 348 398
#     4  11  26  43  69 101 136 187 234 283 346 407
#
# _framework density 22.232084
#
# number of rings (size 3 to 8) (size 9 to 14) (size 15 to 20)
#    0.000    1.333    1.333    3.200   11.200    3.733 
#    0.000    0.000    0.000    0.000    0.000    0.000 
#    0.000    0.000    0.000    0.000    0.000    0.000 
#
# Total GULP energy -371701.782787 kJ/mol
# GULP energy per Si atom -12390.059426 kJ/mol
# Density = 2.218148 g / cm^3
# Si number density = 22.232084 Si / 1000 Ang^3
#
#
#
# Elastic Constant Matrix: (Units=GPa)
#
#
# Indices 1 2 3 4 5 6 
#
# 1 119.1589 10.4581 6.6105 0.0000 0.0000 0.0000
# 2 10.4581 78.0766 2.3249 0.0000 0.0000 0.0000
# 3 6.6105 2.3249 76.4278 0.0000 0.0000 0.0000
# 4 0.0000 0.0000 0.0000 48.8155 0.0000 0.0000
# 5 0.0000 0.0000 0.0000 0.0000 21.6556 0.0000
# 6 0.0000 0.0000 0.0000 0.0000 0.0000 27.2905
#
#
#
# Elastic Compliance Matrix: (Units=1/GPa)
#
#
# Indices 1 2 3 4 5 6 
#
# 1 0.008530 -0.001122 -0.000704 0.000000 0.000000 0.000000
# 2 -0.001122 0.012967 -0.000297 0.000000 0.000000 0.000000
# 3 -0.000704 -0.000297 0.013154 0.000000 0.000000 0.000000
# 4 0.000000 0.000000 0.000000 0.020485 0.000000 0.000000
# 5 0.000000 0.000000 0.000000 0.000000 0.046177 0.000000
# 6 0.000000 0.000000 0.000000 0.000000 0.000000 0.036643
#
#
# Mechanical properties :
#
#
# Convention : Reuss Voigt Hill
#
# Bulk Modulus (GPa) = 32.88877 34.71670 33.80273
# Shear Modulus (GPa) = 32.82200 36.50363 34.66281
#
# Velocity S-wave (km/s) = 3.84648 4.05648 3.95287
# Velocity P-wave (km/s) = 5.87815 6.13103 6.00592
#
# Compressibility (1/GPa) = 0.03040551
#
# Stress axis : x y z
#
# Youngs Moduli (GPa) = 117.23843 77.11873 76.02165
#
# Poissons Ratio (x) = 0.08649 0.05349
# Poissons Ratio (y) = 0.13149 0.02261
# Poissons Ratio (z) = 0.08249 0.02294
#
# Static dielectric constant tensor:
#      x y z
#    x 4.108450 0.000000 0.000000 
#    y 0.000000 4.141700 0.000000 
#    z 0.000000 0.000000 4.172740 
# 
# 
# High freq. dielectric constant tensor:
#      x y z
#    x 1.873620 0.000000 0.000000 
#    y 0.000000 1.886820 0.000000 
#    z 0.000000 0.000000 1.882940 
# 
# From -- ./inp_files/10036.got.cif
#   From: 2010.03.12/outbox.cif.g09.slc.cpg/sg45_6_cif.got.tgz:10036.got - 2010.04.14 02:50:11.
