data_PCOD8190111
_publ_section_title
;
Structure prediction by ZEFSAII (Michael W. Deem and Ramdas Pophale) SiO2 
 PCOD8190111
Probable space group: I M M 2
;
_chemical_formula_sum "Si O2"
_cell_formula_units_Z 64
_cell_length_a 8.950027
_cell_length_b 21.925839
_cell_length_c 15.402572
_cell_angle_alpha 90.000000
_cell_angle_beta 90.000000
_cell_angle_gamma 90.000000
_cell_volume 3022.552227
_symmetry_space_group_name_H-M "I M M 2"
_symmetry_group_IT_number 44
_symmetry_cell_setting 'orthorhombic'
loop_
_space_group_symop_operation_xyz
x,y,z
-x,-y,z
-x,y,z
x,-y,z
1/2+x,1/2+y,1/2+z
1/2-x,1/2-y,1/2+z
1/2-x,1/2+y,1/2+z
1/2+x,1/2-y,1/2+z
loop_
_atom_site_type_symbol
_atom_site_label
_atom_site_fract_x
_atom_site_fract_y
_atom_site_fract_z
Si Si1 0.834480 0.071391 0.515510
Si Si2 0.826550 0.191891 0.107395
Si Si3 0.836081 0.427636 0.852656
Si Si4 0.678241 0.190505 0.931759
Si Si5 0.331150 0.396651 0.197144
Si Si6 0.829697 0.067390 0.181531
Si Si7 0.672105 0.262095 0.259737
Si Si8 0.676544 0.568143 0.381032
O O1 0.744572 0.101657 0.436271
O O2 0.749713 0.085371 0.606912
O O3 0.000000 0.100829 0.514780
O O4 0.844450 0.000000 0.499971
O O5 0.811143 0.117661 0.106201
O O6 0.758377 0.214654 0.198506
O O7 0.000000 0.211455 0.101236
O O8 0.736538 0.217451 0.023944
O O9 0.841187 0.500000 0.860371
O O10 0.756163 0.407650 0.765130
O O11 0.000000 0.398945 0.849914
O O12 0.500000 0.194193 0.927130
O O13 0.748294 0.230223 0.853473
O O14 0.731229 0.119807 0.930905
O O15 0.500000 0.419991 0.186902
O O16 0.319894 0.324925 0.208436
O O17 0.265078 0.430996 0.281153
O O18 0.000000 0.061756 0.210833
O O19 0.772234 0.000000 0.150492
O O20 0.500000 0.241968 0.274289
O O21 0.500000 0.585192 0.385408
O O22 0.704981 0.500000 0.419319
#
# Coordination Sequence:
#
# PCOD8190111 Si02
#       8
#     8   8   8   8   8   8   8   8
#     4   9  15  25  45  72 103 142 188 234 281 338
#     4  11  23  41  65  92 119 153 198 248 303 364
#     4   9  17  29  45  69 105 144 180 224 279 335
#     4  11  23  40  62  89 123 161 202 251 302 359
#     4   8  15  29  51  78 107 145 193 242 288 342
#     4   9  19  37  60  84 111 146 188 234 287 352
#     4  10  21  41  64  86 116 155 199 251 305 357
#     4   9  17  32  56  85 119 159 201 246 301 362
#
# _framework density 21.174157999999998
#
# number of rings (size 3 to 8) (size 9 to 14) (size 15 to 20)
#    0.000    2.500    0.000    3.375    0.000    4.750 
#    2.250    4.375    0.000    3.000    0.000    0.000 
#    0.000    0.000    0.000    0.000    0.000    0.000 
#
# Total GULP energy -396565.066572 kJ/mol
# GULP energy per Si atom -12392.658330 kJ/mol
# Density = 2.112597 g / cm^3
# Si number density = 21.174158 Si / 1000 Ang^3
#
#
#
# Elastic Constant Matrix: (Units=GPa)
#
#
# Indices 1 2 3 4 5 6 
#
# 1 122.7257 24.6222 60.7268 0.0000 0.0000 0.0000
# 2 24.6222 51.8700 21.7924 0.0000 0.0000 0.0000
# 3 60.7268 21.7924 125.3149 -0.0002 -0.0001 0.0000
# 4 0.0000 0.0000 -0.0002 25.3904 0.0000 0.0000
# 5 0.0000 0.0000 -0.0001 0.0000 27.9529 0.0000
# 6 0.0000 0.0000 0.0000 0.0000 0.0000 20.8133
#
#
#
# Elastic Compliance Matrix: (Units=1/GPa)
#
#
# Indices 1 2 3 4 5 6 
#
# 1 0.011213 -0.003279 -0.004863 0.000000 0.000000 0.000000
# 2 -0.003279 0.021758 -0.002195 0.000000 0.000000 0.000000
# 3 -0.004863 -0.002195 0.010718 0.000000 0.000000 0.000000
# 4 0.000000 0.000000 0.000000 0.039385 0.000000 0.000000
# 5 0.000000 0.000000 0.000000 0.000000 0.035774 0.000000
# 6 0.000000 0.000000 0.000000 0.000000 0.000000 0.048046
#
#
# Mechanical properties :
#
#
# Convention : Reuss Voigt Hill
#
# Bulk Modulus (GPa) = 43.45136 57.13259 50.29197
# Shear Modulus (GPa) = 25.60955 27.68262 26.64608
#
# Velocity S-wave (km/s) = 3.48152 3.61969 3.55128
# Velocity P-wave (km/s) = 6.06026 6.67161 6.37327
#
# Compressibility (1/GPa) = 0.02301424
#
# Stress axis : x y z
#
# Youngs Moduli (GPa) = 89.18541 45.96090 93.29887
#
# Poissons Ratio (x) = 0.15072 0.45374
# Poissons Ratio (y) = 0.29246 0.20475
# Poissons Ratio (z) = 0.43373 0.10086
#
# Static dielectric constant tensor:
#      x y z
#    x 3.750940 0.000000 0.000000 
#    y 0.000000 3.623810 0.000000 
#    z 0.000000 0.000000 3.906450 
# 
# 
# High freq. dielectric constant tensor:
#      x y z
#    x 1.806490 0.000000 0.000000 
#    y 0.000000 1.811670 0.000000 
#    z 0.000000 0.000000 1.839450 
# 
# From -- ./inp_files/16870.got.cif
#   From: 2010.03.12/outbox.cif.g09.slc.cpg/sg44_9_cif.got.tgz:16870.got - 2010.04.14 02:36:11.
