data_PCOD8190169
_publ_section_title
;
Structure prediction by ZEFSAII (Michael W. Deem and Ramdas Pophale) SiO2 
 PCOD8190169
Probable space group: I M M 2
;
_chemical_formula_sum "Si O2"
_cell_formula_units_Z 48
_cell_length_a 8.769541
_cell_length_b 10.349096
_cell_length_c 28.225537
_cell_angle_alpha 90.000000
_cell_angle_beta 90.000000
_cell_angle_gamma 90.000000
_cell_volume 2561.660028
_symmetry_space_group_name_H-M "I M M 2"
_symmetry_group_IT_number 44
_symmetry_cell_setting 'orthorhombic'
loop_
_space_group_symop_operation_xyz
x,y,z
-x,-y,z
-x,y,z
x,-y,z
1/2+x,1/2+y,1/2+z
1/2-x,1/2-y,1/2+z
1/2-x,1/2+y,1/2+z
1/2+x,1/2-y,1/2+z
loop_
_atom_site_type_symbol
_atom_site_label
_atom_site_fract_x
_atom_site_fract_y
_atom_site_fract_z
Si Si1 0.177696 0.251047 0.474870
Si Si2 0.680170 0.857525 0.670474
Si Si3 0.676334 0.847850 0.566242
Si Si4 0.321371 0.500000 0.915311
Si Si5 0.680995 0.246362 0.768756
Si Si6 0.179101 0.000000 0.928555
Si Si7 0.318714 0.500000 0.319995
Si Si8 0.180018 0.500000 0.813457
O O1 0.222602 0.231515 0.529435
O O2 0.225666 0.125179 0.445216
O O3 0.262667 0.373327 0.454350
O O4 0.000000 0.277531 0.471503
O O5 0.500000 0.873255 0.668938
O O6 0.731863 0.804472 0.618979
O O7 0.728248 0.763192 0.713240
O O8 0.751273 0.000000 0.679818
O O9 0.500000 0.813205 0.557723
O O10 0.704239 0.000000 0.560036
O O11 0.500000 0.500000 0.902457
O O12 0.222130 0.500000 0.868297
O O13 0.500000 0.247439 0.775673
O O14 0.751442 0.376043 0.788322
O O15 0.748910 0.126319 0.796644
O O16 0.233941 0.000000 0.874419
O O17 0.000000 0.000000 0.931570
O O18 0.500000 0.500000 0.314189
O O19 0.000000 0.500000 0.807856
#
# Coordination Sequence:
#
# PCOD8190169 Si02
#       8
#     8   8   8   4   8   4   4   4
#     4  11  22  38  59  86 117 147 187 237 287 338
#     4   8  15  31  57  88 113 142 190 235 270 328
#     4   9  17  32  58  87 115 147 187 232 277 332
#     4  10  22  40  61  84 111 149 197 235 277 346
#     4  11  21  38  63  87 115 154 197 235 280 342
#     4  11  25  41  56  79 114 155 195 231 280 343
#     4  11  23  39  60  89 118 148 191 242 290 337
#     4  12  26  40  55  82 121 154 191 244 295 340
#
# _framework density 18.737848
#
# number of rings (size 3 to 8) (size 9 to 14) (size 15 to 20)
#    0.000    1.833    1.667    4.250    0.000    5.333 
#    0.000    2.500    0.000    2.000    0.000    0.000 
#    0.000    0.000    0.000    0.000    0.000    0.000 
#
# Total GULP energy -297599.059927 kJ/mol
# GULP energy per Si atom -12399.960830 kJ/mol
# Density = 1.869520 g / cm^3
# Si number density = 18.737848 Si / 1000 Ang^3
#
#
#
# Elastic Constant Matrix: (Units=GPa)
#
#
# Indices 1 2 3 4 5 6 
#
# 1 50.5659 32.0383 44.6796 0.0000 0.0000 0.0000
# 2 32.0383 127.0703 71.0010 0.0000 0.0000 0.0000
# 3 44.6796 71.0010 171.3328 0.0000 0.0000 0.0000
# 4 0.0000 0.0000 0.0000 70.7060 0.0000 0.0000
# 5 0.0000 0.0000 0.0000 0.0000 29.2791 0.0000
# 6 0.0000 0.0000 0.0000 0.0000 0.0000 33.1886
#
#
#
# Elastic Compliance Matrix: (Units=1/GPa)
#
#
# Indices 1 2 3 4 5 6 
#
# 1 0.026997 -0.003739 -0.005491 0.000000 0.000000 0.000000
# 2 -0.003739 0.010759 -0.003483 0.000000 0.000000 0.000000
# 3 -0.005491 -0.003483 0.008712 0.000000 0.000000 0.000000
# 4 0.000000 0.000000 0.000000 0.014143 0.000000 0.000000
# 5 0.000000 0.000000 0.000000 0.000000 0.034154 0.000000
# 6 0.000000 0.000000 0.000000 0.000000 0.000000 0.030131
#
#
# Mechanical properties :
#
#
# Convention : Reuss Voigt Hill
#
# Bulk Modulus (GPa) = 47.52525 71.60077 59.56301
# Shear Modulus (GPa) = 31.77935 40.05142 35.91538
#
# Velocity S-wave (km/s) = 4.12272 4.62828 4.38280
# Velocity P-wave (km/s) = 6.93402 8.17656 7.58079
#
# Compressibility (1/GPa) = 0.02104145
#
# Stress axis : x y z
#
# Youngs Moduli (GPa) = 37.04176 92.94797 114.78392
#
# Poissons Ratio (x) = 0.34750 0.63025
# Poissons Ratio (y) = 0.13849 0.39985
# Poissons Ratio (z) = 0.20339 0.32378
#
# Static dielectric constant tensor:
#      x y z
#    x 3.346760 0.000000 0.000000 
#    y 0.000000 2.790170 0.000000 
#    z 0.000000 0.000000 3.866310 
# 
# 
# High freq. dielectric constant tensor:
#      x y z
#    x 1.718770 0.000000 0.000000 
#    y 0.000000 1.718080 0.000000 
#    z 0.000000 0.000000 1.748150 
# 
# From -- ./inp_files/27019.got.cif
#   From: 2010.03.12/outbox.cif.g09.slc.cpg/sg44_14_cif.got.tgz:27019.got - 2010.04.14 02:36:11.
