data_PCOD8190963
_publ_section_title
;
Structure prediction by ZEFSAII (Michael W. Deem and Ramdas Pophale) SiO2 
 PCOD8190963
Probable space group: I B A 2
;
_chemical_formula_sum "Si O2"
_cell_formula_units_Z 56
_cell_length_a 8.927170
_cell_length_b 13.298157
_cell_length_c 19.416162
_cell_angle_alpha 90.000000
_cell_angle_beta 90.000000
_cell_angle_gamma 90.000000
_cell_volume 2304.987890
_symmetry_space_group_name_H-M "I B A 2"
_symmetry_group_IT_number 45
_symmetry_cell_setting 'orthorhombic'
loop_
_space_group_symop_operation_xyz
x,y,z
-x,-y,z
-x,y,1/2+z
x,-y,1/2+z
1/2+x,1/2+y,1/2+z
1/2-x,1/2-y,1/2+z
1/2-x,1/2+y,z
1/2+x,1/2-y,z
loop_
_atom_site_type_symbol
_atom_site_label
_atom_site_fract_x
_atom_site_fract_y
_atom_site_fract_z
Si Si1 0.488339 0.389290 0.678970
Si Si2 0.089105 0.897895 0.429469
Si Si3 0.506302 0.117220 0.765238
Si Si4 0.829460 0.363290 0.132504
Si Si5 0.882791 0.828365 0.541557
Si Si6 0.330484 0.002400 0.513098
Si Si7 0.184812 0.207213 0.792854
O O1 0.500000 0.500000 0.712266
O O2 0.318338 0.346575 0.680034
O O3 0.541504 0.397118 0.600057
O O4 0.597446 0.316714 0.721537
O O5 0.247932 0.924489 0.462853
O O6 0.109397 0.850417 0.355328
O O7 0.999951 0.819486 0.478426
O O8 0.000000 0.000000 0.420802
O O9 0.526939 0.126882 0.682488
O O10 0.357630 0.177957 0.786935
O O11 0.648651 0.172967 0.802663
O O12 0.500000 0.000000 0.787869
O O13 0.847399 0.279543 0.073516
O O14 0.815226 0.467953 0.092431
O O15 0.734327 0.883919 0.512430
O O16 0.500000 0.000000 0.487033
#
# Coordination Sequence:
#
# PCOD8190963 Si02
#       7
#     8   8   8   8   8   8   8
#     4  12  22  43  74 109 145 201 253 318 381 459
#     4  10  24  52  73 105 152 208 259 316 390 468
#     4  12  29  50  77 118 157 199 262 325 386 471
#     4  12  25  42  73 112 148 189 254 320 383 451
#     4  11  24  45  74 107 146 199 250 311 381 462
#     4  11  25  42  72 109 147 193 251 317 380 457
#     4  12  28  48  76 110 154 206 253 318 396 458
#
# _framework density 24.295138999999999
#
# number of rings (size 3 to 8) (size 9 to 14) (size 15 to 20)
#    0.000    0.571    4.286    3.000    4.000    2.857 
#    0.000    4.286    0.000    0.857    0.000    0.000 
#    0.000    0.000    0.000    0.000    0.000    0.000 
#
# Total GULP energy -347196.212945 kJ/mol
# GULP energy per Si atom -12399.864748 kJ/mol
# Density = 2.423984 g / cm^3
# Si number density = 24.295139 Si / 1000 Ang^3
#
#
#
# Elastic Constant Matrix: (Units=GPa)
#
#
# Indices 1 2 3 4 5 6 
#
# 1 165.8066 55.2812 32.8955 0.0000 0.0000 0.0000
# 2 55.2812 118.3264 9.8464 0.0000 0.0000 0.0000
# 3 32.8955 9.8464 91.8558 0.0000 0.0000 0.0000
# 4 0.0000 0.0000 0.0000 24.3694 0.0000 0.0000
# 5 0.0000 0.0000 0.0000 0.0000 37.2134 0.0000
# 6 0.0000 0.0000 0.0000 0.0000 0.0000 35.7891
#
#
#
# Elastic Compliance Matrix: (Units=1/GPa)
#
#
# Indices 1 2 3 4 5 6 
#
# 1 0.007623 -0.003364 -0.002369 0.000000 0.000000 0.000000
# 2 -0.003364 0.010012 0.000132 0.000000 0.000000 0.000000
# 3 -0.002369 0.000132 0.011721 0.000000 0.000000 0.000000
# 4 0.000000 0.000000 0.000000 0.041035 0.000000 0.000000
# 5 0.000000 0.000000 0.000000 0.000000 0.026872 0.000000
# 6 0.000000 0.000000 0.000000 0.000000 0.000000 0.027941
#
#
# Mechanical properties :
#
#
# Convention : Reuss Voigt Hill
#
# Bulk Modulus (GPa) = 55.09025 63.55943 59.32484
# Shear Modulus (GPa) = 35.09787 38.00543 36.55165
#
# Velocity S-wave (km/s) = 3.80497 3.95944 3.88298
# Velocity P-wave (km/s) = 6.48293 6.86448 6.67643
#
# Compressibility (1/GPa) = 0.01815203
#
# Stress axis : x y z
#
# Youngs Moduli (GPa) = 131.18513 99.88050 85.31687
#
# Poissons Ratio (x) = 0.33601 0.20214
# Poissons Ratio (y) = 0.44133 -0.01122
# Poissons Ratio (z) = 0.31081 -0.01314
#
# Static dielectric constant tensor:
#      x y z
#    x 4.456250 0.000000 0.000000 
#    y 0.000000 4.353670 0.000000 
#    z 0.000000 0.000000 4.248810 
# 
# 
# High freq. dielectric constant tensor:
#      x y z
#    x 1.970980 0.000000 0.000000 
#    y 0.000000 1.972470 0.000000 
#    z 0.000000 0.000000 1.951920 
# 
# From -- ./inp_files/8868.got.cif
#   From: 2010.03.12/outbox.cif.g09.slc.cpg/sg45_5_cif.got.tgz:8868.got - 2010.04.14 02:50:11.
