data_PCOD8190579
_publ_section_title
;
Structure prediction by ZEFSAII (Michael W. Deem and Ramdas Pophale) SiO2 
 PCOD8190579
Probable space group: I B A 2
;
_chemical_formula_sum "Si O2"
_cell_formula_units_Z 48
_cell_length_a 12.161982
_cell_length_b 10.648185
_cell_length_c 17.682742
_cell_angle_alpha 90.000000
_cell_angle_beta 90.000000
_cell_angle_gamma 90.000000
_cell_volume 2289.968744
_symmetry_space_group_name_H-M "I B A 2"
_symmetry_group_IT_number 45
_symmetry_cell_setting 'orthorhombic'
loop_
_space_group_symop_operation_xyz
x,y,z
-x,-y,z
-x,y,1/2+z
x,-y,1/2+z
1/2+x,1/2+y,1/2+z
1/2-x,1/2-y,1/2+z
1/2-x,1/2+y,z
1/2+x,1/2-y,z
loop_
_atom_site_type_symbol
_atom_site_label
_atom_site_fract_x
_atom_site_fract_y
_atom_site_fract_z
Si Si1 0.325147 0.142978 0.381740
Si Si2 0.254857 0.398895 0.313304
Si Si3 0.607749 0.086435 0.048454
Si Si4 0.974772 0.186300 0.635278
Si Si5 0.015090 0.367345 0.267219
Si Si6 0.179621 0.037372 0.648770
O O1 0.299046 0.290718 0.369800
O O2 0.334695 0.104745 0.468521
O O3 0.439461 0.123460 0.340259
O O4 0.238600 0.039787 0.348619
O O5 0.134349 0.348141 0.299511
O O6 0.314583 0.404414 0.232569
O O7 0.564568 0.222313 0.070322
O O8 0.702053 0.038124 0.107041
O O9 0.500000 0.000000 0.045178
O O10 0.014667 0.256789 0.710699
O O11 0.083546 0.114407 0.605003
O O12 0.867570 0.103123 0.654755
O O13 0.000000 0.500000 0.221899
#
# Coordination Sequence:
#
# PCOD8190579 Si02
#       6
#     8   8   8   8   8   8
#     4  11  26  43  68 101 140 180 233 288 355 419
#     4  11  22  42  71 100 133 183 232 290 346 420
#     4  12  28  44  73 103 145 189 233 289 365 430
#     4  11  24  44  68 103 139 180 235 294 351 417
#     4  10  20  39  67  97 127 176 234 282 342 418
#     4  11  26  42  72 105 139 182 238 294 352 422
#
# _framework density 20.960985000000001
#
# number of rings (size 3 to 8) (size 9 to 14) (size 15 to 20)
#    0.000    1.000    3.333    3.000    7.000    1.333 
#    0.000    0.000    0.000    0.000    0.000    0.000 
#    0.000    0.000    0.000    0.000    0.000    0.000 
#
# Total GULP energy -297391.579176 kJ/mol
# GULP energy per Si atom -12391.315799 kJ/mol
# Density = 2.091328 g / cm^3
# Si number density = 20.960985 Si / 1000 Ang^3
#
#
#
# Elastic Constant Matrix: (Units=GPa)
#
#
# Indices 1 2 3 4 5 6 
#
# 1 104.7012 48.7660 30.8292 0.0000 0.0000 0.0000
# 2 48.7660 136.7052 40.2004 0.0000 0.0000 0.0000
# 3 30.8292 40.2004 103.0125 0.0000 0.0000 0.0000
# 4 0.0000 0.0000 0.0000 42.3461 0.0000 0.0000
# 5 0.0000 0.0000 0.0000 0.0000 -16.4228 0.0000
# 6 0.0000 0.0000 0.0000 0.0000 0.0000 35.3075
#
#
#
# Elastic Compliance Matrix: (Units=1/GPa)
#
#
# Indices 1 2 3 4 5 6 
#
# 1 0.011859 -0.003600 -0.002144 0.000000 0.000000 0.000000
# 2 -0.003600 0.009356 -0.002574 0.000000 0.000000 0.000000
# 3 -0.002144 -0.002574 0.011354 0.000000 0.000000 0.000000
# 4 0.000000 0.000000 0.000000 0.023615 0.000000 0.000000
# 5 0.000000 0.000000 0.000000 0.000000 -0.060891 0.000000
# 6 0.000000 0.000000 0.000000 0.000000 0.000000 0.028323
#
#
# Mechanical properties :
#
#
# Convention : Reuss Voigt Hill
#
# Bulk Modulus (GPa) = 62.76329 64.89001 63.82665
# Shear Modulus (GPa) = 109.73980 27.22105 68.48043
#
# Velocity S-wave (km/s) = 7.24348 3.60759 5.72201
# Velocity P-wave (km/s) = 9.99826 6.95541 8.61229
#
# Compressibility (1/GPa) = 0.01593288
#
# Stress axis : x y z
#
# Youngs Moduli (GPa) = 84.32380 106.88285 88.07681
#
# Poissons Ratio (x) = 0.38476 0.18886
# Poissons Ratio (y) = 0.30355 0.22669
# Poissons Ratio (z) = 0.18082 0.27510
#
# Static dielectric constant tensor:
#      x y z
#    x 3.920460 0.000000 0.000000 
#    y 0.000000 3.741920 0.000000 
#    z 0.000000 0.000000 3.658900 
# 
# 
# High freq. dielectric constant tensor:
#      x y z
#    x 1.828360 0.000000 0.000000 
#    y 0.000000 1.839350 0.000000 
#    z 0.000000 0.000000 1.806250 
# 
# From -- ./inp_files/7879.got.cif
#   From: 2010.03.12/outbox.cif.g09.slc.cpg/sg45_4_cif.got.tgz:7879.got - 2010.04.14 02:50:11.
