data_PCOD8190908
_publ_section_title
;
Structure prediction by ZEFSAII (Michael W. Deem and Ramdas Pophale) SiO2 
 PCOD8190908
Probable space group: I B A 2
;
_chemical_formula_sum "Si O2"
_cell_formula_units_Z 56
_cell_length_a 14.777172
_cell_length_b 18.791488
_cell_length_c 8.732806
_cell_angle_alpha 90.000000
_cell_angle_beta 90.000000
_cell_angle_gamma 90.000000
_cell_volume 2424.969673
_symmetry_space_group_name_H-M "I B A 2"
_symmetry_group_IT_number 45
_symmetry_cell_setting 'orthorhombic'
loop_
_space_group_symop_operation_xyz
x,y,z
-x,-y,z
-x,y,1/2+z
x,-y,1/2+z
1/2+x,1/2+y,1/2+z
1/2-x,1/2-y,1/2+z
1/2-x,1/2+y,z
1/2+x,1/2-y,z
loop_
_atom_site_type_symbol
_atom_site_label
_atom_site_fract_x
_atom_site_fract_y
_atom_site_fract_z
Si Si1 0.951479 0.762659 0.614470
Si Si2 0.408223 0.587552 0.483898
Si Si3 0.116637 0.268564 0.935696
Si Si4 0.215829 0.329953 0.512924
Si Si5 0.500000 0.500000 0.727747
Si Si6 0.500000 0.000000 0.615702
Si Si7 0.220508 0.599952 0.331501
Si Si8 0.625647 0.048528 0.357302
O O1 0.952566 0.840276 0.541140
O O2 0.939607 0.765610 0.796168
O O3 0.873537 0.715399 0.539911
O O4 0.050868 0.730123 0.581991
O O5 0.419533 0.529517 0.619294
O O6 0.459145 0.562928 0.330171
O O7 0.303211 0.598684 0.449280
O O8 0.143614 0.349814 0.903247
O O9 0.205545 0.221651 0.958603
O O10 0.249317 0.371293 0.664559
O O11 0.194156 0.385224 0.374549
O O12 0.427742 0.956227 0.517566
O O13 0.552048 0.941834 0.721893
O O14 0.181697 0.521420 0.316449
#
# Coordination Sequence:
#
# PCOD8190908 Si02
#       8
#     8   8   8   8   4   4   8   8
#     4  11  26  46  76 103 142 191 236 298 364 422
#     4  11  24  48  68 109 137 191 233 304 351 434
#     4  11  27  47  74 105 146 189 243 297 361 432
#     4  11  26  48  71 109 141 194 240 296 358 433
#     4  10  26  42  78 100 144 184 248 284 368 422
#     4  10  24  42  68 106 138 184 236 290 362 422
#     4  11  26  45  69 106 145 187 236 303 359 428
#     4  11  24  44  71 102 144 185 236 297 352 433
#
# _framework density 23.093071999999999
#
# number of rings (size 3 to 8) (size 9 to 14) (size 15 to 20)
#    0.000    1.143    2.857    0.857   10.000    3.429 
#    0.000    0.000    0.000    0.000    0.000    0.000 
#    0.000    0.000    0.000    0.000    0.000    0.000 
#
# Total GULP energy -347351.787490 kJ/mol
# GULP energy per Si atom -12405.420982 kJ/mol
# Density = 2.304051 g / cm^3
# Si number density = 23.093072 Si / 1000 Ang^3
#
#
#
# Elastic Constant Matrix: (Units=GPa)
#
#
# Indices 1 2 3 4 5 6 
#
# 1 81.8201 3.6808 6.8425 0.0000 0.0000 0.0000
# 2 3.6808 81.2394 8.6629 0.0000 0.0000 0.0000
# 3 6.8425 8.6629 73.4554 0.0000 0.0000 0.0000
# 4 0.0000 0.0000 0.0000 33.5827 0.0000 0.0000
# 5 0.0000 0.0000 0.0000 0.0000 38.0403 0.0000
# 6 0.0000 0.0000 0.0000 0.0000 0.0000 28.5008
#
#
#
# Elastic Compliance Matrix: (Units=1/GPa)
#
#
# Indices 1 2 3 4 5 6 
#
# 1 0.012334 -0.000442 -0.001097 0.000000 0.000000 0.000000
# 2 -0.000442 0.012482 -0.001431 0.000000 0.000000 0.000000
# 3 -0.001097 -0.001431 0.013885 0.000000 0.000000 0.000000
# 4 0.000000 0.000000 0.000000 0.029777 0.000000 0.000000
# 5 0.000000 0.000000 0.000000 0.000000 0.026288 0.000000
# 6 0.000000 0.000000 0.000000 0.000000 0.000000 0.035087
#
#
# Mechanical properties :
#
#
# Convention : Reuss Voigt Hill
#
# Bulk Modulus (GPa) = 30.52408 30.54303 30.53355
# Shear Modulus (GPa) = 34.08057 34.51337 34.29697
#
# Velocity S-wave (km/s) = 3.84577 3.87011 3.85796
# Velocity P-wave (km/s) = 5.74165 5.76413 5.75290
#
# Compressibility (1/GPa) = 0.03276102
#
# Stress axis : x y z
#
# Youngs Moduli (GPa) = 81.07980 80.11606 72.02217
#
# Poissons Ratio (x) = 0.03540 0.07899
# Poissons Ratio (y) = 0.03582 0.10306
# Poissons Ratio (z) = 0.08893 0.11464
#
# Static dielectric constant tensor:
#      x y z
#    x 4.146840 0.000000 0.000000 
#    y 0.000000 4.160800 0.000000 
#    z 0.000000 0.000000 4.332670 
# 
# 
# High freq. dielectric constant tensor:
#      x y z
#    x 1.915010 0.000000 0.000000 
#    y 0.000000 1.916810 0.000000 
#    z 0.000000 0.000000 1.921080 
# 
# From -- ./inp_files/1855.got.cif
#   From: 2010.03.12/outbox.cif.g09.slc.cpg/sg45_1_cif.got.tgz:1855.got - 2010.04.14 02:50:11.
