data_PCOD8190994
_publ_section_title
;
Structure prediction by ZEFSAII (Michael W. Deem and Ramdas Pophale) SiO2 
 PCOD8190994
Probable space group: I B A 2
;
_chemical_formula_sum "Si O2"
_cell_formula_units_Z 56
_cell_length_a 12.008165
_cell_length_b 13.936441
_cell_length_c 14.460671
_cell_angle_alpha 90.000000
_cell_angle_beta 90.000000
_cell_angle_gamma 90.000000
_cell_volume 2420.008953
_symmetry_space_group_name_H-M "I B A 2"
_symmetry_group_IT_number 45
_symmetry_cell_setting 'orthorhombic'
loop_
_space_group_symop_operation_xyz
x,y,z
-x,-y,z
-x,y,1/2+z
x,-y,1/2+z
1/2+x,1/2+y,1/2+z
1/2-x,1/2-y,1/2+z
1/2-x,1/2+y,z
1/2+x,1/2-y,z
loop_
_atom_site_type_symbol
_atom_site_label
_atom_site_fract_x
_atom_site_fract_y
_atom_site_fract_z
Si Si1 0.000002 0.196518 0.647420
Si Si2 0.839132 0.485276 0.042067
Si Si3 0.660868 0.014723 0.252773
Si Si4 0.483135 0.158807 0.496564
Si Si5 0.892586 0.935846 0.294192
Si Si6 0.483136 0.158806 0.298275
Si Si7 0.607414 0.435846 0.500648
O O1 0.907572 0.138059 0.707786
O O2 0.939837 0.265457 0.572845
O O3 0.060165 0.265459 0.721994
O O4 0.092432 0.138059 0.587055
O O5 0.868898 0.499995 0.147420
O O6 0.891602 0.382534 0.014064
O O7 0.708178 0.490972 0.021192
O O8 0.897443 0.571553 0.987852
O O9 0.608398 0.117466 0.280772
O O10 0.791823 0.009027 0.273647
O O11 0.602554 0.928449 0.306991
O O12 0.484018 0.212179 0.397419
O O13 0.877824 0.888403 0.397420
O O14 0.000000 0.000000 0.294585
O O15 0.500000 0.500000 0.500261
#
# Coordination Sequence:
#
# PCOD8190994 Si02
#       7
#     8   8   8   8   8   8   8
#     4  12  23  43  64 100 130 172 220 281 335 384
#     4  11  20  42  68  96 130 178 220 267 335 400
#     4  11  20  42  68  96 130 178 220 267 335 400
#     4  11  22  40  67 100 134 170 222 278 333 395
#     4  11  25  45  66  93 132 178 222 268 334 410
#     4  11  22  40  67 100 134 170 222 278 333 395
#     4  11  25  45  66  93 132 178 222 268 334 410
#
# _framework density 23.140408999999998
#
# number of rings (size 3 to 8) (size 9 to 14) (size 15 to 20)
#    0.000    0.857    2.857    7.286    0.000    1.143 
#    5.143    0.000    0.000    0.000    0.000    0.000 
#    0.000    0.000    0.000    0.000    0.000    0.000 
#
# Total GULP energy -346927.557013 kJ/mol
# GULP energy per Si atom -12390.269893 kJ/mol
# Density = 2.308774 g / cm^3
# Si number density = 23.140409 Si / 1000 Ang^3
#
#
#
# Elastic Constant Matrix: (Units=GPa)
#
#
# Indices 1 2 3 4 5 6 
#
# 1 130.2434 23.8282 19.6808 0.0000 0.0000 0.0000
# 2 23.8282 76.1464 45.6267 0.0000 0.0000 0.0000
# 3 19.6808 45.6267 221.8422 0.0000 0.0000 0.0000
# 4 0.0000 0.0000 0.0000 3.1407 0.0000 0.0000
# 5 0.0000 0.0000 0.0000 0.0000 -51.3913 0.0000
# 6 0.0000 0.0000 0.0000 0.0000 0.0000 16.1937
#
#
#
# Elastic Compliance Matrix: (Units=1/GPa)
#
#
# Indices 1 2 3 4 5 6 
#
# 1 0.008154 -0.002416 -0.000227 0.000000 0.000000 0.000000
# 2 -0.002416 0.015694 -0.003014 0.000000 0.000000 0.000000
# 3 -0.000227 -0.003014 0.005148 0.000000 0.000000 0.000000
# 4 0.000000 0.000000 0.000000 0.318400 0.000000 0.000000
# 5 0.000000 0.000000 0.000000 0.000000 -0.019459 0.000000
# 6 0.000000 0.000000 0.000000 0.000000 0.000000 0.061752
#
#
# Mechanical properties :
#
#
# Convention : Reuss Voigt Hill
#
# Bulk Modulus (GPa) = 56.54793 67.38927 61.96860
# Shear Modulus (GPa) = 12.28815 16.19505 14.24160
#
# Velocity S-wave (km/s) = 2.30690 2.64836 2.48350
# Velocity P-wave (km/s) = 5.62011 6.20781 5.92125
#
# Compressibility (1/GPa) = 0.01768411
#
# Stress axis : x y z
#
# Youngs Moduli (GPa) = 122.63690 63.71734 194.26508
#
# Poissons Ratio (x) = 0.15394 0.04400
# Poissons Ratio (y) = 0.29628 0.58543
# Poissons Ratio (z) = 0.02778 0.19202
#
# Static dielectric constant tensor:
#      x y z
#    x 4.080140 0.000000 0.000000 
#    y 0.000000 4.166810 0.000000 
#    z 0.000000 0.000000 4.939360 
# 
# 
# High freq. dielectric constant tensor:
#      x y z
#    x 1.892530 0.000000 0.000000 
#    y 0.000000 1.886260 0.000000 
#    z 0.000000 0.000000 1.955120 
# 
# From -- ./inp_files/6181.got.cif
#   From: 2010.03.12/outbox.cif.g09.slc.cpg/sg45_4_cif.got.tgz:6181.got - 2010.04.14 02:50:11.
