data_PCOD8190233
_publ_section_title
;
Structure prediction by ZEFSAII (Michael W. Deem and Ramdas Pophale) SiO2 
 PCOD8190233
Probable space group: I M M 2
;
_chemical_formula_sum "Si O2"
_cell_formula_units_Z 40
_cell_length_a 9.594857
_cell_length_b 18.927952
_cell_length_c 10.373416
_cell_angle_alpha 90.000000
_cell_angle_beta 90.000000
_cell_angle_gamma 90.000000
_cell_volume 1883.926378
_symmetry_space_group_name_H-M "I M M 2"
_symmetry_group_IT_number 44
_symmetry_cell_setting 'orthorhombic'
loop_
_space_group_symop_operation_xyz
x,y,z
-x,-y,z
-x,y,z
x,-y,z
1/2+x,1/2+y,1/2+z
1/2-x,1/2-y,1/2+z
1/2-x,1/2+y,1/2+z
1/2+x,1/2-y,1/2+z
loop_
_atom_site_type_symbol
_atom_site_label
_atom_site_fract_x
_atom_site_fract_y
_atom_site_fract_z
Si Si1 0.342045 0.279413 0.615850
Si Si2 0.661558 0.081185 0.751576
Si Si3 0.158091 0.921799 0.234390
Si Si4 0.652052 0.916203 0.463726
Si Si5 0.163038 0.796485 0.829292
O O1 0.500000 0.258215 0.657630
O O2 0.325628 0.365151 0.620089
O O3 0.231331 0.247153 0.713678
O O4 0.315413 0.256679 0.467124
O O5 0.500000 0.089336 0.791432
O O6 0.685255 0.112649 0.606805
O O7 0.760900 0.127609 0.842163
O O8 0.708630 0.000000 0.763215
O O9 0.237774 0.890792 0.358853
O O10 0.000000 0.929043 0.279390
O O11 0.214699 0.000000 0.192180
O O12 0.500000 0.888499 0.419277
O O13 0.649932 0.000000 0.476580
O O14 0.000000 0.807639 0.800534
#
# Coordination Sequence:
#
# PCOD8190233 Si02
#       5
#     8   8   8   8   8
#     4  10  24  44  62  86 123 163 202 252 312 369
#     4   9  19  37  61  89 124 162 198 246 307 364
#     4   9  18  34  58  86 116 152 195 245 300 356
#     4   8  15  29  51  82 118 153 187 229 285 347
#     4  11  25  42  63  90 120 162 210 255 306 363
#
# _framework density 21.232251999999999
#
# number of rings (size 3 to 8) (size 9 to 14) (size 15 to 20)
#    0.000    2.600    0.000    1.800    2.800    4.400 
#    0.000    4.000    0.000    2.400    0.000    0.000 
#    0.000    0.000    0.000    0.000    0.000    0.000 
#
# Total GULP energy -247898.872024 kJ/mol
# GULP energy per Si atom -12394.943601 kJ/mol
# Density = 2.118393 g / cm^3
# Si number density = 21.232252 Si / 1000 Ang^3
#
#
#
# Elastic Constant Matrix: (Units=GPa)
#
#
# Indices 1 2 3 4 5 6 
#
# 1 110.2364 43.8731 60.2889 0.0000 0.0000 0.0000
# 2 43.8731 58.5024 27.0253 0.0005 0.0000 0.0000
# 3 60.2889 27.0253 94.4413 0.0008 -0.0001 -0.0001
# 4 0.0000 0.0005 0.0008 32.5774 0.0000 0.0000
# 5 0.0000 0.0000 -0.0001 0.0000 32.7135 0.0000
# 6 0.0000 0.0000 -0.0001 0.0000 0.0000 31.4283
#
#
#
# Elastic Compliance Matrix: (Units=1/GPa)
#
#
# Indices 1 2 3 4 5 6 
#
# 1 0.017304 -0.009073 -0.008450 0.000000 0.000000 0.000000
# 2 -0.009073 0.024455 -0.001206 0.000000 0.000000 0.000000
# 3 -0.008450 -0.001206 0.016328 0.000000 0.000000 0.000000
# 4 0.000000 0.000000 0.000000 0.030696 0.000000 0.000000
# 5 0.000000 0.000000 0.000000 0.000000 0.030568 0.000000
# 6 0.000000 0.000000 0.000000 0.000000 0.000000 0.031818
#
#
# Mechanical properties :
#
#
# Convention : Reuss Voigt Hill
#
# Bulk Modulus (GPa) = 48.47689 58.39497 53.43593
# Shear Modulus (GPa) = 25.57500 28.14337 26.85918
#
# Velocity S-wave (km/s) = 3.47441 3.64469 3.56057
# Velocity P-wave (km/s) = 6.24313 6.72862 6.49042
#
# Compressibility (1/GPa) = 0.02062839
#
# Stress axis : x y z
#
# Youngs Moduli (GPa) = 57.79079 40.89186 61.24519
#
# Poissons Ratio (x) = 0.37102 0.51751
# Poissons Ratio (y) = 0.52435 0.07385
# Poissons Ratio (z) = 0.48833 0.04931
#
# Static dielectric constant tensor:
#      x y z
#    x 3.801870 0.000000 0.000000 
#    y 0.000000 3.996880 0.000000 
#    z 0.000000 0.000000 3.729200 
# 
# 
# High freq. dielectric constant tensor:
#      x y z
#    x 1.823580 0.000000 0.000000 
#    y 0.000000 1.847970 0.000000 
#    z 0.000000 0.000000 1.812440 
# 
# From -- ./inp_files/4447.got.cif
#   From: 2010.03.12/outbox.cif.g09.slc.cpg/sg44_3_cif.got.tgz:4447.got - 2010.04.14 02:36:11.
