data_PCOD8190894
_publ_section_title
;
Structure prediction by ZEFSAII (Michael W. Deem and Ramdas Pophale) SiO2 
 PCOD8190894
Probable space group: I B A 2
;
_chemical_formula_sum "Si O2"
_cell_formula_units_Z 32
_cell_length_a 9.341296
_cell_length_b 12.831939
_cell_length_c 12.838377
_cell_angle_alpha 90.000000
_cell_angle_beta 90.000000
_cell_angle_gamma 90.000000
_cell_volume 1538.896971
_symmetry_space_group_name_H-M "I B A 2"
_symmetry_group_IT_number 45
_symmetry_cell_setting 'orthorhombic'
loop_
_space_group_symop_operation_xyz
x,y,z
-x,-y,z
-x,y,1/2+z
x,-y,1/2+z
1/2+x,1/2+y,1/2+z
1/2-x,1/2-y,1/2+z
1/2-x,1/2+y,z
1/2+x,1/2-y,z
loop_
_atom_site_type_symbol
_atom_site_label
_atom_site_fract_x
_atom_site_fract_y
_atom_site_fract_z
Si Si1 0.154938 0.450960 0.391970
Si Si2 0.133746 0.926702 0.774088
Si Si3 0.321016 0.154631 0.107260
Si Si4 0.385230 0.795157 0.210150
O O1 0.276608 0.540488 0.377804
O O2 0.193706 0.376461 0.487523
O O3 0.164842 0.385118 0.286631
O O4 0.000000 0.500000 0.410564
O O5 0.922994 0.192966 0.781384
O O6 0.243518 0.934978 0.676084
O O7 0.000000 0.000000 0.754635
O O8 0.484535 0.164288 0.141090
O O9 0.241609 0.265320 0.128958
#
# Coordination Sequence:
#
# PCOD8190894 Si02
#       4
#     8   8   8   8
#     4  12  24  44  75 102 139 190 237 289 364 415
#     4  10  24  45  70  97 143 180 238 296 345 422
#     4  10  25  42  70 100 139 181 233 293 348 414
#     4  10  23  47  64 103 141 183 232 296 340 432
#
# _framework density 20.794114
#
# number of rings (size 3 to 8) (size 9 to 14) (size 15 to 20)
#    1.500    0.000    2.500    1.500    3.500    7.000 
#    4.500    0.000    0.000    0.000    0.000    0.000 
#    0.000    0.000    0.000    0.000    0.000    0.000 
#
# Total GULP energy -198290.455811 kJ/mol
# GULP energy per Si atom -12393.153488 kJ/mol
# Density = 2.074679 g / cm^3
# Si number density = 20.794114 Si / 1000 Ang^3
#
#
#
# Elastic Constant Matrix: (Units=GPa)
#
#
# Indices 1 2 3 4 5 6 
#
# 1 80.7753 9.8978 49.4706 0.0000 0.0000 0.0000
# 2 9.8978 60.3606 20.2126 0.0000 0.0000 0.0000
# 3 49.4706 20.2126 105.7565 0.0000 0.0000 0.0000
# 4 0.0000 0.0000 0.0000 43.6340 0.0000 0.0000
# 5 0.0000 0.0000 0.0000 0.0000 23.3120 0.0000
# 6 0.0000 0.0000 0.0000 0.0000 0.0000 45.1988
#
#
#
# Elastic Compliance Matrix: (Units=1/GPa)
#
#
# Indices 1 2 3 4 5 6 
#
# 1 0.017352 -0.000136 -0.008091 0.000000 0.000000 0.000000
# 2 -0.000136 0.017701 -0.003319 0.000000 0.000000 0.000000
# 3 -0.008091 -0.003319 0.013875 0.000000 0.000000 0.000000
# 4 0.000000 0.000000 0.000000 0.022918 0.000000 0.000000
# 5 0.000000 0.000000 0.000000 0.000000 0.042896 0.000000
# 6 0.000000 0.000000 0.000000 0.000000 0.000000 0.022124
#
#
# Mechanical properties :
#
#
# Convention : Reuss Voigt Hill
#
# Bulk Modulus (GPa) = 38.70705 45.11716 41.91211
# Shear Modulus (GPa) = 29.66113 33.58305 31.62209
#
# Velocity S-wave (km/s) = 3.78089 4.02310 3.90388
# Velocity P-wave (km/s) = 6.14126 6.58214 6.36552
#
# Compressibility (1/GPa) = 0.02583508
#
# Stress axis : x y z
#
# Youngs Moduli (GPa) = 57.63059 56.49412 72.07292
#
# Poissons Ratio (x) = 0.00768 0.58313
# Poissons Ratio (y) = 0.00784 0.23924
# Poissons Ratio (z) = 0.46628 0.18753
#
# Static dielectric constant tensor:
#      x y z
#    x 3.729370 0.000000 0.000000 
#    y 0.000000 3.764580 0.000000 
#    z 0.000000 0.000000 3.470610 
# 
# 
# High freq. dielectric constant tensor:
#      x y z
#    x 1.822130 0.000000 0.000000 
#    y 0.000000 1.816540 0.000000 
#    z 0.000000 0.000000 1.792560 
# 
# From -- ./inp_files/3113.got.cif
#   From: 2010.03.12/outbox.cif.g09.slc.cpg/sg45_2_cif.got.tgz:3113.got - 2010.04.14 02:50:11.
