data_PCOD8190300
_publ_section_title
;
Structure prediction by ZEFSAII (Michael W. Deem and Ramdas Pophale) SiO2 
 PCOD8190300
Probable space group: I M M 2
;
_chemical_formula_sum "Si O2"
_cell_formula_units_Z 40
_cell_length_a 7.599661
_cell_length_b 9.139305
_cell_length_c 29.290276
_cell_angle_alpha 90.000000
_cell_angle_beta 90.000000
_cell_angle_gamma 90.000000
_cell_volume 2034.374273
_symmetry_space_group_name_H-M "I M M 2"
_symmetry_group_IT_number 44
_symmetry_cell_setting 'orthorhombic'
loop_
_space_group_symop_operation_xyz
x,y,z
-x,-y,z
-x,y,z
x,-y,z
1/2+x,1/2+y,1/2+z
1/2-x,1/2-y,1/2+z
1/2-x,1/2+y,1/2+z
1/2+x,1/2-y,1/2+z
loop_
_atom_site_type_symbol
_atom_site_label
_atom_site_fract_x
_atom_site_fract_y
_atom_site_fract_z
Si Si1 0.000000 0.825312 0.742700
Si Si2 0.699038 0.172863 0.912254
Si Si3 0.697753 0.332261 0.688531
Si Si4 0.706669 0.330678 0.101481
Si Si5 0.500000 0.673634 0.346155
Si Si6 0.208602 0.161813 0.500505
O O1 0.175278 0.765720 0.719264
O O2 0.000000 0.767687 0.794690
O O3 0.000000 0.000000 0.739073
O O4 0.500000 0.228795 0.902570
O O5 0.773715 0.231341 0.960526
O O6 0.824815 0.231215 0.871878
O O7 0.704109 0.000000 0.915429
O O8 0.500000 0.320444 0.708323
O O9 0.762979 0.500000 0.688730
O O10 0.694030 0.272777 0.636922
O O11 0.500000 0.305440 0.107810
O O12 0.754036 0.500000 0.110712
O O13 0.771692 0.285076 0.050595
O O14 0.500000 0.500000 0.346193
O O15 0.000000 0.155843 0.501818
O O16 0.283799 0.000000 0.490425
#
# Coordination Sequence:
#
# PCOD8190300 Si02
#       6
#     4   8   8   8   4   8
#     4  11  23  41  65  87 111 149 197 247 298 347
#     4   9  17  32  54  78 107 143 181 222 271 327
#     4  11  24  40  58  84 118 152 189 238 295 353
#     4   9  17  32  56  83 112 151 194 234 279 333
#     4   9  20  37  57  83 109 137 183 239 284 333
#     4   8  15  29  50  78 112 147 183 223 270 325
#
# _framework density 19.662065999999999
#
# number of rings (size 3 to 8) (size 9 to 14) (size 15 to 20)
#    0.000    2.600    1.000    2.100    0.000    3.200 
#    1.800    6.500    0.000    2.400    0.000    0.000 
#    0.000    0.000    0.000    0.000    0.000    0.000 
#
# Total GULP energy -247930.509552 kJ/mol
# GULP energy per Si atom -12396.525478 kJ/mol
# Density = 1.961731 g / cm^3
# Si number density = 19.662066 Si / 1000 Ang^3
#
#
#
# Elastic Constant Matrix: (Units=GPa)
#
#
# Indices 1 2 3 4 5 6 
#
# 1 91.2687 37.5588 58.9109 0.0000 0.0000 0.0000
# 2 37.5588 70.7054 51.1315 0.0000 0.0000 0.0000
# 3 58.9109 51.1315 163.0475 0.0000 0.0000 0.0000
# 4 0.0000 0.0000 0.0000 29.1907 0.0000 0.0000
# 5 0.0000 0.0000 0.0000 0.0000 11.5486 0.0000
# 6 0.0000 0.0000 0.0000 0.0000 0.0000 14.5028
#
#
#
# Elastic Compliance Matrix: (Units=1/GPa)
#
#
# Indices 1 2 3 4 5 6 
#
# 1 0.015792 -0.005513 -0.003977 0.000000 0.000000 0.000000
# 2 -0.005513 0.020216 -0.004348 0.000000 0.000000 0.000000
# 3 -0.003977 -0.004348 0.008934 0.000000 0.000000 0.000000
# 4 0.000000 0.000000 0.000000 0.034257 0.000000 0.000000
# 5 0.000000 0.000000 0.000000 0.000000 0.086591 0.000000
# 6 0.000000 0.000000 0.000000 0.000000 0.000000 0.068952
#
#
# Mechanical properties :
#
#
# Convention : Reuss Voigt Hill
#
# Bulk Modulus (GPa) = 57.91639 68.91378 63.41509
# Shear Modulus (GPa) = 18.64468 22.87645 20.76056
#
# Velocity S-wave (km/s) = 3.08272 3.41468 3.25294
# Velocity P-wave (km/s) = 6.49544 7.11842 6.81405
#
# Compressibility (1/GPa) = 0.01726627
#
# Stress axis : x y z
#
# Youngs Moduli (GPa) = 63.32157 49.46628 111.93643
#
# Poissons Ratio (x) = 0.27270 0.44519
# Poissons Ratio (y) = 0.34908 0.48668
# Poissons Ratio (z) = 0.25184 0.21507
#
# Static dielectric constant tensor:
#      x y z
#    x 3.541140 0.000000 0.000000 
#    y 0.000000 3.477990 0.000000 
#    z 0.000000 0.000000 3.876780 
# 
# 
# High freq. dielectric constant tensor:
#      x y z
#    x 1.762120 0.000000 0.000000 
#    y 0.000000 1.747330 0.000000 
#    z 0.000000 0.000000 1.766080 
# 
# From -- ./inp_files/25960.got.cif
#   From: 2010.03.12/outbox.cif.g09.slc.cpg/sg44_13_cif.got.tgz:25960.got - 2010.04.14 02:36:11.
