data_PCOD8190119
_publ_section_title
;
Structure prediction by ZEFSAII (Michael W. Deem and Ramdas Pophale) SiO2 
 PCOD8190119
Probable space group: I M M 2
;
_chemical_formula_sum "Si O2"
_cell_formula_units_Z 64
_cell_length_a 9.355274
_cell_length_b 14.797042
_cell_length_c 23.999804
_cell_angle_alpha 90.000000
_cell_angle_beta 90.000000
_cell_angle_gamma 90.000000
_cell_volume 3322.302043
_symmetry_space_group_name_H-M "I M M 2"
_symmetry_group_IT_number 44
_symmetry_cell_setting 'orthorhombic'
loop_
_space_group_symop_operation_xyz
x,y,z
-x,-y,z
-x,y,z
x,-y,z
1/2+x,1/2+y,1/2+z
1/2-x,1/2-y,1/2+z
1/2-x,1/2+y,1/2+z
1/2+x,1/2-y,1/2+z
loop_
_atom_site_type_symbol
_atom_site_label
_atom_site_fract_x
_atom_site_fract_y
_atom_site_fract_z
Si Si1 0.165943 0.895004 0.164070
Si Si2 0.338882 0.107238 0.270470
Si Si3 0.334622 0.733813 0.564427
Si Si4 0.834643 0.102942 0.377206
Si Si5 0.338881 0.607237 0.246647
Si Si6 0.165942 0.395004 0.353045
Si Si7 0.334625 0.766187 0.952691
Si Si8 0.834640 0.602941 0.139910
O O1 0.256896 0.856766 0.215981
O O2 0.213855 0.839880 0.109805
O O3 0.000000 0.878518 0.178050
O O4 0.197960 0.000000 0.152598
O O5 0.500000 0.145695 0.270699
O O6 0.257720 0.140275 0.325718
O O7 0.337802 0.000000 0.269482
O O8 0.500000 0.722387 0.550242
O O9 0.250009 0.714910 0.508556
O O10 0.301183 0.834614 0.586779
O O11 0.801196 0.165385 0.430339
O O12 0.000000 0.110760 0.359469
O O13 0.794340 0.000000 0.393145
O O14 0.500000 0.645694 0.246415
O O15 0.337799 0.500000 0.247638
O O16 0.256904 0.643235 0.301137
O O17 0.257711 0.640274 0.191401
O O18 0.197958 0.500000 0.364519
O O19 0.213840 0.339878 0.407311
O O20 0.000000 0.378523 0.339059
O O21 0.500000 0.777615 0.966885
O O22 0.794329 0.500000 0.123971
O O23 0.000000 0.610756 0.157641
#
# Coordination Sequence:
#
# PCOD8190119 Si02
#       8
#     8   8   8   8   8   8   8   8
#     4   9  18  34  54  74 100 134 166 199 245 299
#     4   9  17  30  51  80 107 129 160 203 249 296
#     4  10  22  37  52  73  99 130 172 212 245 290
#     4   9  18  34  54  74 100 134 166 199 245 299
#     4   9  17  30  51  80 107 129 160 203 249 296
#     4   9  18  34  54  74 100 134 166 199 245 299
#     4  10  22  37  52  73  99 130 172 212 245 290
#     4   9  18  34  54  74 100 134 166 199 245 299
#
# _framework density 19.263752
#
# number of rings (size 3 to 8) (size 9 to 14) (size 15 to 20)
#    0.000    2.750    0.000    0.750    0.000    7.000 
#    0.000    5.000    0.000    0.000    0.000    0.000 
#    0.000    0.000    0.000    0.000    0.000    0.000 
#
# Total GULP energy -396831.267205 kJ/mol
# GULP energy per Si atom -12400.977100 kJ/mol
# Density = 1.921991 g / cm^3
# Si number density = 19.263752 Si / 1000 Ang^3
#
#
#
# Elastic Constant Matrix: (Units=GPa)
#
#
# Indices 1 2 3 4 5 6 
#
# 1 72.0996 0.7862 37.3580 0.0000 0.0000 0.0000
# 2 0.7862 32.4768 -8.4915 0.0000 0.0000 0.0000
# 3 37.3580 -8.4915 78.6182 0.0000 0.0000 0.0000
# 4 0.0000 0.0000 0.0000 23.2718 0.0000 0.0000
# 5 0.0000 0.0000 0.0000 0.0000 42.1334 0.0000
# 6 0.0000 0.0000 0.0000 0.0000 0.0000 13.8624
#
#
#
# Elastic Compliance Matrix: (Units=1/GPa)
#
#
# Indices 1 2 3 4 5 6 
#
# 1 0.018653 -0.002850 -0.009171 0.000000 0.000000 0.000000
# 2 -0.002850 0.032121 0.004823 0.000000 0.000000 0.000000
# 3 -0.009171 0.004823 0.017599 0.000000 0.000000 0.000000
# 4 0.000000 0.000000 0.000000 0.042970 0.000000 0.000000
# 5 0.000000 0.000000 0.000000 0.000000 0.023734 0.000000
# 6 0.000000 0.000000 0.000000 0.000000 0.000000 0.072137
#
#
# Mechanical properties :
#
#
# Convention : Reuss Voigt Hill
#
# Bulk Modulus (GPa) = 18.52603 26.94447 22.73525
# Shear Modulus (GPa) = 20.86793 26.08967 23.47880
#
# Velocity S-wave (km/s) = 3.29488 3.68413 3.49493
# Velocity P-wave (km/s) = 4.91049 5.66697 5.30224
#
# Compressibility (1/GPa) = 0.05397812
#
# Stress axis : x y z
#
# Youngs Moduli (GPa) = 53.61122 31.13198 56.82243
#
# Poissons Ratio (x) = 0.08871 0.52113
# Poissons Ratio (y) = 0.15277 -0.27408
# Poissons Ratio (z) = 0.49168 -0.15016
#
# Static dielectric constant tensor:
#      x y z
#    x 3.572410 0.000000 0.000000 
#    y 0.000000 3.540360 0.000000 
#    z 0.000000 0.000000 3.373540 
# 
# 
# High freq. dielectric constant tensor:
#      x y z
#    x 1.744130 0.000000 0.000000 
#    y 0.000000 1.751120 0.000000 
#    z 0.000000 0.000000 1.739530 
# 
# From -- ./inp_files/25131.got.cif
#   From: 2010.03.12/outbox.cif.g09.slc.cpg/sg44_13_cif.got.tgz:25131.got - 2010.04.14 02:36:11.
