data_PCOD8190274
_publ_section_title
;
Structure prediction by ZEFSAII (Michael W. Deem and Ramdas Pophale) SiO2 
 PCOD8190274
Probable space group: I M M 2
;
_chemical_formula_sum "Si O2"
_cell_formula_units_Z 48
_cell_length_a 15.162647
_cell_length_b 8.849482
_cell_length_c 18.800576
_cell_angle_alpha 90.000000
_cell_angle_beta 90.000000
_cell_angle_gamma 90.000000
_cell_volume 2522.690837
_symmetry_space_group_name_H-M "I M M 2"
_symmetry_group_IT_number 44
_symmetry_cell_setting 'orthorhombic'
loop_
_space_group_symop_operation_xyz
x,y,z
-x,-y,z
-x,y,z
x,-y,z
1/2+x,1/2+y,1/2+z
1/2-x,1/2-y,1/2+z
1/2-x,1/2+y,1/2+z
1/2+x,1/2-y,1/2+z
loop_
_atom_site_type_symbol
_atom_site_label
_atom_site_fract_x
_atom_site_fract_y
_atom_site_fract_z
Si Si1 0.902737 0.320432 0.576490
Si Si2 0.097753 0.320572 0.735229
Si Si3 0.100942 0.676293 0.261598
Si Si4 0.397285 0.174056 0.598993
Si Si5 0.265017 0.678382 0.493139
Si Si6 0.743889 0.821090 0.342293
O O1 0.899647 0.500000 0.578706
O O2 0.883752 0.258040 0.655861
O O3 0.828020 0.258839 0.523602
O O4 0.000000 0.266367 0.550719
O O5 0.103483 0.500000 0.734622
O O6 0.170668 0.253899 0.788386
O O7 0.000000 0.269353 0.760253
O O8 0.116364 0.500000 0.275125
O O9 0.124889 0.718264 0.180353
O O10 0.160167 0.769184 0.316479
O O11 0.000000 0.719821 0.277550
O O12 0.500000 0.200910 0.583590
O O13 0.342796 0.281856 0.547412
O O14 0.372345 0.000000 0.584711
O O15 0.262664 0.500000 0.482039
O O16 0.281615 0.757897 0.418743
O O17 0.741344 0.000000 0.345533
#
# Coordination Sequence:
#
# PCOD8190274 Si02
#       6
#     8   8   8   8   8   8
#     4   8  15  30  52  75  97 125 166 214 260 306
#     4   8  15  30  52  75  97 125 166 214 260 306
#     4   9  19  37  59  80 104 138 179 223 274 329
#     4   9  19  37  59  80 104 138 179 223 274 329
#     4  11  22  34  51  78 110 143 178 217 264 318
#     4  11  22  34  51  78 110 143 178 217 264 318
#
# _framework density 19.027303
#
# number of rings (size 3 to 8) (size 9 to 14) (size 15 to 20)
#    0.000    2.667    0.000    4.000    0.000    4.000 
#    0.000    5.000    0.000    3.000    0.000   11.667 
#    0.000    0.000    0.000    0.000    0.000    0.000 
#
# Total GULP energy -297565.439785 kJ/mol
# GULP energy per Si atom -12398.559991 kJ/mol
# Density = 1.898400 g / cm^3
# Si number density = 19.027303 Si / 1000 Ang^3
#
#
#
# Elastic Constant Matrix: (Units=GPa)
#
#
# Indices 1 2 3 4 5 6 
#
# 1 74.7647 17.3913 19.7390 0.0000 0.0000 0.0000
# 2 17.3913 40.4365 16.5412 0.0000 0.0000 0.0000
# 3 19.7390 16.5412 56.7852 0.0000 0.0000 0.0000
# 4 0.0000 0.0000 0.0000 30.7559 0.0000 0.0000
# 5 0.0000 0.0000 0.0000 0.0000 19.0090 0.0000
# 6 0.0000 0.0000 0.0000 0.0000 0.0000 26.2611
#
#
#
# Elastic Compliance Matrix: (Units=1/GPa)
#
#
# Indices 1 2 3 4 5 6 
#
# 1 0.015601 -0.005099 -0.003938 0.000000 0.000000 0.000000
# 2 -0.005099 0.029742 -0.006891 0.000000 0.000000 0.000000
# 3 -0.003938 -0.006891 0.020986 0.000000 0.000000 0.000000
# 4 0.000000 0.000000 0.000000 0.032514 0.000000 0.000000
# 5 0.000000 0.000000 0.000000 0.000000 0.052607 0.000000
# 6 0.000000 0.000000 0.000000 0.000000 0.000000 0.038079
#
#
# Mechanical properties :
#
#
# Convention : Reuss Voigt Hill
#
# Bulk Modulus (GPa) = 29.00775 31.03660 30.02218
# Shear Modulus (GPa) = 21.47060 23.09287 22.28174
#
# Velocity S-wave (km/s) = 3.36283 3.48756 3.42576
# Velocity P-wave (km/s) = 5.50968 5.70652 5.60897
#
# Compressibility (1/GPa) = 0.03447354
#
# Stress axis : x y z
#
# Youngs Moduli (GPa) = 64.09840 33.62236 47.64999
#
# Poissons Ratio (x) = 0.17144 0.18763
# Poissons Ratio (y) = 0.32684 0.32837
# Poissons Ratio (z) = 0.25240 0.23170
#
# Static dielectric constant tensor:
#      x y z
#    x 3.738820 0.000000 0.000000 
#    y 0.000000 3.093200 0.000000 
#    z 0.000000 0.000000 3.537670 
# 
# 
# High freq. dielectric constant tensor:
#      x y z
#    x 1.752310 0.000000 0.000000 
#    y 0.000000 1.705260 0.000000 
#    z 0.000000 0.000000 1.739700 
# 
# From -- ./inp_files/7095.got.cif
#   From: 2010.03.12/outbox.cif.g09.slc.cpg/sg44_4_cif.got.tgz:7095.got - 2010.04.14 02:36:11.
