data_PCOD8190051
_publ_section_title
;
Structure prediction by ZEFSAII (Michael W. Deem and Ramdas Pophale) SiO2 
 PCOD8190051
Probable space group: I M M 2
;
_chemical_formula_sum "Si O2"
_cell_formula_units_Z 64
_cell_length_a 15.165307
_cell_length_b 25.014459
_cell_length_c 8.481853
_cell_angle_alpha 90.000000
_cell_angle_beta 90.000000
_cell_angle_gamma 90.000000
_cell_volume 3217.607477
_symmetry_space_group_name_H-M "I M M 2"
_symmetry_group_IT_number 44
_symmetry_cell_setting 'orthorhombic'
loop_
_space_group_symop_operation_xyz
x,y,z
-x,-y,z
-x,y,z
x,-y,z
1/2+x,1/2+y,1/2+z
1/2-x,1/2-y,1/2+z
1/2-x,1/2+y,1/2+z
1/2+x,1/2-y,1/2+z
loop_
_atom_site_type_symbol
_atom_site_label
_atom_site_fract_x
_atom_site_fract_y
_atom_site_fract_z
Si Si1 0.403057 0.887288 0.584340
Si Si2 0.399625 0.367223 0.066859
Si Si3 0.240590 0.939637 0.437732
Si Si4 0.397588 0.936946 0.921856
Si Si5 0.297847 0.295626 0.845652
Si Si6 0.754495 0.112224 0.127143
Si Si7 0.402076 0.660117 0.417703
Si Si8 0.145773 0.731260 0.071670
O O1 0.500000 0.909411 0.538283
O O2 0.331164 0.906900 0.459955
O O3 0.376422 0.909772 0.754935
O O4 0.409461 0.823063 0.576940
O O5 0.500000 0.386719 0.053799
O O6 0.336051 0.418511 0.052775
O O7 0.379258 0.328045 0.920960
O O8 0.380292 0.337671 0.231977
O O9 0.215029 0.932763 0.253648
O O10 0.258087 0.000000 0.483613
O O11 0.500000 0.928551 0.969040
O O12 0.374365 0.000000 0.915185
O O13 0.336643 0.906509 0.048148
O O14 0.242047 0.332113 0.722512
O O15 0.238987 0.276285 0.988505
O O16 0.337130 0.245118 0.754487
O O17 0.832166 0.120752 0.000225
O O18 0.500000 0.636118 0.444732
O O19 0.403791 0.720463 0.484139
#
# Coordination Sequence:
#
# PCOD8190051 Si02
#       8
#     8   8   8   8   8   8   8   8
#     4  11  23  39  60  88 120 157 202 247 295 353
#     4  10  21  41  63  90 120 155 199 242 297 356
#     4  11  23  40  61  88 118 155 200 249 301 348
#     4  10  22  40  61  86 116 155 202 252 303 350
#     4  10  22  35  61  90 121 159 193 239 291 356
#     4  10  21  38  62  86 118 158 194 243 298 357
#     4  10  22  39  63  89 121 158 194 240 294 356
#     4  11  21  37  60  88 124 155 199 237 292 353
#
# _framework density 19.890557000000001
#
# number of rings (size 3 to 8) (size 9 to 14) (size 15 to 20)
#    0.000    1.625    2.500    2.625    3.500    6.500 
#    0.000    0.625    0.000    2.625    0.000    0.000 
#    0.000    0.000    0.000    0.000    0.000    0.000 
#
# Total GULP energy -396743.817972 kJ/mol
# GULP energy per Si atom -12398.244312 kJ/mol
# Density = 1.984529 g / cm^3
# Si number density = 19.890557 Si / 1000 Ang^3
#
#
#
# Elastic Constant Matrix: (Units=GPa)
#
#
# Indices 1 2 3 4 5 6 
#
# 1 120.6174 45.5948 50.4810 0.0002 0.0002 0.0002
# 2 45.5948 100.6919 42.3179 -0.0002 -0.0002 -0.0002
# 3 50.4810 42.3179 98.1470 -0.0043 -0.0004 0.0002
# 4 0.0002 -0.0002 -0.0043 25.7960 -0.0003 0.0003
# 5 0.0002 -0.0002 -0.0004 -0.0003 29.9656 0.0002
# 6 0.0002 -0.0002 0.0002 0.0003 0.0002 12.0049
#
#
#
# Elastic Compliance Matrix: (Units=1/GPa)
#
#
# Indices 1 2 3 4 5 6 
#
# 1 0.011394 -0.003293 -0.004440 -0.000001 0.000000 0.000000
# 2 -0.003293 0.013081 -0.003946 -0.000001 0.000000 0.000000
# 3 -0.004440 -0.003946 0.014174 0.000002 0.000000 0.000000
# 4 -0.000001 -0.000001 0.000002 0.038766 0.000000 -0.000001
# 5 0.000000 0.000000 0.000000 0.000000 0.033372 -0.000001
# 6 0.000000 0.000000 0.000000 -0.000001 -0.000001 0.083299
#
#
# Mechanical properties :
#
#
# Convention : Reuss Voigt Hill
#
# Bulk Modulus (GPa) = 65.40512 66.24930 65.82721
# Shear Modulus (GPa) = 22.46768 25.62414 24.04591
#
# Velocity S-wave (km/s) = 3.36455 3.59312 3.48071
# Velocity P-wave (km/s) = 6.93163 7.11289 7.02285
#
# Compressibility (1/GPa) = 0.01528932
#
# Stress axis : x y z
#
# Youngs Moduli (GPa) = 87.76578 76.44674 70.55045
#
# Poissons Ratio (x) = 0.25175 0.31328
# Poissons Ratio (y) = 0.28903 0.27841
# Poissons Ratio (z) = 0.38972 0.30168
#
# Static dielectric constant tensor:
#      x y z
#    x 3.544140 0.000000 0.000000 
#    y 0.000000 3.602740 0.000000 
#    z 0.000000 0.000000 3.783020 
# 
# 
# High freq. dielectric constant tensor:
#      x y z
#    x 1.774580 0.000000 0.000000 
#    y 0.000000 1.767280 0.000000 
#    z 0.000000 0.000000 1.784590 
# 
# From -- ./inp_files/7541.got.cif
#   From: 2010.03.12/outbox.cif.g09.slc.cpg/sg44_4_cif.got.tgz:7541.got - 2010.04.14 02:36:11.
