data_PCOD8190745
_publ_section_title
;
Structure prediction by ZEFSAII (Michael W. Deem and Ramdas Pophale) SiO2 
 PCOD8190745
Probable space group: I B A 2
;
_chemical_formula_sum "Si O2"
_cell_formula_units_Z 48
_cell_length_a 17.927127
_cell_length_b 14.789855
_cell_length_c 9.545812
_cell_angle_alpha 90.000000
_cell_angle_beta 90.000000
_cell_angle_gamma 90.000000
_cell_volume 2530.972860
_symmetry_space_group_name_H-M "I B A 2"
_symmetry_group_IT_number 45
_symmetry_cell_setting 'orthorhombic'
loop_
_space_group_symop_operation_xyz
x,y,z
-x,-y,z
-x,y,1/2+z
x,-y,1/2+z
1/2+x,1/2+y,1/2+z
1/2-x,1/2-y,1/2+z
1/2-x,1/2+y,z
1/2+x,1/2-y,z
loop_
_atom_site_type_symbol
_atom_site_label
_atom_site_fract_x
_atom_site_fract_y
_atom_site_fract_z
Si Si1 0.636608 0.537763 0.938900
Si Si2 0.950771 0.193692 0.087876
Si Si3 0.738661 0.327810 0.810815
Si Si4 0.429183 0.358647 0.386679
Si Si5 0.316080 0.811068 0.596426
Si Si6 0.763788 0.981052 0.185991
O O1 0.569322 0.465213 0.923706
O O2 0.673189 0.560684 0.788699
O O3 0.605831 0.627734 0.007659
O O4 0.700923 0.494562 0.033943
O O5 0.971629 0.154170 0.239422
O O6 0.904507 0.287167 0.106705
O O7 0.027594 0.202274 0.001858
O O8 0.656125 0.328445 0.877032
O O9 0.737442 0.256023 0.684699
O O10 0.764810 0.424107 0.748189
O O11 0.795078 0.301038 0.933269
O O12 0.304350 0.911270 0.661267
#
# Coordination Sequence:
#
# PCOD8190745 Si02
#       6
#     8   8   8   8   8   8
#     4  11  19  36  55  85 120 155 193 232 294 365
#     4  11  23  36  53  88 117 159 195 236 305 365
#     4  10  22  38  56  91 113 157 199 240 305 355
#     4  10  22  35  52  79 123 154 191 235 292 367
#     4  11  21  37  59  85 125 152 197 251 295 366
#     4  11  20  36  58  85 125 150 197 239 294 361
#
# _framework density 18.965039999999998
#
# number of rings (size 3 to 8) (size 9 to 14) (size 15 to 20)
#    0.000    1.333    8.333    1.500    2.333    2.667 
#    0.000    0.000    0.000    0.000    0.000   24.500 
#    0.000    0.000    0.000    0.000    0.000    0.000 
#
# Total GULP energy -297526.545481 kJ/mol
# GULP energy per Si atom -12396.939395 kJ/mol
# Density = 1.892187 g / cm^3
# Si number density = 18.965040 Si / 1000 Ang^3
#
#
#
# Elastic Constant Matrix: (Units=GPa)
#
#
# Indices 1 2 3 4 5 6 
#
# 1 59.4265 36.5359 23.6619 0.0000 0.0000 0.0000
# 2 36.5359 97.8066 31.3590 0.0000 0.0000 0.0000
# 3 23.6619 31.3590 87.4991 0.0000 0.0000 0.0000
# 4 0.0000 0.0000 0.0000 30.3870 0.0000 0.0000
# 5 0.0000 0.0000 0.0000 0.0000 20.6412 0.0000
# 6 0.0000 0.0000 0.0000 0.0000 0.0000 27.3318
#
#
#
# Elastic Compliance Matrix: (Units=1/GPa)
#
#
# Indices 1 2 3 4 5 6 
#
# 1 0.022761 -0.007377 -0.003511 0.000000 0.000000 0.000000
# 2 -0.007377 0.013942 -0.003002 0.000000 0.000000 0.000000
# 3 -0.003511 -0.003002 0.013454 0.000000 0.000000 0.000000
# 4 0.000000 0.000000 0.000000 0.032909 0.000000 0.000000
# 5 0.000000 0.000000 0.000000 0.000000 0.048447 0.000000
# 6 0.000000 0.000000 0.000000 0.000000 0.000000 0.036587
#
#
# Mechanical properties :
#
#
# Convention : Reuss Voigt Hill
#
# Bulk Modulus (GPa) = 44.68797 47.53842 46.11319
# Shear Modulus (GPa) = 24.58944 25.88369 25.23657
#
# Velocity S-wave (km/s) = 3.60469 3.69834 3.65182
# Velocity P-wave (km/s) = 6.39840 6.58466 6.49220
#
# Compressibility (1/GPa) = 0.02237739
#
# Stress axis : x y z
#
# Youngs Moduli (GPa) = 43.93518 71.72420 74.32649
#
# Poissons Ratio (x) = 0.52908 0.26099
# Poissons Ratio (y) = 0.32409 0.22313
# Poissons Ratio (z) = 0.15427 0.21532
#
# Static dielectric constant tensor:
#      x y z
#    x 3.186110 0.000000 0.000000 
#    y 0.000000 3.436590 0.000000 
#    z 0.000000 0.000000 3.800640 
# 
# 
# High freq. dielectric constant tensor:
#      x y z
#    x 1.697700 0.000000 0.000000 
#    y 0.000000 1.718880 0.000000 
#    z 0.000000 0.000000 1.763460 
# 
# From -- ./inp_files/1696.got.cif
#   From: 2010.03.12/outbox.cif.g09.slc.cpg/sg45_1_cif.got.tgz:1696.got - 2010.04.14 02:50:11.
