data_PCOD8190687
_publ_section_title
;
Structure prediction by ZEFSAII (Michael W. Deem and Ramdas Pophale) SiO2 
 PCOD8190687
Probable space group: I B A 2
;
_chemical_formula_sum "Si O2"
_cell_formula_units_Z 64
_cell_length_a 8.700462
_cell_length_b 29.877535
_cell_length_c 11.726255
_cell_angle_alpha 90.000000
_cell_angle_beta 90.000000
_cell_angle_gamma 90.000000
_cell_volume 3048.220732
_symmetry_space_group_name_H-M "I B A 2"
_symmetry_group_IT_number 45
_symmetry_cell_setting 'orthorhombic'
loop_
_space_group_symop_operation_xyz
x,y,z
-x,-y,z
-x,y,1/2+z
x,-y,1/2+z
1/2+x,1/2+y,1/2+z
1/2-x,1/2-y,1/2+z
1/2-x,1/2+y,z
1/2+x,1/2-y,z
loop_
_atom_site_type_symbol
_atom_site_label
_atom_site_fract_x
_atom_site_fract_y
_atom_site_fract_z
Si Si1 0.163460 0.017598 0.681820
Si Si2 0.412218 0.042365 0.865741
Si Si3 0.784690 0.071393 0.558723
Si Si4 0.192112 0.199591 0.554560
Si Si5 0.933332 0.751723 0.182607
Si Si6 0.383105 0.402766 0.014558
Si Si7 0.182533 0.296430 0.814895
Si Si8 0.680007 0.897937 0.296590
O O1 0.278038 0.021866 0.787319
O O2 0.163712 0.064936 0.617912
O O3 0.211726 0.981057 0.588514
O O4 0.000000 0.000000 0.731225
O O5 0.529049 0.071559 0.790713
O O6 0.500000 0.000000 0.920264
O O7 0.351186 0.074953 0.965851
O O8 0.759469 0.099911 0.673025
O O9 0.935491 0.090217 0.494745
O O10 0.333083 0.209371 0.640319
O O11 0.156259 0.147132 0.554757
O O12 0.247189 0.218765 0.434222
O O13 0.039366 0.227250 0.584735
O O14 0.818521 0.790800 0.222694
O O15 0.037290 0.734584 0.287064
O O16 0.296612 0.414230 0.896088
O O17 0.128130 0.347480 0.818860
#
# Coordination Sequence:
#
# PCOD8190687 Si02
#       8
#     8   8   8   8   8   8   8   8
#     4  10  24  42  67  89 128 171 219 261 313 380
#     4  12  26  40  66  93 131 169 214 262 328 364
#     4  11  25  43  65  90 130 171 214 263 318 381
#     4  10  21  40  65  93 128 165 209 261 311 377
#     4  10  21  39  65  91 127 166 208 252 324 373
#     4  10  24  43  66  93 128 170 220 264 315 376
#     4  10  22  40  62  94 126 164 208 260 311 381
#     4  11  25  41  64  97 132 164 217 267 321 376
#
# _framework density 20.995854000000001
#
# number of rings (size 3 to 8) (size 9 to 14) (size 15 to 20)
#    0.000    1.500    1.250    2.250    8.750    1.500 
#    0.000    1.250    0.000    0.000    0.000    0.000 
#    0.000    0.000    0.000    0.000    0.000    0.000 
#
# Total GULP energy -396803.515593 kJ/mol
# GULP energy per Si atom -12400.109862 kJ/mol
# Density = 2.094807 g / cm^3
# Si number density = 20.995854 Si / 1000 Ang^3
#
#
#
# Elastic Constant Matrix: (Units=GPa)
#
#
# Indices 1 2 3 4 5 6 
#
# 1 113.5911 36.1211 50.6022 -0.0005 0.0003 0.0010
# 2 36.1211 92.2182 26.4368 0.0001 0.0000 0.0005
# 3 50.6022 26.4368 94.5062 -0.0024 -0.0001 -0.0004
# 4 -0.0005 0.0001 -0.0024 30.5577 -0.0002 -0.0002
# 5 0.0003 0.0000 -0.0001 -0.0002 31.8955 -0.0001
# 6 0.0010 0.0005 -0.0004 -0.0002 -0.0001 13.6639
#
#
#
# Elastic Compliance Matrix: (Units=1/GPa)
#
#
# Indices 1 2 3 4 5 6 
#
# 1 0.012375 -0.003205 -0.005730 0.000000 0.000000 -0.000001
# 2 -0.003205 0.012619 -0.001814 0.000000 0.000000 0.000000
# 3 -0.005730 -0.001814 0.014157 0.000001 0.000000 0.000001
# 4 0.000000 0.000000 0.000001 0.032725 0.000000 0.000001
# 5 0.000000 0.000000 0.000000 0.000000 0.031352 0.000000
# 6 -0.000001 0.000000 0.000001 0.000001 0.000000 0.073185
#
#
# Mechanical properties :
#
#
# Convention : Reuss Voigt Hill
#
# Bulk Modulus (GPa) = 56.64429 58.51508 57.57969
# Shear Modulus (GPa) = 24.53447 27.70044 26.11746
#
# Velocity S-wave (km/s) = 3.42210 3.63620 3.53077
# Velocity P-wave (km/s) = 6.53083 6.74978 6.64121
#
# Compressibility (1/GPa) = 0.01765403
#
# Stress axis : x y z
#
# Youngs Moduli (GPa) = 80.80847 79.24470 70.63827
#
# Poissons Ratio (x) = 0.25395 0.40473
# Poissons Ratio (y) = 0.25896 0.12815
# Poissons Ratio (z) = 0.46300 0.14376
#
# Static dielectric constant tensor:
#      x y z
#    x 3.953600 0.000000 0.000000 
#    y 0.000000 3.660580 0.000000 
#    z 0.000000 0.000000 3.696650 
# 
# 
# High freq. dielectric constant tensor:
#      x y z
#    x 1.834850 0.000000 0.000000 
#    y 0.000000 1.820810 0.000000 
#    z 0.000000 0.000000 1.820100 
# 
# From -- ./inp_files/3397.got.cif
#   From: 2010.03.12/outbox.cif.g09.slc.cpg/sg45_2_cif.got.tgz:3397.got - 2010.04.14 02:50:11.
