data_PCOD8190092
_publ_section_title
;
Structure prediction by ZEFSAII (Michael W. Deem and Ramdas Pophale) SiO2 
 PCOD8190092
Probable space group: I M M 2
;
_chemical_formula_sum "Si O2"
_cell_formula_units_Z 64
_cell_length_a 8.609700
_cell_length_b 29.164217
_cell_length_c 12.703461
_cell_angle_alpha 90.000000
_cell_angle_beta 90.000000
_cell_angle_gamma 90.000000
_cell_volume 3189.777561
_symmetry_space_group_name_H-M "I M M 2"
_symmetry_group_IT_number 44
_symmetry_cell_setting 'orthorhombic'
loop_
_space_group_symop_operation_xyz
x,y,z
-x,-y,z
-x,y,z
x,-y,z
1/2+x,1/2+y,1/2+z
1/2-x,1/2-y,1/2+z
1/2-x,1/2+y,1/2+z
1/2+x,1/2-y,1/2+z
loop_
_atom_site_type_symbol
_atom_site_label
_atom_site_fract_x
_atom_site_fract_y
_atom_site_fract_z
Si Si1 0.817015 0.880615 0.661410
Si Si2 0.681597 0.879326 0.209823
Si Si3 0.177720 0.213538 0.138314
Si Si4 0.820298 0.053779 0.048270
Si Si5 0.183078 0.858778 0.426773
Si Si6 0.818690 0.552765 0.328817
Si Si7 0.821218 0.753521 0.443978
Si Si8 0.678651 0.713750 0.264660
O O1 0.771049 0.882371 0.538138
O O2 0.732572 0.920948 0.723724
O O3 0.760995 0.832381 0.710342
O O4 0.000000 0.886050 0.677273
O O5 0.500000 0.869012 0.204031
O O6 0.776950 0.838793 0.155023
O O7 0.722068 0.924510 0.143367
O O8 0.730996 0.885347 0.332010
O O9 0.206649 0.242620 0.243952
O O10 0.000000 0.216103 0.101261
O O11 0.296986 0.241411 0.065426
O O12 0.000000 0.066114 0.063205
O O13 0.787670 0.000000 0.054542
O O14 0.766525 0.072073 0.933348
O O15 0.235124 0.805855 0.427487
O O16 0.000000 0.862456 0.408131
O O17 0.773663 0.500000 0.310094
O O18 0.000000 0.559469 0.347292
O O19 0.709811 0.714573 0.389909
O O20 0.000000 0.747173 0.413941
O O21 0.500000 0.722867 0.236086
#
# Coordination Sequence:
#
# PCOD8190092 Si02
#       8
#     8   8   8   8   8   8   8   8
#     4  10  22  40  62  87 120 160 203 249 297 358
#     4  12  25  40  62  91 123 160 204 252 304 363
#     4  12  24  38  57  83 119 162 206 251 297 355
#     4  10  22  43  70  95 121 155 196 244 303 368
#     4  10  21  40  61  85 121 162 204 249 299 355
#     4  10  22  41  65  94 126 155 191 246 306 361
#     4  11  22  38  57  81 117 160 204 253 304 354
#     4  11  22  38  57  84 119 157 203 251 300 355
#
# _framework density 20.064094000000001
#
# number of rings (size 3 to 8) (size 9 to 14) (size 15 to 20)
#    0.000    1.250    2.500    3.750    1.750    3.500 
#    0.000    0.625    0.000    0.750    0.000    0.000 
#    0.000    0.000    0.000    0.000    0.000    0.000 
#
# Total GULP energy -396784.013017 kJ/mol
# GULP energy per Si atom -12399.500407 kJ/mol
# Density = 2.001843 g / cm^3
# Si number density = 20.064094 Si / 1000 Ang^3
#
#
#
# Elastic Constant Matrix: (Units=GPa)
#
#
# Indices 1 2 3 4 5 6 
#
# 1 78.6110 35.5024 41.9452 0.0001 -0.0001 0.0000
# 2 35.5024 75.0743 51.8664 -0.0002 0.0001 0.0001
# 3 41.9452 51.8664 125.0953 0.0008 0.0001 -0.0002
# 4 0.0001 -0.0002 0.0008 38.9886 0.0000 0.0000
# 5 -0.0001 0.0001 0.0001 0.0000 38.9681 0.0002
# 6 0.0000 0.0001 -0.0002 0.0000 0.0002 30.5244
#
#
#
# Elastic Compliance Matrix: (Units=1/GPa)
#
#
# Indices 1 2 3 4 5 6 
#
# 1 0.017116 -0.005787 -0.003340 0.000000 0.000000 0.000000
# 2 -0.005787 0.020624 -0.006611 0.000000 0.000000 0.000000
# 3 -0.003340 -0.006611 0.011855 0.000000 0.000000 0.000000
# 4 0.000000 0.000000 0.000000 0.025649 0.000000 0.000000
# 5 0.000000 0.000000 0.000000 0.000000 0.025662 0.000000
# 6 0.000000 0.000000 0.000000 0.000000 0.000000 0.032761
#
#
# Mechanical properties :
#
#
# Convention : Reuss Voigt Hill
#
# Bulk Modulus (GPa) = 55.18718 59.71206 57.44962
# Shear Modulus (GPa) = 29.20888 31.66065 30.43476
#
# Velocity S-wave (km/s) = 3.81961 3.97668 3.89894
# Velocity P-wave (km/s) = 6.85694 7.13517 6.99744
#
# Compressibility (1/GPa) = 0.01812015
#
# Stress axis : x y z
#
# Youngs Moduli (GPa) = 58.42324 48.48775 84.35517
#
# Poissons Ratio (x) = 0.28059 0.28174
# Poissons Ratio (y) = 0.33809 0.55763
# Poissons Ratio (z) = 0.19513 0.32053
#
# Static dielectric constant tensor:
#      x y z
#    x 3.494290 0.000000 0.000000 
#    y 0.000000 3.443580 0.000000 
#    z 0.000000 0.000000 3.800660 
# 
# 
# High freq. dielectric constant tensor:
#      x y z
#    x 1.785470 0.000000 0.000000 
#    y 0.000000 1.762360 0.000000 
#    z 0.000000 0.000000 1.803140 
# 
# From -- ./inp_files/11533.got.cif
#   From: 2010.03.12/outbox.cif.g09.slc.cpg/sg44_6_cif.got.tgz:11533.got - 2010.04.14 02:36:11.
