data_PCOD8190482
_publ_section_title
;
Structure prediction by ZEFSAII (Michael W. Deem and Ramdas Pophale) SiO2 
 PCOD8190482
Probable space group: I B A 2
;
_chemical_formula_sum "Si O2"
_cell_formula_units_Z 32
_cell_length_a 12.100545
_cell_length_b 20.644455
_cell_length_c 5.240462
_cell_angle_alpha 90.000000
_cell_angle_beta 90.000000
_cell_angle_gamma 90.000000
_cell_volume 1309.115393
_symmetry_space_group_name_H-M "I B A 2"
_symmetry_group_IT_number 45
_symmetry_cell_setting 'orthorhombic'
loop_
_space_group_symop_operation_xyz
x,y,z
-x,-y,z
-x,y,1/2+z
x,-y,1/2+z
1/2+x,1/2+y,1/2+z
1/2-x,1/2-y,1/2+z
1/2-x,1/2+y,z
1/2+x,1/2-y,z
loop_
_atom_site_type_symbol
_atom_site_label
_atom_site_fract_x
_atom_site_fract_y
_atom_site_fract_z
Si Si1 0.627316 0.265123 0.739780
Si Si2 0.570976 0.882940 0.242457
Si Si3 0.793214 0.040926 0.782364
Si Si4 0.882472 0.177084 0.739958
O O1 0.621994 0.188301 0.762776
O O2 0.684392 0.289431 0.475921
O O3 0.505464 0.296454 0.711254
O O4 0.684437 0.297808 0.988525
O O5 0.484394 0.894314 0.468701
O O6 0.667900 0.934581 0.269662
O O7 0.879963 0.099765 0.758214
O O8 0.816587 0.991866 0.553151
#
# Coordination Sequence:
#
# PCOD8190482 Si02
#       4
#     8   8   8   8
#     4  10  19  40  66 102 123 157 213 268 343 366
#     4  12  23  43  69  96 130 166 216 273 321 381
#     4  12  28  45  61  95 136 179 218 250 311 392
#     4  10  20  40  67  93 134 158 211 272 315 387
#
# _framework density 24.443985999999999
#
# number of rings (size 3 to 8) (size 9 to 14) (size 15 to 20)
#    0.000    1.000    5.000    3.000    0.000    5.000 
#    0.000   15.000    0.000    0.000    0.000    0.000 
#    0.000    0.000    0.000    0.000    0.000    0.000 
#
# Total GULP energy -198407.408829 kJ/mol
# GULP energy per Si atom -12400.463052 kJ/mol
# Density = 2.438835 g / cm^3
# Si number density = 24.443986 Si / 1000 Ang^3
#
#
#
# Elastic Constant Matrix: (Units=GPa)
#
#
# Indices 1 2 3 4 5 6 
#
# 1 38.3887 10.7019 -20.5392 -0.0078 0.0040 -0.0022
# 2 10.7019 106.8598 1.3403 -0.0363 0.0884 -0.0126
# 3 -20.5392 1.3403 155.8240 -0.0868 0.2817 -0.0201
# 4 -0.0078 -0.0363 -0.0868 54.4655 0.0252 -0.0004
# 5 0.0040 0.0884 0.2817 0.0252 -20.8917 0.0007
# 6 -0.0022 -0.0126 -0.0201 -0.0004 0.0007 49.1687
#
#
#
# Elastic Compliance Matrix: (Units=1/GPa)
#
#
# Indices 1 2 3 4 5 6 
#
# 1 0.028924 -0.002945 0.003838 0.000008 0.000045 0.000002
# 2 -0.002945 0.009659 -0.000471 0.000005 0.000034 0.000002
# 3 0.003838 -0.000471 0.006927 0.000011 0.000092 0.000003
# 4 0.000008 0.000005 0.000011 0.018360 0.000022 0.000000
# 5 0.000045 0.000034 0.000092 0.000022 -0.047865 0.000001
# 6 0.000002 0.000002 0.000003 0.000000 0.000001 0.020338
#
#
# Mechanical properties :
#
#
# Convention : Reuss Voigt Hill
#
# Bulk Modulus (GPa) = 21.57370 31.56429 26.56900
# Shear Modulus (GPa) = 98.13290 37.18648 67.65969
#
# Velocity S-wave (km/s) = 6.34296 3.90461 5.26684
# Velocity P-wave (km/s) = 7.90501 5.76792 6.91947
#
# Compressibility (1/GPa) = 0.04635274
#
# Stress axis : x y z
#
# Youngs Moduli (GPa) = 34.57388 103.53186 144.35774
#
# Poissons Ratio (x) = 0.30488 -0.55400
# Poissons Ratio (y) = 0.10181 0.06804
# Poissons Ratio (z) = -0.13268 0.04879
#
# Static dielectric constant tensor:
#      x y z
#    x 4.467410 -0.000070 0.000030 
#    y -0.000070 4.357520 -0.000270 
#    z 0.000030 -0.000270 8.331430 
# 
# 
# High freq. dielectric constant tensor:
#      x y z
#    x 1.974560 0.000000 0.000000 
#    y 0.000000 1.972440 0.000000 
#    z 0.000000 0.000000 2.008960 
# 
# From -- ./inp_files/64.got.cif
#   From: 2010.03.12/outbox.cif.g09.slc.cpg/sg45_1_cif.got.tgz:64.got - 2010.04.14 02:50:11.
