data_PCOD8190106
_publ_section_title
;
Structure prediction by ZEFSAII (Michael W. Deem and Ramdas Pophale) SiO2 
 PCOD8190106
Probable space group: I M M 2
;
_chemical_formula_sum "Si O2"
_cell_formula_units_Z 48
_cell_length_a 7.566440
_cell_length_b 9.205231
_cell_length_c 34.119593
_cell_angle_alpha 90.000000
_cell_angle_beta 90.000000
_cell_angle_gamma 90.000000
_cell_volume 2376.457905
_symmetry_space_group_name_H-M "I M M 2"
_symmetry_group_IT_number 44
_symmetry_cell_setting 'orthorhombic'
loop_
_space_group_symop_operation_xyz
x,y,z
-x,-y,z
-x,y,z
x,-y,z
1/2+x,1/2+y,1/2+z
1/2-x,1/2-y,1/2+z
1/2-x,1/2+y,1/2+z
1/2+x,1/2-y,1/2+z
loop_
_atom_site_type_symbol
_atom_site_label
_atom_site_fract_x
_atom_site_fract_y
_atom_site_fract_z
Si Si1 0.000000 0.667754 0.625000
Si Si2 0.210767 0.836264 0.337589
Si Si3 0.702009 0.667758 0.686586
Si Si4 0.000000 0.172552 0.544124
Si Si5 0.198747 0.166680 0.998618
Si Si6 0.206518 0.334232 0.412589
Si Si7 0.710090 0.836709 0.762989
O O1 0.176050 0.702980 0.649546
O O2 0.000000 0.773594 0.588431
O O3 0.000000 0.500000 0.611226
O O4 0.282246 0.764394 0.377573
O O5 0.287294 0.748895 0.300394
O O6 0.000000 0.831276 0.337164
O O7 0.282034 0.000000 0.335370
O O8 0.500000 0.708379 0.675608
O O9 0.717290 0.500000 0.698823
O O10 0.773476 0.759771 0.723236
O O11 0.824666 0.228889 0.522917
O O12 0.000000 0.000000 0.543178
O O13 0.000000 0.185165 0.014819
O O14 0.263859 0.000000 0.003293
O O15 0.198869 0.210250 0.952886
O O16 0.247504 0.500000 0.401174
O O17 0.000000 0.308367 0.418997
O O18 0.500000 0.836014 0.764819
O O19 0.785047 0.000000 0.763637
#
# Coordination Sequence:
#
# PCOD8190106 Si02
#       7
#     4   8   8   4   8   8   8
#     4  10  22  40  62  86 114 148 192 238 286 352
#     4   9  16  25  42  72 108 148 193 235 278 333
#     4   9  18  34  57  83 110 143 183 231 286 340
#     4  12  26  42  62  90 126 158 192 244 302 362
#     4  10  21  40  66  90 115 154 201 246 296 359
#     4   9  16  29  51  79 111 146 189 240 292 343
#     4   9  16  27  46  74 108 146 188 231 278 333
#
# _framework density 20.198129000000002
#
# number of rings (size 3 to 8) (size 9 to 14) (size 15 to 20)
#    0.000    2.500    0.833    1.750    0.000    6.333 
#    0.000    1.667    1.833    0.000    0.000    0.000 
#    0.000    0.000    0.000    0.000    0.000    0.000 
#
# Total GULP energy -297624.573191 kJ/mol
# GULP energy per Si atom -12401.023883 kJ/mol
# Density = 2.015216 g / cm^3
# Si number density = 20.198129 Si / 1000 Ang^3
#
#
#
# Elastic Constant Matrix: (Units=GPa)
#
#
# Indices 1 2 3 4 5 6 
#
# 1 75.1273 42.1585 50.3495 0.0000 0.0000 0.0000
# 2 42.1585 154.2415 97.7328 0.0000 0.0000 0.0000
# 3 50.3495 97.7328 144.1167 0.0000 0.0000 0.0000
# 4 0.0000 0.0000 0.0000 41.3794 0.0000 0.0000
# 5 0.0000 0.0000 0.0000 0.0000 -32.2902 0.0000
# 6 0.0000 0.0000 0.0000 0.0000 0.0000 9.7581
#
#
#
# Elastic Compliance Matrix: (Units=1/GPa)
#
#
# Indices 1 2 3 4 5 6 
#
# 1 0.017604 -0.001604 -0.005062 0.000000 0.000000 0.000000
# 2 -0.001604 0.011514 -0.007248 0.000000 0.000000 0.000000
# 3 -0.005062 -0.007248 0.013623 0.000000 0.000000 0.000000
# 4 0.000000 0.000000 0.000000 0.024167 0.000000 0.000000
# 5 0.000000 0.000000 0.000000 0.000000 -0.030969 0.000000
# 6 0.000000 0.000000 0.000000 0.000000 0.000000 0.102479
#
#
# Mechanical properties :
#
#
# Convention : Reuss Voigt Hill
#
# Bulk Modulus (GPa) = 67.06054 83.77412 75.41733
# Shear Modulus (GPa) = 29.20267 15.98577 22.59422
#
# Velocity S-wave (km/s) = 3.80651 2.81632 3.34822
# Velocity P-wave (km/s) = 7.25209 7.22093 7.23652
#
# Compressibility (1/GPa) = 0.01491190
#
# Stress axis : x y z
#
# Youngs Moduli (GPa) = 56.80673 86.84773 73.40603
#
# Poissons Ratio (x) = 0.13928 0.37162
# Poissons Ratio (y) = 0.09110 0.53206
# Poissons Ratio (z) = 0.28758 0.62949
#
# Static dielectric constant tensor:
#      x y z
#    x 3.596250 0.000000 0.000000 
#    y 0.000000 3.690070 0.000000 
#    z 0.000000 0.000000 3.659760 
# 
# 
# High freq. dielectric constant tensor:
#      x y z
#    x 1.775120 0.000000 0.000000 
#    y 0.000000 1.781390 0.000000 
#    z 0.000000 0.000000 1.787940 
# 
# From -- ./inp_files/26935.got.cif
#   From: 2010.03.12/outbox.cif.g09.slc.cpg/sg44_14_cif.got.tgz:26935.got - 2010.04.14 02:36:11.
