data_PCOD8190085
_publ_section_title
;
Structure prediction by ZEFSAII (Michael W. Deem and Ramdas Pophale) SiO2 
 PCOD8190085
Probable space group: I M M 2
;
_chemical_formula_sum "Si O2"
_cell_formula_units_Z 48
_cell_length_a 18.361789
_cell_length_b 8.546416
_cell_length_c 14.898557
_cell_angle_alpha 90.000000
_cell_angle_beta 90.000000
_cell_angle_gamma 90.000000
_cell_volume 2337.993114
_symmetry_space_group_name_H-M "I M M 2"
_symmetry_group_IT_number 44
_symmetry_cell_setting 'orthorhombic'
loop_
_space_group_symop_operation_xyz
x,y,z
-x,-y,z
-x,y,z
x,-y,z
1/2+x,1/2+y,1/2+z
1/2-x,1/2-y,1/2+z
1/2-x,1/2+y,1/2+z
1/2+x,1/2-y,1/2+z
loop_
_atom_site_type_symbol
_atom_site_label
_atom_site_fract_x
_atom_site_fract_y
_atom_site_fract_z
Si Si1 0.344013 0.315018 0.110370
Si Si2 0.735015 0.818757 0.270374
Si Si3 0.500000 0.678321 0.844749
Si Si4 0.381532 0.819064 0.727050
Si Si5 0.000000 0.823259 0.556184
Si Si6 0.921022 0.179571 0.049282
Si Si7 0.770396 0.184077 0.966443
O O1 0.342425 0.500000 0.095591
O O2 0.326587 0.272128 0.213655
O O3 0.424983 0.244704 0.091490
O O4 0.285235 0.243250 0.041906
O O5 0.810308 0.787971 0.219203
O O6 0.746082 0.759226 0.370910
O O7 0.715204 0.000000 0.270012
O O8 0.500000 0.500000 0.808669
O O9 0.428446 0.768693 0.812586
O O10 0.500000 0.684199 0.950215
O O11 0.426343 0.788417 0.636790
O O12 0.359665 0.000000 0.736420
O O13 0.000000 0.000000 0.591749
O O14 0.000000 0.198871 0.999638
O O15 0.909495 0.000000 0.078928
O O16 0.853757 0.233596 0.987816
O O17 0.761259 0.000000 0.958111
#
# Coordination Sequence:
#
# PCOD8190085 Si02
#       7
#     8   8   4   8   4   8   8
#     4  11  22  42  68  94 127 166 211 262 317 381
#     4  12  25  42  63  90 125 170 215 262 320 377
#     4  11  21  37  61  92 129 166 203 253 324 391
#     4  12  23  36  59  92 126 162 208 260 314 375
#     4   9  22  41  63  90 121 164 207 253 314 379
#     4  10  21  39  63  90 126 166 202 250 318 384
#     4  11  23  41  66  96 127 164 213 263 318 382
#
# _framework density 20.530429999999999
#
# number of rings (size 3 to 8) (size 9 to 14) (size 15 to 20)
#    0.000    1.000    2.500    5.250    0.000    2.000 
#    1.500    4.167    0.000    0.000    0.000    0.000 
#    0.000    0.000    0.000    0.000    0.000    0.000 
#
# Total GULP energy -297600.444618 kJ/mol
# GULP energy per Si atom -12400.018526 kJ/mol
# Density = 2.048370 g / cm^3
# Si number density = 20.530430 Si / 1000 Ang^3
#
#
#
# Elastic Constant Matrix: (Units=GPa)
#
#
# Indices 1 2 3 4 5 6 
#
# 1 148.8266 30.3784 28.3459 0.0000 0.0000 0.0000
# 2 30.3784 70.6534 16.0922 0.0000 0.0000 0.0000
# 3 28.3459 16.0922 68.2186 0.0000 0.0000 0.0000
# 4 0.0000 0.0000 0.0000 32.6054 0.0000 0.0000
# 5 0.0000 0.0000 0.0000 0.0000 27.0495 0.0000
# 6 0.0000 0.0000 0.0000 0.0000 0.0000 26.7822
#
#
#
# Elastic Compliance Matrix: (Units=1/GPa)
#
#
# Indices 1 2 3 4 5 6 
#
# 1 0.007773 -0.002754 -0.002580 0.000000 0.000000 0.000000
# 2 -0.002754 0.015933 -0.002614 0.000000 0.000000 0.000000
# 3 -0.002580 -0.002614 0.016347 0.000000 0.000000 0.000000
# 4 0.000000 0.000000 0.000000 0.030670 0.000000 0.000000
# 5 0.000000 0.000000 0.000000 0.000000 0.036969 0.000000
# 6 0.000000 0.000000 0.000000 0.000000 0.000000 0.037338
#
#
# Mechanical properties :
#
#
# Convention : Reuss Voigt Hill
#
# Bulk Modulus (GPa) = 41.39644 48.59241 44.99443
# Shear Modulus (GPa) = 29.58930 31.47954 30.53442
#
# Velocity S-wave (km/s) = 3.80049 3.92000 3.86071
# Velocity P-wave (km/s) = 6.28216 6.64894 6.46815
#
# Compressibility (1/GPa) = 0.02415667
#
# Stress axis : x y z
#
# Youngs Moduli (GPa) = 128.65285 62.76171 61.17172
#
# Poissons Ratio (x) = 0.17287 0.15782
# Poissons Ratio (y) = 0.35436 0.15990
# Poissons Ratio (z) = 0.33192 0.16406
#
# Static dielectric constant tensor:
#      x y z
#    x 4.089060 0.000000 0.000000 
#    y 0.000000 3.678630 0.000000 
#    z 0.000000 0.000000 3.593830 
# 
# 
# High freq. dielectric constant tensor:
#      x y z
#    x 1.818690 0.000000 0.000000 
#    y 0.000000 1.799080 0.000000 
#    z 0.000000 0.000000 1.792200 
# 
# From -- ./inp_files/16127.got.cif
#   From: 2010.03.12/outbox.cif.g09.slc.cpg/sg44_9_cif.got.tgz:16127.got - 2010.04.14 02:36:11.
