data_PCOD8190151
_publ_section_title
;
Structure prediction by ZEFSAII (Michael W. Deem and Ramdas Pophale) SiO2 
 PCOD8190151
Probable space group: I M M 2
;
_chemical_formula_sum "Si O2"
_cell_formula_units_Z 48
_cell_length_a 8.560674
_cell_length_b 20.257439
_cell_length_c 14.317162
_cell_angle_alpha 90.000000
_cell_angle_beta 90.000000
_cell_angle_gamma 90.000000
_cell_volume 2482.844027
_symmetry_space_group_name_H-M "I M M 2"
_symmetry_group_IT_number 44
_symmetry_cell_setting 'orthorhombic'
loop_
_space_group_symop_operation_xyz
x,y,z
-x,-y,z
-x,y,z
x,-y,z
1/2+x,1/2+y,1/2+z
1/2-x,1/2-y,1/2+z
1/2-x,1/2+y,1/2+z
1/2+x,1/2-y,1/2+z
loop_
_atom_site_type_symbol
_atom_site_label
_atom_site_fract_x
_atom_site_fract_y
_atom_site_fract_z
Si Si1 0.320208 0.805297 0.000000
Si Si2 0.320725 0.631877 0.201026
Si Si3 0.680150 0.272981 0.692255
Si Si4 0.680532 0.574968 0.399924
Si Si5 0.180043 0.574771 0.020715
Si Si6 0.181720 0.688953 0.882224
O O1 0.500000 0.787339 0.982832
O O2 0.286329 0.878722 0.964122
O O3 0.215027 0.753155 0.944466
O O4 0.283343 0.802804 0.109420
O O5 0.500000 0.655447 0.197904
O O6 0.211503 0.695594 0.204634
O O7 0.285666 0.587762 0.291134
O O8 0.284593 0.587776 0.111153
O O9 0.500000 0.283811 0.667692
O O10 0.720611 0.311113 0.787194
O O11 0.500000 0.588552 0.423334
O O12 0.727293 0.500000 0.422700
O O13 0.207393 0.500000 0.986427
O O14 0.000000 0.587754 0.047297
O O15 0.232040 0.623371 0.937792
O O16 0.000000 0.689090 0.856655
#
# Coordination Sequence:
#
# PCOD8190151 Si02
#       6
#     8   8   8   8   8   8
#     4  12  24  39  62  90 121 160 204 250 301 361
#     4  11  21  35  60  91 124 159 197 245 303 363
#     4  12  24  39  61  90 121 157 204 256 301 354
#     4  10  22  40  61  88 125 165 202 247 304 361
#     4  10  22  39  60  88 124 163 200 243 300 362
#     4  11  22  39  62  88 122 160 201 250 300 358
#
# _framework density 19.332668000000002
#
# number of rings (size 3 to 8) (size 9 to 14) (size 15 to 20)
#    0.000    1.000    3.333    4.500    0.000    2.667 
#    0.000    0.833    0.000    3.000    0.000    0.000 
#    0.000    0.000    0.000    0.000    0.000    0.000 
#
# Total GULP energy -297776.414293 kJ/mol
# GULP energy per Si atom -12407.350596 kJ/mol
# Density = 1.928867 g / cm^3
# Si number density = 19.332668 Si / 1000 Ang^3
#
#
#
# Elastic Constant Matrix: (Units=GPa)
#
#
# Indices 1 2 3 4 5 6 
#
# 1 59.9088 20.2973 12.1187 0.0000 0.0000 0.0000
# 2 20.2973 113.8346 39.0385 -0.0001 0.0000 0.0000
# 3 12.1187 39.0385 97.5765 -0.0001 0.0000 0.0000
# 4 0.0000 -0.0001 -0.0001 32.3563 0.0000 0.0000
# 5 0.0000 0.0000 0.0000 0.0000 33.5973 0.0000
# 6 0.0000 0.0000 0.0000 0.0000 0.0000 24.8424
#
#
#
# Elastic Compliance Matrix: (Units=1/GPa)
#
#
# Indices 1 2 3 4 5 6 
#
# 1 0.017866 -0.002810 -0.001095 0.000000 0.000000 0.000000
# 2 -0.002810 0.010624 -0.003901 0.000000 0.000000 0.000000
# 3 -0.001095 -0.003901 0.011945 0.000000 0.000000 0.000000
# 4 0.000000 0.000000 0.000000 0.030906 0.000000 0.000000
# 5 0.000000 0.000000 0.000000 0.000000 0.029764 0.000000
# 6 0.000000 0.000000 0.000000 0.000000 0.000000 0.040254
#
#
# Mechanical properties :
#
#
# Convention : Reuss Voigt Hill
#
# Bulk Modulus (GPa) = 40.28635 46.02545 43.15590
# Shear Modulus (GPa) = 30.25822 31.48356 30.87089
#
# Velocity S-wave (km/s) = 3.96047 4.03987 4.00036
# Velocity P-wave (km/s) = 6.46510 6.75422 6.61124
#
# Compressibility (1/GPa) = 0.02482230
#
# Stress axis : x y z
#
# Youngs Moduli (GPa) = 55.97366 94.12954 83.71594
#
# Poissons Ratio (x) = 0.26452 0.09163
# Poissons Ratio (y) = 0.15729 0.32660
# Poissons Ratio (z) = 0.06127 0.36723
#
# Static dielectric constant tensor:
#      x y z
#    x 3.592360 0.000000 0.000000 
#    y 0.000000 3.519610 0.000000 
#    z 0.000000 0.000000 3.581920 
# 
# 
# High freq. dielectric constant tensor:
#      x y z
#    x 1.757260 0.000000 0.000000 
#    y 0.000000 1.747650 0.000000 
#    z 0.000000 0.000000 1.753870 
# 
# From -- ./inp_files/16080.got.cif
#   From: 2010.03.12/outbox.cif.g09.slc.cpg/sg44_9_cif.got.tgz:16080.got - 2010.04.14 02:36:11.
