data_PCOD8190916
_publ_section_title
;
Structure prediction by ZEFSAII (Michael W. Deem and Ramdas Pophale) SiO2 
 PCOD8190916
Probable space group: I B A 2
;
_chemical_formula_sum "Si O2"
_cell_formula_units_Z 60
_cell_length_a 9.958707
_cell_length_b 30.642429
_cell_length_c 9.010479
_cell_angle_alpha 90.000000
_cell_angle_beta 90.000000
_cell_angle_gamma 90.000000
_cell_volume 2749.628510
_symmetry_space_group_name_H-M "I B A 2"
_symmetry_group_IT_number 45
_symmetry_cell_setting 'orthorhombic'
loop_
_space_group_symop_operation_xyz
x,y,z
-x,-y,z
-x,y,1/2+z
x,-y,1/2+z
1/2+x,1/2+y,1/2+z
1/2-x,1/2-y,1/2+z
1/2-x,1/2+y,z
1/2+x,1/2-y,z
loop_
_atom_site_type_symbol
_atom_site_label
_atom_site_fract_x
_atom_site_fract_y
_atom_site_fract_z
Si Si1 0.714762 0.829404 0.754860
Si Si2 0.107002 0.441400 0.096135
Si Si3 0.141711 0.889583 0.051284
Si Si4 0.500000 0.000000 0.849732
Si Si5 0.959970 0.213646 0.348635
Si Si6 0.617482 0.365447 0.223759
Si Si7 0.385318 0.132883 0.029671
Si Si8 0.994863 0.725013 0.615498
O O1 0.780215 0.846022 0.602307
O O2 0.830304 0.816628 0.873971
O O3 0.630387 0.787721 0.703574
O O4 0.640087 0.868302 0.849835
O O5 0.262993 0.428570 0.106306
O O6 0.080573 0.466065 0.249250
O O7 0.001610 0.401075 0.074047
O O8 0.100238 0.473626 0.955999
O O9 0.995289 0.889569 0.125317
O O10 0.130639 0.892465 0.875024
O O11 0.997374 0.234333 0.504122
O O12 0.079058 0.184468 0.271482
O O13 0.907113 0.253097 0.244640
O O14 0.756528 0.371835 0.135216
O O15 0.434232 0.182458 0.044354
#
# Coordination Sequence:
#
# PCOD8190916 Si02
#       8
#     8   8   8   4   8   8   8   8
#     4  11  24  40  60  91 129 178 239 288 340 388
#     4  11  23  45  74 104 141 166 216 269 333 425
#     4  11  23  44  71  95 133 175 225 277 332 406
#     4  10  24  42  74 114 136 170 198 270 350 404
#     4  11  25  41  56  84 135 180 236 294 333 384
#     4  11  25  44  67  97 133 187 233 284 341 383
#     4  12  25  42  69  99 132 179 235 282 335 409
#     4  12  25  38  58  92 125 185 231 290 337 385
#
# _framework density 21.82113
#
# number of rings (size 3 to 8) (size 9 to 14) (size 15 to 20)
#    0.000    0.800    2.667    5.600    7.467    0.000 
#    0.000    0.000    0.000   13.600    0.000    0.000 
#    0.000    0.000    0.000    0.000    0.000    0.000 
#
# Total GULP energy -371648.560545 kJ/mol
# GULP energy per Si atom -12388.285351 kJ/mol
# Density = 2.177146 g / cm^3
# Si number density = 21.821130 Si / 1000 Ang^3
#
#
#
# Elastic Constant Matrix: (Units=GPa)
#
#
# Indices 1 2 3 4 5 6 
#
# 1 105.4091 27.1006 28.1629 -0.0017 -0.0141 0.0004
# 2 27.1006 68.3982 2.8172 0.0015 -0.0100 0.0007
# 3 28.1629 2.8172 89.8552 -0.0082 -0.0370 -0.0036
# 4 -0.0017 0.0015 -0.0082 9.0545 -0.0075 -0.0002
# 5 -0.0141 -0.0100 -0.0370 -0.0075 20.9923 -0.0038
# 6 0.0004 0.0007 -0.0036 -0.0002 -0.0038 25.0782
#
#
#
# Elastic Compliance Matrix: (Units=1/GPa)
#
#
# Indices 1 2 3 4 5 6 
#
# 1 0.011558 -0.004436 -0.003484 0.000000 0.000000 -0.000001
# 2 -0.004436 0.016342 0.000878 -0.000003 0.000006 0.000000
# 3 -0.003484 0.000878 0.012193 0.000010 0.000020 0.000002
# 4 0.000000 -0.000003 0.000010 0.110442 0.000039 0.000001
# 5 0.000000 0.000006 0.000020 0.000039 0.047637 0.000007
# 6 -0.000001 0.000000 0.000002 0.000001 0.000007 0.039875
#
#
# Mechanical properties :
#
#
# Convention : Reuss Voigt Hill
#
# Bulk Modulus (GPa) = 38.44667 42.20265 40.32466
# Shear Modulus (GPa) = 19.17178 24.73047 21.95112
#
# Velocity S-wave (km/s) = 2.96731 3.37014 3.17512
# Velocity P-wave (km/s) = 5.42192 5.87589 5.65346
#
# Compressibility (1/GPa) = 0.02601006
#
# Stress axis : x y z
#
# Youngs Moduli (GPa) = 86.51975 61.19305 82.01217
#
# Poissons Ratio (x) = 0.27145 0.28569
# Poissons Ratio (y) = 0.38380 -0.07201
# Poissons Ratio (z) = 0.30139 -0.05373
#
# Static dielectric constant tensor:
#      x y z
#    x 4.021160 0.000000 0.000000 
#    y 0.000000 4.009300 -0.000010 
#    z 0.000000 -0.000010 4.193490 
# 
# 
# High freq. dielectric constant tensor:
#      x y z
#    x 1.853380 0.000000 0.000000 
#    y 0.000000 1.836550 0.000000 
#    z 0.000000 0.000000 1.886600 
# 
# From -- ./inp_files/1440.got.cif
#   From: 2010.03.12/outbox.cif.g09.slc.cpg/sg45_1_cif.got.tgz:1440.got - 2010.04.14 02:50:11.
