data_PCOD8190574
_publ_section_title
;
Structure prediction by ZEFSAII (Michael W. Deem and Ramdas Pophale) SiO2 
 PCOD8190574
Probable space group: I B A 2
;
_chemical_formula_sum "Si O2"
_cell_formula_units_Z 56
_cell_length_a 21.475173
_cell_length_b 7.420243
_cell_length_c 16.754147
_cell_angle_alpha 90.000000
_cell_angle_beta 90.000000
_cell_angle_gamma 90.000000
_cell_volume 2669.790114
_symmetry_space_group_name_H-M "I B A 2"
_symmetry_group_IT_number 45
_symmetry_cell_setting 'orthorhombic'
loop_
_space_group_symop_operation_xyz
x,y,z
-x,-y,z
-x,y,1/2+z
x,-y,1/2+z
1/2+x,1/2+y,1/2+z
1/2-x,1/2-y,1/2+z
1/2-x,1/2+y,z
1/2+x,1/2-y,z
loop_
_atom_site_type_symbol
_atom_site_label
_atom_site_fract_x
_atom_site_fract_y
_atom_site_fract_z
Si Si1 0.063175 0.595754 0.718490
Si Si2 0.689371 0.104236 0.514890
Si Si3 0.865938 0.758223 0.667633
Si Si4 0.838436 0.328116 0.841284
Si Si5 0.294004 0.776057 0.816836
Si Si6 0.672629 0.304744 0.989680
Si Si7 0.435934 0.576139 0.099374
O O1 0.103577 0.433454 0.684678
O O2 0.097128 0.701850 0.792462
O O3 0.051942 0.738305 0.647375
O O4 0.000000 0.500000 0.749482
O O5 0.670100 0.235390 0.585291
O O6 0.655715 0.190340 0.436814
O O7 0.764092 0.098450 0.516006
O O8 0.668146 0.898431 0.522470
O O9 0.818189 0.819311 0.736766
O O10 0.913607 0.923544 0.661469
O O11 0.780901 0.201859 0.815369
O O12 0.816663 0.523283 0.817034
O O13 0.325429 0.678758 0.893431
O O14 0.612613 0.403030 0.026563
O O15 0.500000 0.500000 0.061642
#
# Coordination Sequence:
#
# PCOD8190574 Si02
#       7
#     8   8   8   8   8   8   8
#     4  11  23  44  63  87 133 169 216 270 310 381
#     4  10  20  39  65  96 131 166 209 272 326 379
#     4  11  23  40  65  94 128 165 216 270 321 379
#     4   9  21  38  64  92 128 172 205 264 330 377
#     4   9  21  38  61  94 130 160 210 267 325 378
#     4  10  21  40  62  93 134 168 212 266 323 383
#     4  12  25  41  65  92 125 175 221 261 317 382
#
# _framework density 20.975432000000001
#
# number of rings (size 3 to 8) (size 9 to 14) (size 15 to 20)
#    0.000    1.714    2.857    0.857    4.000    2.286 
#    0.000    5.714    0.000    0.000    0.000    0.000 
#    0.000    0.000    0.000    0.000    0.000    0.000 
#
# Total GULP energy -347007.296327 kJ/mol
# GULP energy per Si atom -12393.117726 kJ/mol
# Density = 2.092769 g / cm^3
# Si number density = 20.975432 Si / 1000 Ang^3
#
#
#
# Elastic Constant Matrix: (Units=GPa)
#
#
# Indices 1 2 3 4 5 6 
#
# 1 -55.4791 224.9416 -43.2992 0.0000 0.0000 0.0000
# 2 224.9416 -166.4420 152.3775 0.0000 0.0000 0.0000
# 3 -43.2992 152.3775 54.3318 0.0000 0.0000 0.0000
# 4 0.0000 0.0000 0.0000 22.0087 0.0000 0.0000
# 5 0.0000 0.0000 0.0000 0.0000 29.6115 0.0000
# 6 0.0000 0.0000 0.0000 0.0000 0.0000 39.7925
#
#
#
# Elastic Compliance Matrix: (Units=1/GPa)
#
#
# Indices 1 2 3 4 5 6 
#
# 1 0.008923 0.005205 -0.007487 0.000000 0.000000 0.000000
# 2 0.005205 0.001352 0.000356 0.000000 0.000000 0.000000
# 3 -0.007487 0.000356 0.011441 0.000000 0.000000 0.000000
# 4 0.000000 0.000000 0.000000 0.045437 0.000000 0.000000
# 5 0.000000 0.000000 0.000000 0.000000 0.033771 0.000000
# 6 0.000000 0.000000 0.000000 0.000000 0.000000 0.025130
#
#
# Mechanical properties :
#
#
# Convention : Reuss Voigt Hill
#
# Bulk Modulus (GPa) = 55.97721 55.60561 55.79141
# Shear Modulus (GPa) = 36.80218 -15.15809 10.82205
#
# Velocity S-wave (km/s) = 4.19326 -2.69115 2.27389
# Velocity P-wave (km/s) = 7.08446 4.11230 5.79226
#
# Compressibility (1/GPa) = 0.01786441
#
# Stress axis : x y z
#
# Youngs Moduli (GPa) = 112.06542 739.49280 87.40446
#
# Poissons Ratio (x) = -3.84924 0.65440
# Poissons Ratio (y) = -0.58333 -0.03109
# Poissons Ratio (z) = 0.83904 -0.26304
#
# Static dielectric constant tensor:
#      x y z
#    x 4.009560 0.000000 0.000000 
#    y 0.000000 3.791380 0.000000 
#    z 0.000000 0.000000 6.348760 
# 
# 
# High freq. dielectric constant tensor:
#      x y z
#    x 1.808550 0.000000 0.000000 
#    y 0.000000 1.832170 0.000000 
#    z 0.000000 0.000000 1.816240 
# 
# From -- ./inp_files/6934.got.cif
#   From: 2010.03.12/outbox.cif.g09.slc.cpg/sg45_4_cif.got.tgz:6934.got - 2010.04.14 02:50:11.
