data_PCOD8190720
_publ_section_title
;
Structure prediction by ZEFSAII (Michael W. Deem and Ramdas Pophale) SiO2 
 PCOD8190720
Probable space group: I B A 2
;
_chemical_formula_sum "Si O2"
_cell_formula_units_Z 40
_cell_length_a 14.377290
_cell_length_b 22.848458
_cell_length_c 5.219032
_cell_angle_alpha 90.000000
_cell_angle_beta 90.000000
_cell_angle_gamma 90.000000
_cell_volume 1714.446306
_symmetry_space_group_name_H-M "I B A 2"
_symmetry_group_IT_number 45
_symmetry_cell_setting 'orthorhombic'
loop_
_space_group_symop_operation_xyz
x,y,z
-x,-y,z
-x,y,1/2+z
x,-y,1/2+z
1/2+x,1/2+y,1/2+z
1/2-x,1/2-y,1/2+z
1/2-x,1/2+y,z
1/2+x,1/2-y,z
loop_
_atom_site_type_symbol
_atom_site_label
_atom_site_fract_x
_atom_site_fract_y
_atom_site_fract_z
Si Si1 0.060508 0.262733 0.006540
Si Si2 0.397244 0.524601 0.918273
Si Si3 0.675504 0.645879 0.505641
Si Si4 0.460023 0.934551 0.919345
Si Si5 0.294753 0.133909 0.505267
O O1 0.123810 0.206069 0.964170
O O2 0.125624 0.318139 0.964666
O O3 0.019301 0.262054 0.292034
O O4 0.500000 0.500000 0.861839
O O5 0.345090 0.489957 0.149448
O O6 0.398935 0.593572 0.972647
O O7 0.754685 0.638356 0.290768
O O8 0.716288 0.642360 0.791513
O O9 0.486894 0.902218 0.653792
O O10 0.500000 0.000000 0.882950
O O11 0.348650 0.928580 0.965748
#
# Coordination Sequence:
#
# PCOD8190720 Si02
#       5
#     8   8   8   8   8
#     4  12  26  44  76 102 138 186 231 275 349 423
#     4  10  23  43  68  93 139 178 230 280 333 411
#     4  12  26  44  71 103 142 178 226 295 350 399
#     4  10  21  41  65  90 129 177 224 274 325 407
#     4  12  24  46  68 106 140 177 229 290 349 396
#
# _framework density 23.331147999999999
#
# number of rings (size 3 to 8) (size 9 to 14) (size 15 to 20)
#    0.000    0.800    0.000    7.200    5.600    0.000 
#   21.600    0.000    0.000    0.000    0.000    0.000 
#    0.000    0.000    0.000    0.000    0.000    0.000 
#
# Total GULP energy -247920.425495 kJ/mol
# GULP energy per Si atom -12396.021275 kJ/mol
# Density = 2.327805 g / cm^3
# Si number density = 23.331148 Si / 1000 Ang^3
#
#
#
# Elastic Constant Matrix: (Units=GPa)
#
#
# Indices 1 2 3 4 5 6 
#
# 1 70.8786 28.7068 -0.8237 -0.0001 -0.0005 -0.0004
# 2 28.7068 87.3429 -10.2470 0.0003 -0.0005 -0.0002
# 3 -0.8237 -10.2470 153.0344 -0.0004 -0.0018 -0.0026
# 4 -0.0001 0.0003 -0.0004 17.1081 -0.0004 -0.0002
# 5 -0.0005 -0.0005 -0.0018 -0.0004 33.7963 -0.0003
# 6 -0.0004 -0.0002 -0.0026 -0.0002 -0.0003 46.2958
#
#
#
# Elastic Compliance Matrix: (Units=1/GPa)
#
#
# Indices 1 2 3 4 5 6 
#
# 1 0.016286 -0.005385 -0.000273 0.000000 0.000000 0.000000
# 2 -0.005385 0.013320 0.000863 0.000000 0.000000 0.000000
# 3 -0.000273 0.000863 0.006591 0.000000 0.000000 0.000000
# 4 0.000000 0.000000 0.000000 0.058452 0.000001 0.000000
# 5 0.000000 0.000000 0.000000 0.000001 0.029589 0.000000
# 6 0.000000 0.000000 0.000000 0.000000 0.000000 0.021600
#
#
# Mechanical properties :
#
#
# Convention : Reuss Voigt Hill
#
# Bulk Modulus (GPa) = 37.58304 38.50312 38.04308
# Shear Modulus (GPa) = 30.43262 39.01470 34.72366
#
# Velocity S-wave (km/s) = 3.61553 4.09371 3.86203
# Velocity P-wave (km/s) = 5.79422 6.23565 6.01898
#
# Compressibility (1/GPa) = 0.02660774
#
# Stress axis : x y z
#
# Youngs Moduli (GPa) = 61.40103 75.07409 151.72689
#
# Poissons Ratio (x) = 0.40426 0.04141
# Poissons Ratio (y) = 0.33063 -0.13093
# Poissons Ratio (z) = 0.01676 -0.06478
#
# Static dielectric constant tensor:
#      x y z
#    x 4.163380 0.000000 0.000000 
#    y 0.000000 4.347050 0.000000 
#    z 0.000000 0.000000 5.315370 
# 
# 
# High freq. dielectric constant tensor:
#      x y z
#    x 1.907800 0.000000 0.000000 
#    y 0.000000 1.925690 0.000000 
#    z 0.000000 0.000000 1.962970 
# 
# From -- ./inp_files/93.got.cif
#   From: 2010.03.12/outbox.cif.g09.slc.cpg/sg45_1_cif.got.tgz:93.got - 2010.04.14 02:50:11.
