data_PCOD8190432
_publ_section_title
;
Structure prediction by ZEFSAII (Michael W. Deem and Ramdas Pophale) SiO2 
 PCOD8190432
Probable space group: I B A 2
;
_chemical_formula_sum "Si O2"
_cell_formula_units_Z 56
_cell_length_a 5.144397
_cell_length_b 31.048002
_cell_length_c 16.282577
_cell_angle_alpha 90.000000
_cell_angle_beta 90.000000
_cell_angle_gamma 90.000000
_cell_volume 2600.706090
_symmetry_space_group_name_H-M "I B A 2"
_symmetry_group_IT_number 45
_symmetry_cell_setting 'orthorhombic'
loop_
_space_group_symop_operation_xyz
x,y,z
-x,-y,z
-x,y,1/2+z
x,-y,1/2+z
1/2+x,1/2+y,1/2+z
1/2-x,1/2-y,1/2+z
1/2-x,1/2+y,z
1/2+x,1/2-y,z
loop_
_atom_site_type_symbol
_atom_site_label
_atom_site_fract_x
_atom_site_fract_y
_atom_site_fract_z
Si Si1 0.887090 0.391557 0.202920
Si Si2 0.151066 0.227032 0.559894
Si Si3 0.344005 0.235006 0.879945
Si Si4 0.745580 0.472505 0.310065
Si Si5 0.938722 0.360649 0.869395
Si Si6 0.884221 0.872572 0.603764
Si Si7 0.564743 0.595538 0.931571
O O1 0.826477 0.438358 0.240543
O O2 0.615761 0.372896 0.169852
O O3 0.998511 0.359740 0.272790
O O4 0.114193 0.393393 0.135209
O O5 0.398753 0.250701 0.600331
O O6 0.148052 0.235540 0.462102
O O7 0.162302 0.176274 0.575929
O O8 0.595667 0.249363 0.827591
O O9 0.334725 0.184932 0.901159
O O10 0.500000 0.500000 0.276904
O O11 0.658586 0.450149 0.395583
O O12 0.000000 0.500000 0.330535
O O13 0.707749 0.394248 0.886910
O O14 0.205238 0.370303 0.916313
O O15 0.978414 0.903588 0.529334
#
# Coordination Sequence:
#
# PCOD8190432 Si02
#       7
#     8   8   8   8   8   8   8
#     4  11  25  42  65  94 132 174 204 256 334 396
#     4  10  19  34  56  85 121 167 212 260 311 353
#     4  10  19  32  55  85 114 158 218 270 303 339
#     4  11  23  45  70  95 124 164 213 262 317 393
#     4  11  21  41  63  90 124 171 223 258 303 389
#     4  12  23  41  64  98 134 169 214 264 323 388
#     4  11  22  39  69  95 121 163 212 262 311 378
#
# _framework density 21.532613000000001
#
# number of rings (size 3 to 8) (size 9 to 14) (size 15 to 20)
#    0.000    1.143    0.000   10.286    0.000    0.000 
#    0.000    8.571    0.000    0.000    0.000    0.000 
#    0.000    0.000    0.000    0.000    0.000    0.000 
#
# Total GULP energy -347078.324277 kJ/mol
# GULP energy per Si atom -12395.654438 kJ/mol
# Density = 2.148360 g / cm^3
# Si number density = 21.532613 Si / 1000 Ang^3
#
#
#
# Elastic Constant Matrix: (Units=GPa)
#
#
# Indices 1 2 3 4 5 6 
#
# 1 176.4645 42.4892 31.2598 0.0000 0.0000 0.0000
# 2 42.4892 115.2196 44.7966 0.0000 0.0000 0.0000
# 3 31.2598 44.7966 79.7275 0.0000 0.0000 0.0000
# 4 0.0000 0.0000 0.0000 24.8381 0.0000 0.0000
# 5 0.0000 0.0000 0.0000 0.0000 24.9088 0.0000
# 6 0.0000 0.0000 0.0000 0.0000 0.0000 46.5989
#
#
#
# Elastic Compliance Matrix: (Units=1/GPa)
#
#
# Indices 1 2 3 4 5 6 
#
# 1 0.006357 -0.001760 -0.001504 0.000000 0.000000 0.000000
# 2 -0.001760 0.011592 -0.005823 0.000000 0.000000 0.000000
# 3 -0.001504 -0.005823 0.016404 0.000000 0.000000 0.000000
# 4 0.000000 0.000000 0.000000 0.040261 0.000000 0.000000
# 5 0.000000 0.000000 0.000000 0.000000 0.040146 0.000000
# 6 0.000000 0.000000 0.000000 0.000000 0.000000 0.021460
#
#
# Mechanical properties :
#
#
# Convention : Reuss Voigt Hill
#
# Bulk Modulus (GPa) = 61.80520 67.61142 64.70831
# Shear Modulus (GPa) = 31.29171 36.12691 33.70931
#
# Velocity S-wave (km/s) = 3.81625 4.10051 3.96093
# Velocity P-wave (km/s) = 6.94145 7.34075 7.14389
#
# Compressibility (1/GPa) = 0.01617987
#
# Stress axis : x y z
#
# Youngs Moduli (GPa) = 157.30894 86.26636 60.95967
#
# Poissons Ratio (x) = 0.15179 0.09167
# Poissons Ratio (y) = 0.27679 0.35499
# Poissons Ratio (z) = 0.23656 0.50236
#
# Static dielectric constant tensor:
#      x y z
#    x 6.410500 0.000000 0.000000 
#    y 0.000000 3.769440 0.000000 
#    z 0.000000 0.000000 3.702810 
# 
# 
# High freq. dielectric constant tensor:
#      x y z
#    x 1.886500 0.000000 0.000000 
#    y 0.000000 1.836930 0.000000 
#    z 0.000000 0.000000 1.814640 
# 
# From -- ./inp_files/5286.got.cif
#   From: 2010.03.12/outbox.cif.g09.slc.cpg/sg45_3_cif.got.tgz:5286.got - 2010.04.14 02:50:11.
