data_PCOD8190862
_publ_section_title
;
Structure prediction by ZEFSAII (Michael W. Deem and Ramdas Pophale) SiO2 
 PCOD8190862
Probable space group: I B A 2
;
_chemical_formula_sum "Si O2"
_cell_formula_units_Z 56
_cell_length_a 8.627012
_cell_length_b 15.122343
_cell_length_c 19.457736
_cell_angle_alpha 90.000000
_cell_angle_beta 90.000000
_cell_angle_gamma 90.000000
_cell_volume 2538.468585
_symmetry_space_group_name_H-M "I B A 2"
_symmetry_group_IT_number 45
_symmetry_cell_setting 'orthorhombic'
loop_
_space_group_symop_operation_xyz
x,y,z
-x,-y,z
-x,y,1/2+z
x,-y,1/2+z
1/2+x,1/2+y,1/2+z
1/2-x,1/2-y,1/2+z
1/2-x,1/2+y,z
1/2+x,1/2-y,z
loop_
_atom_site_type_symbol
_atom_site_label
_atom_site_fract_x
_atom_site_fract_y
_atom_site_fract_z
Si Si1 0.351787 0.060967 0.939130
Si Si2 0.792853 0.332681 0.715525
Si Si3 0.213261 0.186856 0.323620
Si Si4 0.794706 0.170981 0.536674
Si Si5 0.966413 0.751844 0.626438
Si Si6 0.019452 0.741306 0.415530
Si Si7 0.684426 0.504345 0.300602
O O1 0.400586 0.162932 0.932447
O O2 0.249977 0.028585 0.875790
O O3 0.500000 0.000000 0.952920
O O4 0.241159 0.071494 0.007198
O O5 0.843498 0.265970 0.775252
O O6 0.631963 0.298828 0.684811
O O7 0.762065 0.431031 0.744582
O O8 0.930919 0.328986 0.658897
O O9 0.380089 0.207231 0.352707
O O10 0.084469 0.177686 0.385004
O O11 0.235297 0.095242 0.282379
O O12 0.635150 0.214986 0.563595
O O13 0.871952 0.232257 0.478181
O O14 0.917857 0.170799 0.598881
O O15 0.500000 0.500000 0.300368
#
# Coordination Sequence:
#
# PCOD8190862 Si02
#       7
#     8   8   8   8   8   8   8
#     4  12  24  41  65 104 137 168 220 285 354 417
#     4  11  23  44  65  96 134 179 234 273 332 412
#     4  12  23  39  70 100 134 171 214 280 356 413
#     4  11  21  43  69  94 128 178 232 275 330 407
#     4  10  23  41  71  88 126 191 234 269 326 398
#     4  12  21  40  71 100 128 174 214 279 356 415
#     4  12  25  41  66 102 140 170 217 285 352 420
#
# _framework density 22.060545999999999
#
# number of rings (size 3 to 8) (size 9 to 14) (size 15 to 20)
#    0.000    0.571    5.714    3.429    0.000    0.000 
#    0.000    4.286    3.143    0.000    0.000    0.000 
#    0.000    0.000    0.000    0.000    0.000    0.000 
#
# Total GULP energy -347012.102167 kJ/mol
# GULP energy per Si atom -12393.289363 kJ/mol
# Density = 2.201034 g / cm^3
# Si number density = 22.060546 Si / 1000 Ang^3
#
#
#
# Elastic Constant Matrix: (Units=GPa)
#
#
# Indices 1 2 3 4 5 6 
#
# 1 121.0700 34.9803 48.0724 0.0000 0.0000 0.0000
# 2 34.9803 110.8549 35.5143 0.0000 0.0000 0.0000
# 3 48.0724 35.5143 77.1802 0.0000 0.0000 0.0000
# 4 0.0000 0.0000 0.0000 7.1549 0.0000 0.0000
# 5 0.0000 0.0000 0.0000 0.0000 176.8918 0.0000
# 6 0.0000 0.0000 0.0000 0.0000 0.0000 21.9220
#
#
#
# Elastic Compliance Matrix: (Units=1/GPa)
#
#
# Indices 1 2 3 4 5 6 
#
# 1 0.011188 -0.001522 -0.006268 0.000000 0.000000 0.000000
# 2 -0.001522 0.010788 -0.004016 0.000000 0.000000 0.000000
# 3 -0.006268 -0.004016 0.018709 0.000000 0.000000 0.000000
# 4 0.000000 0.000000 0.000000 0.139764 0.000000 0.000000
# 5 0.000000 0.000000 0.000000 0.000000 0.005653 0.000000
# 6 0.000000 0.000000 0.000000 0.000000 0.000000 0.045616
#
#
# Mechanical properties :
#
#
# Convention : Reuss Voigt Hill
#
# Bulk Modulus (GPa) = 58.57493 60.69322 59.63408
# Shear Modulus (GPa) = 19.15549 53.89628 36.52589
#
# Velocity S-wave (km/s) = 2.94991 4.94814 4.07346
# Velocity P-wave (km/s) = 6.18160 7.75998 7.01532
#
# Compressibility (1/GPa) = 0.01707215
#
# Stress axis : x y z
#
# Youngs Moduli (GPa) = 89.37791 92.69830 53.45083
#
# Poissons Ratio (x) = 0.14112 0.33505
# Poissons Ratio (y) = 0.13607 0.21464
# Poissons Ratio (z) = 0.56025 0.37225
#
# Static dielectric constant tensor:
#      x y z
#    x 4.295000 0.000000 0.000000 
#    y 0.000000 3.929410 0.000000 
#    z 0.000000 0.000000 4.450890 
# 
# 
# High freq. dielectric constant tensor:
#      x y z
#    x 1.900080 0.000000 0.000000 
#    y 0.000000 1.835440 0.000000 
#    z 0.000000 0.000000 1.871390 
# 
# From -- ./inp_files/8872.got.cif
#   From: 2010.03.12/outbox.cif.g09.slc.cpg/sg45_5_cif.got.tgz:8872.got - 2010.04.14 02:50:11.
