data_PCOD8190296
_publ_section_title
;
Structure prediction by ZEFSAII (Michael W. Deem and Ramdas Pophale) SiO2 
 PCOD8190296
Probable space group: I M M 2
;
_chemical_formula_sum "Si O2"
_cell_formula_units_Z 32
_cell_length_a 8.801886
_cell_length_b 7.809332
_cell_length_c 24.308863
_cell_angle_alpha 90.000000
_cell_angle_beta 90.000000
_cell_angle_gamma 90.000000
_cell_volume 1670.914670
_symmetry_space_group_name_H-M "I M M 2"
_symmetry_group_IT_number 44
_symmetry_cell_setting 'orthorhombic'
loop_
_space_group_symop_operation_xyz
x,y,z
-x,-y,z
-x,y,z
x,-y,z
1/2+x,1/2+y,1/2+z
1/2-x,1/2-y,1/2+z
1/2-x,1/2+y,1/2+z
1/2+x,1/2-y,1/2+z
loop_
_atom_site_type_symbol
_atom_site_label
_atom_site_fract_x
_atom_site_fract_y
_atom_site_fract_z
Si Si1 0.180517 0.185967 0.159460
Si Si2 0.820917 0.699344 0.395489
Si Si3 0.680384 0.809782 0.773920
Si Si4 0.818762 0.500000 0.088879
Si Si5 0.679715 0.000000 0.464212
O O1 0.241579 0.199287 0.222504
O O2 0.247672 0.332498 0.119910
O O3 0.000000 0.203928 0.160593
O O4 0.230461 0.000000 0.136556
O O5 0.777695 0.500000 0.406829
O O6 0.766242 0.755635 0.334008
O O7 0.000000 0.725096 0.402217
O O8 0.737582 0.824850 0.437263
O O9 0.500000 0.812047 0.774681
O O10 0.743032 0.000000 0.764292
O O11 0.000000 0.500000 0.090698
O O12 0.759549 0.500000 0.026693
O O13 0.500000 0.000000 0.461757
#
# Coordination Sequence:
#
# PCOD8190296 Si02
#       5
#     8   8   8   4   4
#     4   9  15  23  40  66  95 127 158 200 262 314
#     4   9  19  35  55  80 107 136 175 224 269 310
#     4   8  13  24  44  71 102 125 151 205 269 315
#     4   9  18  31  41  61 103 139 168 205 250 310
#     4  11  23  35  51  75 109 153 184 209 252 314
#
# _framework density 19.151187
#
# number of rings (size 3 to 8) (size 9 to 14) (size 15 to 20)
#    0.000    3.000    1.250    1.875    1.750    1.500 
#    0.000    2.500    0.000    0.000    0.000    3.500 
#    0.000    0.000    0.000    0.000    0.000    0.000 
#
# Total GULP energy -198229.335629 kJ/mol
# GULP energy per Si atom -12389.333477 kJ/mol
# Density = 1.910760 g / cm^3
# Si number density = 19.151187 Si / 1000 Ang^3
#
#
#
# Elastic Constant Matrix: (Units=GPa)
#
#
# Indices 1 2 3 4 5 6 
#
# 1 21.6705 22.2638 23.6945 0.0000 0.0000 0.0000
# 2 22.2638 158.2921 100.7700 0.0000 0.0000 0.0000
# 3 23.6945 100.7700 173.9021 0.0000 0.0000 0.0000
# 4 0.0000 0.0000 0.0000 27.7269 0.0000 0.0000
# 5 0.0000 0.0000 0.0000 0.0000 19.2911 0.0000
# 6 0.0000 0.0000 0.0000 0.0000 0.0000 17.2237
#
#
#
# Elastic Compliance Matrix: (Units=1/GPa)
#
#
# Indices 1 2 3 4 5 6 
#
# 1 0.056455 -0.004823 -0.004898 0.000000 0.000000 0.000000
# 2 -0.004823 0.010422 -0.005382 0.000000 0.000000 0.000000
# 3 -0.004898 -0.005382 0.009536 0.000000 0.000000 0.000000
# 4 0.000000 0.000000 0.000000 0.036066 0.000000 0.000000
# 5 0.000000 0.000000 0.000000 0.000000 0.051837 0.000000
# 6 0.000000 0.000000 0.000000 0.000000 0.000000 0.058060
#
#
# Mechanical properties :
#
#
# Convention : Reuss Voigt Hill
#
# Bulk Modulus (GPa) = 21.64075 71.92459 46.78267
# Shear Modulus (GPa) = 18.65781 26.65744 22.65762
#
# Velocity S-wave (km/s) = 3.12466 3.73493 3.44334
# Velocity P-wave (km/s) = 4.93381 7.49915 6.34743
#
# Compressibility (1/GPa) = 0.04620911
#
# Stress axis : x y z
#
# Youngs Moduli (GPa) = 17.71314 95.95077 104.86127
#
# Poissons Ratio (x) = 0.46273 0.51357
# Poissons Ratio (y) = 0.08542 0.56437
# Poissons Ratio (z) = 0.08675 0.51642
#
# Static dielectric constant tensor:
#      x y z
#    x 2.770230 0.000000 0.000000 
#    y 0.000000 3.661510 0.000000 
#    z 0.000000 0.000000 3.795920 
# 
# 
# High freq. dielectric constant tensor:
#      x y z
#    x 1.666090 0.000000 0.000000 
#    y 0.000000 1.755330 0.000000 
#    z 0.000000 0.000000 1.752460 
# 
# From -- ./inp_files/23515.got.cif
#   From: 2010.03.12/outbox.cif.g09.slc.cpg/sg44_12_cif.got.tgz:23515.got - 2010.04.14 02:36:11.
