data_PCOD8190402
_publ_section_title
;
Structure prediction by ZEFSAII (Michael W. Deem and Ramdas Pophale) SiO2 
 PCOD8190402
Probable space group: I B A 2
;
_chemical_formula_sum "Si O2"
_cell_formula_units_Z 44
_cell_length_a 13.820514
_cell_length_b 9.605424
_cell_length_c 16.335681
_cell_angle_alpha 90.000000
_cell_angle_beta 90.000000
_cell_angle_gamma 90.000000
_cell_volume 2168.592639
_symmetry_space_group_name_H-M "I B A 2"
_symmetry_group_IT_number 45
_symmetry_cell_setting 'orthorhombic'
loop_
_space_group_symop_operation_xyz
x,y,z
-x,-y,z
-x,y,1/2+z
x,-y,1/2+z
1/2+x,1/2+y,1/2+z
1/2-x,1/2-y,1/2+z
1/2-x,1/2+y,z
1/2+x,1/2-y,z
loop_
_atom_site_type_symbol
_atom_site_label
_atom_site_fract_x
_atom_site_fract_y
_atom_site_fract_z
Si Si1 0.692590 0.021081 0.046890
Si Si2 0.560798 0.213486 0.259173
Si Si3 0.779670 0.209204 0.644409
Si Si4 0.650231 0.273983 0.782715
Si Si5 0.500000 0.000000 0.124645
Si Si6 0.300184 0.976445 0.357053
O O1 0.770309 0.940732 0.102871
O O2 0.694422 0.183055 0.071751
O O3 0.587648 0.956969 0.065765
O O4 0.714072 0.992183 0.953172
O O5 0.642170 0.311693 0.218116
O O6 0.466164 0.293963 0.293071
O O7 0.527723 0.125131 0.182392
O O8 0.608107 0.119673 0.331269
O O9 0.680495 0.262288 0.687369
O O10 0.701533 0.407291 0.823525
O O11 0.684484 0.130061 0.823292
#
# Coordination Sequence:
#
# PCOD8190402 Si02
#       6
#     8   8   8   8   4   8
#     4  11  22  38  59  94 124 157 200 261 308 348
#     4  10  19  37  63  86 113 165 210 241 290 379
#     4  10  21  39  63  85 122 162 206 246 298 364
#     4  11  20  40  61  87 119 162 209 244 301 375
#     4  10  18  34  62  82 116 158 214 234 286 368
#     4  11  23  36  63  91 125 155 203 263 309 355
#
# _framework density 20.289656000000001
#
# number of rings (size 3 to 8) (size 9 to 14) (size 15 to 20)
#    0.000    1.455    3.636    3.273    2.545    0.000 
#    0.000    8.182    0.000    4.364    0.000    0.000 
#    0.000    0.000    0.000    0.000    0.000    0.000 
#
# Total GULP energy -272667.416862 kJ/mol
# GULP energy per Si atom -12393.973494 kJ/mol
# Density = 2.024348 g / cm^3
# Si number density = 20.289656 Si / 1000 Ang^3
#
#
#
# Elastic Constant Matrix: (Units=GPa)
#
#
# Indices 1 2 3 4 5 6 
#
# 1 89.1591 37.1232 15.1531 0.0000 0.0000 0.0000
# 2 37.1232 54.3968 19.9659 0.0000 0.0000 0.0000
# 3 15.1531 19.9659 96.9158 0.0000 0.0000 0.0000
# 4 0.0000 0.0000 0.0000 -2.0698 0.0000 0.0000
# 5 0.0000 0.0000 0.0000 0.0000 14.3007 0.0000
# 6 0.0000 0.0000 0.0000 0.0000 0.0000 23.0523
#
#
#
# Elastic Compliance Matrix: (Units=1/GPa)
#
#
# Indices 1 2 3 4 5 6 
#
# 1 0.015674 -0.010599 -0.000267 0.000000 0.000000 0.000000
# 2 -0.010599 0.027054 -0.003916 0.000000 0.000000 0.000000
# 3 -0.000267 -0.003916 0.011167 0.000000 0.000000 0.000000
# 4 0.000000 0.000000 0.000000 -0.483140 0.000000 0.000000
# 5 0.000000 0.000000 0.000000 0.000000 0.069927 0.000000
# 6 0.000000 0.000000 0.000000 0.000000 0.000000 0.043380
#
#
# Mechanical properties :
#
#
# Convention : Reuss Voigt Hill
#
# Bulk Modulus (GPa) = 41.10084 42.77290 41.93687
# Shear Modulus (GPa) = -17.96858 18.27194 0.15168
#
# Velocity S-wave (km/s) = -2.97914 3.00418 0.27371
# Velocity P-wave (km/s) = 2.90987 5.75850 4.56222
#
# Compressibility (1/GPa) = 0.02433040
#
# Stress axis : x y z
#
# Youngs Moduli (GPa) = 63.79829 36.96289 89.55085
#
# Poissons Ratio (x) = 0.39177 0.02393
# Poissons Ratio (y) = 0.67619 0.35071
# Poissons Ratio (z) = 0.01705 0.14476
#
# Static dielectric constant tensor:
#      x y z
#    x 4.837090 0.000000 0.000000 
#    y 0.000000 3.845080 0.000000 
#    z 0.000000 0.000000 3.670100 
# 
# 
# High freq. dielectric constant tensor:
#      x y z
#    x 1.796760 0.000000 0.000000 
#    y 0.000000 1.777650 0.000000 
#    z 0.000000 0.000000 1.787650 
# 
# From -- ./inp_files/6065.got.cif
#   From: 2010.03.12/outbox.cif.g09.slc.cpg/sg45_4_cif.got.tgz:6065.got - 2010.04.14 02:50:11.
