data_PCOD8190883
_publ_section_title
;
Structure prediction by ZEFSAII (Michael W. Deem and Ramdas Pophale) SiO2 
 PCOD8190883
Probable space group: I B A 2
;
_chemical_formula_sum "Si O2"
_cell_formula_units_Z 44
_cell_length_a 11.273803
_cell_length_b 18.084464
_cell_length_c 10.181212
_cell_angle_alpha 90.000000
_cell_angle_beta 90.000000
_cell_angle_gamma 90.000000
_cell_volume 2075.752472
_symmetry_space_group_name_H-M "I B A 2"
_symmetry_group_IT_number 45
_symmetry_cell_setting 'orthorhombic'
loop_
_space_group_symop_operation_xyz
x,y,z
-x,-y,z
-x,y,1/2+z
x,-y,1/2+z
1/2+x,1/2+y,1/2+z
1/2-x,1/2-y,1/2+z
1/2-x,1/2+y,z
1/2+x,1/2-y,z
loop_
_atom_site_type_symbol
_atom_site_label
_atom_site_fract_x
_atom_site_fract_y
_atom_site_fract_z
Si Si1 0.808873 0.619794 0.505400
Si Si2 0.140046 0.875835 0.737804
Si Si3 0.561659 0.148633 0.046699
Si Si4 0.500000 0.500000 0.610705
Si Si5 0.237254 0.958867 0.965194
Si Si6 0.430270 0.778643 0.323163
O O1 0.711632 0.649475 0.608448
O O2 0.779130 0.541824 0.440571
O O3 0.816221 0.682515 0.391995
O O4 0.937726 0.606028 0.571163
O O5 0.035469 0.931523 0.701432
O O6 0.233935 0.920784 0.824226
O O7 0.085307 0.809780 0.824960
O O8 0.670385 0.090755 0.049166
O O9 0.547121 0.196107 0.908618
O O10 0.570767 0.202974 0.169760
O O11 0.607034 0.464836 0.527709
#
# Coordination Sequence:
#
# PCOD8190883 Si02
#       6
#     8   8   8   4   8   8
#     4   9  24  43  70 106 129 182 237 291 368 416
#     4  11  24  46  68  99 145 184 240 290 359 442
#     4  10  23  44  69 106 134 183 229 305 351 425
#     4  10  26  42  70 104 134 194 236 292 362 436
#     4  11  23  45  70  97 141 183 237 297 357 431
#     4  10  25  43  70 104 141 183 236 293 363 421
#
# _framework density 21.197132
#
# number of rings (size 3 to 8) (size 9 to 14) (size 15 to 20)
#    1.091    0.727    0.000    2.182   10.182    0.000 
#    6.545    0.000    0.000    0.000    0.000    0.000 
#    0.000    0.000    0.000    0.000    0.000    0.000 
#
# Total GULP energy -272562.863375 kJ/mol
# GULP energy per Si atom -12389.221062 kJ/mol
# Density = 2.114889 g / cm^3
# Si number density = 21.197132 Si / 1000 Ang^3
#
#
#
# Elastic Constant Matrix: (Units=GPa)
#
#
# Indices 1 2 3 4 5 6 
#
# 1 111.8477 58.4813 28.1116 -0.0002 0.0000 0.0000
# 2 58.4813 139.2752 65.9228 0.0011 0.0000 0.0000
# 3 28.1116 65.9228 102.9215 0.0034 0.0001 0.0002
# 4 -0.0002 0.0011 0.0034 -39.6891 0.0016 0.0001
# 5 0.0000 0.0000 0.0001 0.0016 17.3013 0.0000
# 6 0.0000 0.0000 0.0002 0.0001 0.0000 25.0582
#
#
#
# Elastic Compliance Matrix: (Units=1/GPa)
#
#
# Indices 1 2 3 4 5 6 
#
# 1 0.011456 -0.004778 -0.000069 0.000000 0.000000 0.000000
# 2 -0.004778 0.012297 -0.006571 0.000000 0.000000 0.000000
# 3 -0.000069 -0.006571 0.013944 0.000001 0.000000 0.000000
# 4 0.000000 0.000000 0.000001 -0.025196 0.000002 0.000000
# 5 0.000000 0.000000 0.000000 0.000002 0.057799 0.000000
# 6 0.000000 0.000000 0.000000 0.000000 0.000000 0.039907
#
#
# Mechanical properties :
#
#
# Convention : Reuss Voigt Hill
#
# Bulk Modulus (GPa) = 67.29018 73.23062 70.26040
# Shear Modulus (GPa) = 36.23288 13.96933 25.10111
#
# Velocity S-wave (km/s) = 4.13889 2.56992 3.44492
# Velocity P-wave (km/s) = 7.39286 6.59002 7.00296
#
# Compressibility (1/GPa) = 0.01486101
#
# Stress axis : x y z
#
# Youngs Moduli (GPa) = 87.28900 81.32387 71.71635
#
# Poissons Ratio (x) = 0.38855 0.00493
# Poissons Ratio (y) = 0.41705 0.47126
# Poissons Ratio (z) = 0.00601 0.53439
#
# Static dielectric constant tensor:
#      x y z
#    x 3.893440 -0.000010 0.000000 
#    y -0.000010 5.668720 -0.000020 
#    z 0.000000 -0.000020 3.739810 
# 
# 
# High freq. dielectric constant tensor:
#      x y z
#    x 1.826760 0.000000 0.000000 
#    y 0.000000 1.833480 0.000000 
#    z 0.000000 0.000000 1.829890 
# 
# From -- ./inp_files/3641.got.cif
#   From: 2010.03.12/outbox.cif.g09.slc.cpg/sg45_2_cif.got.tgz:3641.got - 2010.04.14 02:50:11.
