data_PCOD8190948
_publ_section_title
;
Structure prediction by ZEFSAII (Michael W. Deem and Ramdas Pophale) SiO2 
 PCOD8190948
Probable space group: I B A 2
;
_chemical_formula_sum "Si O2"
_cell_formula_units_Z 28
_cell_length_a 21.016373
_cell_length_b 7.216563
_cell_length_c 8.491772
_cell_angle_alpha 90.000000
_cell_angle_beta 90.000000
_cell_angle_gamma 90.000000
_cell_volume 1287.912920
_symmetry_space_group_name_H-M "I B A 2"
_symmetry_group_IT_number 45
_symmetry_cell_setting 'orthorhombic'
loop_
_space_group_symop_operation_xyz
x,y,z
-x,-y,z
-x,y,1/2+z
x,-y,1/2+z
1/2+x,1/2+y,1/2+z
1/2-x,1/2-y,1/2+z
1/2-x,1/2+y,z
1/2+x,1/2-y,z
loop_
_atom_site_type_symbol
_atom_site_label
_atom_site_fract_x
_atom_site_fract_y
_atom_site_fract_z
Si Si1 0.821454 0.253970 0.605650
Si Si2 0.091667 0.597881 0.131271
Si Si3 0.191634 0.872574 0.244978
Si Si4 0.000000 0.500000 0.384838
O O1 0.882356 0.387473 0.614059
O O2 0.808796 0.187508 0.426896
O O3 0.762293 0.370385 0.673480
O O4 0.833955 0.081039 0.722021
O O5 0.149227 0.740232 0.135622
O O6 0.048298 0.624649 0.284767
O O7 0.043935 0.638549 0.987268
#
# Coordination Sequence:
#
# PCOD8190948 Si02
#       4
#     8   8   8   4
#     4  12  26  42  70 105 140 176 225 288 350 407
#     4  11  24  48  70  98 138 179 236 272 344 401
#     4  12  26  42  70 105 140 176 225 288 350 407
#     4  10  24  46  74  90 136 196 220 280 326 414
#
# _framework density 21.740600000000001
#
# number of rings (size 3 to 8) (size 9 to 14) (size 15 to 20)
#    0.000    0.571    5.714    1.714    8.000    0.000 
#    0.000    8.571    0.000    0.000    0.000    0.000 
#    0.000    0.000    0.000    0.000    0.000    0.000 
#
# Total GULP energy -173601.430750 kJ/mol
# GULP energy per Si atom -12400.102196 kJ/mol
# Density = 2.169112 g / cm^3
# Si number density = 21.740600 Si / 1000 Ang^3
#
#
#
# Elastic Constant Matrix: (Units=GPa)
#
#
# Indices 1 2 3 4 5 6 
#
# 1 107.6843 32.3235 47.6848 0.0000 0.0000 0.0000
# 2 32.3235 105.3873 18.0619 0.0000 0.0000 0.0000
# 3 47.6848 18.0619 118.4372 0.0000 0.0000 0.0000
# 4 0.0000 0.0000 0.0000 26.5679 0.0000 0.0000
# 5 0.0000 0.0000 0.0000 0.0000 5.6339 0.0000
# 6 0.0000 0.0000 0.0000 0.0000 0.0000 9.2889
#
#
#
# Elastic Compliance Matrix: (Units=1/GPa)
#
#
# Indices 1 2 3 4 5 6 
#
# 1 0.012140 -0.002963 -0.004436 0.000000 0.000000 0.000000
# 2 -0.002963 0.010467 -0.000403 0.000000 0.000000 0.000000
# 3 -0.004436 -0.000403 0.010291 0.000000 0.000000 0.000000
# 4 0.000000 0.000000 0.000000 0.037639 0.000000 0.000000
# 5 0.000000 0.000000 0.000000 0.000000 0.177498 0.000000
# 6 0.000000 0.000000 0.000000 0.000000 0.000000 0.107656
#
#
# Mechanical properties :
#
#
# Convention : Reuss Voigt Hill
#
# Bulk Modulus (GPa) = 57.82681 58.62768 58.22725
# Shear Modulus (GPa) = 13.26049 23.86070 18.56059
#
# Velocity S-wave (km/s) = 2.47238 3.31648 2.92504
# Velocity P-wave (km/s) = 5.89970 6.45684 6.18455
#
# Compressibility (1/GPa) = 0.01729302
#
# Stress axis : x y z
#
# Youngs Moduli (GPa) = 82.37089 95.54046 97.17452
#
# Poissons Ratio (x) = 0.28311 0.43106
# Poissons Ratio (y) = 0.24409 0.03917
# Poissons Ratio (z) = 0.36539 0.03852
#
# Static dielectric constant tensor:
#      x y z
#    x 4.048740 0.000000 0.000000 
#    y 0.000000 3.689120 0.000000 
#    z 0.000000 0.000000 4.190390 
# 
# 
# High freq. dielectric constant tensor:
#      x y z
#    x 1.867410 0.000000 0.000000 
#    y 0.000000 1.827550 0.000000 
#    z 0.000000 0.000000 1.874760 
# 
# From -- ./inp_files/739.got.cif
#   From: 2010.03.12/outbox.cif.g09.slc.cpg/sg45_1_cif.got.tgz:739.got - 2010.04.14 02:50:11.
