data_PCOD8190472
_publ_section_title
;
Structure prediction by ZEFSAII (Michael W. Deem and Ramdas Pophale) SiO2 
 PCOD8190472
Probable space group: I B A 2
;
_chemical_formula_sum "Si O2"
_cell_formula_units_Z 56
_cell_length_a 14.814357
_cell_length_b 9.473038
_cell_length_c 17.795537
_cell_angle_alpha 90.000000
_cell_angle_beta 90.000000
_cell_angle_gamma 90.000000
_cell_volume 2497.371685
_symmetry_space_group_name_H-M "I B A 2"
_symmetry_group_IT_number 45
_symmetry_cell_setting 'orthorhombic'
loop_
_space_group_symop_operation_xyz
x,y,z
-x,-y,z
-x,y,1/2+z
x,-y,1/2+z
1/2+x,1/2+y,1/2+z
1/2-x,1/2-y,1/2+z
1/2-x,1/2+y,z
1/2+x,1/2-y,z
loop_
_atom_site_type_symbol
_atom_site_label
_atom_site_fract_x
_atom_site_fract_y
_atom_site_fract_z
Si Si1 0.165325 0.106906 0.252760
Si Si2 0.106988 0.997184 0.406156
Si Si3 0.893223 0.497022 0.053701
Si Si4 0.919204 0.190101 0.035610
Si Si5 0.000000 0.000000 0.161171
Si Si6 0.576391 0.199177 0.932003
Si Si7 0.500000 0.000000 0.310331
Si Si8 0.169694 0.580844 0.710832
O O1 0.195595 0.265977 0.239748
O O2 0.159596 0.078357 0.341241
O O3 0.242292 0.011955 0.218288
O O4 0.069604 0.082031 0.213556
O O5 0.138628 0.831698 0.406600
O O6 0.133829 0.076196 0.484042
O O7 0.000000 0.000000 0.390860
O O8 0.860674 0.332443 0.051325
O O9 0.850315 0.582230 0.122178
O O10 0.000000 0.500000 0.064192
O O11 0.867263 0.575720 0.974851
O O12 0.946447 0.116272 0.113166
O O13 0.009185 0.233896 0.992444
O O14 0.520203 0.136250 0.862027
O O15 0.413812 0.978232 0.258178
#
# Coordination Sequence:
#
# PCOD8190472 Si02
#       8
#     8   8   8   8   4   8   4   8
#     4  12  29  46  70 105 144 185 236 287 351 419
#     4  10  20  41  70  99 135 176 232 285 351 411
#     4  10  20  41  70  99 135 176 232 285 351 411
#     4  10  19  37  72 104 128 178 233 286 346 417
#     4  12  24  42  78  98 138 188 236 288 356 408
#     4  10  19  37  72 104 128 178 233 286 346 417
#     4  12  24  42  78  98 138 188 236 288 356 408
#     4  12  29  46  70 105 144 185 236 287 351 419
#
# _framework density 22.423575
#
# number of rings (size 3 to 8) (size 9 to 14) (size 15 to 20)
#    0.000    1.143    5.714    3.429    4.000    0.000 
#    0.000    1.429    6.286    0.000    0.000    0.000 
#    0.000    0.000    0.000    0.000    0.000    0.000 
#
# Total GULP energy -347181.293699 kJ/mol
# GULP energy per Si atom -12399.331918 kJ/mol
# Density = 2.237254 g / cm^3
# Si number density = 22.423575 Si / 1000 Ang^3
#
#
#
# Elastic Constant Matrix: (Units=GPa)
#
#
# Indices 1 2 3 4 5 6 
#
# 1 45.6432 18.4253 20.8678 0.0000 0.0000 0.0000
# 2 18.4253 173.4986 38.1034 0.0000 0.0000 0.0000
# 3 20.8678 38.1034 111.6408 0.0000 0.0000 0.0000
# 4 0.0000 0.0000 0.0000 44.6814 0.0000 0.0000
# 5 0.0000 0.0000 0.0000 0.0000 8.2680 0.0000
# 6 0.0000 0.0000 0.0000 0.0000 0.0000 17.5428
#
#
#
# Elastic Compliance Matrix: (Units=1/GPa)
#
#
# Indices 1 2 3 4 5 6 
#
# 1 0.024422 -0.001720 -0.003978 0.000000 0.000000 0.000000
# 2 -0.001720 0.006352 -0.001846 0.000000 0.000000 0.000000
# 3 -0.003978 -0.001846 0.010331 0.000000 0.000000 0.000000
# 4 0.000000 0.000000 0.000000 0.022381 0.000000 0.000000
# 5 0.000000 0.000000 0.000000 0.000000 0.120948 0.000000
# 6 0.000000 0.000000 0.000000 0.000000 0.000000 0.057003
#
#
# Mechanical properties :
#
#
# Convention : Reuss Voigt Hill
#
# Bulk Modulus (GPa) = 38.43732 53.95284 46.19508
# Shear Modulus (GPa) = 18.85385 30.99085 24.92235
#
# Velocity S-wave (km/s) = 2.90281 3.72165 3.33744
# Velocity P-wave (km/s) = 5.33046 6.52538 5.95795
#
# Compressibility (1/GPa) = 0.02601638
#
# Stress axis : x y z
#
# Youngs Moduli (GPa) = 40.94654 157.43312 96.79562
#
# Poissons Ratio (x) = 0.27078 0.38505
# Poissons Ratio (y) = 0.07043 0.17873
# Poissons Ratio (z) = 0.16288 0.29069
#
# Static dielectric constant tensor:
#      x y z
#    x 3.692100 0.000000 0.000000 
#    y 0.000000 4.926480 0.000000 
#    z 0.000000 0.000000 4.291480 
# 
# 
# High freq. dielectric constant tensor:
#      x y z
#    x 1.836560 0.000000 0.000000 
#    y 0.000000 1.908880 0.000000 
#    z 0.000000 0.000000 1.896340 
# 
# From -- ./inp_files/9191.got.cif
#   From: 2010.03.12/outbox.cif.g09.slc.cpg/sg45_5_cif.got.tgz:9191.got - 2010.04.14 02:50:11.
