data_PCOD8190550
_publ_section_title
;
Structure prediction by ZEFSAII (Michael W. Deem and Ramdas Pophale) SiO2 
 PCOD8190550
Probable space group: I B A 2
;
_chemical_formula_sum "Si O2"
_cell_formula_units_Z 60
_cell_length_a 5.157610
_cell_length_b 26.616624
_cell_length_c 20.738922
_cell_angle_alpha 90.000000
_cell_angle_beta 90.000000
_cell_angle_gamma 90.000000
_cell_volume 2847.001179
_symmetry_space_group_name_H-M "I B A 2"
_symmetry_group_IT_number 45
_symmetry_cell_setting 'orthorhombic'
loop_
_space_group_symop_operation_xyz
x,y,z
-x,-y,z
-x,y,1/2+z
x,-y,1/2+z
1/2+x,1/2+y,1/2+z
1/2-x,1/2-y,1/2+z
1/2-x,1/2+y,z
1/2+x,1/2-y,z
loop_
_atom_site_type_symbol
_atom_site_label
_atom_site_fract_x
_atom_site_fract_y
_atom_site_fract_z
Si Si1 0.625926 0.933579 0.054770
Si Si2 0.565410 0.716881 0.212728
Si Si3 0.900254 0.884513 0.512044
Si Si4 0.099039 0.057231 0.387939
Si Si5 0.889666 0.780699 0.564499
Si Si6 0.018470 0.555146 0.697112
Si Si7 0.500000 0.000000 0.448710
Si Si8 0.021974 0.894283 0.750648
O O1 0.891980 0.903154 0.065680
O O2 0.529721 0.955305 0.122176
O O3 0.392413 0.899442 0.027936
O O4 0.701521 0.976390 0.001373
O O5 0.331136 0.754584 0.230224
O O6 0.572514 0.700376 0.137971
O O7 0.530937 0.665447 0.253244
O O8 0.999685 0.904826 0.442985
O O9 0.924435 0.824694 0.512996
O O10 0.402828 0.045933 0.402971
O O11 0.023863 0.083302 0.322138
O O12 0.000000 0.000000 0.393113
O O13 0.600692 0.761644 0.551444
O O14 0.301294 0.578033 0.709368
O O15 0.000000 0.500000 0.731228
O O16 0.805150 0.594396 0.722266
#
# Coordination Sequence:
#
# PCOD8190550 Si02
#       8
#     8   8   8   8   8   8   4   8
#     4  11  21  38  62  89 127 158 216 261 323 371
#     4  10  21  42  65  90 123 163 212 276 340 385
#     4  11  23  38  64  94 122 168 213 261 315 389
#     4  11  24  43  64  88 134 180 218 255 306 385
#     4  10  20  37  63  91 124 156 202 269 336 384
#     4  12  24  40  60  96 135 168 209 275 325 385
#     4  10  22  40  62  88 122 176 214 254 312 376
#     4  12  27  41  65  95 129 177 224 261 321 399
#
# _framework density 21.074808000000001
#
# number of rings (size 3 to 8) (size 9 to 14) (size 15 to 20)
#    0.000    1.067    2.000    5.200    2.800    2.133 
#    0.000    1.333    0.000    0.000    0.000    0.000 
#    0.000    0.000    0.000    0.000    0.000    0.000 
#
# Total GULP energy -371705.557683 kJ/mol
# GULP energy per Si atom -12390.185256 kJ/mol
# Density = 2.102684 g / cm^3
# Si number density = 21.074808 Si / 1000 Ang^3
#
#
#
# Elastic Constant Matrix: (Units=GPa)
#
#
# Indices 1 2 3 4 5 6 
#
# 1 90.7445 13.9932 17.4919 0.0000 0.0000 0.0000
# 2 13.9932 122.5800 45.8755 0.0000 0.0000 0.0000
# 3 17.4919 45.8755 88.2650 0.0000 0.0000 0.0000
# 4 0.0000 0.0000 0.0000 36.2264 0.0000 0.0000
# 5 0.0000 0.0000 0.0000 0.0000 19.4720 0.0000
# 6 0.0000 0.0000 0.0000 0.0000 0.0000 26.0556
#
#
#
# Elastic Compliance Matrix: (Units=1/GPa)
#
#
# Indices 1 2 3 4 5 6 
#
# 1 0.011490 -0.000570 -0.001981 0.000000 0.000000 0.000000
# 2 -0.000570 0.010156 -0.005166 0.000000 0.000000 0.000000
# 3 -0.001981 -0.005166 0.014407 0.000000 0.000000 0.000000
# 4 0.000000 0.000000 0.000000 0.027604 0.000000 0.000000
# 5 0.000000 0.000000 0.000000 0.000000 0.051356 0.000000
# 6 0.000000 0.000000 0.000000 0.000000 0.000000 0.038379
#
#
# Mechanical properties :
#
#
# Convention : Reuss Voigt Hill
#
# Bulk Modulus (GPa) = 48.49739 50.70119 49.59929
# Shear Modulus (GPa) = 28.45779 31.29937 29.87858
#
# Velocity S-wave (km/s) = 3.67866 3.85795 3.76937
# Velocity P-wave (km/s) = 6.41135 6.62986 6.52152
#
# Compressibility (1/GPa) = 0.02061967
#
# Stress axis : x y z
#
# Youngs Moduli (GPa) = 87.03466 98.46099 69.41144
#
# Poissons Ratio (x) = 0.05616 0.13747
# Poissons Ratio (y) = 0.04965 0.35856
# Poissons Ratio (z) = 0.17237 0.50862
#
# Static dielectric constant tensor:
#      x y z
#    x 4.306080 0.000000 0.000000 
#    y 0.000000 3.931750 0.000000 
#    z 0.000000 0.000000 3.668570 
# 
# 
# High freq. dielectric constant tensor:
#      x y z
#    x 1.840670 0.000000 0.000000 
#    y 0.000000 1.826430 0.000000 
#    z 0.000000 0.000000 1.804530 
# 
# From -- ./inp_files/8720.got.cif
#   From: 2010.03.12/outbox.cif.g09.slc.cpg/sg45_5_cif.got.tgz:8720.got - 2010.04.14 02:50:11.
