data_PCOD8190744
_publ_section_title
;
Structure prediction by ZEFSAII (Michael W. Deem and Ramdas Pophale) SiO2 
 PCOD8190744
Probable space group: I B A 2
;
_chemical_formula_sum "Si O2"
_cell_formula_units_Z 48
_cell_length_a 10.820558
_cell_length_b 25.412219
_cell_length_c 8.721590
_cell_angle_alpha 90.000000
_cell_angle_beta 90.000000
_cell_angle_gamma 90.000000
_cell_volume 2398.213887
_symmetry_space_group_name_H-M "I B A 2"
_symmetry_group_IT_number 45
_symmetry_cell_setting 'orthorhombic'
loop_
_space_group_symop_operation_xyz
x,y,z
-x,-y,z
-x,y,1/2+z
x,-y,1/2+z
1/2+x,1/2+y,1/2+z
1/2-x,1/2-y,1/2+z
1/2-x,1/2+y,z
1/2+x,1/2-y,z
loop_
_atom_site_type_symbol
_atom_site_label
_atom_site_fract_x
_atom_site_fract_y
_atom_site_fract_z
Si Si1 0.000000 0.500000 0.286391
Si Si2 0.131859 0.236002 0.887210
Si Si3 0.661669 0.540773 0.182154
Si Si4 0.736959 0.865558 0.850485
Si Si5 0.879458 0.268309 0.733378
Si Si6 0.000000 0.000000 0.445633
Si Si7 0.344334 0.954722 0.549153
O O1 0.044738 0.547558 0.173719
O O2 0.112773 0.478689 0.386210
O O3 0.149163 0.172549 0.898204
O O4 0.254146 0.259778 0.800395
O O5 0.006079 0.243819 0.793870
O O6 0.121422 0.263669 0.050795
O O7 0.729529 0.596041 0.207803
O O8 0.608529 0.525962 0.348418
O O9 0.743951 0.492816 0.122546
O O10 0.553233 0.546472 0.055903
O O11 0.624185 0.829750 0.786049
O O12 0.701741 0.896348 0.007679
#
# Coordination Sequence:
#
# PCOD8190744 Si02
#       7
#     4   8   8   8   8   4   8
#     4  10  22  34  66  86 144 178 210 282 320 392
#     4  10  23  46  71 101 138 177 242 307 352 423
#     4  11  20  42  59 100 138 173 225 270 328 435
#     4  10  24  40  72  98 136 190 226 276 382 402
#     4  10  23  46  71 101 138 177 242 307 352 423
#     4  10  22  34  66  86 144 178 210 282 320 392
#     4  11  20  42  59 100 138 173 225 270 328 435
#
# _framework density 20.014894999999999
#
# number of rings (size 3 to 8) (size 9 to 14) (size 15 to 20)
#    1.000    0.667    3.333    1.000    0.000    2.667 
#    0.000    0.000    0.000    0.000    0.000    0.000 
#    0.000    0.000    0.000    0.000    0.000    0.000 
#
# Total GULP energy -297358.155824 kJ/mol
# GULP energy per Si atom -12389.923159 kJ/mol
# Density = 1.996934 g / cm^3
# Si number density = 20.014895 Si / 1000 Ang^3
#
#
#
# Elastic Constant Matrix: (Units=GPa)
#
#
# Indices 1 2 3 4 5 6 
#
# 1 103.7051 11.5194 25.9331 0.0035 -0.0036 -0.0001
# 2 11.5194 67.1884 -2.1880 0.0045 -0.0038 -0.0003
# 3 25.9331 -2.1880 100.4483 0.0105 -0.0082 -0.0001
# 4 0.0035 0.0045 0.0105 37.3666 -0.0020 0.0000
# 5 -0.0036 -0.0038 -0.0082 -0.0020 34.6393 -0.0001
# 6 -0.0001 -0.0003 -0.0001 0.0000 -0.0001 37.5267
#
#
#
# Elastic Compliance Matrix: (Units=1/GPa)
#
#
# Indices 1 2 3 4 5 6 
#
# 1 0.010545 -0.001898 -0.002764 0.000000 0.000000 0.000000
# 2 -0.001898 0.015236 0.000822 -0.000002 0.000002 0.000000
# 3 -0.002764 0.000822 0.010687 -0.000003 0.000002 0.000000
# 4 0.000000 -0.000002 -0.000003 0.026762 0.000002 0.000000
# 5 0.000000 0.000002 0.000002 0.000002 0.028869 0.000000
# 6 0.000000 0.000000 0.000000 0.000000 0.000000 0.026648
#
#
# Mechanical properties :
#
#
# Convention : Reuss Voigt Hill
#
# Bulk Modulus (GPa) = 34.73709 37.98564 36.36136
# Shear Modulus (GPa) = 36.75906 37.64501 37.20203
#
# Velocity S-wave (km/s) = 4.29019 4.34158 4.31596
# Velocity P-wave (km/s) = 6.47567 6.64472 6.56074
#
# Compressibility (1/GPa) = 0.02878768
#
# Stress axis : x y z
#
# Youngs Moduli (GPa) = 94.83485 65.63547 93.57349
#
# Poissons Ratio (x) = 0.12457 0.25861
# Poissons Ratio (y) = 0.17998 -0.07690
# Poissons Ratio (z) = 0.26209 -0.05394
#
# Static dielectric constant tensor:
#      x y z
#    x 3.880680 0.000000 0.000000 
#    y 0.000000 3.362280 0.000000 
#    z 0.000000 0.000000 3.888080 
# 
# 
# High freq. dielectric constant tensor:
#      x y z
#    x 1.794800 0.000000 0.000000 
#    y 0.000000 1.746360 0.000000 
#    z 0.000000 0.000000 1.796610 
# 
# From -- ./inp_files/1405.got.cif
#   From: 2010.03.12/outbox.cif.g09.slc.cpg/sg45_1_cif.got.tgz:1405.got - 2010.04.14 02:50:11.
