data_PCOD8190712
_publ_section_title
;
Structure prediction by ZEFSAII (Michael W. Deem and Ramdas Pophale) SiO2 
 PCOD8190712
Probable space group: I B A 2
;
_chemical_formula_sum "Si O2"
_cell_formula_units_Z 48
_cell_length_a 14.146057
_cell_length_b 9.899636
_cell_length_c 16.533248
_cell_angle_alpha 90.000000
_cell_angle_beta 90.000000
_cell_angle_gamma 90.000000
_cell_volume 2315.329527
_symmetry_space_group_name_H-M "I B A 2"
_symmetry_group_IT_number 45
_symmetry_cell_setting 'orthorhombic'
loop_
_space_group_symop_operation_xyz
x,y,z
-x,-y,z
-x,y,1/2+z
x,-y,1/2+z
1/2+x,1/2+y,1/2+z
1/2-x,1/2-y,1/2+z
1/2-x,1/2+y,z
1/2+x,1/2-y,z
loop_
_atom_site_type_symbol
_atom_site_label
_atom_site_fract_x
_atom_site_fract_y
_atom_site_fract_z
Si Si1 0.070633 0.386806 0.637400
Si Si2 0.749278 0.126886 0.327502
Si Si3 0.952438 0.140491 0.607669
Si Si4 0.331543 0.739210 0.976448
Si Si5 0.171305 0.551029 0.984977
Si Si6 0.773674 0.123335 0.720422
O O1 0.081225 0.415806 0.540630
O O2 0.171139 0.399684 0.681128
O O3 0.000000 0.500000 0.673417
O O4 0.025676 0.239591 0.653554
O O5 0.833367 0.197514 0.381141
O O6 0.661515 0.092792 0.389519
O O7 0.716094 0.228414 0.258547
O O8 0.789309 0.990124 0.288737
O O9 0.930314 0.211311 0.521295
O O10 0.858202 0.113047 0.657733
O O11 0.000000 0.000000 0.588402
O O12 0.255866 0.642403 0.022155
O O13 0.301109 0.893745 0.989322
#
# Coordination Sequence:
#
# PCOD8190712 Si02
#       6
#     8   8   8   8   8   8
#     4  12  25  42  69  99 133 178 226 270 330 397
#     4  10  21  40  74  90 130 184 204 272 347 379
#     4  12  27  42  67 101 131 177 225 271 332 397
#     4  10  21  43  67  97 125 173 227 261 330 386
#     4  10  21  42  68  96 126 173 226 264 329 386
#     4  12  23  44  67  95 143 169 213 280 332 401
#
# _framework density 20.731390999999999
#
# number of rings (size 3 to 8) (size 9 to 14) (size 15 to 20)
#    1.000    0.000    5.000    2.000    2.333    0.000 
#    0.000   10.000    0.000    0.000    0.000    0.000 
#    0.000    0.000    0.000    0.000    0.000    0.000 
#
# Total GULP energy -297388.808454 kJ/mol
# GULP energy per Si atom -12391.200352 kJ/mol
# Density = 2.068421 g / cm^3
# Si number density = 20.731391 Si / 1000 Ang^3
#
#
#
# Elastic Constant Matrix: (Units=GPa)
#
#
# Indices 1 2 3 4 5 6 
#
# 1 91.4847 39.3165 32.5206 0.0000 0.0000 0.0000
# 2 39.3165 147.9371 14.7513 0.0000 0.0000 0.0000
# 3 32.5206 14.7513 74.4803 0.0000 0.0000 0.0000
# 4 0.0000 0.0000 0.0000 30.7973 0.0000 0.0000
# 5 0.0000 0.0000 0.0000 0.0000 17.1051 0.0000
# 6 0.0000 0.0000 0.0000 0.0000 0.0000 33.7515
#
#
#
# Elastic Compliance Matrix: (Units=1/GPa)
#
#
# Indices 1 2 3 4 5 6 
#
# 1 0.014320 -0.003246 -0.005610 0.000000 0.000000 0.000000
# 2 -0.003246 0.007632 -0.000094 0.000000 0.000000 0.000000
# 3 -0.005610 -0.000094 0.015894 0.000000 0.000000 0.000000
# 4 0.000000 0.000000 0.000000 0.032470 0.000000 0.000000
# 5 0.000000 0.000000 0.000000 0.000000 0.058462 0.000000
# 6 0.000000 0.000000 0.000000 0.000000 0.000000 0.029628
#
#
# Mechanical properties :
#
#
# Convention : Reuss Voigt Hill
#
# Bulk Modulus (GPa) = 50.13530 54.11987 52.12759
# Shear Modulus (GPa) = 27.32898 31.48501 29.40700
#
# Velocity S-wave (km/s) = 3.63470 3.90129 3.77035
# Velocity P-wave (km/s) = 6.46920 6.81582 6.64477
#
# Compressibility (1/GPa) = 0.01994602
#
# Stress axis : x y z
#
# Youngs Moduli (GPa) = 69.83208 131.03083 62.91545
#
# Poissons Ratio (x) = 0.42538 0.35293
# Poissons Ratio (y) = 0.22670 0.00592
# Poissons Ratio (z) = 0.39173 0.01232
#
# Static dielectric constant tensor:
#      x y z
#    x 3.464540 0.000000 0.000000 
#    y 0.000000 3.814790 0.000000 
#    z 0.000000 0.000000 3.755700 
# 
# 
# High freq. dielectric constant tensor:
#      x y z
#    x 1.781630 0.000000 0.000000 
#    y 0.000000 1.833620 0.000000 
#    z 0.000000 0.000000 1.810010 
# 
# From -- ./inp_files/7559.got.cif
#   From: 2010.03.12/outbox.cif.g09.slc.cpg/sg45_4_cif.got.tgz:7559.got - 2010.04.14 02:50:11.
