data_PCOD8190412
_publ_section_title
;
Structure prediction by ZEFSAII (Michael W. Deem and Ramdas Pophale) SiO2 
 PCOD8190412
Probable space group: I B A 2
;
_chemical_formula_sum "Si O2"
_cell_formula_units_Z 64
_cell_length_a 17.759822
_cell_length_b 10.385909
_cell_length_c 17.403519
_cell_angle_alpha 90.000000
_cell_angle_beta 90.000000
_cell_angle_gamma 90.000000
_cell_volume 3210.112062
_symmetry_space_group_name_H-M "I B A 2"
_symmetry_group_IT_number 45
_symmetry_cell_setting 'orthorhombic'
loop_
_space_group_symop_operation_xyz
x,y,z
-x,-y,z
-x,y,1/2+z
x,-y,1/2+z
1/2+x,1/2+y,1/2+z
1/2-x,1/2-y,1/2+z
1/2-x,1/2+y,z
1/2+x,1/2-y,z
loop_
_atom_site_type_symbol
_atom_site_label
_atom_site_fract_x
_atom_site_fract_y
_atom_site_fract_z
Si Si1 0.808158 0.182464 0.301150
Si Si2 0.144538 0.356826 0.297014
Si Si3 0.036792 0.174247 0.203740
Si Si4 0.913541 0.735991 0.592596
Si Si5 0.810931 0.579465 0.688969
Si Si6 0.040452 0.368820 0.432736
Si Si7 0.342966 0.519074 0.660433
Si Si8 0.460706 0.631396 0.856126
O O1 0.723725 0.187544 0.334910
O O2 0.817618 0.315557 0.256205
O O3 0.817702 0.063228 0.244340
O O4 0.870188 0.148793 0.367186
O O5 0.098702 0.242755 0.256905
O O6 0.160127 0.449250 0.226279
O O7 0.099923 0.416704 0.368735
O O8 0.993628 0.253560 0.137488
O O9 0.972773 0.126869 0.263465
O O10 0.079522 0.060193 0.159844
O O11 0.871111 0.611653 0.623936
O O12 0.924151 0.707995 0.503381
O O13 0.859872 0.862198 0.602757
O O14 0.731128 0.567869 0.641966
O O15 0.000000 0.500000 0.460282
O O16 0.989133 0.261741 0.393569
O O17 0.500000 0.500000 0.890824
#
# Coordination Sequence:
#
# PCOD8190412 Si02
#       8
#     8   8   8   8   8   8   8   8
#     4  10  18  36  63  96 121 157 205 273 314 368
#     4  10  23  36  63  92 119 161 208 262 316 379
#     4  11  19  35  65  94 121 158 213 264 316 372
#     4  11  24  40  62  86 130 170 206 265 328 384
#     4  10  20  37  64  93 123 161 218 262 317 379
#     4  11  27  44  57  90 136 170 210 260 329 396
#     4  10  19  36  62  95 122 152 216 268 310 376
#     4  11  20  38  67  95 124 165 216 267 311 380
#
# _framework density 19.936997999999999
#
# number of rings (size 3 to 8) (size 9 to 14) (size 15 to 20)
#    0.000    1.500    5.000    1.125    3.500    1.000 
#    0.000    5.000    0.000    0.000    0.000    0.000 
#    0.000    0.000    0.000    0.000    0.000    0.000 
#
# Total GULP energy -396418.057277 kJ/mol
# GULP energy per Si atom -12388.064290 kJ/mol
# Density = 1.989162 g / cm^3
# Si number density = 19.936998 Si / 1000 Ang^3
#
#
#
# Elastic Constant Matrix: (Units=GPa)
#
#
# Indices 1 2 3 4 5 6 
#
# 1 126.1625 34.7906 26.0541 0.0000 0.0000 0.0000
# 2 34.7906 74.3605 18.9494 0.0000 0.0000 0.0000
# 3 26.0541 18.9494 66.7889 0.0000 0.0000 0.0000
# 4 0.0000 0.0000 0.0000 16.8323 0.0000 0.0000
# 5 0.0000 0.0000 0.0000 0.0000 12.9889 0.0000
# 6 0.0000 0.0000 0.0000 0.0000 0.0000 36.2190
#
#
#
# Elastic Compliance Matrix: (Units=1/GPa)
#
#
# Indices 1 2 3 4 5 6 
#
# 1 0.009513 -0.003778 -0.002639 0.000000 0.000000 0.000000
# 2 -0.003778 0.015997 -0.003065 0.000000 0.000000 0.000000
# 3 -0.002639 -0.003065 0.016872 0.000000 0.000000 0.000000
# 4 0.000000 0.000000 0.000000 0.059409 0.000000 0.000000
# 5 0.000000 0.000000 0.000000 0.000000 0.076989 0.000000
# 6 0.000000 0.000000 0.000000 0.000000 0.000000 0.027610
#
#
# Mechanical properties :
#
#
# Convention : Reuss Voigt Hill
#
# Bulk Modulus (GPa) = 42.70352 47.43334 45.06843
# Shear Modulus (GPa) = 21.44454 25.70924 23.57689
#
# Velocity S-wave (km/s) = 3.28322 3.59489 3.44258
# Velocity P-wave (km/s) = 5.98652 6.40892 6.20132
#
# Compressibility (1/GPa) = 0.02341728
#
# Stress axis : x y z
#
# Youngs Moduli (GPa) = 105.11707 62.51279 59.27140
#
# Poissons Ratio (x) = 0.23620 0.15642
# Poissons Ratio (y) = 0.39717 0.18165
# Poissons Ratio (z) = 0.27741 0.19158
#
# Static dielectric constant tensor:
#      x y z
#    x 4.211460 0.000000 0.000000 
#    y 0.000000 3.678150 0.000000 
#    z 0.000000 0.000000 3.239950 
# 
# 
# High freq. dielectric constant tensor:
#      x y z
#    x 1.798770 0.000000 0.000000 
#    y 0.000000 1.785470 0.000000 
#    z 0.000000 0.000000 1.728890 
# 
# From -- ./inp_files/8387.got.cif
#   From: 2010.03.12/outbox.cif.g09.slc.cpg/sg45_5_cif.got.tgz:8387.got - 2010.04.14 02:50:11.
