data_PCOD8190725
_publ_section_title
;
Structure prediction by ZEFSAII (Michael W. Deem and Ramdas Pophale) SiO2 
 PCOD8190725
Probable space group: I B A 2
;
_chemical_formula_sum "Si O2"
_cell_formula_units_Z 60
_cell_length_a 11.184000
_cell_length_b 20.596306
_cell_length_c 11.162057
_cell_angle_alpha 90.000000
_cell_angle_beta 90.000000
_cell_angle_gamma 90.000000
_cell_volume 2571.169631
_symmetry_space_group_name_H-M "I B A 2"
_symmetry_group_IT_number 45
_symmetry_cell_setting 'orthorhombic'
loop_
_space_group_symop_operation_xyz
x,y,z
-x,-y,z
-x,y,1/2+z
x,-y,1/2+z
1/2+x,1/2+y,1/2+z
1/2-x,1/2-y,1/2+z
1/2-x,1/2+y,z
1/2+x,1/2-y,z
loop_
_atom_site_type_symbol
_atom_site_label
_atom_site_fract_x
_atom_site_fract_y
_atom_site_fract_z
Si Si1 0.500000 0.500000 0.798311
Si Si2 0.817132 0.454260 0.611973
Si Si3 0.618133 0.694580 0.577122
Si Si4 0.054887 0.330703 0.176081
Si Si5 0.585156 0.382557 0.657548
Si Si6 0.294109 0.163692 0.277208
Si Si7 0.235407 0.196810 0.841147
Si Si8 0.738358 0.976721 0.362010
O O1 0.499591 0.435490 0.718549
O O2 0.377723 0.496911 0.875560
O O3 0.921437 0.400666 0.615307
O O4 0.691694 0.418267 0.589960
O O5 0.817168 0.492319 0.739711
O O6 0.827023 0.498039 0.488909
O O7 0.595591 0.772132 0.588336
O O8 0.491084 0.658321 0.561106
O O9 0.678422 0.665178 0.693904
O O10 0.706464 0.670898 0.472552
O O11 0.132435 0.324894 0.299334
O O12 0.915641 0.329120 0.202255
O O13 0.636266 0.330812 0.751593
O O14 0.282034 0.226572 0.359892
O O15 0.287526 0.099770 0.356867
#
# Coordination Sequence:
#
# PCOD8190725 Si02
#       8
#     4   8   8   8   8   8   8   8
#     4  10  22  40  64  98 138 176 220 290 342 428
#     4  10  25  45  68 100 140 181 233 293 347 421
#     4  11  22  39  69  97 133 180 231 285 354 422
#     4  10  23  46  62  98 140 176 238 291 344 423
#     4  10  21  42  62  99 138 170 223 284 349 413
#     4  11  23  42  66  98 133 186 235 286 357 421
#     4  10  23  40  64  99 138 178 231 293 354 415
#     4  11  24  43  69 100 137 182 236 286 362 415
#
# _framework density 23.335684000000001
#
# number of rings (size 3 to 8) (size 9 to 14) (size 15 to 20)
#    0.000    1.600    2.667    0.800    1.867    8.000 
#    0.000    1.333    0.000    0.000    0.000    0.000 
#    0.000    0.000    0.000    0.000    0.000    0.000 
#
# Total GULP energy -371776.338286 kJ/mol
# GULP energy per Si atom -12392.544610 kJ/mol
# Density = 2.328257 g / cm^3
# Si number density = 23.335684 Si / 1000 Ang^3
#
#
#
# Elastic Constant Matrix: (Units=GPa)
#
#
# Indices 1 2 3 4 5 6 
#
# 1 60.9840 15.8909 0.3185 0.0000 0.0000 0.0000
# 2 15.8909 99.0210 25.5632 0.0001 0.0000 0.0000
# 3 0.3185 25.5632 107.9130 0.0002 0.0000 0.0001
# 4 0.0000 0.0001 0.0002 18.4665 0.0000 0.0000
# 5 0.0000 0.0000 0.0000 0.0000 7.1576 0.0000
# 6 0.0000 0.0000 0.0001 0.0000 0.0000 38.4658
#
#
#
# Elastic Compliance Matrix: (Units=1/GPa)
#
#
# Indices 1 2 3 4 5 6 
#
# 1 0.017155 -0.002918 0.000641 0.000000 0.000000 0.000000
# 2 -0.002918 0.011253 -0.002657 0.000000 0.000000 0.000000
# 3 0.000641 -0.002657 0.009894 0.000000 0.000000 0.000000
# 4 0.000000 0.000000 0.000000 0.054152 0.000000 0.000000
# 5 0.000000 0.000000 0.000000 0.000000 0.139711 0.000000
# 6 0.000000 0.000000 0.000000 0.000000 0.000000 0.025997
#
#
# Mechanical properties :
#
#
# Convention : Reuss Voigt Hill
#
# Bulk Modulus (GPa) = 35.17086 39.05148 37.11117
# Shear Modulus (GPa) = 18.01737 27.89434 22.95586
#
# Velocity S-wave (km/s) = 2.78167 3.46114 3.13984
# Velocity P-wave (km/s) = 5.04196 5.72220 5.39282
#
# Compressibility (1/GPa) = 0.02843263
#
# Stress axis : x y z
#
# Youngs Moduli (GPa) = 58.29254 88.86385 101.06858
#
# Poissons Ratio (x) = 0.25934 -0.06475
# Poissons Ratio (y) = 0.17012 0.26855
# Poissons Ratio (z) = -0.03735 0.23612
#
# Static dielectric constant tensor:
#      x y z
#    x 4.118080 0.000000 0.000000 
#    y 0.000000 4.415140 0.000000 
#    z 0.000000 0.000000 3.973550 
# 
# 
# High freq. dielectric constant tensor:
#      x y z
#    x 1.918920 0.000000 0.000000 
#    y 0.000000 1.930720 0.000000 
#    z 0.000000 0.000000 1.908170 
# 
# From -- ./inp_files/3815.got.cif
#   From: 2010.03.12/outbox.cif.g09.slc.cpg/sg45_2_cif.got.tgz:3815.got - 2010.04.14 02:50:11.
