data_PCOD8190497
_publ_section_title
;
Structure prediction by ZEFSAII (Michael W. Deem and Ramdas Pophale) SiO2 
 PCOD8190497
Probable space group: I B A 2
;
_chemical_formula_sum "Si O2"
_cell_formula_units_Z 40
_cell_length_a 13.788268
_cell_length_b 5.151091
_cell_length_c 25.485625
_cell_angle_alpha 90.000000
_cell_angle_beta 90.000000
_cell_angle_gamma 90.000000
_cell_volume 1810.106913
_symmetry_space_group_name_H-M "I B A 2"
_symmetry_group_IT_number 45
_symmetry_cell_setting 'orthorhombic'
loop_
_space_group_symop_operation_xyz
x,y,z
-x,-y,z
-x,y,1/2+z
x,-y,1/2+z
1/2+x,1/2+y,1/2+z
1/2-x,1/2-y,1/2+z
1/2-x,1/2+y,z
1/2+x,1/2-y,z
loop_
_atom_site_type_symbol
_atom_site_label
_atom_site_fract_x
_atom_site_fract_y
_atom_site_fract_z
Si Si1 0.000000 0.000000 0.955611
Si Si2 0.000000 0.500000 0.388842
Si Si3 0.310244 0.055156 0.700714
Si Si4 0.106208 0.805332 0.051186
Si Si5 0.685359 0.906227 0.819019
Si Si6 0.393229 0.804249 0.095930
O O1 0.033691 0.249221 0.922275
O O2 0.909873 0.101828 0.991270
O O3 0.090831 0.412097 0.354621
O O4 0.222096 0.257900 0.692974
O O5 0.353001 0.090771 0.759051
O O6 0.390938 0.120727 0.657212
O O7 0.158430 0.527042 0.058978
O O8 0.002966 0.747505 0.078947
O O9 0.162590 0.032629 0.083370
O O10 0.742870 0.642982 0.831209
#
# Coordination Sequence:
#
# PCOD8190497 Si02
#       6
#     4   4   8   8   8   8
#     4  10  20  36  58  86 110 148 210 252 298 358
#     4  12  22  38  70  88 110 168 210 242 310 372
#     4  10  20  34  53  77 116 159 186 232 294 347
#     4   9  18  32  54  79 111 138 178 251 284 324
#     4  10  23  42  60  90 128 154 198 260 301 351
#     4   9  16  30  51  76 101 141 180 211 281 350
#
# _framework density 22.098140999999998
#
# number of rings (size 3 to 8) (size 9 to 14) (size 15 to 20)
#    0.000    2.400    0.000    4.800    0.000    1.600 
#    0.000    6.000    0.000   55.200    0.000    0.000 
#    0.000    0.000    0.000    0.000    0.000    0.000 
#
# Total GULP energy -247771.955186 kJ/mol
# GULP energy per Si atom -12388.597759 kJ/mol
# Density = 2.204784 g / cm^3
# Si number density = 22.098141 Si / 1000 Ang^3
#
#
#
# Elastic Constant Matrix: (Units=GPa)
#
#
# Indices 1 2 3 4 5 6 
#
# 1 50.4222 8.3288 44.4810 0.0000 0.0000 0.0000
# 2 8.3288 202.6104 60.2118 0.0000 0.0000 0.0000
# 3 44.4810 60.2118 144.0771 0.0000 0.0000 0.0000
# 4 0.0000 0.0000 0.0000 42.1627 0.0000 0.0000
# 5 0.0000 0.0000 0.0000 0.0000 7.5378 0.0000
# 6 0.0000 0.0000 0.0000 0.0000 0.0000 12.9113
#
#
#
# Elastic Compliance Matrix: (Units=1/GPa)
#
#
# Indices 1 2 3 4 5 6 
#
# 1 0.027704 0.001602 -0.009222 0.000000 0.000000 0.000000
# 2 0.001602 0.005728 -0.002888 0.000000 0.000000 0.000000
# 3 -0.009222 -0.002888 0.010995 0.000000 0.000000 0.000000
# 4 0.000000 0.000000 0.000000 0.023718 0.000000 0.000000
# 5 0.000000 0.000000 0.000000 0.000000 0.132664 0.000000
# 6 0.000000 0.000000 0.000000 0.000000 0.000000 0.077452
#
#
# Mechanical properties :
#
#
# Convention : Reuss Voigt Hill
#
# Bulk Modulus (GPa) = 42.71863 69.23922 55.97892
# Shear Modulus (GPa) = 16.28233 31.46156 23.87195
#
# Velocity S-wave (km/s) = 2.71739 3.77731 3.29031
# Velocity P-wave (km/s) = 5.40545 7.10104 6.31045
#
# Compressibility (1/GPa) = 0.02340899
#
# Stress axis : x y z
#
# Youngs Moduli (GPa) = 36.09626 174.57775 90.94979
#
# Poissons Ratio (x) = -0.27965 0.83878
# Poissons Ratio (y) = -0.05782 0.26270
# Poissons Ratio (z) = 0.33290 0.50425
#
# Static dielectric constant tensor:
#      x y z
#    x 2.155570 0.000000 0.000000 
#    y 0.000000 -9.721660 0.000000 
#    z 0.000000 0.000000 4.137650 
# 
# 
# High freq. dielectric constant tensor:
#      x y z
#    x 1.823550 0.000000 0.000000 
#    y 0.000000 1.915150 0.000000 
#    z 0.000000 0.000000 1.868150 
# 
# From -- ./inp_files/9734.got.cif
#   From: 2010.03.12/outbox.cif.g09.slc.cpg/sg45_5_cif.got.tgz:9734.got - 2010.04.14 02:50:11.
