data_PCOD8190208
_publ_section_title
;
Structure prediction by ZEFSAII (Michael W. Deem and Ramdas Pophale) SiO2 
 PCOD8190208
Probable space group: I M M 2
;
_chemical_formula_sum "Si O2"
_cell_formula_units_Z 32
_cell_length_a 17.003880
_cell_length_b 12.544979
_cell_length_c 7.408589
_cell_angle_alpha 90.000000
_cell_angle_beta 90.000000
_cell_angle_gamma 90.000000
_cell_volume 1580.350698
_symmetry_space_group_name_H-M "I M M 2"
_symmetry_group_IT_number 44
_symmetry_cell_setting 'orthorhombic'
loop_
_space_group_symop_operation_xyz
x,y,z
-x,-y,z
-x,y,z
x,-y,z
1/2+x,1/2+y,1/2+z
1/2-x,1/2-y,1/2+z
1/2-x,1/2+y,1/2+z
1/2+x,1/2-y,1/2+z
loop_
_atom_site_type_symbol
_atom_site_label
_atom_site_fract_x
_atom_site_fract_y
_atom_site_fract_z
Si Si1 0.700661 0.121412 0.845700
Si Si2 0.654517 0.255612 0.193151
Si Si3 0.500000 0.380173 0.654207
Si Si4 0.500000 0.380220 0.080864
Si Si5 0.913057 0.312392 0.043324
O O1 0.777612 0.162542 0.744726
O O2 0.628153 0.128117 0.707913
O O3 0.713570 0.000000 0.904025
O O4 0.682848 0.187899 0.024049
O O5 0.575944 0.320029 0.152440
O O6 0.637092 0.175484 0.359975
O O7 0.500000 0.500000 0.574364
O O8 0.577496 0.315267 0.587351
O O9 0.500000 0.382499 0.867604
O O10 0.500000 0.500000 0.158310
O O11 0.000000 0.363978 0.020203
#
# Coordination Sequence:
#
# PCOD8190208 Si02
#       5
#     8   8   4   4   8
#     4  12  27  45  67  97 138 177 212 276 338 389
#     4  12  23  46  67  98 134 168 229 272 322 404
#     4   9  19  37  67  99 131 172 217 278 332 369
#     4  11  21  39  73 103 127 172 225 284 332 373
#     4  10  22  43  66  95 136 169 222 270 317 404
#
# _framework density 20.248671000000002
#
# number of rings (size 3 to 8) (size 9 to 14) (size 15 to 20)
#    0.750    0.250    6.250    0.750    0.000    4.500 
#    0.000    0.000    0.000    0.000    0.000    0.000 
#    0.000    0.000    0.000    0.000    0.000    0.000 
#
# Total GULP energy -198378.064945 kJ/mol
# GULP energy per Si atom -12398.629059 kJ/mol
# Density = 2.020258 g / cm^3
# Si number density = 20.248671 Si / 1000 Ang^3
#
#
#
# Elastic Constant Matrix: (Units=GPa)
#
#
# Indices 1 2 3 4 5 6 
#
# 1 125.3959 51.8892 43.1906 0.0000 0.0000 0.0000
# 2 51.8892 113.6900 51.7297 0.0000 0.0000 0.0000
# 3 43.1906 51.7297 124.0379 0.0000 0.0000 0.0000
# 4 0.0000 0.0000 0.0000 -23.5854 0.0000 0.0000
# 5 0.0000 0.0000 0.0000 0.0000 82.3039 0.0000
# 6 0.0000 0.0000 0.0000 0.0000 0.0000 13.3236
#
#
#
# Elastic Compliance Matrix: (Units=1/GPa)
#
#
# Indices 1 2 3 4 5 6 
#
# 1 0.010215 -0.003757 -0.001990 0.000000 0.000000 0.000000
# 2 -0.003757 0.012237 -0.003796 0.000000 0.000000 0.000000
# 3 -0.001990 -0.003796 0.010338 0.000000 0.000000 0.000000
# 4 0.000000 0.000000 0.000000 -0.042399 0.000000 0.000000
# 5 0.000000 0.000000 0.000000 0.000000 0.012150 0.000000
# 6 0.000000 0.000000 0.000000 0.000000 0.000000 0.075055
#
#
# Mechanical properties :
#
#
# Convention : Reuss Voigt Hill
#
# Bulk Modulus (GPa) = 72.96301 72.97140 72.96720
# Shear Modulus (GPa) = 49.38327 28.82936 39.10632
#
# Velocity S-wave (km/s) = 4.94382 3.77738 4.39943
# Velocity P-wave (km/s) = 8.28856 7.42567 7.86895
#
# Compressibility (1/GPa) = 0.01370558
#
# Stress axis : x y z
#
# Youngs Moduli (GPa) = 97.89821 81.71701 96.73113
#
# Poissons Ratio (x) = 0.30697 0.19251
# Poissons Ratio (y) = 0.36776 0.36714
# Poissons Ratio (z) = 0.19483 0.31016
#
# Static dielectric constant tensor:
#      x y z
#    x 3.768660 0.000000 0.000000 
#    y 0.000000 3.553000 0.000000 
#    z 0.000000 0.000000 3.871260 
# 
# 
# High freq. dielectric constant tensor:
#      x y z
#    x 1.798000 0.000000 0.000000 
#    y 0.000000 1.771830 0.000000 
#    z 0.000000 0.000000 1.811770 
# 
# From -- ./inp_files/7913.got.cif
#   From: 2010.03.12/outbox.cif.g09.slc.cpg/sg44_4_cif.got.tgz:7913.got - 2010.04.14 02:36:11.
