data_PCOD8190388
_publ_section_title
;
Structure prediction by ZEFSAII (Michael W. Deem and Ramdas Pophale) SiO2 
 PCOD8190388
Probable space group: I B A 2
;
_chemical_formula_sum "Si O2"
_cell_formula_units_Z 60
_cell_length_a 11.980564
_cell_length_b 20.582366
_cell_length_c 13.641414
_cell_angle_alpha 90.000000
_cell_angle_beta 90.000000
_cell_angle_gamma 90.000000
_cell_volume 3363.813813
_symmetry_space_group_name_H-M "I B A 2"
_symmetry_group_IT_number 45
_symmetry_cell_setting 'orthorhombic'
loop_
_space_group_symop_operation_xyz
x,y,z
-x,-y,z
-x,y,1/2+z
x,-y,1/2+z
1/2+x,1/2+y,1/2+z
1/2-x,1/2-y,1/2+z
1/2-x,1/2+y,z
1/2+x,1/2-y,z
loop_
_atom_site_type_symbol
_atom_site_label
_atom_site_fract_x
_atom_site_fract_y
_atom_site_fract_z
Si Si1 0.933414 0.800847 0.234950
Si Si2 0.911957 0.186139 0.521369
Si Si3 0.871634 0.099551 0.243635
Si Si4 0.254568 0.323097 0.878860
Si Si5 0.000000 0.000000 0.882543
Si Si6 0.616565 0.406453 0.523796
Si Si7 0.512504 0.199613 0.879076
Si Si8 0.720811 0.168256 0.388827
O O1 0.883532 0.785735 0.128122
O O2 0.840986 0.844074 0.293617
O O3 0.962377 0.731007 0.280496
O O4 0.048495 0.838992 0.232567
O O5 0.802786 0.150275 0.478163
O O6 0.999547 0.129214 0.531572
O O7 0.962515 0.243557 0.456212
O O8 0.930329 0.047059 0.312191
O O9 0.758155 0.127317 0.292950
O O10 0.845800 0.071727 0.133928
O O11 0.289348 0.358237 0.979792
O O12 0.262946 0.245651 0.880385
O O13 0.124786 0.341870 0.858081
O O14 0.905623 0.033176 0.951379
O O15 0.409621 0.153437 0.915031
#
# Coordination Sequence:
#
# PCOD8190388 Si02
#       8
#     8   8   8   8   4   8   8   8
#     4  10  18  31  49  76 109 142 178 223 277 333
#     4  10  18  31  49  76 109 142 178 223 277 333
#     4  11  21  35  57  83 111 144 185 235 287 333
#     4  10  18  34  51  78 114 149 181 231 280 345
#     4  12  20  40  60  84 112 146 194 246 282 326
#     4  11  21  35  57  83 111 144 185 235 287 333
#     4  10  19  32  50  76 110 147 184 214 276 338
#     4  10  18  34  51  78 114 149 181 231 280 345
#
# _framework density 17.836897
#
# number of rings (size 3 to 8) (size 9 to 14) (size 15 to 20)
#    0.000    1.600    8.000    0.400    0.000    5.333 
#    0.000    0.000    0.000    0.800    0.000    1.867 
#    0.000    0.000    0.000    0.000    0.000    0.000 
#
# Total GULP energy -371707.022089 kJ/mol
# GULP energy per Si atom -12390.234070 kJ/mol
# Density = 1.779630 g / cm^3
# Si number density = 17.836897 Si / 1000 Ang^3
#
#
#
# Elastic Constant Matrix: (Units=GPa)
#
#
# Indices 1 2 3 4 5 6 
#
# 1 113.4583 0.6265 25.7147 0.0001 0.0000 0.0000
# 2 0.6265 39.1526 18.0608 0.0008 -0.0003 -0.0001
# 3 25.7147 18.0608 127.1824 0.0009 -0.0002 -0.0001
# 4 0.0001 0.0008 0.0009 12.0768 -0.0003 -0.0002
# 5 0.0000 -0.0003 -0.0002 -0.0003 12.3407 0.0001
# 6 0.0000 -0.0001 -0.0001 -0.0002 0.0001 19.5398
#
#
#
# Elastic Compliance Matrix: (Units=1/GPa)
#
#
# Indices 1 2 3 4 5 6 
#
# 1 0.009258 0.000766 -0.001981 0.000000 0.000000 0.000000
# 2 0.000766 0.027395 -0.004045 -0.000002 0.000001 0.000000
# 3 -0.001981 -0.004045 0.008838 0.000000 0.000000 0.000000
# 4 0.000000 -0.000002 0.000000 0.082803 0.000002 0.000001
# 5 0.000000 0.000001 0.000000 0.000002 0.081033 0.000000
# 6 0.000000 0.000000 0.000000 0.000001 0.000000 0.051178
#
#
# Mechanical properties :
#
#
# Convention : Reuss Voigt Hill
#
# Bulk Modulus (GPa) = 28.59552 40.95527 34.77540
# Shear Modulus (GPa) = 17.68775 24.48422 21.08598
#
# Velocity S-wave (km/s) = 3.15245 3.70898 3.44198
# Velocity P-wave (km/s) = 5.41452 6.43062 5.94432
#
# Compressibility (1/GPa) = 0.03497051
#
# Stress axis : x y z
#
# Youngs Moduli (GPa) = 108.00903 36.50334 113.15284
#
# Poissons Ratio (x) = -0.02794 0.22412
# Poissons Ratio (y) = -0.08268 0.45770
# Poissons Ratio (z) = 0.21393 0.14766
#
# Static dielectric constant tensor:
#      x y z
#    x 4.018920 0.000000 0.000000 
#    y 0.000000 2.971020 0.000000 
#    z 0.000000 0.000000 3.910790 
# 
# 
# High freq. dielectric constant tensor:
#      x y z
#    x 1.688810 0.000000 0.000000 
#    y 0.000000 1.641060 0.000000 
#    z 0.000000 0.000000 1.698070 
# 
# From -- ./inp_files/6331.got.cif
#   From: 2010.03.12/outbox.cif.g09.slc.cpg/sg45_4_cif.got.tgz:6331.got - 2010.04.14 02:50:11.
