data_PCOD8190568
_publ_section_title
;
Structure prediction by ZEFSAII (Michael W. Deem and Ramdas Pophale) SiO2 
 PCOD8190568
Probable space group: I B A 2
;
_chemical_formula_sum "Si O2"
_cell_formula_units_Z 52
_cell_length_a 14.411972
_cell_length_b 9.018221
_cell_length_c 18.594815
_cell_angle_alpha 90.000000
_cell_angle_beta 90.000000
_cell_angle_gamma 90.000000
_cell_volume 2416.774587
_symmetry_space_group_name_H-M "I B A 2"
_symmetry_group_IT_number 45
_symmetry_cell_setting 'orthorhombic'
loop_
_space_group_symop_operation_xyz
x,y,z
-x,-y,z
-x,y,1/2+z
x,-y,1/2+z
1/2+x,1/2+y,1/2+z
1/2-x,1/2-y,1/2+z
1/2-x,1/2+y,z
1/2+x,1/2-y,z
loop_
_atom_site_type_symbol
_atom_site_label
_atom_site_fract_x
_atom_site_fract_y
_atom_site_fract_z
Si Si1 0.500000 0.500000 0.216241
Si Si2 0.267280 0.866138 0.754020
Si Si3 0.652529 0.577727 0.485221
Si Si4 0.682124 0.271450 0.542868
Si Si5 0.983816 0.231385 0.593823
Si Si6 0.349455 0.407362 0.322389
Si Si7 0.181183 0.629951 0.660975
O O1 0.504762 0.643783 0.166583
O O2 0.414773 0.502080 0.270625
O O3 0.340924 0.757353 0.790516
O O4 0.185083 0.761510 0.720936
O O5 0.240258 0.985750 0.815852
O O6 0.314488 0.962298 0.690350
O O7 0.665365 0.401738 0.485816
O O8 0.751316 0.649592 0.507273
O O9 0.568962 0.625082 0.537151
O O10 0.621096 0.616442 0.404463
O O11 0.580310 0.204182 0.562114
O O12 0.726972 0.346336 0.613095
O O13 0.913038 0.363485 0.614323
#
# Coordination Sequence:
#
# PCOD8190568 Si02
#       7
#     4   8   8   8   8   8   8
#     4  12  22  38  64  98 122 166 222 270 320 396
#     4  10  20  39  64  88 135 171 213 269 327 398
#     4  11  24  41  63  94 128 175 214 273 331 402
#     4  11  22  39  67  90 129 165 224 268 330 395
#     4  11  21  40  67  96 125 169 223 271 325 388
#     4  11  24  40  64  94 131 172 219 264 337 401
#     4  10  20  38  64  98 125 170 218 274 327 379
#
# _framework density 21.516280999999999
#
# number of rings (size 3 to 8) (size 9 to 14) (size 15 to 20)
#    0.000    1.231    3.077    4.615    2.154    0.000 
#    0.000   12.308    0.000    1.846    0.000    0.000 
#    0.000    0.000    0.000    0.000    0.000    0.000 
#
# Total GULP energy -322254.105859 kJ/mol
# GULP energy per Si atom -12394.388687 kJ/mol
# Density = 2.146731 g / cm^3
# Si number density = 21.516281 Si / 1000 Ang^3
#
#
#
# Elastic Constant Matrix: (Units=GPa)
#
#
# Indices 1 2 3 4 5 6 
#
# 1 112.0323 17.7647 42.5494 0.0000 0.0000 0.0000
# 2 17.7647 97.0235 27.4419 0.0000 0.0000 0.0000
# 3 42.5494 27.4419 118.7604 0.0000 0.0000 0.0000
# 4 0.0000 0.0000 0.0000 24.0422 0.0000 0.0000
# 5 0.0000 0.0000 0.0000 0.0000 -12.2640 0.0000
# 6 0.0000 0.0000 0.0000 0.0000 0.0000 14.3849
#
#
#
# Elastic Compliance Matrix: (Units=1/GPa)
#
#
# Indices 1 2 3 4 5 6 
#
# 1 0.010407 -0.000910 -0.003518 0.000000 0.000000 0.000000
# 2 -0.000910 0.011107 -0.002240 0.000000 0.000000 0.000000
# 3 -0.003518 -0.002240 0.010198 0.000000 0.000000 0.000000
# 4 0.000000 0.000000 0.000000 0.041594 0.000000 0.000000
# 5 0.000000 0.000000 0.000000 0.000000 -0.081540 0.000000
# 6 0.000000 0.000000 0.000000 0.000000 0.000000 0.069517
#
#
# Mechanical properties :
#
#
# Convention : Reuss Voigt Hill
#
# Bulk Modulus (GPa) = 54.42325 55.92534 55.17429
# Shear Modulus (GPa) = 61.92279 21.23664 41.57971
#
# Velocity S-wave (km/s) = 5.37047 3.14507 4.40076
# Velocity P-wave (km/s) = 7.98780 6.26396 7.17781
#
# Compressibility (1/GPa) = 0.01837450
#
# Stress axis : x y z
#
# Youngs Moduli (GPa) = 96.09370 90.03236 98.05412
#
# Poissons Ratio (x) = 0.08196 0.34496
# Poissons Ratio (y) = 0.08748 0.21968
# Poissons Ratio (z) = 0.33807 0.20170
#
# Static dielectric constant tensor:
#      x y z
#    x 4.195910 0.000000 0.000000 
#    y 0.000000 3.819340 0.000000 
#    z 0.000000 0.000000 3.821580 
# 
# 
# High freq. dielectric constant tensor:
#      x y z
#    x 1.835980 0.000000 0.000000 
#    y 0.000000 1.844340 0.000000 
#    z 0.000000 0.000000 1.837780 
# 
# From -- ./inp_files/9157.got.cif
#   From: 2010.03.12/outbox.cif.g09.slc.cpg/sg45_5_cif.got.tgz:9157.got - 2010.04.14 02:50:11.
