data_PCOD8190966
_publ_section_title
;
Structure prediction by ZEFSAII (Michael W. Deem and Ramdas Pophale) SiO2 
 PCOD8190966
Probable space group: I B A 2
;
_chemical_formula_sum "Si O2"
_cell_formula_units_Z 48
_cell_length_a 8.480848
_cell_length_b 9.988198
_cell_length_c 24.386846
_cell_angle_alpha 90.000000
_cell_angle_beta 90.000000
_cell_angle_gamma 90.000000
_cell_volume 2065.770438
_symmetry_space_group_name_H-M "I B A 2"
_symmetry_group_IT_number 45
_symmetry_cell_setting 'orthorhombic'
loop_
_space_group_symop_operation_xyz
x,y,z
-x,-y,z
-x,y,1/2+z
x,-y,1/2+z
1/2+x,1/2+y,1/2+z
1/2-x,1/2-y,1/2+z
1/2-x,1/2+y,z
1/2+x,1/2-y,z
loop_
_atom_site_type_symbol
_atom_site_label
_atom_site_fract_x
_atom_site_fract_y
_atom_site_fract_z
Si Si1 0.338873 0.924474 0.811660
Si Si2 0.603386 0.130445 0.015498
Si Si3 0.379311 0.822398 0.138490
Si Si4 0.879890 0.795459 0.445556
Si Si5 0.707954 0.086126 0.683408
Si Si6 0.342818 0.356587 0.373334
O O1 0.315822 0.902349 0.747746
O O2 0.344857 0.778652 0.837689
O O3 0.500000 0.000000 0.824618
O O4 0.196739 0.013497 0.836689
O O5 0.664639 0.178823 0.074440
O O6 0.500000 0.000000 0.022167
O O7 0.749608 0.106400 0.973327
O O8 0.494720 0.248193 0.993203
O O9 0.559490 0.860068 0.149048
O O10 0.354504 0.676278 0.164813
O O11 0.264663 0.930901 0.167969
O O12 0.793023 0.666680 0.418869
O O13 0.983755 0.876157 0.400682
#
# Coordination Sequence:
#
# PCOD8190966 Si02
#       6
#     8   8   8   8   8   8
#     4  12  24  46  72 104 144 191 237 299 364 431
#     4  11  23  45  73 101 141 189 235 297 361 432
#     4  11  23  45  70 105 139 184 230 297 359 426
#     4  10  25  43  69 102 139 189 238 294 355 425
#     4  11  24  44  72 101 141 182 236 293 359 427
#     4  11  25  45  70 105 144 190 239 300 356 434
#
# _framework density 23.235882
#
# number of rings (size 3 to 8) (size 9 to 14) (size 15 to 20)
#    0.000    1.000    5.000    2.000    4.667    1.333 
#    3.000    1.667    0.000    0.000    0.000    0.000 
#    0.000    0.000    0.000    0.000    0.000    0.000 
#
# Total GULP energy -297621.709470 kJ/mol
# GULP energy per Si atom -12400.904561 kJ/mol
# Density = 2.318300 g / cm^3
# Si number density = 23.235882 Si / 1000 Ang^3
#
#
#
# Elastic Constant Matrix: (Units=GPa)
#
#
# Indices 1 2 3 4 5 6 
#
# 1 95.6377 15.4370 41.0712 0.0000 0.0000 0.0000
# 2 15.4370 78.8450 40.5610 0.0000 0.0000 0.0000
# 3 41.0712 40.5610 137.8832 0.0000 0.0000 0.0000
# 4 0.0000 0.0000 0.0000 32.5903 0.0000 0.0000
# 5 0.0000 0.0000 0.0000 0.0000 -73.9969 0.0000
# 6 0.0000 0.0000 0.0000 0.0000 0.0000 12.6460
#
#
#
# Elastic Compliance Matrix: (Units=1/GPa)
#
#
# Indices 1 2 3 4 5 6 
#
# 1 0.012014 -0.000602 -0.003401 0.000000 0.000000 0.000000
# 2 -0.000602 0.014975 -0.004226 0.000000 0.000000 0.000000
# 3 -0.003401 -0.004226 0.009509 0.000000 0.000000 0.000000
# 4 0.000000 0.000000 0.000000 0.030684 0.000000 0.000000
# 5 0.000000 0.000000 0.000000 0.000000 -0.013514 0.000000
# 6 0.000000 0.000000 0.000000 0.000000 0.000000 0.079077
#
#
# Mechanical properties :
#
#
# Convention : Reuss Voigt Hill
#
# Bulk Modulus (GPa) = 49.90344 56.27825 53.09085
# Shear Modulus (GPa) = 32.07535 8.60099 20.33817
#
# Velocity S-wave (km/s) = 3.71944 1.92604 2.96174
# Velocity P-wave (km/s) = 6.32211 5.40548 5.88168
#
# Compressibility (1/GPa) = 0.02003870
#
# Stress axis : x y z
#
# Youngs Moduli (GPa) = 83.23565 66.77823 105.16608
#
# Poissons Ratio (x) = 0.04023 0.35771
# Poissons Ratio (y) = 0.05014 0.44440
# Poissons Ratio (z) = 0.28312 0.28219
#
# Static dielectric constant tensor:
#      x y z
#    x 4.324760 0.000000 0.000000 
#    y 0.000000 4.371220 0.000000 
#    z 0.000000 0.000000 4.314060 
# 
# 
# High freq. dielectric constant tensor:
#      x y z
#    x 1.917650 0.000000 0.000000 
#    y 0.000000 1.920890 0.000000 
#    z 0.000000 0.000000 1.931990 
# 
# From -- ./inp_files/9527.got.cif
#   From: 2010.03.12/outbox.cif.g09.slc.cpg/sg45_5_cif.got.tgz:9527.got - 2010.04.14 02:50:11.
