data_PCOD8190366
_publ_section_title
;
Structure prediction by ZEFSAII (Michael W. Deem and Ramdas Pophale) SiO2 
 PCOD8190366
Probable space group: I B A 2
;
_chemical_formula_sum "Si O2"
_cell_formula_units_Z 52
_cell_length_a 30.265849
_cell_length_b 9.719867
_cell_length_c 8.957966
_cell_angle_alpha 90.000000
_cell_angle_beta 90.000000
_cell_angle_gamma 90.000000
_cell_volume 2635.254679
_symmetry_space_group_name_H-M "I B A 2"
_symmetry_group_IT_number 45
_symmetry_cell_setting 'orthorhombic'
loop_
_space_group_symop_operation_xyz
x,y,z
-x,-y,z
-x,y,1/2+z
x,-y,1/2+z
1/2+x,1/2+y,1/2+z
1/2-x,1/2-y,1/2+z
1/2-x,1/2+y,z
1/2+x,1/2-y,z
loop_
_atom_site_type_symbol
_atom_site_label
_atom_site_fract_x
_atom_site_fract_y
_atom_site_fract_z
Si Si1 0.782269 0.163052 0.648400
Si Si2 0.779538 0.876649 0.491470
Si Si3 0.000000 0.000000 0.581148
Si Si4 0.043315 0.258062 0.667650
Si Si5 0.539686 0.237620 0.995781
Si Si6 0.619994 0.361471 0.504705
Si Si7 0.382657 0.346780 0.661286
O O1 0.767711 0.128050 0.816821
O O2 0.753787 0.288081 0.588343
O O3 0.833214 0.210331 0.642892
O O4 0.774558 0.033409 0.542043
O O5 0.828837 0.819526 0.521856
O O6 0.970388 0.099057 0.477247
O O7 0.030550 0.096504 0.685191
O O8 0.047711 0.326471 0.831539
O O9 0.090451 0.259170 0.582243
O O10 0.003251 0.334004 0.575840
O O11 0.584306 0.229485 0.095048
O O12 0.612173 0.509307 0.577271
O O13 0.605203 0.370302 0.333348
#
# Coordination Sequence:
#
# PCOD8190366 Si02
#       7
#     8   8   4   8   8   8   8
#     4  10  21  36  54  76 102 134 170 213 258 306
#     4  10  21  36  54  76 102 134 170 213 258 306
#     4   8  18  20  30  48  78 112 152 184 226 272
#     4  10  17  23  35  53  80 116 153 190 232 283
#     4  10  17  23  35  53  80 116 153 190 232 283
#     4  10  18  27  41  61  87 119 157 196 240 290
#     4  10  18  27  41  61  87 119 157 196 240 290
#
# _framework density 19.732437999999998
#
# number of rings (size 3 to 8) (size 9 to 14) (size 15 to 20)
#    0.923    1.231    1.538    3.231    0.000    3.692 
#    0.000    0.000    0.000    0.000    0.000    0.000 
#    0.000    1.231    0.000   12.923    0.000    9.538 
#
# Total GULP energy -322098.998345 kJ/mol
# GULP energy per Si atom -12388.423013 kJ/mol
# Density = 1.968753 g / cm^3
# Si number density = 19.732438 Si / 1000 Ang^3
#
#
#
# Elastic Constant Matrix: (Units=GPa)
#
#
# Indices 1 2 3 4 5 6 
#
# 1 104.4171 7.3165 41.8473 0.0000 0.0000 0.0000
# 2 7.3165 10.7128 -0.7647 0.0000 0.0000 0.0000
# 3 41.8473 -0.7647 141.4980 0.0000 0.0000 0.0000
# 4 0.0000 0.0000 0.0000 15.9572 0.0000 0.0000
# 5 0.0000 0.0000 0.0000 0.0000 36.0188 0.0000
# 6 0.0000 0.0000 0.0000 0.0000 0.0000 9.0901
#
#
#
# Elastic Compliance Matrix: (Units=1/GPa)
#
#
# Indices 1 2 3 4 5 6 
#
# 1 0.011530 -0.008121 -0.003454 0.000000 0.000000 0.000000
# 2 -0.008121 0.099103 0.002937 0.000000 0.000000 0.000000
# 3 -0.003454 0.002937 0.008105 0.000000 0.000000 0.000000
# 4 0.000000 0.000000 0.000000 0.062668 0.000000 0.000000
# 5 0.000000 0.000000 0.000000 0.000000 0.027763 0.000000
# 6 0.000000 0.000000 0.000000 0.000000 0.000000 0.110010
#
#
# Mechanical properties :
#
#
# Convention : Reuss Voigt Hill
#
# Bulk Modulus (GPa) = 9.85591 39.26956 24.56273
# Shear Modulus (GPa) = 13.50349 26.09514 19.79932
#
# Velocity S-wave (km/s) = 2.61881 3.64049 3.17107
# Velocity P-wave (km/s) = 3.76162 6.13312 5.08748
#
# Compressibility (1/GPa) = 0.10146196
#
# Stress axis : x y z
#
# Youngs Moduli (GPa) = 86.72838 10.09054 123.38700
#
# Poissons Ratio (x) = 0.08195 0.42617
# Poissons Ratio (y) = 0.70435 -0.36244
# Poissons Ratio (z) = 0.29955 -0.02964
#
# Static dielectric constant tensor:
#      x y z
#    x 3.867050 0.000000 0.000000 
#    y 0.000000 2.829890 0.000000 
#    z 0.000000 0.000000 3.612220 
# 
# 
# High freq. dielectric constant tensor:
#      x y z
#    x 1.783360 0.000000 0.000000 
#    y 0.000000 1.693150 0.000000 
#    z 0.000000 0.000000 1.781840 
# 
# From -- ./inp_files/2613.got.cif
#   From: 2010.03.12/outbox.cif.g09.slc.cpg/sg45_2_cif.got.tgz:2613.got - 2010.04.14 02:50:11.
