data_PCOD8190326
_publ_section_title
;
Structure prediction by ZEFSAII (Michael W. Deem and Ramdas Pophale) SiO2 
 PCOD8190326
Probable space group: I M M 2
;
_chemical_formula_sum "Si O2"
_cell_formula_units_Z 64
_cell_length_a 9.406064
_cell_length_b 9.894791
_cell_length_c 41.112189
_cell_angle_alpha 90.000000
_cell_angle_beta 90.000000
_cell_angle_gamma 90.000000
_cell_volume 3826.354081
_symmetry_space_group_name_H-M "I M M 2"
_symmetry_group_IT_number 44
_symmetry_cell_setting 'orthorhombic'
loop_
_space_group_symop_operation_xyz
x,y,z
-x,-y,z
-x,y,z
x,-y,z
1/2+x,1/2+y,1/2+z
1/2-x,1/2-y,1/2+z
1/2-x,1/2+y,1/2+z
1/2+x,1/2-y,1/2+z
loop_
_atom_site_type_symbol
_atom_site_label
_atom_site_fract_x
_atom_site_fract_y
_atom_site_fract_z
Si Si1 0.158550 0.339019 0.930900
Si Si2 0.166264 0.344725 0.185580
Si Si3 0.665298 0.156093 0.308787
Si Si4 0.164887 0.844931 0.749460
Si Si5 0.669203 0.651434 0.557117
Si Si6 0.331072 0.348629 0.629321
Si Si7 0.830443 0.650554 0.002580
Si Si8 0.659725 0.339304 0.871299
O O1 0.152282 0.500000 0.929243
O O2 0.263624 0.279984 0.903446
O O3 0.000000 0.281075 0.924640
O O4 0.215074 0.296269 0.966727
O O5 0.197781 0.500000 0.176898
O O6 0.246089 0.300171 0.218155
O O7 0.228654 0.255639 0.155970
O O8 0.000000 0.318597 0.191143
O O9 0.500000 0.175975 0.317204
O O10 0.712909 0.248029 0.278650
O O11 0.754578 0.207836 0.339570
O O12 0.698590 0.000000 0.300348
O O13 0.000000 0.824530 0.741149
O O14 0.197567 0.000000 0.759150
O O15 0.500000 0.657325 0.555884
O O16 0.721615 0.500000 0.549199
O O17 0.722073 0.694045 0.593237
O O18 0.734906 0.751896 0.530198
O O19 0.500000 0.345281 0.629681
O O20 0.277453 0.500000 0.637649
O O21 0.770357 0.500000 0.008887
O O22 0.000000 0.647506 0.004073
O O23 0.500000 0.281189 0.869687
O O24 0.658168 0.500000 0.873059
#
# Coordination Sequence:
#
# PCOD8190326 Si02
#       8
#     8   8   8   8   8   8   8   8
#     4   8  13  22  36  54  78 107 136 167 205 245
#     4   9  17  28  42  61  83 107 137 170 202 239
#     4   9  17  29  45  64  84 106 134 168 204 241
#     4   9  18  32  47  62  83 111 138 164 200 245
#     4   8  13  21  33  51  78 108 133 161 201 243
#     4   8  14  24  37  55  81 111 138 165 203 247
#     4   8  13  20  32  52  75 100 133 169 201 235
#     4   9  16  25  39  61  86 109 135 168 204 241
#
# _framework density 16.726105
#
# number of rings (size 3 to 8) (size 9 to 14) (size 15 to 20)
#    0.000    3.500    0.000    1.875    0.000    3.000 
#    0.000    2.500    0.000    0.750    0.000    4.375 
#    0.000    5.000    0.000    0.000    0.000    0.000 
#
# Total GULP energy -396619.043031 kJ/mol
# GULP energy per Si atom -12394.345095 kJ/mol
# Density = 1.668804 g / cm^3
# Si number density = 16.726105 Si / 1000 Ang^3
#
#
#
# Elastic Constant Matrix: (Units=GPa)
#
#
# Indices 1 2 3 4 5 6 
#
# 1 45.6186 26.1497 54.3378 0.0000 0.0000 0.0000
# 2 26.1497 68.4637 82.0616 0.0001 0.0000 0.0000
# 3 54.3378 82.0616 183.5973 0.0000 0.0000 0.0000
# 4 0.0000 0.0001 0.0000 26.4592 0.0000 0.0000
# 5 0.0000 0.0000 0.0000 0.0000 18.0962 0.0000
# 6 0.0000 0.0000 0.0000 0.0000 0.0000 9.4793
#
#
#
# Elastic Compliance Matrix: (Units=1/GPa)
#
#
# Indices 1 2 3 4 5 6 
#
# 1 0.033982 -0.001991 -0.009167 0.000000 0.000000 0.000000
# 2 -0.001991 0.031578 -0.013525 0.000000 0.000000 0.000000
# 3 -0.009167 -0.013525 0.014205 0.000000 0.000000 0.000000
# 4 0.000000 0.000000 0.000000 0.037794 0.000000 0.000000
# 5 0.000000 0.000000 0.000000 0.000000 0.055260 0.000000
# 6 0.000000 0.000000 0.000000 0.000000 0.000000 0.105493
#
#
# Mechanical properties :
#
#
# Convention : Reuss Voigt Hill
#
# Bulk Modulus (GPa) = 32.89699 69.19754 51.04727
# Shear Modulus (GPa) = 14.80113 19.81563 17.30838
#
# Velocity S-wave (km/s) = 2.97797 3.44570 3.22034
# Velocity P-wave (km/s) = 5.61562 7.56910 6.66432
#
# Compressibility (1/GPa) = 0.03039792
#
# Stress axis : x y z
#
# Youngs Moduli (GPa) = 29.42750 31.66751 70.39738
#
# Poissons Ratio (x) = 0.06306 0.64535
# Poissons Ratio (y) = 0.05860 0.95212
# Poissons Ratio (z) = 0.26977 0.42830
#
# Static dielectric constant tensor:
#      x y z
#    x 2.846160 0.000000 0.000000 
#    y 0.000000 3.050550 0.000000 
#    z 0.000000 0.000000 3.454570 
# 
# 
# High freq. dielectric constant tensor:
#      x y z
#    x 1.601070 0.000000 0.000000 
#    y 0.000000 1.615890 0.000000 
#    z 0.000000 0.000000 1.657310 
# 
# From -- ./inp_files/27201.got.cif
#   From: 2010.03.12/outbox.cif.g09.slc.cpg/sg44_14_cif.got.tgz:27201.got - 2010.04.14 02:36:11.
