data_PCOD8190710
_publ_section_title
;
Structure prediction by ZEFSAII (Michael W. Deem and Ramdas Pophale) SiO2 
 PCOD8190710
Probable space group: I B A 2
;
_chemical_formula_sum "Si O2"
_cell_formula_units_Z 48
_cell_length_a 12.344736
_cell_length_b 8.799129
_cell_length_c 18.592455
_cell_angle_alpha 90.000000
_cell_angle_beta 90.000000
_cell_angle_gamma 90.000000
_cell_volume 2019.566836
_symmetry_space_group_name_H-M "I B A 2"
_symmetry_group_IT_number 45
_symmetry_cell_setting 'orthorhombic'
loop_
_space_group_symop_operation_xyz
x,y,z
-x,-y,z
-x,y,1/2+z
x,-y,1/2+z
1/2+x,1/2+y,1/2+z
1/2-x,1/2-y,1/2+z
1/2-x,1/2+y,z
1/2+x,1/2-y,z
loop_
_atom_site_type_symbol
_atom_site_label
_atom_site_fract_x
_atom_site_fract_y
_atom_site_fract_z
Si Si1 0.943325 0.844427 0.372970
Si Si2 0.749477 0.492298 0.647332
Si Si3 0.406102 0.215123 0.479028
Si Si4 0.387642 0.727166 0.218636
Si Si5 0.452188 0.836920 0.614420
Si Si6 0.790332 0.026444 0.993263
O O1 0.891485 0.760626 0.304869
O O2 0.857299 0.875283 0.436259
O O3 0.033742 0.729109 0.403148
O O4 0.000000 0.000000 0.348052
O O5 0.662894 0.563200 0.701283
O O6 0.814116 0.363636 0.689264
O O7 0.822953 0.634558 0.617310
O O8 0.686904 0.422835 0.576774
O O9 0.497214 0.228976 0.540779
O O10 0.339161 0.056683 0.480930
O O11 0.317840 0.349403 0.486546
O O12 0.506696 0.733643 0.181718
O O13 0.500000 0.000000 0.629286
#
# Coordination Sequence:
#
# PCOD8190710 Si02
#       6
#     8   8   8   8   8   8
#     4  10  27  46  66 106 150 191 238 295 371 424
#     4  11  23  43  73 104 135 185 244 293 353 425
#     4  11  23  43  73 104 142 184 235 298 351 430
#     4  11  24  46  68 103 143 182 234 298 361 424
#     4  10  21  40  69 103 135 175 238 288 349 422
#     4  11  22  45  72 104 141 185 242 292 355 427
#
# _framework density 23.767472000000001
#
# number of rings (size 3 to 8) (size 9 to 14) (size 15 to 20)
#    0.000    1.333    5.000    0.000    4.667    5.333 
#    0.000    5.833    0.000    0.000    0.000    0.000 
#    0.000    0.000    0.000    0.000    0.000    0.000 
#
# Total GULP energy -297471.021270 kJ/mol
# GULP energy per Si atom -12394.625886 kJ/mol
# Density = 2.371338 g / cm^3
# Si number density = 23.767472 Si / 1000 Ang^3
#
#
#
# Elastic Constant Matrix: (Units=GPa)
#
#
# Indices 1 2 3 4 5 6 
#
# 1 59.1919 23.4147 66.1162 0.0000 0.0000 0.0000
# 2 23.4147 62.2929 56.0013 0.0000 0.0000 0.0000
# 3 66.1162 56.0013 201.2714 0.0000 0.0000 0.0000
# 4 0.0000 0.0000 0.0000 32.1410 0.0000 0.0000
# 5 0.0000 0.0000 0.0000 0.0000 44.0426 0.0000
# 6 0.0000 0.0000 0.0000 0.0000 0.0000 39.0785
#
#
#
# Elastic Compliance Matrix: (Units=1/GPa)
#
#
# Indices 1 2 3 4 5 6 
#
# 1 0.027075 -0.002909 -0.008085 0.000000 0.000000 0.000000
# 2 -0.002909 0.021721 -0.005088 0.000000 0.000000 0.000000
# 3 -0.008085 -0.005088 0.009040 0.000000 0.000000 0.000000
# 4 0.000000 0.000000 0.000000 0.031113 0.000000 0.000000
# 5 0.000000 0.000000 0.000000 0.000000 0.022705 0.000000
# 6 0.000000 0.000000 0.000000 0.000000 0.000000 0.025590
#
#
# Mechanical properties :
#
#
# Convention : Reuss Voigt Hill
#
# Bulk Modulus (GPa) = 38.95198 68.20229 53.57713
# Shear Modulus (GPa) = 28.09554 34.86735 31.48145
#
# Velocity S-wave (km/s) = 3.44190 3.83432 3.64340
# Velocity P-wave (km/s) = 5.67626 6.95418 6.34746
#
# Compressibility (1/GPa) = 0.02567264
#
# Stress axis : x y z
#
# Youngs Moduli (GPa) = 36.93404 46.03914 110.62181
#
# Poissons Ratio (x) = 0.13393 0.89434
# Poissons Ratio (y) = 0.10744 0.56283
# Poissons Ratio (z) = 0.29860 0.23424
#
# Static dielectric constant tensor:
#      x y z
#    x 5.063270 0.000000 0.000000 
#    y 0.000000 4.234080 0.000000 
#    z 0.000000 0.000000 4.142190 
# 
# 
# High freq. dielectric constant tensor:
#      x y z
#    x 1.946310 0.000000 0.000000 
#    y 0.000000 1.942430 0.000000 
#    z 0.000000 0.000000 1.931850 
# 
# From -- ./inp_files/8142.got.cif
#   From: 2010.03.12/outbox.cif.g09.slc.cpg/sg45_5_cif.got.tgz:8142.got - 2010.04.14 02:50:11.
