data_PCOD8190591
_publ_section_title
;
Structure prediction by ZEFSAII (Michael W. Deem and Ramdas Pophale) SiO2 
 PCOD8190591
Probable space group: I B A 2
;
_chemical_formula_sum "Si O2"
_cell_formula_units_Z 48
_cell_length_a 14.899325
_cell_length_b 13.223277
_cell_length_c 10.496200
_cell_angle_alpha 90.000000
_cell_angle_beta 90.000000
_cell_angle_gamma 90.000000
_cell_volume 2067.939299
_symmetry_space_group_name_H-M "I B A 2"
_symmetry_group_IT_number 45
_symmetry_cell_setting 'orthorhombic'
loop_
_space_group_symop_operation_xyz
x,y,z
-x,-y,z
-x,y,1/2+z
x,-y,1/2+z
1/2+x,1/2+y,1/2+z
1/2-x,1/2-y,1/2+z
1/2-x,1/2+y,z
1/2+x,1/2-y,z
loop_
_atom_site_type_symbol
_atom_site_label
_atom_site_fract_x
_atom_site_fract_y
_atom_site_fract_z
Si Si1 0.908523 0.596938 0.970080
Si Si2 0.301990 0.931470 0.351571
Si Si3 0.654877 0.684865 0.480110
Si Si4 0.477344 0.140927 0.722328
Si Si5 0.021759 0.861333 0.266887
Si Si6 0.143215 0.028106 0.207426
O O1 0.844158 0.499154 0.965863
O O2 0.848632 0.695301 0.008262
O O3 0.953637 0.598389 0.828309
O O4 0.984384 0.587415 0.081956
O O5 0.245941 0.836752 0.403785
O O6 0.375850 0.878737 0.264847
O O7 0.238634 0.007876 0.272048
O O8 0.565641 0.661025 0.402016
O O9 0.656884 0.606602 0.595027
O O10 0.495960 0.258224 0.694682
O O11 0.929994 0.920637 0.301701
O O12 0.092354 0.921592 0.174250
#
# Coordination Sequence:
#
# PCOD8190591 Si02
#       6
#     8   8   8   8   8   8
#     4  11  25  45  71  97 133 181 228 277 340 407
#     4  11  25  40  67  99 137 177 220 278 346 409
#     4  10  22  42  65 100 134 172 228 282 338 401
#     4  11  24  47  67  98 135 178 230 278 337 412
#     4   9  21  39  65  97 130 176 225 279 336 395
#     4  10  20  40  66  96 133 171 225 281 337 397
#
# _framework density 23.211514000000001
#
# number of rings (size 3 to 8) (size 9 to 14) (size 15 to 20)
#    0.000    1.667    1.667    1.500    2.333    9.333 
#    0.000    3.333    0.000    0.000    0.000    0.000 
#    0.000    0.000    0.000    0.000    0.000    0.000 
#
# Total GULP energy -297334.063934 kJ/mol
# GULP energy per Si atom -12388.919331 kJ/mol
# Density = 2.315868 g / cm^3
# Si number density = 23.211514 Si / 1000 Ang^3
#
#
#
# Elastic Constant Matrix: (Units=GPa)
#
#
# Indices 1 2 3 4 5 6 
#
# 1 93.6053 37.6175 19.0250 0.0000 0.0000 0.0000
# 2 37.6175 113.2441 22.8302 0.0000 0.0000 0.0000
# 3 19.0250 22.8302 93.8049 0.0000 0.0000 0.0000
# 4 0.0000 0.0000 0.0000 20.5583 0.0000 0.0000
# 5 0.0000 0.0000 0.0000 0.0000 28.5455 0.0000
# 6 0.0000 0.0000 0.0000 0.0000 0.0000 35.9285
#
#
#
# Elastic Compliance Matrix: (Units=1/GPa)
#
#
# Indices 1 2 3 4 5 6 
#
# 1 0.012556 -0.003846 -0.001610 0.000000 0.000000 0.000000
# 2 -0.003846 0.010464 -0.001767 0.000000 0.000000 0.000000
# 3 -0.001610 -0.001767 0.011417 0.000000 0.000000 0.000000
# 4 0.000000 0.000000 0.000000 0.048642 0.000000 0.000000
# 5 0.000000 0.000000 0.000000 0.000000 0.035032 0.000000
# 6 0.000000 0.000000 0.000000 0.000000 0.000000 0.027833
#
#
# Mechanical properties :
#
#
# Convention : Reuss Voigt Hill
#
# Bulk Modulus (GPa) = 50.02345 51.06665 50.54505
# Shear Modulus (GPa) = 29.93025 31.75190 30.84108
#
# Velocity S-wave (km/s) = 3.59480 3.70258 3.64908
# Velocity P-wave (km/s) = 6.23121 6.35036 6.29107
#
# Compressibility (1/GPa) = 0.01999062
#
# Stress axis : x y z
#
# Youngs Moduli (GPa) = 79.64204 95.56293 87.58845
#
# Poissons Ratio (x) = 0.36756 0.14106
# Poissons Ratio (y) = 0.30632 0.15475
# Poissons Ratio (z) = 0.12826 0.16883
#
# Static dielectric constant tensor:
#      x y z
#    x 4.375940 0.000000 0.000000 
#    y 0.000000 4.574880 0.000000 
#    z 0.000000 0.000000 4.016710 
# 
# 
# High freq. dielectric constant tensor:
#      x y z
#    x 1.921650 0.000000 0.000000 
#    y 0.000000 1.940180 0.000000 
#    z 0.000000 0.000000 1.896570 
# 
# From -- ./inp_files/4096.got.cif
#   From: 2010.03.12/outbox.cif.g09.slc.cpg/sg45_3_cif.got.tgz:4096.got - 2010.04.14 02:50:11.
