data_PCOD8190753
_publ_section_title
;
Structure prediction by ZEFSAII (Michael W. Deem and Ramdas Pophale) SiO2 
 PCOD8190753
Probable space group: I B A 2
;
_chemical_formula_sum "Si O2"
_cell_formula_units_Z 44
_cell_length_a 13.677421
_cell_length_b 18.779749
_cell_length_c 9.005046
_cell_angle_alpha 90.000000
_cell_angle_beta 90.000000
_cell_angle_gamma 90.000000
_cell_volume 2313.022908
_symmetry_space_group_name_H-M "I B A 2"
_symmetry_group_IT_number 45
_symmetry_cell_setting 'orthorhombic'
loop_
_space_group_symop_operation_xyz
x,y,z
-x,-y,z
-x,y,1/2+z
x,-y,1/2+z
1/2+x,1/2+y,1/2+z
1/2-x,1/2-y,1/2+z
1/2-x,1/2+y,z
1/2+x,1/2-y,z
loop_
_atom_site_type_symbol
_atom_site_label
_atom_site_fract_x
_atom_site_fract_y
_atom_site_fract_z
Si Si1 0.408264 0.761385 0.105820
Si Si2 0.361914 0.477322 0.981441
Si Si3 0.394349 0.226537 0.951613
Si Si4 0.000000 0.000000 0.228094
Si Si5 0.796980 0.861493 0.943464
Si Si6 0.279102 0.651213 0.597985
O O1 0.418444 0.754811 0.282024
O O2 0.328266 0.820314 0.071554
O O3 0.506403 0.793810 0.035625
O O4 0.375387 0.686757 0.031325
O O5 0.422906 0.458490 0.832831
O O6 0.319408 0.557210 0.991087
O O7 0.434027 0.453447 0.117045
O O8 0.273461 0.422925 0.005941
O O9 0.314653 0.163298 0.978111
O O10 0.358364 0.298985 0.023098
O O11 0.811631 0.855410 0.768301
#
# Coordination Sequence:
#
# PCOD8190753 Si02
#       6
#     8   8   8   4   8   8
#     4  10  22  38  59  83 113 149 189 229 279 331
#     4  11  22  38  55  86 114 144 187 228 279 336
#     4  10  22  38  59  83 113 149 189 229 279 331
#     4  10  24  34  56  86 114 150 176 224 292 330
#     4  10  22  39  58  84 114 148 187 233 276 331
#     4  10  22  39  58  84 114 148 187 233 276 331
#
# _framework density 19.022725999999999
#
# number of rings (size 3 to 8) (size 9 to 14) (size 15 to 20)
#    0.000    1.818    1.818    1.091    7.636    1.455 
#    0.000    0.909    0.000    4.364    0.000    0.000 
#    0.000    0.000    0.000    0.000    0.000    0.000 
#
# Total GULP energy -272583.588250 kJ/mol
# GULP energy per Si atom -12390.163102 kJ/mol
# Density = 1.897943 g / cm^3
# Si number density = 19.022726 Si / 1000 Ang^3
#
#
#
# Elastic Constant Matrix: (Units=GPa)
#
#
# Indices 1 2 3 4 5 6 
#
# 1 107.9927 49.7083 57.3105 0.0000 0.0000 0.0000
# 2 49.7083 123.2958 48.9452 0.0000 0.0000 0.0000
# 3 57.3105 48.9452 113.7328 0.0000 0.0000 0.0000
# 4 0.0000 0.0000 0.0000 22.4897 0.0000 0.0000
# 5 0.0000 0.0000 0.0000 0.0000 29.2616 0.0000
# 6 0.0000 0.0000 0.0000 0.0000 0.0000 12.6552
#
#
#
# Elastic Compliance Matrix: (Units=1/GPa)
#
#
# Indices 1 2 3 4 5 6 
#
# 1 0.013703 -0.003357 -0.005460 0.000000 0.000000 0.000000
# 2 -0.003357 0.010604 -0.002872 0.000000 0.000000 0.000000
# 3 -0.005460 -0.002872 0.012780 0.000000 0.000000 0.000000
# 4 0.000000 0.000000 0.000000 0.044465 0.000000 0.000000
# 5 0.000000 0.000000 0.000000 0.000000 0.034174 0.000000
# 6 0.000000 0.000000 0.000000 0.000000 0.000000 0.079019
#
#
# Mechanical properties :
#
#
# Convention : Reuss Voigt Hill
#
# Bulk Modulus (GPa) = 72.94686 72.99438 72.97062
# Shear Modulus (GPa) = 22.45252 25.48512 23.96882
#
# Velocity S-wave (km/s) = 3.43928 3.66419 3.55351
# Velocity P-wave (km/s) = 7.36220 7.50714 7.43502
#
# Compressibility (1/GPa) = 0.01370861
#
# Stress axis : x y z
#
# Youngs Moduli (GPa) = 72.97830 94.30388 78.24781
#
# Poissons Ratio (x) = 0.31656 0.42725
# Poissons Ratio (y) = 0.24498 0.22472
# Poissons Ratio (z) = 0.39848 0.27083
#
# Static dielectric constant tensor:
#      x y z
#    x 3.775030 0.000000 0.000000 
#    y 0.000000 3.374430 0.000000 
#    z 0.000000 0.000000 3.789690 
# 
# 
# High freq. dielectric constant tensor:
#      x y z
#    x 1.739770 0.000000 0.000000 
#    y 0.000000 1.720220 0.000000 
#    z 0.000000 0.000000 1.763030 
# 
# From -- ./inp_files/1664.got.cif
#   From: 2010.03.12/outbox.cif.g09.slc.cpg/sg45_1_cif.got.tgz:1664.got - 2010.04.14 02:50:11.
