data_PCOD8190774
_publ_section_title
;
Structure prediction by ZEFSAII (Michael W. Deem and Ramdas Pophale) SiO2 
 PCOD8190774
Probable space group: I B A 2
;
_chemical_formula_sum "Si O2"
_cell_formula_units_Z 52
_cell_length_a 10.578511
_cell_length_b 28.242408
_cell_length_c 8.784161
_cell_angle_alpha 90.000000
_cell_angle_beta 90.000000
_cell_angle_gamma 90.000000
_cell_volume 2624.378987
_symmetry_space_group_name_H-M "I B A 2"
_symmetry_group_IT_number 45
_symmetry_cell_setting 'orthorhombic'
loop_
_space_group_symop_operation_xyz
x,y,z
-x,-y,z
-x,y,1/2+z
x,-y,1/2+z
1/2+x,1/2+y,1/2+z
1/2-x,1/2-y,1/2+z
1/2-x,1/2+y,z
1/2+x,1/2-y,z
loop_
_atom_site_type_symbol
_atom_site_label
_atom_site_fract_x
_atom_site_fract_y
_atom_site_fract_z
Si Si1 0.167136 0.307772 0.028550
Si Si2 0.330330 0.121563 0.045996
Si Si3 0.500000 0.500000 0.357998
Si Si4 0.912180 0.933876 0.114577
Si Si5 0.982454 0.648311 0.282204
Si Si6 0.076544 0.840122 0.154140
Si Si7 0.148396 0.799805 0.484143
O O1 0.300303 0.335796 0.045016
O O2 0.093719 0.310663 0.190558
O O3 0.083791 0.330163 0.896638
O O4 0.191493 0.254265 0.975026
O O5 0.228224 0.084001 0.094135
O O6 0.446166 0.115441 0.161808
O O7 0.383287 0.115271 0.874067
O O8 0.269045 0.173952 0.057246
O O9 0.435221 0.459794 0.456329
O O10 0.597102 0.472004 0.249420
O O11 0.018207 0.893339 0.146341
O O12 0.113543 0.825090 0.324690
O O13 0.971901 0.803468 0.094681
#
# Coordination Sequence:
#
# PCOD8190774 Si02
#       7
#     8   8   4   8   8   8   8
#     4  11  24  37  58  84 125 169 223 252 303 356
#     4  10  22  40  60  86 127 160 214 250 308 381
#     4  10  22  40  72 100 120 148 192 274 336 398
#     4  10  22  42  67 101 121 154 204 261 340 379
#     4  10  23  39  56  86 115 179 200 257 293 367
#     4  11  24  39  62  90 126 171 206 272 308 379
#     4  11  24  36  57  88 125 168 218 267 303 349
#
# _framework density 19.814211
#
# number of rings (size 3 to 8) (size 9 to 14) (size 15 to 20)
#    0.000    1.538    1.538    2.769   12.923    0.000 
#    0.000    0.000    0.000    2.769    0.000    0.000 
#    0.000    0.000    0.000    0.000    0.000    0.000 
#
# Total GULP energy -322264.573686 kJ/mol
# GULP energy per Si atom -12394.791296 kJ/mol
# Density = 1.976911 g / cm^3
# Si number density = 19.814211 Si / 1000 Ang^3
#
#
#
# Elastic Constant Matrix: (Units=GPa)
#
#
# Indices 1 2 3 4 5 6 
#
# 1 114.0946 40.2779 42.4403 -0.0090 0.0092 0.0016
# 2 40.2779 104.5716 46.7955 0.0017 0.0050 0.0001
# 3 42.4403 46.7955 115.4676 0.0191 0.0193 0.0042
# 4 -0.0090 0.0017 0.0191 151.5536 0.0159 0.0002
# 5 0.0092 0.0050 0.0193 0.0159 27.2493 -0.0028
# 6 0.0016 0.0001 0.0042 0.0002 -0.0028 13.4249
#
#
#
# Elastic Compliance Matrix: (Units=1/GPa)
#
#
# Indices 1 2 3 4 5 6 
#
# 1 0.010837 -0.002922 -0.002799 0.000001 -0.000001 0.000000
# 2 -0.002922 0.012469 -0.003979 0.000000 0.000002 0.000001
# 3 -0.002799 -0.003979 0.011302 -0.000002 -0.000006 -0.000003
# 4 0.000001 0.000000 -0.000002 0.006598 -0.000004 0.000000
# 5 -0.000001 0.000002 -0.000006 -0.000004 0.036698 0.000008
# 6 0.000000 0.000001 -0.000003 0.000000 0.000008 0.074488
#
#
# Mechanical properties :
#
#
# Convention : Reuss Voigt Hill
#
# Bulk Modulus (GPa) = 65.75593 65.90683 65.83138
# Shear Modulus (GPa) = 28.27046 52.08690 40.17868
#
# Velocity S-wave (km/s) = 3.78137 5.13271 4.50796
# Velocity P-wave (km/s) = 7.23348 8.27411 7.77123
#
# Compressibility (1/GPa) = 0.01520775
#
# Stress axis : x y z
#
# Youngs Moduli (GPa) = 92.27414 80.19944 88.47941
#
# Poissons Ratio (x) = 0.23431 0.24768
# Poissons Ratio (y) = 0.26958 0.35210
# Poissons Ratio (z) = 0.25830 0.31915
#
# Static dielectric constant tensor:
#      x y z
#    x 3.803920 0.000000 0.000000 
#    y 0.000000 3.409800 0.000000 
#    z 0.000000 0.000000 3.943200 
# 
# 
# High freq. dielectric constant tensor:
#      x y z
#    x 1.781500 0.000000 0.000000 
#    y 0.000000 1.740910 0.000000 
#    z 0.000000 0.000000 1.795330 
# 
# From -- ./inp_files/1413.got.cif
#   From: 2010.03.12/outbox.cif.g09.slc.cpg/sg45_1_cif.got.tgz:1413.got - 2010.04.14 02:50:11.
