data_PCOD8190899
_publ_section_title
;
Structure prediction by ZEFSAII (Michael W. Deem and Ramdas Pophale) SiO2 
 PCOD8190899
Probable space group: I B A 2
;
_chemical_formula_sum "Si O2"
_cell_formula_units_Z 60
_cell_length_a 16.796465
_cell_length_b 18.486468
_cell_length_c 9.000236
_cell_angle_alpha 90.000000
_cell_angle_beta 90.000000
_cell_angle_gamma 90.000000
_cell_volume 2794.639094
_symmetry_space_group_name_H-M "I B A 2"
_symmetry_group_IT_number 45
_symmetry_cell_setting 'orthorhombic'
loop_
_space_group_symop_operation_xyz
x,y,z
-x,-y,z
-x,y,1/2+z
x,-y,1/2+z
1/2+x,1/2+y,1/2+z
1/2-x,1/2-y,1/2+z
1/2-x,1/2+y,z
1/2+x,1/2-y,z
loop_
_atom_site_type_symbol
_atom_site_label
_atom_site_fract_x
_atom_site_fract_y
_atom_site_fract_z
Si Si1 0.863540 0.167163 0.157600
Si Si2 0.078559 0.307886 0.823605
Si Si3 0.590325 0.823133 0.668625
Si Si4 0.500000 0.500000 0.945971
Si Si5 0.218699 0.433196 0.142258
Si Si6 0.969694 0.097430 0.693828
Si Si7 0.787406 0.416416 0.302580
Si Si8 0.654190 0.305066 0.311927
O O1 0.875917 0.237670 0.259814
O O2 0.785984 0.121380 0.206698
O O3 0.936784 0.112372 0.178221
O O4 0.857653 0.194212 0.988092
O O5 0.125486 0.381469 0.783512
O O6 0.990638 0.319405 0.760984
O O7 0.074326 0.297144 0.000690
O O8 0.629623 0.902861 0.673316
O O9 0.659868 0.776246 0.750486
O O10 0.443625 0.550676 0.049478
O O11 0.553359 0.550457 0.839861
O O12 0.224621 0.513959 0.202023
O O13 0.232337 0.440624 0.967890
O O14 0.923613 0.171327 0.716190
O O15 0.726839 0.353102 0.255069
#
# Coordination Sequence:
#
# PCOD8190899 Si02
#       8
#     8   8   8   4   8   8   8   8
#     4  11  23  40  64  94 129 164 211 260 315 378
#     4  11  24  43  67  94 127 166 217 265 318 378
#     4  11  24  43  67  94 127 166 217 265 318 378
#     4  10  24  34  52  86 132 166 200 250 304 374
#     4  10  25  44  65  95 128 168 211 265 321 380
#     4  11  22  36  56  88 125 166 208 244 309 368
#     4  10  25  44  65  95 128 168 211 265 321 380
#     4  11  23  40  64  94 129 164 211 260 315 378
#
# _framework density 21.469677000000001
#
# number of rings (size 3 to 8) (size 9 to 14) (size 15 to 20)
#    0.000    1.333    2.667    1.600    5.600    3.733 
#    0.000    2.667    0.000    0.000    0.000    0.000 
#    0.000    0.000    0.000    0.000    0.000    0.000 
#
# Total GULP energy -371887.781415 kJ/mol
# GULP energy per Si atom -12396.259380 kJ/mol
# Density = 2.142081 g / cm^3
# Si number density = 21.469677 Si / 1000 Ang^3
#
#
#
# Elastic Constant Matrix: (Units=GPa)
#
#
# Indices 1 2 3 4 5 6 
#
# 1 108.5689 52.0041 41.6174 0.0000 0.0000 0.0000
# 2 52.0041 88.0076 42.7713 0.0000 0.0000 0.0000
# 3 41.6174 42.7713 106.4565 0.0000 0.0000 0.0000
# 4 0.0000 0.0000 0.0000 36.7891 0.0000 0.0000
# 5 0.0000 0.0000 0.0000 0.0000 25.7570 0.0000
# 6 0.0000 0.0000 0.0000 0.0000 0.0000 23.6065
#
#
#
# Elastic Compliance Matrix: (Units=1/GPa)
#
#
# Indices 1 2 3 4 5 6 
#
# 1 0.013383 -0.006667 -0.002553 0.000000 0.000000 0.000000
# 2 -0.006667 0.017441 -0.004401 0.000000 0.000000 0.000000
# 3 -0.002553 -0.004401 0.012160 0.000000 0.000000 0.000000
# 4 0.000000 0.000000 0.000000 0.027182 0.000000 0.000000
# 5 0.000000 0.000000 0.000000 0.000000 0.038824 0.000000
# 6 0.000000 0.000000 0.000000 0.000000 0.000000 0.042361
#
#
# Mechanical properties :
#
#
# Convention : Reuss Voigt Hill
#
# Bulk Modulus (GPa) = 63.52710 63.97985 63.75347
# Shear Modulus (GPa) = 27.19735 28.33987 27.76861
#
# Velocity S-wave (km/s) = 3.56305 3.63712 3.60027
# Velocity P-wave (km/s) = 6.82499 6.89224 6.85870
#
# Compressibility (1/GPa) = 0.01574131
#
# Stress axis : x y z
#
# Youngs Moduli (GPa) = 74.72152 57.33542 82.23826
#
# Poissons Ratio (x) = 0.38227 0.20997
# Poissons Ratio (y) = 0.49819 0.36193
# Poissons Ratio (z) = 0.19077 0.25233
#
# Static dielectric constant tensor:
#      x y z
#    x 3.837490 0.000000 0.000000 
#    y 0.000000 3.943020 0.000000 
#    z 0.000000 0.000000 3.915710 
# 
# 
# High freq. dielectric constant tensor:
#      x y z
#    x 1.834460 0.000000 0.000000 
#    y 0.000000 1.851830 0.000000 
#    z 0.000000 0.000000 1.848170 
# 
# From -- ./inp_files/2156.got.cif
#   From: 2010.03.12/outbox.cif.g09.slc.cpg/sg45_2_cif.got.tgz:2156.got - 2010.04.14 02:50:11.
