data_PCOD8190640
_publ_section_title
;
Structure prediction by ZEFSAII (Michael W. Deem and Ramdas Pophale) SiO2 
 PCOD8190640
Probable space group: I B A 2
;
_chemical_formula_sum "Si O2"
_cell_formula_units_Z 64
_cell_length_a 28.223475
_cell_length_b 19.091836
_cell_length_c 5.225042
_cell_angle_alpha 90.000000
_cell_angle_beta 90.000000
_cell_angle_gamma 90.000000
_cell_volume 2815.450952
_symmetry_space_group_name_H-M "I B A 2"
_symmetry_group_IT_number 45
_symmetry_cell_setting 'orthorhombic'
loop_
_space_group_symop_operation_xyz
x,y,z
-x,-y,z
-x,y,1/2+z
x,-y,1/2+z
1/2+x,1/2+y,1/2+z
1/2-x,1/2-y,1/2+z
1/2-x,1/2+y,z
1/2+x,1/2-y,z
loop_
_atom_site_type_symbol
_atom_site_label
_atom_site_fract_x
_atom_site_fract_y
_atom_site_fract_z
Si Si1 0.574197 0.033439 0.421040
Si Si2 0.718164 0.326993 0.632866
Si Si3 0.418792 0.466721 0.752094
Si Si4 0.529770 0.826418 0.807578
Si Si5 0.030532 0.830180 0.843525
Si Si6 0.814001 0.026536 0.187566
Si Si7 0.817455 0.531965 0.490831
Si Si8 0.220352 0.673626 0.130806
O O1 0.569987 0.116248 0.364963
O O2 0.628479 0.009851 0.445184
O O3 0.549666 0.010653 0.689133
O O4 0.680241 0.390766 0.622352
O O5 0.756864 0.337034 0.410109
O O6 0.694419 0.249850 0.609256
O O7 0.740269 0.331430 0.913300
O O8 0.443184 0.491494 0.488273
O O9 0.426208 0.383959 0.796070
O O10 0.363368 0.486998 0.753186
O O11 0.511375 0.836434 0.518440
O O12 0.551792 0.748378 0.829410
O O13 0.991080 0.842345 0.624945
O O14 0.786277 0.014105 0.457555
O O15 0.792988 0.483873 0.714431
O O16 0.817304 0.612857 0.577692
#
# Coordination Sequence:
#
# PCOD8190640 Si02
#       8
#     8   8   8   8   8   8   8   8
#     4  10  21  37  57  83 118 148 187 239 285 340
#     4  10  21  37  58  83 118 145 189 237 284 339
#     4  10  21  37  56  81 114 147 191 237 282 338
#     4  10  21  37  58  85 116 149 195 235 286 346
#     4  10  21  37  58  83 114 151 194 241 283 338
#     4  10  21  37  56  81 118 149 184 239 283 342
#     4  10  21  37  57  83 114 146 193 232 278 345
#     4  10  21  37  58  85 112 151 189 232 284 344
#
# _framework density 22.731707
#
# number of rings (size 3 to 8) (size 9 to 14) (size 15 to 20)
#    0.000    2.000    0.000    3.000    0.000    6.000 
#    4.500    0.000   11.000    0.000    0.000    0.000 
#    0.000    0.000    0.000    0.000    0.000    0.000 
#
# Total GULP energy -396520.219925 kJ/mol
# GULP energy per Si atom -12391.256873 kJ/mol
# Density = 2.267997 g / cm^3
# Si number density = 22.731707 Si / 1000 Ang^3
#
#
#
# Elastic Constant Matrix: (Units=GPa)
#
#
# Indices 1 2 3 4 5 6 
#
# 1 6.7955 22.2900 19.0529 0.0000 0.0000 0.0000
# 2 22.2900 203.3826 63.9915 0.0000 0.0000 0.0000
# 3 19.0529 63.9915 177.2718 0.0000 0.0000 0.0000
# 4 0.0000 0.0000 0.0000 37.7128 0.0000 0.0000
# 5 0.0000 0.0000 0.0000 0.0000 13.0142 0.0000
# 6 0.0000 0.0000 0.0000 0.0000 0.0000 37.8171
#
#
#
# Elastic Compliance Matrix: (Units=1/GPa)
#
#
# Indices 1 2 3 4 5 6 
#
# 1 0.291537 -0.024923 -0.022337 0.000000 0.000000 0.000000
# 2 -0.024923 0.007678 -0.000093 0.000000 0.000000 0.000000
# 3 -0.022337 -0.000093 0.008075 0.000000 0.000000 0.000000
# 4 0.000000 0.000000 0.000000 0.026516 0.000000 0.000000
# 5 0.000000 0.000000 0.000000 0.000000 0.076839 0.000000
# 6 0.000000 0.000000 0.000000 0.000000 0.000000 0.026443
#
#
# Mechanical properties :
#
#
# Convention : Reuss Voigt Hill
#
# Bulk Modulus (GPa) = 4.70403 66.45764 35.58083
# Shear Modulus (GPa) = 8.29661 36.51651 22.40656
#
# Velocity S-wave (km/s) = 1.91252 4.01236 3.14299
# Velocity P-wave (km/s) = 2.63644 7.12492 5.37193
#
# Compressibility (1/GPa) = 0.21258348
#
# Stress axis : x y z
#
# Youngs Moduli (GPa) = 3.43010 130.25053 123.83455
#
# Poissons Ratio (x) = 3.24627 2.76612
# Poissons Ratio (y) = 0.08549 0.01148
# Poissons Ratio (z) = 0.07662 0.01207
#
# Static dielectric constant tensor:
#      x y z
#    x 3.365170 0.000000 0.000000 
#    y 0.000000 4.526640 0.000000 
#    z 0.000000 0.000000 5.367110 
# 
# 
# High freq. dielectric constant tensor:
#      x y z
#    x 1.838030 0.000000 0.000000 
#    y 0.000000 1.910250 0.000000 
#    z 0.000000 0.000000 1.941620 
# 
# From -- ./inp_files/702.got.cif
#   From: 2010.03.12/outbox.cif.g09.slc.cpg/sg45_1_cif.got.tgz:702.got - 2010.04.14 02:50:11.
