data_PCOD8190459
_publ_section_title
;
Structure prediction by ZEFSAII (Michael W. Deem and Ramdas Pophale) SiO2 
 PCOD8190459
Probable space group: I B A 2
;
_chemical_formula_sum "Si O2"
_cell_formula_units_Z 60
_cell_length_a 26.433966
_cell_length_b 11.951225
_cell_length_c 8.838069
_cell_angle_alpha 90.000000
_cell_angle_beta 90.000000
_cell_angle_gamma 90.000000
_cell_volume 2792.107516
_symmetry_space_group_name_H-M "I B A 2"
_symmetry_group_IT_number 45
_symmetry_cell_setting 'orthorhombic'
loop_
_space_group_symop_operation_xyz
x,y,z
-x,-y,z
-x,y,1/2+z
x,-y,1/2+z
1/2+x,1/2+y,1/2+z
1/2-x,1/2-y,1/2+z
1/2-x,1/2+y,z
1/2+x,1/2-y,z
loop_
_atom_site_type_symbol
_atom_site_label
_atom_site_fract_x
_atom_site_fract_y
_atom_site_fract_z
Si Si1 0.253505 0.348317 0.368450
Si Si2 0.295000 0.507389 0.607196
Si Si3 0.555478 0.134726 0.856088
Si Si4 0.500000 0.000000 0.605209
Si Si5 0.900352 0.076460 0.740302
Si Si6 0.573148 0.626542 0.419020
Si Si7 0.347661 0.766983 0.790115
Si Si8 0.838092 0.788364 0.452641
O O1 0.266452 0.402074 0.532141
O O2 0.258723 0.438587 0.234545
O O3 0.288640 0.237386 0.334954
O O4 0.196192 0.304582 0.369790
O O5 0.348696 0.476339 0.678265
O O6 0.305179 0.599467 0.477318
O O7 0.539595 0.067319 0.003664
O O8 0.539064 0.266850 0.865506
O O9 0.617627 0.128632 0.847268
O O10 0.531020 0.086446 0.705627
O O11 0.934022 0.115534 0.598932
O O12 0.936694 0.990593 0.833126
O O13 0.886394 0.182244 0.847310
O O14 0.631514 0.654765 0.374629
O O15 0.357793 0.759254 0.611170
#
# Coordination Sequence:
#
# PCOD8190459 Si02
#       8
#     8   8   8   4   8   8   8   8
#     4  11  22  33  57  77 124 167 220 269 311 360
#     4  11  18  34  49  74 107 158 218 262 309 357
#     4   9  21  43  70 103 121 168 204 258 313 409
#     4  10  20  46  82  92 130 164 200 256 348 400
#     4  12  17  36  61  85 117 171 216 251 317 367
#     4  10  19  35  65  93 120 154 211 256 305 391
#     4   9  19  39  55  89 126 158 218 263 302 382
#     4  11  22  34  56  84 120 182 212 266 318 358
#
# _framework density 21.489144
#
# number of rings (size 3 to 8) (size 9 to 14) (size 15 to 20)
#    0.800    0.800    6.667    0.000    3.733    0.000 
#    4.800    2.667    0.000    2.400    0.000    0.000 
#    0.000    0.000    0.000    0.000    0.000    0.000 
#
# Total GULP energy -371676.969774 kJ/mol
# GULP energy per Si atom -12389.232326 kJ/mol
# Density = 2.144023 g / cm^3
# Si number density = 21.489144 Si / 1000 Ang^3
#
#
#
# Elastic Constant Matrix: (Units=GPa)
#
#
# Indices 1 2 3 4 5 6 
#
# 1 45.9036 48.0395 41.9660 0.0000 0.0000 0.0000
# 2 48.0395 97.7966 61.0994 0.0000 0.0000 0.0000
# 3 41.9660 61.0994 147.7875 0.0000 0.0000 0.0000
# 4 0.0000 0.0000 0.0000 24.8000 0.0000 0.0000
# 5 0.0000 0.0000 0.0000 0.0000 11.6638 0.0000
# 6 0.0000 0.0000 0.0000 0.0000 0.0000 24.4304
#
#
#
# Elastic Compliance Matrix: (Units=1/GPa)
#
#
# Indices 1 2 3 4 5 6 
#
# 1 0.047614 -0.020145 -0.005192 0.000000 0.000000 0.000000
# 2 -0.020145 0.022309 -0.003503 0.000000 0.000000 0.000000
# 3 -0.005192 -0.003503 0.009689 0.000000 0.000000 0.000000
# 4 0.000000 0.000000 0.000000 0.040323 0.000000 0.000000
# 5 0.000000 0.000000 0.000000 0.000000 0.085736 0.000000
# 6 0.000000 0.000000 0.000000 0.000000 0.000000 0.040933
#
#
# Mechanical properties :
#
#
# Convention : Reuss Voigt Hill
#
# Bulk Modulus (GPa) = 45.59481 65.96638 55.78060
# Shear Modulus (GPa) = 16.04657 21.53770 18.79214
#
# Velocity S-wave (km/s) = 2.73560 3.16928 2.96039
# Velocity P-wave (km/s) = 5.58942 6.64505 6.13996
#
# Compressibility (1/GPa) = 0.02193232
#
# Stress axis : x y z
#
# Youngs Moduli (GPa) = 21.00241 44.82431 103.20998
#
# Poissons Ratio (x) = 0.90298 0.53586
# Poissons Ratio (y) = 0.42309 0.36153
# Poissons Ratio (z) = 0.10904 0.15702
#
# Static dielectric constant tensor:
#      x y z
#    x 3.336210 0.000000 0.000000 
#    y 0.000000 3.747220 0.000000 
#    z 0.000000 0.000000 4.046460 
# 
# 
# High freq. dielectric constant tensor:
#      x y z
#    x 1.797620 0.000000 0.000000 
#    y 0.000000 1.826730 0.000000 
#    z 0.000000 0.000000 1.861050 
# 
# From -- ./inp_files/2624.got.cif
#   From: 2010.03.12/outbox.cif.g09.slc.cpg/sg45_2_cif.got.tgz:2624.got - 2010.04.14 02:50:11.
