data_PCOD8190836
_publ_section_title
;
Structure prediction by ZEFSAII (Michael W. Deem and Ramdas Pophale) SiO2 
 PCOD8190836
Probable space group: I B A 2
;
_chemical_formula_sum "Si O2"
_cell_formula_units_Z 56
_cell_length_a 27.068736
_cell_length_b 4.982461
_cell_length_c 15.396130
_cell_angle_alpha 90.000000
_cell_angle_beta 90.000000
_cell_angle_gamma 90.000000
_cell_volume 2076.459447
_symmetry_space_group_name_H-M "I B A 2"
_symmetry_group_IT_number 45
_symmetry_cell_setting 'orthorhombic'
loop_
_space_group_symop_operation_xyz
x,y,z
-x,-y,z
-x,y,1/2+z
x,-y,1/2+z
1/2+x,1/2+y,1/2+z
1/2-x,1/2-y,1/2+z
1/2-x,1/2+y,z
1/2+x,1/2-y,z
loop_
_atom_site_type_symbol
_atom_site_label
_atom_site_fract_x
_atom_site_fract_y
_atom_site_fract_z
Si Si1 0.109416 0.099031 0.180440
Si Si2 0.550893 0.883669 0.145487
Si Si3 0.217428 0.451223 0.578206
Si Si4 0.358584 0.315998 0.500633
Si Si5 0.217999 0.564971 0.277166
Si Si6 0.643052 0.286588 0.358694
Si Si7 0.554998 0.035157 0.450571
O O1 0.093489 0.406720 0.169601
O O2 0.140179 0.022420 0.093030
O O3 0.143178 0.061062 0.265581
O O4 0.063042 0.898346 0.191116
O O5 0.500000 0.000000 0.182159
O O6 0.547745 0.818688 0.042936
O O7 0.236390 0.152146 0.559212
O O8 0.172569 0.538732 0.514076
O O9 0.199396 0.481631 0.678185
O O10 0.333873 0.515471 0.430770
O O11 0.414259 0.239744 0.469053
O O12 0.235240 0.867628 0.294727
O O13 0.175113 0.485794 0.346031
O O14 0.586746 0.212337 0.383690
O O15 0.500000 0.000000 0.409783
#
# Coordination Sequence:
#
# PCOD8190836 Si02
#       7
#     8   8   8   8   8   8   8
#     4  11  24  43  69 101 140 189 236 298 358 430
#     4  10  22  45  70  96 137 188 243 297 363 417
#     4  10  23  44  74 107 144 191 239 297 369 443
#     4  11  25  46  71 107 146 193 249 300 370 433
#     4  10  24  45  71 106 148 189 237 303 368 436
#     4  12  26  44  74 107 147 195 247 301 368 440
#     4  10  25  47  71 104 148 197 245 312 362 426
#
# _framework density 26.968982
#
# number of rings (size 3 to 8) (size 9 to 14) (size 15 to 20)
#    0.000    1.429    2.857    0.429    6.000    2.286 
#    2.571    0.000    0.000    0.000    0.000    0.000 
#    0.000    0.000    0.000    0.000    0.000    0.000 
#
# Total GULP energy -347271.503373 kJ/mol
# GULP energy per Si atom -12402.553692 kJ/mol
# Density = 2.690760 g / cm^3
# Si number density = 26.968982 Si / 1000 Ang^3
#
#
#
# Elastic Constant Matrix: (Units=GPa)
#
#
# Indices 1 2 3 4 5 6 
#
# 1 93.3843 -24.8112 7.1475 0.0000 0.0000 0.0000
# 2 -24.8112 49.8352 4.8035 0.0000 0.0000 0.0000
# 3 7.1475 4.8035 111.5007 0.0000 0.0000 0.0000
# 4 0.0000 0.0000 0.0000 28.8159 0.0000 0.0000
# 5 0.0000 0.0000 0.0000 0.0000 31.2700 0.0000
# 6 0.0000 0.0000 0.0000 0.0000 0.0000 31.1075
#
#
#
# Elastic Compliance Matrix: (Units=1/GPa)
#
#
# Indices 1 2 3 4 5 6 
#
# 1 0.012467 0.006310 -0.001071 0.000000 0.000000 0.000000
# 2 0.006310 0.023344 -0.001410 0.000000 0.000000 0.000000
# 3 -0.001071 -0.001410 0.009098 0.000000 0.000000 0.000000
# 4 0.000000 0.000000 0.000000 0.034703 0.000000 0.000000
# 5 0.000000 0.000000 0.000000 0.000000 0.031979 0.000000
# 6 0.000000 0.000000 0.000000 0.000000 0.000000 0.032147
#
#
# Mechanical properties :
#
#
# Convention : Reuss Voigt Hill
#
# Bulk Modulus (GPa) = 19.02354 25.44441 22.23397
# Shear Modulus (GPa) = 32.55167 36.07738 34.31452
#
# Velocity S-wave (km/s) = 3.47797 3.66148 3.57090
# Velocity P-wave (km/s) = 4.81638 5.22785 5.02632
#
# Compressibility (1/GPa) = 0.05256645
#
# Stress axis : x y z
#
# Youngs Moduli (GPa) = 80.21218 42.83817 109.91479
#
# Poissons Ratio (x) = -0.27031 0.11772
# Poissons Ratio (y) = -0.50615 0.15500
# Poissons Ratio (z) = 0.08591 0.06041
#
# Static dielectric constant tensor:
#      x y z
#    x 4.742620 0.000000 0.000000 
#    y 0.000000 4.618030 0.000000 
#    z 0.000000 0.000000 4.924830 
# 
# 
# High freq. dielectric constant tensor:
#      x y z
#    x 2.077970 0.000000 0.000000 
#    y 0.000000 2.079790 0.000000 
#    z 0.000000 0.000000 2.081800 
# 
# From -- ./inp_files/5252.got.cif
#   From: 2010.03.12/outbox.cif.g09.slc.cpg/sg45_3_cif.got.tgz:5252.got - 2010.04.14 02:50:11.
