data_PCOD8190331
_publ_section_title
;
Structure prediction by ZEFSAII (Michael W. Deem and Ramdas Pophale) SiO2 
 PCOD8190331
Probable space group: I M M 2
;
_chemical_formula_sum "Si O2"
_cell_formula_units_Z 40
_cell_length_a 9.367611
_cell_length_b 9.568588
_cell_length_c 25.849619
_cell_angle_alpha 90.000000
_cell_angle_beta 90.000000
_cell_angle_gamma 90.000000
_cell_volume 2317.025693
_symmetry_space_group_name_H-M "I M M 2"
_symmetry_group_IT_number 44
_symmetry_cell_setting 'orthorhombic'
loop_
_space_group_symop_operation_xyz
x,y,z
-x,-y,z
-x,y,z
x,-y,z
1/2+x,1/2+y,1/2+z
1/2-x,1/2-y,1/2+z
1/2-x,1/2+y,1/2+z
1/2+x,1/2-y,1/2+z
loop_
_atom_site_type_symbol
_atom_site_label
_atom_site_fract_x
_atom_site_fract_y
_atom_site_fract_z
Si Si1 0.833209 0.838716 0.239600
Si Si2 0.829971 0.342041 0.336534
Si Si3 0.169541 0.843397 0.544238
Si Si4 0.669969 0.657317 0.929784
Si Si5 0.334230 0.161917 0.138272
O O1 0.777362 0.743293 0.286515
O O2 0.750200 0.788247 0.188792
O O3 0.000000 0.816721 0.229409
O O4 0.799108 0.000000 0.252995
O O5 0.769918 0.500000 0.334491
O O6 0.767860 0.265140 0.387554
O O7 0.000000 0.342912 0.338324
O O8 0.223140 0.796697 0.487093
O O9 0.230260 0.742115 0.588575
O O10 0.000000 0.837429 0.544690
O O11 0.222954 0.000000 0.556062
O O12 0.500000 0.658694 0.927795
O O13 0.723578 0.500000 0.917311
O O14 0.500000 0.196762 0.147177
O O15 0.308571 0.000000 0.127294
#
# Coordination Sequence:
#
# PCOD8190331 Si02
#       5
#     8   8   8   8   8
#     4   9  17  29  43  58  80 111 140 163 195 242
#     4   9  16  24  36  57  82 105 132 168 205 237
#     4   8  14  24  38  57  81 108 135 162 197 242
#     4   8  13  22  36  54  78 107 134 160 197 245
#     4   9  17  28  42  61  83 106 135 170 202 232
#
# _framework density 17.263511999999999
#
# number of rings (size 3 to 8) (size 9 to 14) (size 15 to 20)
#    0.000    3.400    0.000    1.800    0.000    4.000 
#    0.000    4.000    0.000    0.000    0.000    1.400 
#    0.000    1.600    0.000    0.000    0.000    0.000 
#
# Total GULP energy -247890.920647 kJ/mol
# GULP energy per Si atom -12394.546032 kJ/mol
# Density = 1.722422 g / cm^3
# Si number density = 17.263512 Si / 1000 Ang^3
#
#
#
# Elastic Constant Matrix: (Units=GPa)
#
#
# Indices 1 2 3 4 5 6 
#
# 1 13.5514 17.8011 27.3495 0.0000 0.0000 0.0000
# 2 17.8011 114.9455 107.0718 0.0000 0.0000 0.0000
# 3 27.3495 107.0718 194.2049 0.0000 0.0000 0.0000
# 4 0.0000 0.0000 0.0000 40.4201 0.0000 0.0000
# 5 0.0000 0.0000 0.0000 0.0000 20.2969 0.0000
# 6 0.0000 0.0000 0.0000 0.0000 0.0000 9.1203
#
#
#
# Elastic Compliance Matrix: (Units=1/GPa)
#
#
# Indices 1 2 3 4 5 6 
#
# 1 0.104523 -0.005089 -0.011914 0.000000 0.000000 0.000000
# 2 -0.005089 0.018133 -0.009280 0.000000 0.000000 0.000000
# 3 -0.011914 -0.009280 0.011944 0.000000 0.000000 0.000000
# 4 0.000000 0.000000 0.000000 0.024740 0.000000 0.000000
# 5 0.000000 0.000000 0.000000 0.000000 0.049269 0.000000
# 6 0.000000 0.000000 0.000000 0.000000 0.000000 0.109646
#
#
# Mechanical properties :
#
#
# Convention : Reuss Voigt Hill
#
# Bulk Modulus (GPa) = 12.19029 69.68296 40.93662
# Shear Modulus (GPa) = 12.55758 25.33273 18.94516
#
# Velocity S-wave (km/s) = 2.69997 3.83484 3.31631
# Velocity P-wave (km/s) = 4.09835 7.74983 6.19905
#
# Compressibility (1/GPa) = 0.08203249
#
# Stress axis : x y z
#
# Youngs Moduli (GPa) = 9.56723 55.14909 83.72644
#
# Poissons Ratio (x) = 0.28067 0.99752
# Poissons Ratio (y) = 0.04869 0.77702
# Poissons Ratio (z) = 0.11398 0.51181
#
# Static dielectric constant tensor:
#      x y z
#    x 2.584380 0.000000 0.000000 
#    y 0.000000 3.376750 0.000000 
#    z 0.000000 0.000000 3.602880 
# 
# 
# High freq. dielectric constant tensor:
#      x y z
#    x 1.591490 0.000000 0.000000 
#    y 0.000000 1.666920 0.000000 
#    z 0.000000 0.000000 1.683150 
# 
# From -- ./inp_files/22744.got.cif
#   From: 2010.03.12/outbox.cif.g09.slc.cpg/sg44_12_cif.got.tgz:22744.got - 2010.04.14 02:36:11.
