data_PCOD8190135
_publ_section_title
;
Structure prediction by ZEFSAII (Michael W. Deem and Ramdas Pophale) SiO2 
 PCOD8190135
Probable space group: I M M 2
;
_chemical_formula_sum "Si O2"
_cell_formula_units_Z 56
_cell_length_a 8.582977
_cell_length_b 24.753397
_cell_length_c 14.181655
_cell_angle_alpha 90.000000
_cell_angle_beta 90.000000
_cell_angle_gamma 90.000000
_cell_volume 3013.003748
_symmetry_space_group_name_H-M "I M M 2"
_symmetry_group_IT_number 44
_symmetry_cell_setting 'orthorhombic'
loop_
_space_group_symop_operation_xyz
x,y,z
-x,-y,z
-x,y,z
x,-y,z
1/2+x,1/2+y,1/2+z
1/2-x,1/2-y,1/2+z
1/2-x,1/2+y,1/2+z
1/2+x,1/2-y,1/2+z
loop_
_atom_site_type_symbol
_atom_site_label
_atom_site_fract_x
_atom_site_fract_y
_atom_site_fract_z
Si Si1 0.181904 0.789591 0.415190
Si Si2 0.179877 0.836876 0.698741
Si Si3 0.321449 0.317529 0.506691
Si Si4 0.682155 0.110797 0.525597
Si Si5 0.184018 0.000000 0.785320
Si Si6 0.315030 0.500000 0.067703
Si Si7 0.817755 0.608148 0.367816
Si Si8 0.177701 0.772910 0.201845
O O1 0.271062 0.739637 0.461834
O O2 0.231333 0.846231 0.460030
O O3 0.221852 0.795752 0.304264
O O4 0.000000 0.780124 0.432643
O O5 0.282728 0.875854 0.634205
O O6 0.242150 0.844966 0.803975
O O7 0.205470 0.774862 0.671962
O O8 0.000000 0.853292 0.687993
O O9 0.500000 0.326738 0.478137
O O10 0.221722 0.369389 0.472025
O O11 0.301069 0.317565 0.620317
O O12 0.500000 0.112506 0.504161
O O13 0.748960 0.050950 0.509633
O O14 0.244846 0.000000 0.677087
O O15 0.241925 0.948844 0.844119
O O16 0.000000 0.000000 0.784433
O O17 0.500000 0.500000 0.064258
O O18 0.000000 0.603456 0.352585
O O19 0.000000 0.750819 0.201707
#
# Coordination Sequence:
#
# PCOD8190135 Si02
#       8
#     8   8   8   8   4   4   8   8
#     4  11  22  37  58  85 117 155 196 240 289 342
#     4  12  22  33  55  84 117 155 195 237 282 341
#     4  11  22  37  58  85 117 155 196 240 289 342
#     4  12  24  38  57  84 120 156 192 236 291 349
#     4  11  23  39  61  86 114 151 196 238 285 343
#     4  11  23  39  61  86 114 151 196 238 285 343
#     4  12  24  38  57  84 120 156 192 236 291 349
#     4  10  22  38  57  82 117 156 196 239 288 341
#
# _framework density 18.586103000000001
#
# number of rings (size 3 to 8) (size 9 to 14) (size 15 to 20)
#    0.000    0.714    4.286    5.143    0.000    1.714 
#    0.000    0.000    0.000    0.857    0.000    6.000 
#    0.000    0.000    0.000    0.000    0.000    0.000 
#
# Total GULP energy -347253.134551 kJ/mol
# GULP energy per Si atom -12401.897663 kJ/mol
# Density = 1.854380 g / cm^3
# Si number density = 18.586103 Si / 1000 Ang^3
#
#
#
# Elastic Constant Matrix: (Units=GPa)
#
#
# Indices 1 2 3 4 5 6 
#
# 1 72.7060 21.2719 19.2369 0.0001 0.0000 -0.0001
# 2 21.2719 89.4817 22.6129 0.0003 0.0000 -0.0001
# 3 19.2369 22.6129 79.8989 0.0004 0.0000 -0.0003
# 4 0.0001 0.0003 0.0004 28.9074 0.0000 0.0000
# 5 0.0000 0.0000 0.0000 0.0000 23.6892 0.0001
# 6 -0.0001 -0.0001 -0.0003 0.0000 0.0001 32.0802
#
#
#
# Elastic Compliance Matrix: (Units=1/GPa)
#
#
# Indices 1 2 3 4 5 6 
#
# 1 0.015371 -0.002928 -0.002872 0.000000 0.000000 0.000000
# 2 -0.002928 0.012594 -0.002859 0.000000 0.000000 0.000000
# 3 -0.002872 -0.002859 0.014017 0.000000 0.000000 0.000000
# 4 0.000000 0.000000 0.000000 0.034593 0.000000 0.000000
# 5 0.000000 0.000000 0.000000 0.000000 0.042213 0.000000
# 6 0.000000 0.000000 0.000000 0.000000 0.000000 0.031172
#
#
# Mechanical properties :
#
#
# Convention : Reuss Voigt Hill
#
# Bulk Modulus (GPa) = 40.54783 40.92557 40.73670
# Shear Modulus (GPa) = 28.49010 28.86635 28.67823
#
# Velocity S-wave (km/s) = 3.91944 3.94523 3.93236
# Velocity P-wave (km/s) = 6.50740 6.54373 6.52559
#
# Compressibility (1/GPa) = 0.02466223
#
# Stress axis : x y z
#
# Youngs Moduli (GPa) = 65.05923 79.40191 71.34420
#
# Poissons Ratio (x) = 0.23250 0.20490
# Poissons Ratio (y) = 0.19051 0.20400
# Poissons Ratio (z) = 0.18685 0.22704
#
# Static dielectric constant tensor:
#      x y z
#    x 3.522270 0.000000 0.000000 
#    y 0.000000 3.349000 0.000000 
#    z 0.000000 0.000000 3.483110 
# 
# 
# High freq. dielectric constant tensor:
#      x y z
#    x 1.735860 0.000000 0.000000 
#    y 0.000000 1.708900 0.000000 
#    z 0.000000 0.000000 1.710940 
# 
# From -- ./inp_files/16577.got.cif
#   From: 2010.03.12/outbox.cif.g09.slc.cpg/sg44_9_cif.got.tgz:16577.got - 2010.04.14 02:36:11.
