data_PCOD8190716
_publ_section_title
;
Structure prediction by ZEFSAII (Michael W. Deem and Ramdas Pophale) SiO2 
 PCOD8190716
Probable space group: I B A 2
;
_chemical_formula_sum "Si O2"
_cell_formula_units_Z 40
_cell_length_a 13.522982
_cell_length_b 4.930535
_cell_length_c 26.572871
_cell_angle_alpha 90.000000
_cell_angle_beta 90.000000
_cell_angle_gamma 90.000000
_cell_volume 1771.760418
_symmetry_space_group_name_H-M "I B A 2"
_symmetry_group_IT_number 45
_symmetry_cell_setting 'orthorhombic'
loop_
_space_group_symop_operation_xyz
x,y,z
-x,-y,z
-x,y,1/2+z
x,-y,1/2+z
1/2+x,1/2+y,1/2+z
1/2-x,1/2-y,1/2+z
1/2-x,1/2+y,z
1/2+x,1/2-y,z
loop_
_atom_site_type_symbol
_atom_site_label
_atom_site_fract_x
_atom_site_fract_y
_atom_site_fract_z
Si Si1 0.000000 0.500000 0.370180
Si Si2 0.685099 0.523174 0.006535
Si Si3 0.500000 0.500000 0.938610
Si Si4 0.686540 0.498451 0.121662
Si Si5 0.436840 0.738776 0.708305
Si Si6 0.684181 0.830225 0.302667
O O1 0.966968 0.747804 0.404804
O O2 0.090303 0.600129 0.336293
O O3 0.776861 0.324570 0.994732
O O4 0.649719 0.517243 0.064352
O O5 0.593689 0.429556 0.972843
O O6 0.717822 0.188763 0.132236
O O7 0.599064 0.591413 0.157712
O O8 0.500000 0.500000 0.736580
O O9 0.348220 0.838637 0.744239
O O10 0.500000 0.000000 0.693048
O O11 0.725680 0.532493 0.314311
#
# Coordination Sequence:
#
# PCOD8190716 Si02
#       6
#     4   8   4   8   8   8
#     4  12  28  46  68 104 132 170 240 288 334 422
#     4  10  23  43  68  98 136 173 222 274 333 407
#     4  12  26  44  72  98 134 176 224 290 348 394
#     4  10  21  41  63  96 135 177 223 269 328 411
#     4  12  24  40  67 102 139 179 227 281 333 414
#     4  12  26  46  72  98 137 183 222 283 350 404
#
# _framework density 22.576412999999999
#
# number of rings (size 3 to 8) (size 9 to 14) (size 15 to 20)
#    0.000    0.800    1.000    6.000    2.800    4.800 
#    1.800    0.000    0.000    0.000    0.000    0.000 
#    0.000    0.000    0.000    0.000    0.000    0.000 
#
# Total GULP energy -248087.199473 kJ/mol
# GULP energy per Si atom -12404.359974 kJ/mol
# Density = 2.252503 g / cm^3
# Si number density = 22.576413 Si / 1000 Ang^3
#
#
#
# Elastic Constant Matrix: (Units=GPa)
#
#
# Indices 1 2 3 4 5 6 
#
# 1 95.9520 15.0910 47.4980 0.0000 0.0000 0.0000
# 2 15.0910 104.3018 24.5872 0.0000 0.0000 0.0000
# 3 47.4980 24.5872 99.2448 0.0000 0.0000 0.0000
# 4 0.0000 0.0000 0.0000 -3.7868 0.0000 0.0000
# 5 0.0000 0.0000 0.0000 0.0000 3.9950 0.0000
# 6 0.0000 0.0000 0.0000 0.0000 0.0000 40.6328
#
#
#
# Elastic Compliance Matrix: (Units=1/GPa)
#
#
# Indices 1 2 3 4 5 6 
#
# 1 0.013679 -0.000463 -0.006432 0.000000 0.000000 0.000000
# 2 -0.000463 0.010198 -0.002305 0.000000 0.000000 0.000000
# 3 -0.006432 -0.002305 0.013725 0.000000 0.000000 0.000000
# 4 0.000000 0.000000 0.000000 -0.264074 0.000000 0.000000
# 5 0.000000 0.000000 0.000000 0.000000 0.250310 0.000000
# 6 0.000000 0.000000 0.000000 0.000000 0.000000 0.024611
#
#
# Mechanical properties :
#
#
# Convention : Reuss Voigt Hill
#
# Bulk Modulus (GPa) = 52.07647 52.65013 52.36330
# Shear Modulus (GPa) = 68.26039 22.32303 45.29171
#
# Velocity S-wave (km/s) = 5.50463 3.14789 4.48387
# Velocity P-wave (km/s) = 7.96982 6.04845 7.07467
#
# Compressibility (1/GPa) = 0.01920253
#
# Stress axis : x y z
#
# Youngs Moduli (GPa) = 73.10721 98.05956 72.85796
#
# Poissons Ratio (x) = 0.04539 0.46861
# Poissons Ratio (y) = 0.03384 0.16793
# Poissons Ratio (z) = 0.47021 0.22602
#
# Static dielectric constant tensor:
#      x y z
#    x 3.901530 0.000000 0.000000 
#    y 0.000000 4.605710 0.000000 
#    z 0.000000 0.000000 4.085090 
# 
# 
# High freq. dielectric constant tensor:
#      x y z
#    x 1.886070 0.000000 0.000000 
#    y 0.000000 1.911330 0.000000 
#    z 0.000000 0.000000 1.890990 
# 
# From -- ./inp_files/9736.got.cif
#   From: 2010.03.12/outbox.cif.g09.slc.cpg/sg45_5_cif.got.tgz:9736.got - 2010.04.14 02:50:11.
