data_PCOD8190971
_publ_section_title
;
Structure prediction by ZEFSAII (Michael W. Deem and Ramdas Pophale) SiO2 
 PCOD8190971
Probable space group: I B A 2
;
_chemical_formula_sum "Si O2"
_cell_formula_units_Z 48
_cell_length_a 24.061130
_cell_length_b 7.716925
_cell_length_c 11.133364
_cell_angle_alpha 90.000000
_cell_angle_beta 90.000000
_cell_angle_gamma 90.000000
_cell_volume 2067.220044
_symmetry_space_group_name_H-M "I B A 2"
_symmetry_group_IT_number 45
_symmetry_cell_setting 'orthorhombic'
loop_
_space_group_symop_operation_xyz
x,y,z
-x,-y,z
-x,y,1/2+z
x,-y,1/2+z
1/2+x,1/2+y,1/2+z
1/2-x,1/2-y,1/2+z
1/2-x,1/2+y,z
1/2+x,1/2-y,z
loop_
_atom_site_type_symbol
_atom_site_label
_atom_site_fract_x
_atom_site_fract_y
_atom_site_fract_z
Si Si1 0.380013 0.695732 0.685920
Si Si2 0.706097 0.828880 0.358321
Si Si3 0.051857 0.275929 0.911565
Si Si4 0.175789 0.706169 0.818949
Si Si5 0.643685 0.673399 0.574765
Si Si6 0.071267 0.674178 0.950947
O O1 0.322615 0.779008 0.732261
O O2 0.423153 0.675314 0.796653
O O3 0.358502 0.518450 0.627923
O O4 0.411826 0.818855 0.590828
O O5 0.772509 0.831921 0.344843
O O6 0.685754 0.698919 0.462970
O O7 0.688157 0.024856 0.384625
O O8 0.065063 0.480118 0.900354
O O9 0.987094 0.230140 0.926638
O O10 0.081100 0.213530 0.033689
O O11 0.164804 0.693418 0.676788
O O12 0.119214 0.778989 0.879069
#
# Coordination Sequence:
#
# PCOD8190971 Si02
#       6
#     8   8   8   8   8   8
#     4  11  25  47  70 107 150 187 239 298 357 429
#     4  11  27  46  71 108 140 191 246 290 367 432
#     4  10  25  48  71 109 141 194 244 289 366 436
#     4  12  26  45  76 103 143 191 239 300 357 431
#     4  11  26  47  71 104 149 189 239 297 362 427
#     4  11  25  44  79 101 144 189 242 295 359 432
#
# _framework density 23.219588999999999
#
# number of rings (size 3 to 8) (size 9 to 14) (size 15 to 20)
#    0.000    1.000    3.333    2.000   11.667    2.000 
#    0.000    0.000    0.000    0.000    0.000    0.000 
#    0.000    0.000    0.000    0.000    0.000    0.000 
#
# Total GULP energy -297558.171002 kJ/mol
# GULP energy per Si atom -12398.257125 kJ/mol
# Density = 2.316674 g / cm^3
# Si number density = 23.219589 Si / 1000 Ang^3
#
#
#
# Elastic Constant Matrix: (Units=GPa)
#
#
# Indices 1 2 3 4 5 6 
#
# 1 209.6248 12.1627 64.7083 0.0000 0.0000 0.0000
# 2 12.1627 57.1346 23.9101 0.0000 0.0000 0.0000
# 3 64.7083 23.9101 129.3918 0.0000 0.0000 0.0000
# 4 0.0000 0.0000 0.0000 38.9277 0.0000 0.0000
# 5 0.0000 0.0000 0.0000 0.0000 36.5066 0.0000
# 6 0.0000 0.0000 0.0000 0.0000 0.0000 30.1818
#
#
#
# Elastic Compliance Matrix: (Units=1/GPa)
#
#
# Indices 1 2 3 4 5 6 
#
# 1 0.005641 -0.000022 -0.002817 0.000000 0.000000 0.000000
# 2 -0.000022 0.018970 -0.003494 0.000000 0.000000 0.000000
# 3 -0.002817 -0.003494 0.009783 0.000000 0.000000 0.000000
# 4 0.000000 0.000000 0.000000 0.025689 0.000000 0.000000
# 5 0.000000 0.000000 0.000000 0.000000 0.027392 0.000000
# 6 0.000000 0.000000 0.000000 0.000000 0.000000 0.033132
#
#
# Mechanical properties :
#
#
# Convention : Reuss Voigt Hill
#
# Bulk Modulus (GPa) = 46.02580 66.41259 56.21920
# Shear Modulus (GPa) = 35.58298 40.81457 38.19877
#
# Velocity S-wave (km/s) = 3.91891 4.19712 4.06040
# Velocity P-wave (km/s) = 6.35154 7.22162 6.80051
#
# Compressibility (1/GPa) = 0.02172694
#
# Stress axis : x y z
#
# Youngs Moduli (GPa) = 177.26358 52.71602 102.21785
#
# Poissons Ratio (x) = 0.00116 0.28796
# Poissons Ratio (y) = 0.00389 0.35719
# Poissons Ratio (z) = 0.49938 0.18421
#
# Static dielectric constant tensor:
#      x y z
#    x 4.584370 0.000000 0.000000 
#    y 0.000000 3.895560 0.000000 
#    z 0.000000 0.000000 4.222020 
# 
# 
# High freq. dielectric constant tensor:
#      x y z
#    x 1.933250 0.000000 0.000000 
#    y 0.000000 1.905530 0.000000 
#    z 0.000000 0.000000 1.921290 
# 
# From -- ./inp_files/4769.got.cif
#   From: 2010.03.12/outbox.cif.g09.slc.cpg/sg45_3_cif.got.tgz:4769.got - 2010.04.14 02:50:11.
