data_PCOD8190598
_publ_section_title
;
Structure prediction by ZEFSAII (Michael W. Deem and Ramdas Pophale) SiO2 
 PCOD8190598
Probable space group: I B A 2
;
_chemical_formula_sum "Si O2"
_cell_formula_units_Z 64
_cell_length_a 25.609531
_cell_length_b 13.931206
_cell_length_c 8.910284
_cell_angle_alpha 90.000000
_cell_angle_beta 90.000000
_cell_angle_gamma 90.000000
_cell_volume 3178.936742
_symmetry_space_group_name_H-M "I B A 2"
_symmetry_group_IT_number 45
_symmetry_cell_setting 'orthorhombic'
loop_
_space_group_symop_operation_xyz
x,y,z
-x,-y,z
-x,y,1/2+z
x,-y,1/2+z
1/2+x,1/2+y,1/2+z
1/2-x,1/2-y,1/2+z
1/2-x,1/2+y,z
1/2+x,1/2-y,z
loop_
_atom_site_type_symbol
_atom_site_label
_atom_site_fract_x
_atom_site_fract_y
_atom_site_fract_z
Si Si1 0.045577 0.133578 0.473210
Si Si2 0.615223 0.229833 0.657266
Si Si3 0.056049 0.174510 0.133123
Si Si4 0.610184 0.161643 0.991625
Si Si5 0.371453 0.532615 0.989334
Si Si6 0.314575 0.604580 0.693178
Si Si7 0.694830 0.090853 0.180886
Si Si8 0.858253 0.544038 0.487630
O O1 0.067805 0.207754 0.594848
O O2 0.042315 0.177421 0.307613
O O3 0.987212 0.117727 0.534771
O O4 0.078963 0.036605 0.462406
O O5 0.668107 0.291200 0.631117
O O6 0.613721 0.130729 0.569699
O O7 0.610134 0.213218 0.832914
O O8 0.064297 0.286116 0.085659
O O9 0.110226 0.118499 0.098776
O O10 0.666722 0.173261 0.078139
O O11 0.600938 0.046190 0.974790
O O12 0.323960 0.475136 0.065764
O O13 0.349791 0.576636 0.835721
O O14 0.253523 0.614383 0.727276
O O15 0.659881 0.080102 0.327597
O O16 0.691757 0.990696 0.087073
#
# Coordination Sequence:
#
# PCOD8190598 Si02
#       8
#     8   8   8   8   8   8   8   8
#     4  11  26  39  67  97 129 175 222 277 343 403
#     4  11  22  41  64  95 129 172 219 277 329 398
#     4  12  23  43  64  93 131 169 224 272 340 409
#     4  10  21  40  63  90 125 173 211 278 326 390
#     4  11  23  40  64  91 136 176 218 277 331 400
#     4  11  23  40  61  96 134 174 224 272 327 397
#     4  10  21  38  62  92 128 176 218 272 330 389
#     4  10  20  41  63  89 129 170 222 270 330 387
#
# _framework density 20.132518999999998
#
# number of rings (size 3 to 8) (size 9 to 14) (size 15 to 20)
#    0.750    0.500    3.750    2.625    1.750    2.000 
#    2.250    0.625    0.000    3.000    0.000    0.000 
#    0.000    0.000    0.000    0.000    0.000    0.000 
#
# Total GULP energy -396584.231322 kJ/mol
# GULP energy per Si atom -12393.257229 kJ/mol
# Density = 2.008670 g / cm^3
# Si number density = 20.132519 Si / 1000 Ang^3
#
#
#
# Elastic Constant Matrix: (Units=GPa)
#
#
# Indices 1 2 3 4 5 6 
#
# 1 68.4028 20.4989 34.5661 0.0000 0.0000 0.0000
# 2 20.4989 74.2695 31.4055 0.0000 0.0000 0.0000
# 3 34.5661 31.4055 127.0057 0.0000 0.0000 0.0000
# 4 0.0000 0.0000 0.0000 30.3341 0.0000 0.0000
# 5 0.0000 0.0000 0.0000 0.0000 23.5661 0.0000
# 6 0.0000 0.0000 0.0000 0.0000 0.0000 22.2062
#
#
#
# Elastic Compliance Matrix: (Units=1/GPa)
#
#
# Indices 1 2 3 4 5 6 
#
# 1 0.017591 -0.003161 -0.004006 0.000000 0.000000 0.000000
# 2 -0.003161 0.015605 -0.002998 0.000000 0.000000 0.000000
# 3 -0.004006 -0.002998 0.009705 0.000000 0.000000 0.000000
# 4 0.000000 0.000000 0.000000 0.032966 0.000000 0.000000
# 5 0.000000 0.000000 0.000000 0.000000 0.042434 0.000000
# 6 0.000000 0.000000 0.000000 0.000000 0.000000 0.045032
#
#
# Mechanical properties :
#
#
# Convention : Reuss Voigt Hill
#
# Bulk Modulus (GPa) = 44.30632 49.17989 46.74311
# Shear Modulus (GPa) = 26.15225 27.43510 26.79367
#
# Velocity S-wave (km/s) = 3.60808 3.69552 3.65206
# Velocity P-wave (km/s) = 6.27796 6.53378 6.40715
#
# Compressibility (1/GPa) = 0.02257014
#
# Stress axis : x y z
#
# Youngs Moduli (GPa) = 56.84735 64.08250 103.03621
#
# Poissons Ratio (x) = 0.20259 0.41275
# Poissons Ratio (y) = 0.17971 0.30894
# Poissons Ratio (z) = 0.22772 0.19214
#
# Static dielectric constant tensor:
#      x y z
#    x 3.338020 0.000000 0.000000 
#    y 0.000000 3.687220 0.000000 
#    z 0.000000 0.000000 3.774830 
# 
# 
# High freq. dielectric constant tensor:
#      x y z
#    x 1.757400 0.000000 0.000000 
#    y 0.000000 1.787880 0.000000 
#    z 0.000000 0.000000 1.803670 
# 
# From -- ./inp_files/2543.got.cif
#   From: 2010.03.12/outbox.cif.g09.slc.cpg/sg45_2_cif.got.tgz:2543.got - 2010.04.14 02:50:11.
