data_PCOD8190410
_publ_section_title
;
Structure prediction by ZEFSAII (Michael W. Deem and Ramdas Pophale) SiO2 
 PCOD8190410
Probable space group: I B A 2
;
_chemical_formula_sum "Si O2"
_cell_formula_units_Z 44
_cell_length_a 15.028218
_cell_length_b 12.960069
_cell_length_c 10.660091
_cell_angle_alpha 90.000000
_cell_angle_beta 90.000000
_cell_angle_gamma 90.000000
_cell_volume 2076.231196
_symmetry_space_group_name_H-M "I B A 2"
_symmetry_group_IT_number 45
_symmetry_cell_setting 'orthorhombic'
loop_
_space_group_symop_operation_xyz
x,y,z
-x,-y,z
-x,y,1/2+z
x,-y,1/2+z
1/2+x,1/2+y,1/2+z
1/2-x,1/2-y,1/2+z
1/2-x,1/2+y,z
1/2+x,1/2-y,z
loop_
_atom_site_type_symbol
_atom_site_label
_atom_site_fract_x
_atom_site_fract_y
_atom_site_fract_z
Si Si1 0.144754 0.141892 0.273460
Si Si2 0.573181 0.138647 0.559773
Si Si3 0.426819 0.138646 0.772226
Si Si4 0.500000 0.500000 0.666000
Si Si5 0.209403 0.500000 0.165999
Si Si6 0.144754 0.141892 0.558538
O O1 0.120365 0.256034 0.226385
O O2 0.059348 0.069621 0.256537
O O3 0.230458 0.096871 0.204303
O O4 0.172696 0.146183 0.415999
O O5 0.500000 0.113041 0.665999
O O6 0.534857 0.147809 0.415999
O O7 0.645649 0.046307 0.557547
O O8 0.620365 0.243967 0.605613
O O9 0.354352 0.046306 0.774450
O O10 0.440651 0.569620 0.575462
O O11 0.269541 0.403127 0.127694
#
# Coordination Sequence:
#
# PCOD8190410 Si02
#       6
#     8   8   8   4   8   8
#     4  10  21  38  61  91 124 161 209 255 308 366
#     4  11  24  43  65  92 127 165 208 256 308 370
#     4  11  24  43  65  92 127 165 208 256 308 370
#     4  10  18  36  62  88 122 160 208 256 306 364
#     4  11  23  39  63  92 126 164 205 255 313 367
#     4  10  21  38  61  91 124 161 209 255 308 366
#
# _framework density 21.192245
#
# number of rings (size 3 to 8) (size 9 to 14) (size 15 to 20)
#    0.000    1.455    1.818    3.273    0.000    4.364 
#    0.000    1.818    0.000    0.000    0.000    0.000 
#    0.000    0.000    0.000    0.000    0.000    0.000 
#
# Total GULP energy -272654.267338 kJ/mol
# GULP energy per Si atom -12393.375788 kJ/mol
# Density = 2.114401 g / cm^3
# Si number density = 21.192245 Si / 1000 Ang^3
#
#
#
# Elastic Constant Matrix: (Units=GPa)
#
#
# Indices 1 2 3 4 5 6 
#
# 1 118.9719 50.8490 52.6112 0.0000 0.0000 0.0000
# 2 50.8490 90.5636 8.8054 0.0000 0.0000 0.0000
# 3 52.6112 8.8054 77.2220 0.0000 0.0000 0.0000
# 4 0.0000 0.0000 0.0000 21.5450 0.0000 0.0000
# 5 0.0000 0.0000 0.0000 0.0000 14.4604 0.0000
# 6 0.0000 0.0000 0.0000 0.0000 0.0000 67.7313
#
#
#
# Elastic Compliance Matrix: (Units=1/GPa)
#
#
# Indices 1 2 3 4 5 6 
#
# 1 0.016483 -0.008254 -0.010289 0.000000 0.000000 0.000000
# 2 -0.008254 0.015299 0.003879 0.000000 0.000000 0.000000
# 3 -0.010289 0.003879 0.019517 0.000000 0.000000 0.000000
# 4 0.000000 0.000000 0.000000 0.046415 0.000000 0.000000
# 5 0.000000 0.000000 0.000000 0.000000 0.069154 0.000000
# 6 0.000000 0.000000 0.000000 0.000000 0.000000 0.014764
#
#
# Mechanical properties :
#
#
# Convention : Reuss Voigt Hill
#
# Bulk Modulus (GPa) = 45.51314 56.80985 51.16149
# Shear Modulus (GPa) = 22.90587 32.38013 27.64300
#
# Velocity S-wave (km/s) = 3.29121 3.91311 3.61556
# Velocity P-wave (km/s) = 5.99714 6.87616 6.45164
#
# Compressibility (1/GPa) = 0.02197168
#
# Stress axis : x y z
#
# Youngs Moduli (GPa) = 60.66795 65.36182 51.23729
#
# Poissons Ratio (x) = 0.53953 0.52717
# Poissons Ratio (y) = 0.50078 -0.19876
# Poissons Ratio (z) = 0.62420 -0.25355
#
# Static dielectric constant tensor:
#      x y z
#    x 3.851820 0.000000 0.000000 
#    y 0.000000 4.208570 0.000000 
#    z 0.000000 0.000000 3.546170 
# 
# 
# High freq. dielectric constant tensor:
#      x y z
#    x 1.833440 0.000000 0.000000 
#    y 0.000000 1.853550 0.000000 
#    z 0.000000 0.000000 1.813140 
# 
# From -- ./inp_files/4076.got.cif
#   From: 2010.03.12/outbox.cif.g09.slc.cpg/sg45_3_cif.got.tgz:4076.got - 2010.04.14 02:50:11.
