data_PCOD8190118
_publ_section_title
;
Structure prediction by ZEFSAII (Michael W. Deem and Ramdas Pophale) SiO2 
 PCOD8190118
Probable space group: I M M 2
;
_chemical_formula_sum "Si O2"
_cell_formula_units_Z 64
_cell_length_a 30.241067
_cell_length_b 8.924295
_cell_length_c 14.194518
_cell_angle_alpha 90.000000
_cell_angle_beta 90.000000
_cell_angle_gamma 90.000000
_cell_volume 3830.819400
_symmetry_space_group_name_H-M "I M M 2"
_symmetry_group_IT_number 44
_symmetry_cell_setting 'orthorhombic'
loop_
_space_group_symop_operation_xyz
x,y,z
-x,-y,z
-x,y,z
x,-y,z
1/2+x,1/2+y,1/2+z
1/2-x,1/2-y,1/2+z
1/2-x,1/2+y,1/2+z
1/2+x,1/2-y,1/2+z
loop_
_atom_site_type_symbol
_atom_site_label
_atom_site_fract_x
_atom_site_fract_y
_atom_site_fract_z
Si Si1 0.133093 0.329246 0.219290
Si Si2 0.287471 0.676930 0.826560
Si Si3 0.183242 0.328835 0.031415
Si Si4 0.050211 0.174912 0.157143
Si Si5 0.229217 0.672000 0.521915
Si Si6 0.802130 0.327686 0.723491
Si Si7 0.362531 0.322981 0.358962
Si Si8 0.452141 0.322586 0.444409
O O1 0.131504 0.500000 0.253721
O O2 0.168211 0.244563 0.283235
O O3 0.145942 0.315220 0.110006
O O4 0.084060 0.258854 0.227349
O O5 0.291450 0.500000 0.821063
O O6 0.243757 0.732173 0.770292
O O7 0.285916 0.727584 0.934849
O O8 0.198438 0.500000 0.016153
O O9 0.224309 0.228405 0.063308
O O10 0.166823 0.264164 0.933580
O O11 0.000000 0.207161 0.190687
O O12 0.061136 0.000000 0.162090
O O13 0.056774 0.235960 0.050377
O O14 0.232815 0.500000 0.489119
O O15 0.196470 0.689525 0.610582
O O16 0.808946 0.500000 0.752993
O O17 0.843800 0.228629 0.758197
O O18 0.357309 0.500000 0.372775
O O19 0.413622 0.271707 0.372543
O O20 0.500000 0.261565 0.408480
O O21 0.454056 0.500000 0.450190
#
# Coordination Sequence:
#
# PCOD8190118 Si02
#       8
#     8   8   8   8   8   8   8   8
#     4  11  22  33  49  74 104 139 175 211 249 299
#     4  11  22  36  53  74 101 133 169 209 254 301
#     4  11  21  31  46  70 103 136 167 207 248 290
#     4   9  17  31  51  73 101 136 171 208 253 305
#     4  11  22  37  53  70  96 133 173 210 248 295
#     4  10  22  36  50  71 102 134 165 206 255 302
#     4  11  20  30  51  75  98 134 174 208 245 296
#     4   8  15  28  46  71 101 131 165 205 249 297
#
# _framework density 16.706609
#
# number of rings (size 3 to 8) (size 9 to 14) (size 15 to 20)
#    0.000    1.750    3.750    2.625    0.000    2.750 
#    0.000    0.000    0.000    1.500    0.000    0.875 
#    0.000    3.000    0.000    0.000    0.000    0.000 
#
# Total GULP energy -396729.124897 kJ/mol
# GULP energy per Si atom -12397.785153 kJ/mol
# Density = 1.666858 g / cm^3
# Si number density = 16.706609 Si / 1000 Ang^3
#
#
#
# Elastic Constant Matrix: (Units=GPa)
#
#
# Indices 1 2 3 4 5 6 
#
# 1 116.7676 37.8328 32.5036 0.0000 0.0000 0.0000
# 2 37.8328 58.0721 24.2414 0.0000 0.0000 0.0000
# 3 32.5036 24.2414 60.8235 0.0000 0.0000 0.0000
# 4 0.0000 0.0000 0.0000 26.1693 0.0000 0.0000
# 5 0.0000 0.0000 0.0000 0.0000 24.8902 0.0000
# 6 0.0000 0.0000 0.0000 0.0000 0.0000 23.9909
#
#
#
# Elastic Compliance Matrix: (Units=1/GPa)
#
#
# Indices 1 2 3 4 5 6 
#
# 1 0.011546 -0.005933 -0.003805 0.000000 0.000000 0.000000
# 2 -0.005933 0.023706 -0.006277 0.000000 0.000000 0.000000
# 3 -0.003805 -0.006277 0.020976 0.000000 0.000000 0.000000
# 4 0.000000 0.000000 0.000000 0.038213 0.000000 0.000000
# 5 0.000000 0.000000 0.000000 0.000000 0.040177 0.000000
# 6 0.000000 0.000000 0.000000 0.000000 0.000000 0.041682
#
#
# Mechanical properties :
#
#
# Convention : Reuss Voigt Hill
#
# Bulk Modulus (GPa) = 41.32884 47.20208 44.26546
# Shear Modulus (GPa) = 23.10576 24.41577 23.76076
#
# Velocity S-wave (km/s) = 3.72295 3.82703 3.77535
# Velocity P-wave (km/s) = 6.57816 6.91687 6.74964
#
# Compressibility (1/GPa) = 0.02419618
#
# Stress axis : x y z
#
# Youngs Moduli (GPa) = 86.61284 42.18379 47.67289
#
# Poissons Ratio (x) = 0.25029 0.18140
# Poissons Ratio (y) = 0.51390 0.29926
# Poissons Ratio (z) = 0.32957 0.26480
#
# Static dielectric constant tensor:
#      x y z
#    x 3.508990 0.000000 0.000000 
#    y 0.000000 3.123840 0.000000 
#    z 0.000000 0.000000 2.916880 
# 
# 
# High freq. dielectric constant tensor:
#      x y z
#    x 1.636960 0.000000 0.000000 
#    y 0.000000 1.644710 0.000000 
#    z 0.000000 0.000000 1.615130 
# 
# From -- ./inp_files/17092.got.cif
#   From: 2010.03.12/outbox.cif.g09.slc.cpg/sg44_9_cif.got.tgz:17092.got - 2010.04.14 02:36:11.
