data_PCOD8190736
_publ_section_title
;
Structure prediction by ZEFSAII (Michael W. Deem and Ramdas Pophale) SiO2 
 PCOD8190736
Probable space group: I B A 2
;
_chemical_formula_sum "Si O2"
_cell_formula_units_Z 48
_cell_length_a 14.132030
_cell_length_b 8.285897
_cell_length_c 17.463740
_cell_angle_alpha 90.000000
_cell_angle_beta 90.000000
_cell_angle_gamma 90.000000
_cell_volume 2044.943616
_symmetry_space_group_name_H-M "I B A 2"
_symmetry_group_IT_number 45
_symmetry_cell_setting 'orthorhombic'
loop_
_space_group_symop_operation_xyz
x,y,z
-x,-y,z
-x,y,1/2+z
x,-y,1/2+z
1/2+x,1/2+y,1/2+z
1/2-x,1/2-y,1/2+z
1/2-x,1/2+y,z
1/2+x,1/2-y,z
loop_
_atom_site_type_symbol
_atom_site_label
_atom_site_fract_x
_atom_site_fract_y
_atom_site_fract_z
Si Si1 0.366155 0.722253 0.435880
Si Si2 0.460868 0.177572 0.518317
Si Si3 0.359805 0.809332 0.262221
Si Si4 0.480650 0.315368 0.173010
Si Si5 0.795351 0.387257 0.182125
Si Si6 0.774937 0.481816 0.516044
O O1 0.479230 0.740806 0.449155
O O2 0.342765 0.746372 0.347631
O O3 0.324872 0.557103 0.473482
O O4 0.311531 0.852465 0.484502
O O5 0.469606 0.290321 0.591685
O O6 0.350446 0.161604 0.495869
O O7 0.500000 0.000000 0.539954
O O8 0.469301 0.792916 0.238289
O O9 0.301569 0.693637 0.206370
O O10 0.329870 0.995122 0.250668
O O11 0.500000 0.500000 0.196756
O O12 0.371816 0.256301 0.168256
O O13 0.771164 0.495878 0.107712
#
# Coordination Sequence:
#
# PCOD8190736 Si02
#       6
#     8   8   8   8   8   8
#     4  11  25  42  70 105 141 183 236 292 368 424
#     4  10  21  43  68  99 136 184 235 284 356 424
#     4  12  26  43  70 107 143 187 235 305 368 423
#     4  12  25  42  70 104 139 186 244 295 356 431
#     4  12  24  46  72 103 142 194 242 294 359 437
#     4  11  23  44  71 100 137 191 237 289 355 432
#
# _framework density 23.472531
#
# number of rings (size 3 to 8) (size 9 to 14) (size 15 to 20)
#    0.000    0.667    5.000    3.500    2.333    5.333 
#    0.000    0.833    0.000    0.000    0.000    0.000 
#    0.000    0.000    0.000    0.000    0.000    0.000 
#
# Total GULP energy -297569.286355 kJ/mol
# GULP energy per Si atom -12398.720265 kJ/mol
# Density = 2.341911 g / cm^3
# Si number density = 23.472531 Si / 1000 Ang^3
#
#
#
# Elastic Constant Matrix: (Units=GPa)
#
#
# Indices 1 2 3 4 5 6 
#
# 1 75.6220 2.2891 15.9661 0.0000 0.0000 0.0000
# 2 2.2891 45.1927 11.6628 0.0000 0.0000 0.0000
# 3 15.9661 11.6628 94.7123 0.0000 0.0000 0.0000
# 4 0.0000 0.0000 0.0000 20.3857 0.0000 0.0000
# 5 0.0000 0.0000 0.0000 0.0000 27.1707 0.0000
# 6 0.0000 0.0000 0.0000 0.0000 0.0000 30.8445
#
#
#
# Elastic Compliance Matrix: (Units=1/GPa)
#
#
# Indices 1 2 3 4 5 6 
#
# 1 0.013712 -0.000101 -0.002299 0.000000 0.000000 0.000000
# 2 -0.000101 0.022854 -0.002797 0.000000 0.000000 0.000000
# 3 -0.002299 -0.002797 0.011290 0.000000 0.000000 0.000000
# 4 0.000000 0.000000 0.000000 0.049054 0.000000 0.000000
# 5 0.000000 0.000000 0.000000 0.000000 0.036804 0.000000
# 6 0.000000 0.000000 0.000000 0.000000 0.000000 0.032421
#
#
# Mechanical properties :
#
#
# Convention : Reuss Voigt Hill
#
# Bulk Modulus (GPa) = 26.69380 30.59589 28.64485
# Shear Modulus (GPa) = 26.45248 28.05412 27.25330
#
# Velocity S-wave (km/s) = 3.36066 3.46090 3.41115
# Velocity P-wave (km/s) = 5.14351 5.38828 5.26732
#
# Compressibility (1/GPa) = 0.03746188
#
# Stress axis : x y z
#
# Youngs Moduli (GPa) = 72.92818 43.75517 88.57165
#
# Poissons Ratio (x) = 0.00443 0.20363
# Poissons Ratio (y) = 0.00738 0.24775
# Poissons Ratio (z) = 0.16767 0.12239
#
# Static dielectric constant tensor:
#      x y z
#    x 4.667960 0.000000 0.000000 
#    y 0.000000 4.236770 0.000000 
#    z 0.000000 0.000000 4.215610 
# 
# 
# High freq. dielectric constant tensor:
#      x y z
#    x 1.938660 0.000000 0.000000 
#    y 0.000000 1.931540 0.000000 
#    z 0.000000 0.000000 1.910440 
# 
# From -- ./inp_files/7580.got.cif
#   From: 2010.03.12/outbox.cif.g09.slc.cpg/sg45_4_cif.got.tgz:7580.got - 2010.04.14 02:50:11.
