data_PCOD8190395
_publ_section_title
;
Structure prediction by ZEFSAII (Michael W. Deem and Ramdas Pophale) SiO2 
 PCOD8190395
Probable space group: I B A 2
;
_chemical_formula_sum "Si O2"
_cell_formula_units_Z 64
_cell_length_a 8.634109
_cell_length_b 22.492376
_cell_length_c 17.239390
_cell_angle_alpha 90.000000
_cell_angle_beta 90.000000
_cell_angle_gamma 90.000000
_cell_volume 3347.917570
_symmetry_space_group_name_H-M "I B A 2"
_symmetry_group_IT_number 45
_symmetry_cell_setting 'orthorhombic'
loop_
_space_group_symop_operation_xyz
x,y,z
-x,-y,z
-x,y,1/2+z
x,-y,1/2+z
1/2+x,1/2+y,1/2+z
1/2-x,1/2-y,1/2+z
1/2-x,1/2+y,z
1/2+x,1/2-y,z
loop_
_atom_site_type_symbol
_atom_site_label
_atom_site_fract_x
_atom_site_fract_y
_atom_site_fract_z
Si Si1 0.445846 0.680199 0.870780
Si Si2 0.674425 0.576576 0.654010
Si Si3 0.470423 0.856869 0.690154
Si Si4 0.845338 0.723479 0.290058
Si Si5 0.182368 0.749276 0.127214
Si Si6 0.436457 0.440277 0.287263
Si Si7 0.152278 0.466822 0.193943
Si Si8 0.439032 0.322999 0.550640
O O1 0.271492 0.701914 0.856201
O O2 0.565580 0.719591 0.822231
O O3 0.465756 0.612648 0.845388
O O4 0.481879 0.680754 0.961190
O O5 0.523122 0.570025 0.705781
O O6 0.750443 0.511100 0.636261
O O7 0.625684 0.611806 0.575826
O O8 0.800932 0.614381 0.702908
O O9 0.535481 0.830433 0.771452
O O10 0.451826 0.801584 0.631408
O O11 0.591534 0.905408 0.653915
O O12 0.751428 0.740024 0.212419
O O13 0.312051 0.727563 0.067604
O O14 0.097505 0.808879 0.097624
O O15 0.500000 0.500000 0.328045
O O16 0.255430 0.448726 0.267892
O O17 0.000000 0.500000 0.226709
#
# Coordination Sequence:
#
# PCOD8190395 Si02
#       8
#     8   8   8   8   8   8   8   8
#     4  12  24  37  57  89 126 157 196 252 324 368
#     4   9  20  36  58  83 110 151 201 249 293 359
#     4  10  18  32  58  86 111 140 199 253 288 343
#     4  12  21  36  61  88 115 158 204 245 298 372
#     4  11  20  37  58  84 118 159 203 244 296 365
#     4  10  20  37  61  83 113 156 210 258 293 365
#     4   9  18  34  58  89 107 142 199 264 296 341
#     4  11  23  37  55  85 127 157 190 251 317 370
#
# _framework density 19.116361000000001
#
# number of rings (size 3 to 8) (size 9 to 14) (size 15 to 20)
#    0.000    1.500    3.750    3.000    0.000    0.000 
#    0.000    1.875    0.000    3.750    0.000    0.000 
#    0.000    0.000    0.000    0.000    0.000    0.000 
#
# Total GULP energy -396556.061493 kJ/mol
# GULP energy per Si atom -12392.376922 kJ/mol
# Density = 1.907285 g / cm^3
# Si number density = 19.116361 Si / 1000 Ang^3
#
#
#
# Elastic Constant Matrix: (Units=GPa)
#
#
# Indices 1 2 3 4 5 6 
#
# 1 92.2410 44.5071 42.1981 0.0000 0.0000 0.0000
# 2 44.5071 119.8979 42.2284 0.0000 0.0000 0.0000
# 3 42.1981 42.2284 91.8651 -0.0001 0.0000 0.0000
# 4 0.0000 0.0000 -0.0001 19.5508 0.0000 0.0000
# 5 0.0000 0.0000 0.0000 0.0000 25.3951 0.0000
# 6 0.0000 0.0000 0.0000 0.0000 0.0000 36.3077
#
#
#
# Elastic Compliance Matrix: (Units=1/GPa)
#
#
# Indices 1 2 3 4 5 6 
#
# 1 0.015019 -0.003753 -0.005174 0.000000 0.000000 0.000000
# 2 -0.003753 0.010889 -0.003282 0.000000 0.000000 0.000000
# 3 -0.005174 -0.003282 0.014771 0.000000 0.000000 0.000000
# 4 0.000000 0.000000 0.000000 0.051149 0.000000 0.000000
# 5 0.000000 0.000000 0.000000 0.000000 0.039378 0.000000
# 6 0.000000 0.000000 0.000000 0.000000 0.000000 0.027542
#
#
# Mechanical properties :
#
#
# Convention : Reuss Voigt Hill
#
# Bulk Modulus (GPa) = 61.49275 62.43012 61.96144
# Shear Modulus (GPa) = 26.51324 27.92209 27.21766
#
# Velocity S-wave (km/s) = 3.72820 3.82598 3.77741
# Velocity P-wave (km/s) = 7.12531 7.22816 7.17692
#
# Compressibility (1/GPa) = 0.01626208
#
# Stress axis : x y z
#
# Youngs Moduli (GPa) = 66.58307 91.83270 67.70202
#
# Poissons Ratio (x) = 0.34464 0.35027
# Poissons Ratio (y) = 0.24988 0.22218
# Poissons Ratio (z) = 0.34448 0.30137
#
# Static dielectric constant tensor:
#      x y z
#    x 3.864020 0.000000 0.000000 
#    y 0.000000 4.041990 0.000000 
#    z 0.000000 0.000000 2.948050 
# 
# 
# High freq. dielectric constant tensor:
#      x y z
#    x 1.768160 0.000000 0.000000 
#    y 0.000000 1.765070 0.000000 
#    z 0.000000 0.000000 1.677710 
# 
# From -- ./inp_files/7807.got.cif
#   From: 2010.03.12/outbox.cif.g09.slc.cpg/sg45_4_cif.got.tgz:7807.got - 2010.04.14 02:50:11.
