data_PCOD8190278
_publ_section_title
;
Structure prediction by ZEFSAII (Michael W. Deem and Ramdas Pophale) SiO2 
 PCOD8190278
Probable space group: I M M 2
;
_chemical_formula_sum "Si O2"
_cell_formula_units_Z 64
_cell_length_a 8.828714
_cell_length_b 13.842458
_cell_length_c 29.027808
_cell_angle_alpha 90.000000
_cell_angle_beta 90.000000
_cell_angle_gamma 90.000000
_cell_volume 3547.520426
_symmetry_space_group_name_H-M "I M M 2"
_symmetry_group_IT_number 44
_symmetry_cell_setting 'orthorhombic'
loop_
_space_group_symop_operation_xyz
x,y,z
-x,-y,z
-x,y,z
x,-y,z
1/2+x,1/2+y,1/2+z
1/2-x,1/2-y,1/2+z
1/2-x,1/2+y,1/2+z
1/2+x,1/2-y,1/2+z
loop_
_atom_site_type_symbol
_atom_site_label
_atom_site_fract_x
_atom_site_fract_y
_atom_site_fract_z
Si Si1 0.327229 0.288016 0.097150
Si Si2 0.322171 0.110498 0.516726
Si Si3 0.326343 0.715440 0.293704
Si Si4 0.321303 0.609880 0.630664
Si Si5 0.674174 0.757098 0.195512
Si Si6 0.180183 0.890371 0.882140
Si Si7 0.672894 0.891552 0.354992
Si Si8 0.322169 0.720302 0.934290
O O1 0.500000 0.288385 0.079598
O O2 0.229675 0.364562 0.068522
O O3 0.258925 0.178761 0.092292
O O4 0.317233 0.316887 0.151818
O O5 0.500000 0.125563 0.511916
O O6 0.237769 0.184385 0.483254
O O7 0.277009 0.000000 0.505604
O O8 0.500000 0.685313 0.289907
O O9 0.255444 0.708736 0.242087
O O10 0.254155 0.643597 0.331987
O O11 0.303156 0.825534 0.310297
O O12 0.500000 0.620426 0.626102
O O13 0.268651 0.500000 0.622795
O O14 0.267734 0.646186 0.681555
O O15 0.500000 0.787548 0.205070
O O16 0.248830 0.823812 0.922157
O O17 0.000000 0.877529 0.883199
O O18 0.230510 0.000000 0.891082
O O19 0.500000 0.882903 0.372959
O O20 0.780789 0.859431 0.396333
O O21 0.714311 0.000000 0.340485
O O22 0.500000 0.733751 0.937043
#
# Coordination Sequence:
#
# PCOD8190278 Si02
#       8
#     8   8   8   8   8   8   8   8
#     4   9  19  34  53  78 107 138 175 221 269 314
#     4  11  23  39  60  82 105 137 174 213 261 317
#     4   8  14  28  49  76 106 137 178 221 263 310
#     4   9  17  30  49  72 101 140 181 218 260 310
#     4   8  16  29  48  73 105 140 175 218 266 306
#     4   9  18  35  59  81 104 139 181 221 262 313
#     4   9  17  30  49  74 105 141 180 219 259 309
#     4  11  22  35  54  79 109 140 170 214 266 315
#
# _framework density 18.040769999999998
#
# number of rings (size 3 to 8) (size 9 to 14) (size 15 to 20)
#    0.750    2.000    0.000    3.000    0.000    4.500 
#    0.000    5.000    0.000    6.000    0.000    0.000 
#    0.000    0.000    0.000    0.000    0.000    0.000 
#
# Total GULP energy -396490.957886 kJ/mol
# GULP energy per Si atom -12390.342434 kJ/mol
# Density = 1.799971 g / cm^3
# Si number density = 18.040770 Si / 1000 Ang^3
#
#
#
# Elastic Constant Matrix: (Units=GPa)
#
#
# Indices 1 2 3 4 5 6 
#
# 1 60.3419 40.2093 29.3552 0.0000 0.0000 0.0000
# 2 40.2093 119.2218 49.0691 0.0000 0.0000 0.0000
# 3 29.3552 49.0691 95.2580 0.0000 0.0000 0.0000
# 4 0.0000 0.0000 0.0000 21.0150 0.0000 0.0000
# 5 0.0000 0.0000 0.0000 0.0000 21.4287 0.0000
# 6 0.0000 0.0000 0.0000 0.0000 0.0000 18.7393
#
#
#
# Elastic Compliance Matrix: (Units=1/GPa)
#
#
# Indices 1 2 3 4 5 6 
#
# 1 0.022424 -0.005988 -0.003826 0.000000 0.000000 0.000000
# 2 -0.005988 0.012244 -0.004462 0.000000 0.000000 0.000000
# 3 -0.003826 -0.004462 0.013975 0.000000 0.000000 0.000000
# 4 0.000000 0.000000 0.000000 0.047585 0.000000 0.000000
# 5 0.000000 0.000000 0.000000 0.000000 0.046666 0.000000
# 6 0.000000 0.000000 0.000000 0.000000 0.000000 0.053364
#
#
# Mechanical properties :
#
#
# Convention : Reuss Voigt Hill
#
# Bulk Modulus (GPa) = 49.77216 56.89877 53.33547
# Shear Modulus (GPa) = 21.59780 22.64914 22.12347
#
# Velocity S-wave (km/s) = 3.46376 3.54707 3.50566
# Velocity P-wave (km/s) = 6.60647 6.95579 6.78338
#
# Compressibility (1/GPa) = 0.02009155
#
# Stress axis : x y z
#
# Youngs Moduli (GPa) = 44.59596 81.67539 71.55671
#
# Poissons Ratio (x) = 0.48908 0.27374
# Poissons Ratio (y) = 0.26705 0.31925
# Poissons Ratio (z) = 0.17060 0.36440
#
# Static dielectric constant tensor:
#      x y z
#    x 3.161450 0.000000 0.000000 
#    y 0.000000 3.263150 0.000000 
#    z 0.000000 0.000000 3.359660 
# 
# 
# High freq. dielectric constant tensor:
#      x y z
#    x 1.684770 0.000000 0.000000 
#    y 0.000000 1.682700 0.000000 
#    z 0.000000 0.000000 1.691200 
# 
# From -- ./inp_files/27330.got.cif
#   From: 2010.03.12/outbox.cif.g09.slc.cpg/sg44_14_cif.got.tgz:27330.got - 2010.04.14 02:36:11.
