data_PCOD8190365
_publ_section_title
;
Structure prediction by ZEFSAII (Michael W. Deem and Ramdas Pophale) SiO2 
 PCOD8190365
Probable space group: I B A 2
;
_chemical_formula_sum "Si O2"
_cell_formula_units_Z 56
_cell_length_a 20.040862
_cell_length_b 8.840548
_cell_length_c 16.209395
_cell_angle_alpha 90.000000
_cell_angle_beta 90.000000
_cell_angle_gamma 90.000000
_cell_volume 2871.854213
_symmetry_space_group_name_H-M "I B A 2"
_symmetry_group_IT_number 45
_symmetry_cell_setting 'orthorhombic'
loop_
_space_group_symop_operation_xyz
x,y,z
-x,-y,z
-x,y,1/2+z
x,-y,1/2+z
1/2+x,1/2+y,1/2+z
1/2-x,1/2-y,1/2+z
1/2-x,1/2+y,z
1/2+x,1/2-y,z
loop_
_atom_site_type_symbol
_atom_site_label
_atom_site_fract_x
_atom_site_fract_y
_atom_site_fract_z
Si Si1 0.201788 0.110561 0.480880
Si Si2 0.801014 0.790600 0.064450
Si Si3 0.408192 0.748360 0.583957
Si Si4 0.091808 0.248360 0.189791
Si Si5 0.798212 0.889439 0.292868
Si Si6 0.000000 0.000000 0.136874
Si Si7 0.500000 0.000000 0.136874
Si Si8 0.801014 0.790600 0.709299
O O1 0.275289 0.188663 0.487574
O O2 0.146375 0.233646 0.510984
O O3 0.188205 0.064143 0.386874
O O4 0.198685 0.966598 0.540668
O O5 0.874087 0.747507 0.098207
O O6 0.750000 0.750000 0.136874
O O7 0.455417 0.602613 0.576723
O O8 0.453322 0.898560 0.576804
O O9 0.374087 0.752492 0.675541
O O10 0.146375 0.233646 0.262764
O O11 0.046678 0.398560 0.196944
O O12 0.044582 0.102613 0.197025
O O13 0.724711 0.811337 0.286174
O O14 0.801315 0.033402 0.233081
#
# Coordination Sequence:
#
# PCOD8190365 Si02
#       8
#     8   8   8   8   8   4   4   8
#     4  11  22  37  59  91 123 149 184 245 309 346
#     4  10  20  36  61  86 113 154 192 241 286 350
#     4  10  20  37  60  86 107 153 200 245 274 348
#     4  10  20  37  60  86 107 153 200 245 274 348
#     4  11  22  37  59  91 123 149 184 245 309 346
#     4  10  16  38  60  78 108 146 214 236 264 334
#     4  10  24  34  64  82 108 150 216 242 276 322
#     4  10  20  36  61  86 113 154 192 241 286 350
#
# _framework density 19.499597000000001
#
# number of rings (size 3 to 8) (size 9 to 14) (size 15 to 20)
#    0.000    1.714    2.857    3.429    8.000    0.000 
#    0.000    1.429    0.000    0.000    0.000    0.000 
#    0.000    0.000    0.000    0.000    0.000    0.000 
#
# Total GULP energy -347007.308744 kJ/mol
# GULP energy per Si atom -12393.118169 kJ/mol
# Density = 1.945521 g / cm^3
# Si number density = 19.499597 Si / 1000 Ang^3
#
#
#
# Elastic Constant Matrix: (Units=GPa)
#
#
# Indices 1 2 3 4 5 6 
#
# 1 102.2477 51.2738 35.7283 0.0000 0.0000 0.0000
# 2 51.2738 117.8507 32.7723 0.0000 0.0000 0.0000
# 3 35.7283 32.7723 92.4746 0.0000 0.0000 0.0000
# 4 0.0000 0.0000 0.0000 23.4011 0.0000 0.0000
# 5 0.0000 0.0000 0.0000 0.0000 13.9826 0.0000
# 6 0.0000 0.0000 0.0000 0.0000 0.0000 38.7585
#
#
#
# Elastic Compliance Matrix: (Units=1/GPa)
#
#
# Indices 1 2 3 4 5 6 
#
# 1 0.013439 -0.004884 -0.003461 0.000000 0.000000 0.000000
# 2 -0.004884 0.011188 -0.002078 0.000000 0.000000 0.000000
# 3 -0.003461 -0.002078 0.012887 0.000000 0.000000 0.000000
# 4 0.000000 0.000000 0.000000 0.042733 0.000000 0.000000
# 5 0.000000 0.000000 0.000000 0.000000 0.071517 0.000000
# 6 0.000000 0.000000 0.000000 0.000000 0.000000 0.025801
#
#
# Mechanical properties :
#
#
# Convention : Reuss Voigt Hill
#
# Bulk Modulus (GPa) = 59.99694 61.34689 60.67191
# Shear Modulus (GPa) = 24.51353 28.08168 26.29761
#
# Velocity S-wave (km/s) = 3.54945 3.79900 3.67634
# Velocity P-wave (km/s) = 6.90168 7.12546 7.01446
#
# Compressibility (1/GPa) = 0.01666752
#
# Stress axis : x y z
#
# Youngs Moduli (GPa) = 74.41009 89.37955 77.59483
#
# Poissons Ratio (x) = 0.43657 0.26858
# Poissons Ratio (y) = 0.36345 0.16123
# Poissons Ratio (z) = 0.25755 0.18572
#
# Static dielectric constant tensor:
#      x y z
#    x 4.041960 0.000000 0.000000 
#    y 0.000000 3.699920 0.000000 
#    z 0.000000 0.000000 3.379500 
# 
# 
# High freq. dielectric constant tensor:
#      x y z
#    x 1.767580 0.000000 0.000000 
#    y 0.000000 1.770690 0.000000 
#    z 0.000000 0.000000 1.712060 
# 
# From -- ./inp_files/5762.got.cif
#   From: 2010.03.12/outbox.cif.g09.slc.cpg/sg45_3_cif.got.tgz:5762.got - 2010.04.14 02:50:11.
