data_PCOD8190925
_publ_section_title
;
Structure prediction by ZEFSAII (Michael W. Deem and Ramdas Pophale) SiO2 
 PCOD8190925
Probable space group: I B A 2
;
_chemical_formula_sum "Si O2"
_cell_formula_units_Z 56
_cell_length_a 20.120041
_cell_length_b 8.718806
_cell_length_c 14.306170
_cell_angle_alpha 90.000000
_cell_angle_beta 90.000000
_cell_angle_gamma 90.000000
_cell_volume 2509.627457
_symmetry_space_group_name_H-M "I B A 2"
_symmetry_group_IT_number 45
_symmetry_cell_setting 'orthorhombic'
loop_
_space_group_symop_operation_xyz
x,y,z
-x,-y,z
-x,y,1/2+z
x,-y,1/2+z
1/2+x,1/2+y,1/2+z
1/2-x,1/2-y,1/2+z
1/2-x,1/2+y,z
1/2+x,1/2-y,z
loop_
_atom_site_type_symbol
_atom_site_label
_atom_site_fract_x
_atom_site_fract_y
_atom_site_fract_z
Si Si1 0.905002 0.133217 0.275050
Si Si2 0.548510 0.854019 0.950923
Si Si3 0.343999 0.197189 0.105525
Si Si4 0.262536 0.059841 0.545823
Si Si5 0.832215 0.165406 0.460539
Si Si6 0.039994 0.852970 0.569895
Si Si7 0.947236 0.198955 0.767943
O O1 0.891558 0.246362 0.187895
O O2 0.852802 0.180532 0.353633
O O3 0.979653 0.163540 0.307499
O O4 0.898804 0.949709 0.259371
O O5 0.577783 0.820837 0.845858
O O6 0.500000 0.000000 0.951749
O O7 0.612698 0.860548 0.017063
O O8 0.503366 0.715655 0.987285
O O9 0.295837 0.340807 0.089705
O O10 0.298423 0.046022 0.125743
O O11 0.317160 0.163165 0.494734
O O12 0.231599 0.943959 0.468964
O O13 0.890455 0.094594 0.525396
O O14 0.050135 0.739377 0.660097
O O15 0.000000 0.000000 0.611849
#
# Coordination Sequence:
#
# PCOD8190925 Si02
#       7
#     8   8   8   8   8   8   8
#     4  11  21  39  69  98 130 167 227 278 332 413
#     4  12  25  41  65 100 142 170 211 283 351 400
#     4  11  23  45  66  97 134 177 228 277 334 405
#     4  10  24  44  64  89 131 183 225 271 327 393
#     4  11  23  41  67  94 130 173 222 271 330 400
#     4  12  21  40  69  96 126 169 218 274 335 403
#     4  11  22  39  63 105 131 169 213 270 352 414
#
# _framework density 22.314070999999998
#
# number of rings (size 3 to 8) (size 9 to 14) (size 15 to 20)
#    0.000    0.857    4.286    4.286    0.000    1.714 
#    2.571    5.714    0.000    0.000    0.000    0.000 
#    0.000    0.000    0.000    0.000    0.000    0.000 
#
# Total GULP energy -347009.111417 kJ/mol
# GULP energy per Si atom -12393.182551 kJ/mol
# Density = 2.226328 g / cm^3
# Si number density = 22.314071 Si / 1000 Ang^3
#
#
#
# Elastic Constant Matrix: (Units=GPa)
#
#
# Indices 1 2 3 4 5 6 
#
# 1 87.6305 42.4712 26.6965 0.0000 0.0000 0.0000
# 2 42.4712 112.2228 31.3773 0.0000 0.0000 0.0000
# 3 26.6965 31.3773 125.4538 0.0000 0.0000 0.0000
# 4 0.0000 0.0000 0.0000 24.7612 0.0000 0.0000
# 5 0.0000 0.0000 0.0000 0.0000 25.7134 0.0000
# 6 0.0000 0.0000 0.0000 0.0000 0.0000 44.8514
#
#
#
# Elastic Compliance Matrix: (Units=1/GPa)
#
#
# Indices 1 2 3 4 5 6 
#
# 1 0.014352 -0.004922 -0.001823 0.000000 0.000000 0.000000
# 2 -0.004922 0.011269 -0.001771 0.000000 0.000000 0.000000
# 3 -0.001823 -0.001771 0.008802 0.000000 0.000000 0.000000
# 4 0.000000 0.000000 0.000000 0.040386 0.000000 0.000000
# 5 0.000000 0.000000 0.000000 0.000000 0.038890 0.000000
# 6 0.000000 0.000000 0.000000 0.000000 0.000000 0.022296
#
#
# Mechanical properties :
#
#
# Convention : Reuss Voigt Hill
#
# Bulk Modulus (GPa) = 57.50152 58.48856 57.99504
# Shear Modulus (GPa) = 31.48130 34.04935 32.76532
#
# Velocity S-wave (km/s) = 3.76017 3.91053 3.83609
# Velocity P-wave (km/s) = 6.68408 6.83067 6.75778
#
# Compressibility (1/GPa) = 0.01739084
#
# Stress axis : x y z
#
# Youngs Moduli (GPa) = 69.67436 88.74082 113.61079
#
# Poissons Ratio (x) = 0.43678 0.20713
# Poissons Ratio (y) = 0.34294 0.20121
# Poissons Ratio (z) = 0.12703 0.15716
#
# Static dielectric constant tensor:
#      x y z
#    x 4.139220 0.000000 0.000000 
#    y 0.000000 4.185870 0.000000 
#    z 0.000000 0.000000 3.874800 
# 
# 
# High freq. dielectric constant tensor:
#      x y z
#    x 1.882140 0.000000 0.000000 
#    y 0.000000 1.870710 0.000000 
#    z 0.000000 0.000000 1.871280 
# 
# From -- ./inp_files/6947.got.cif
#   From: 2010.03.12/outbox.cif.g09.slc.cpg/sg45_4_cif.got.tgz:6947.got - 2010.04.14 02:50:11.
