data_PCOD8190417
_publ_section_title
;
Structure prediction by ZEFSAII (Michael W. Deem and Ramdas Pophale) SiO2 
 PCOD8190417
Probable space group: I B A 2
;
_chemical_formula_sum "Si O2"
_cell_formula_units_Z 44
_cell_length_a 27.066674
_cell_length_b 8.862097
_cell_length_c 9.547218
_cell_angle_alpha 90.000000
_cell_angle_beta 90.000000
_cell_angle_gamma 90.000000
_cell_volume 2290.067222
_symmetry_space_group_name_H-M "I B A 2"
_symmetry_group_IT_number 45
_symmetry_cell_setting 'orthorhombic'
loop_
_space_group_symop_operation_xyz
x,y,z
-x,-y,z
-x,y,1/2+z
x,-y,1/2+z
1/2+x,1/2+y,1/2+z
1/2-x,1/2-y,1/2+z
1/2-x,1/2+y,z
1/2+x,1/2-y,z
loop_
_atom_site_type_symbol
_atom_site_label
_atom_site_fract_x
_atom_site_fract_y
_atom_site_fract_z
Si Si1 0.284888 0.364624 0.193120
Si Si2 0.813821 0.527234 0.643947
Si Si3 0.666235 0.455925 0.422500
Si Si4 0.000000 0.000000 0.151838
Si Si5 0.360278 0.859301 0.373644
Si Si6 0.438186 0.625865 0.402797
O O1 0.229255 0.402841 0.148997
O O2 0.292306 0.185989 0.195768
O O3 0.298345 0.423953 0.348055
O O4 0.321713 0.450544 0.087273
O O5 0.858637 0.465457 0.738903
O O6 0.838675 0.534830 0.494082
O O7 0.675825 0.287502 0.359256
O O8 0.607593 0.494444 0.407079
O O9 0.967381 0.897743 0.257034
O O10 0.030594 0.892211 0.046008
O O11 0.415914 0.796954 0.402724
#
# Coordination Sequence:
#
# PCOD8190417 Si02
#       6
#     8   8   8   4   8   8
#     4  11  21  34  56  82 121 157 207 227 287 322
#     4  11  22  37  54  84 121 165 195 246 265 352
#     4   9  20  36  56  87 114 152 195 245 278 360
#     4  10  18  38  70  92 118 138 194 252 302 366
#     4   9  22  38  55  83 119 151 202 233 298 334
#     4   9  20  37  62  96 112 148 189 247 300 357
#
# _framework density 19.213411000000001
#
# number of rings (size 3 to 8) (size 9 to 14) (size 15 to 20)
#    1.091    1.091    0.000    3.273    0.000    5.818 
#    0.000    0.000    0.000    3.273    0.000    0.000 
#    0.000    0.000    0.000    0.000    0.000    0.000 
#
# Total GULP energy -272571.921158 kJ/mol
# GULP energy per Si atom -12389.632780 kJ/mol
# Density = 1.916968 g / cm^3
# Si number density = 19.213411 Si / 1000 Ang^3
#
#
#
# Elastic Constant Matrix: (Units=GPa)
#
#
# Indices 1 2 3 4 5 6 
#
# 1 104.9117 25.3881 38.8671 0.0000 0.0000 0.0000
# 2 25.3881 52.9327 24.1244 0.0000 0.0000 0.0000
# 3 38.8671 24.1244 77.4676 0.0000 0.0000 0.0000
# 4 0.0000 0.0000 0.0000 26.2813 0.0000 0.0000
# 5 0.0000 0.0000 0.0000 0.0000 34.7778 0.0000
# 6 0.0000 0.0000 0.0000 0.0000 0.0000 31.6075
#
#
#
# Elastic Compliance Matrix: (Units=1/GPa)
#
#
# Indices 1 2 3 4 5 6 
#
# 1 0.012266 -0.003588 -0.005037 0.000000 0.000000 0.000000
# 2 -0.003588 0.023066 -0.005383 0.000000 0.000000 0.000000
# 3 -0.005037 -0.005383 0.017112 0.000000 0.000000 0.000000
# 4 0.000000 0.000000 0.000000 0.038050 0.000000 0.000000
# 5 0.000000 0.000000 0.000000 0.000000 0.028754 0.000000
# 6 0.000000 0.000000 0.000000 0.000000 0.000000 0.031638
#
#
# Mechanical properties :
#
#
# Convention : Reuss Voigt Hill
#
# Bulk Modulus (GPa) = 40.93492 45.78568 43.36030
# Shear Modulus (GPa) = 26.73165 28.32881 27.53023
#
# Velocity S-wave (km/s) = 3.73406 3.84400 3.78943
# Velocity P-wave (km/s) = 6.32002 6.60178 6.46243
#
# Compressibility (1/GPa) = 0.02442902
#
# Stress axis : x y z
#
# Youngs Moduli (GPa) = 81.52591 43.35383 58.43814
#
# Poissons Ratio (x) = 0.15553 0.29435
# Poissons Ratio (y) = 0.29248 0.31458
# Poissons Ratio (z) = 0.41064 0.23338
#
# Static dielectric constant tensor:
#      x y z
#    x 3.419880 0.000000 0.000000 
#    y 0.000000 3.234390 0.000000 
#    z 0.000000 0.000000 3.498240 
# 
# 
# High freq. dielectric constant tensor:
#      x y z
#    x 1.734100 0.000000 0.000000 
#    y 0.000000 1.723640 0.000000 
#    z 0.000000 0.000000 1.759390 
# 
# From -- ./inp_files/1038.got.cif
#   From: 2010.03.12/outbox.cif.g09.slc.cpg/sg45_1_cif.got.tgz:1038.got - 2010.04.14 02:50:11.
