data_PCOD8190624
_publ_section_title
;
Structure prediction by ZEFSAII (Michael W. Deem and Ramdas Pophale) SiO2 
 PCOD8190624
Probable space group: I B A 2
;
_chemical_formula_sum "Si O2"
_cell_formula_units_Z 64
_cell_length_a 37.489547
_cell_length_b 5.054426
_cell_length_c 17.415908
_cell_angle_alpha 90.000000
_cell_angle_beta 90.000000
_cell_angle_gamma 90.000000
_cell_volume 3300.108032
_symmetry_space_group_name_H-M "I B A 2"
_symmetry_group_IT_number 45
_symmetry_cell_setting 'orthorhombic'
loop_
_space_group_symop_operation_xyz
x,y,z
-x,-y,z
-x,y,1/2+z
x,-y,1/2+z
1/2+x,1/2+y,1/2+z
1/2-x,1/2-y,1/2+z
1/2-x,1/2+y,z
1/2+x,1/2-y,z
loop_
_atom_site_type_symbol
_atom_site_label
_atom_site_fract_x
_atom_site_fract_y
_atom_site_fract_z
Si Si1 0.041340 0.519826 0.180260
Si Si2 0.331912 0.913460 0.530641
Si Si3 0.668148 0.583129 0.434201
Si Si4 0.271956 0.239198 0.142783
Si Si5 0.585695 0.411331 0.931590
Si Si6 0.541352 0.516949 0.780021
Si Si7 0.771943 0.753094 0.822898
Si Si8 0.414320 0.908928 0.529696
O O1 0.051179 0.797678 0.217744
O O2 0.063426 0.497732 0.102595
O O3 0.000000 0.500000 0.157672
O O4 0.051719 0.295063 0.241595
O O5 0.321389 0.708687 0.463101
O O6 0.309300 0.839100 0.605181
O O7 0.373119 0.894965 0.554390
O O8 0.324041 0.210110 0.502688
O O9 0.627116 0.574978 0.408763
O O10 0.690715 0.670435 0.360817
O O11 0.257916 0.526075 0.117093
O O12 0.279068 0.246248 0.232853
O O13 0.563449 0.473270 0.856449
O O14 0.574725 0.621815 0.997462
O O15 0.577615 0.118784 0.962392
O O16 0.500000 0.500000 0.803050
O O17 0.757891 0.466345 0.848577
#
# Coordination Sequence:
#
# PCOD8190624 Si02
#       8
#     8   8   8   8   8   8   8   8
#     4  10  21  37  57  83 113 144 182 225 268 321
#     4  10  21  36  54  78 106 137 176 219 262 313
#     4  10  21  36  54  78 106 137 176 219 262 313
#     4  10  21  36  53  76 105 136 174 218 263 314
#     4  10  21  37  56  81 112 144 182 226 271 324
#     4  10  21  37  57  83 113 144 182 225 268 321
#     4  10  21  36  53  76 105 136 174 218 263 314
#     4  10  21  37  56  81 112 144 182 226 271 324
#
# _framework density 19.393304000000001
#
# number of rings (size 3 to 8) (size 9 to 14) (size 15 to 20)
#    0.000    2.000    0.000    3.000    0.000    5.000 
#    0.000    3.750    0.000    0.000    0.000    0.000 
#    0.000    0.000    0.000    0.000    0.000    0.000 
#
# Total GULP energy -396870.784708 kJ/mol
# GULP energy per Si atom -12402.212022 kJ/mol
# Density = 1.934916 g / cm^3
# Si number density = 19.393304 Si / 1000 Ang^3
#
#
#
# Elastic Constant Matrix: (Units=GPa)
#
#
# Indices 1 2 3 4 5 6 
#
# 1 87.9479 33.9314 69.5765 0.0000 0.0000 0.0000
# 2 33.9314 90.6888 19.1304 0.0000 0.0000 0.0000
# 3 69.5765 19.1304 82.7385 0.0000 0.0000 0.0000
# 4 0.0000 0.0000 0.0000 22.3274 0.0000 0.0000
# 5 0.0000 0.0000 0.0000 0.0000 22.2760 0.0000
# 6 0.0000 0.0000 0.0000 0.0000 0.0000 24.1679
#
#
#
# Elastic Compliance Matrix: (Units=1/GPa)
#
#
# Indices 1 2 3 4 5 6 
#
# 1 0.038837 -0.008034 -0.030802 0.000000 0.000000 0.000000
# 2 -0.008034 0.013254 0.003691 0.000000 0.000000 0.000000
# 3 -0.030802 0.003691 0.037134 0.000000 0.000000 0.000000
# 4 0.000000 0.000000 0.000000 0.044788 0.000000 0.000000
# 5 0.000000 0.000000 0.000000 0.000000 0.044891 0.000000
# 6 0.000000 0.000000 0.000000 0.000000 0.000000 0.041377
#
#
# Mechanical properties :
#
#
# Convention : Reuss Voigt Hill
#
# Bulk Modulus (GPa) = 52.80510 56.29463 54.54986
# Shear Modulus (GPa) = 16.84166 23.00339 19.92253
#
# Velocity S-wave (km/s) = 2.95010 3.44779 3.20861
# Velocity P-wave (km/s) = 6.23633 6.70377 6.47427
#
# Compressibility (1/GPa) = 0.01893757
#
# Stress axis : x y z
#
# Youngs Moduli (GPa) = 25.74847 75.44959 26.92914
#
# Poissons Ratio (x) = 0.60613 0.82946
# Poissons Ratio (y) = 0.20685 -0.09940
# Poissons Ratio (z) = 0.79309 -0.27849
#
# Static dielectric constant tensor:
#      x y z
#    x 3.497180 0.000000 0.000000 
#    y 0.000000 3.974510 0.000000 
#    z 0.000000 0.000000 3.281120 
# 
# 
# High freq. dielectric constant tensor:
#      x y z
#    x 1.749730 0.000000 0.000000 
#    y 0.000000 1.779540 0.000000 
#    z 0.000000 0.000000 1.745930 
# 
# From -- ./inp_files/8576.got.cif
#   From: 2010.03.12/outbox.cif.g09.slc.cpg/sg45_5_cif.got.tgz:8576.got - 2010.04.14 02:50:11.
