data_PCOD8190322
_publ_section_title
;
Structure prediction by ZEFSAII (Michael W. Deem and Ramdas Pophale) SiO2 
 PCOD8190322
Probable space group: I M M 2
;
_chemical_formula_sum "Si O2"
_cell_formula_units_Z 40
_cell_length_a 7.802463
_cell_length_b 9.584715
_cell_length_c 29.651561
_cell_angle_alpha 90.000000
_cell_angle_beta 90.000000
_cell_angle_gamma 90.000000
_cell_volume 2217.473729
_symmetry_space_group_name_H-M "I M M 2"
_symmetry_group_IT_number 44
_symmetry_cell_setting 'orthorhombic'
loop_
_space_group_symop_operation_xyz
x,y,z
-x,-y,z
-x,y,z
x,-y,z
1/2+x,1/2+y,1/2+z
1/2-x,1/2-y,1/2+z
1/2-x,1/2+y,1/2+z
1/2+x,1/2-y,1/2+z
loop_
_atom_site_type_symbol
_atom_site_label
_atom_site_fract_x
_atom_site_fract_y
_atom_site_fract_z
Si Si1 0.313289 0.834337 0.160860
Si Si2 0.500000 0.666979 0.719525
Si Si3 0.197051 0.336135 0.884770
Si Si4 0.500000 0.665070 0.820523
Si Si5 0.796412 0.155380 0.969017
Si Si6 0.309632 0.334003 0.566486
O O1 0.500000 0.788356 0.179218
O O2 0.296291 0.777778 0.109471
O O3 0.167554 0.773805 0.193839
O O4 0.295856 0.000000 0.160140
O O5 0.500000 0.500000 0.720088
O O6 0.500000 0.728107 0.770185
O O7 0.213500 0.500000 0.893461
O O8 0.325514 0.285580 0.845384
O O9 0.261496 0.260765 0.930122
O O10 0.000000 0.296114 0.872154
O O11 0.500000 0.500000 0.817814
O O12 0.000000 0.149520 0.972685
O O13 0.725601 0.000000 0.957966
O O14 0.727005 0.209425 0.017966
O O15 0.500000 0.271493 0.571508
O O16 0.318206 0.500000 0.567187
#
# Coordination Sequence:
#
# PCOD8190322 Si02
#       6
#     8   4   8   4   8   8
#     4   9  15  22  34  53  78 107 137 170 209 255
#     4   9  16  26  38  53  77 109 143 175 210 257
#     4   9  17  30  46  62  85 117 149 181 217 258
#     4   9  18  30  43  59  81 113 151 187 222 257
#     4   8  14  25  43  65  89 118 147 177 215 257
#     4   8  12  21  36  53  80 114 139 164 207 255
#
# _framework density 18.038544999999999
#
# number of rings (size 3 to 8) (size 9 to 14) (size 15 to 20)
#    0.000    3.400    1.000    1.200    0.000    0.800 
#    1.800    4.500    0.000    0.000    0.000    0.000 
#    0.000    3.200    0.000    1.000    0.000    0.400 
#
# Total GULP energy -247769.319806 kJ/mol
# GULP energy per Si atom -12388.465990 kJ/mol
# Density = 1.799749 g / cm^3
# Si number density = 18.038545 Si / 1000 Ang^3
#
#
#
# Elastic Constant Matrix: (Units=GPa)
#
#
# Indices 1 2 3 4 5 6 
#
# 1 116.9880 13.7515 80.0132 0.0000 0.0000 0.0000
# 2 13.7515 17.3274 24.6712 0.0000 0.0000 0.0000
# 3 80.0132 24.6712 179.5503 0.0000 0.0000 0.0000
# 4 0.0000 0.0000 0.0000 17.3246 0.0000 0.0000
# 5 0.0000 0.0000 0.0000 0.0000 17.7231 0.0000
# 6 0.0000 0.0000 0.0000 0.0000 0.0000 6.0241
#
#
#
# Elastic Compliance Matrix: (Units=1/GPa)
#
#
# Indices 1 2 3 4 5 6 
#
# 1 0.012378 -0.002449 -0.005180 0.000000 0.000000 0.000000
# 2 -0.002449 0.072234 -0.008834 0.000000 0.000000 0.000000
# 3 -0.005180 -0.008834 0.009092 0.000000 0.000000 0.000000
# 4 0.000000 0.000000 0.000000 0.057721 0.000000 0.000000
# 5 0.000000 0.000000 0.000000 0.000000 0.056424 0.000000
# 6 0.000000 0.000000 0.000000 0.000000 0.000000 0.166001
#
#
# Mechanical properties :
#
#
# Convention : Reuss Voigt Hill
#
# Bulk Modulus (GPa) = 16.45322 61.19306 38.82314
# Shear Modulus (GPa) = 11.70867 21.24301 16.47584
#
# Velocity S-wave (km/s) = 2.55049 3.43541 3.02548
# Velocity P-wave (km/s) = 4.22070 7.05218 5.81152
#
# Compressibility (1/GPa) = 0.06077836
#
# Stress axis : x y z
#
# Youngs Moduli (GPa) = 80.78618 13.84398 109.99233
#
# Poissons Ratio (x) = 0.03390 0.56973
# Poissons Ratio (y) = 0.19783 0.97167
# Poissons Ratio (z) = 0.41845 0.12230
#
# Static dielectric constant tensor:
#      x y z
#    x 3.380510 0.000000 0.000000 
#    y 0.000000 2.689230 0.000000 
#    z 0.000000 0.000000 3.733180 
# 
# 
# High freq. dielectric constant tensor:
#      x y z
#    x 1.696420 0.000000 0.000000 
#    y 0.000000 1.611910 0.000000 
#    z 0.000000 0.000000 1.707020 
# 
# From -- ./inp_files/25953.got.cif
#   From: 2010.03.12/outbox.cif.g09.slc.cpg/sg44_13_cif.got.tgz:25953.got - 2010.04.14 02:36:11.
