data_PCOD8190801
_publ_section_title
;
Structure prediction by ZEFSAII (Michael W. Deem and Ramdas Pophale) SiO2 
 PCOD8190801
Probable space group: I B A 2
;
_chemical_formula_sum "Si O2"
_cell_formula_units_Z 60
_cell_length_a 17.396833
_cell_length_b 17.807645
_cell_length_c 8.894575
_cell_angle_alpha 90.000000
_cell_angle_beta 90.000000
_cell_angle_gamma 90.000000
_cell_volume 2755.509326
_symmetry_space_group_name_H-M "I B A 2"
_symmetry_group_IT_number 45
_symmetry_cell_setting 'orthorhombic'
loop_
_space_group_symop_operation_xyz
x,y,z
-x,-y,z
-x,y,1/2+z
x,-y,1/2+z
1/2+x,1/2+y,1/2+z
1/2-x,1/2-y,1/2+z
1/2-x,1/2+y,z
1/2+x,1/2-y,z
loop_
_atom_site_type_symbol
_atom_site_label
_atom_site_fract_x
_atom_site_fract_y
_atom_site_fract_z
Si Si1 0.489795 0.331149 0.841140
Si Si2 0.765244 0.348281 0.839719
Si Si3 0.753002 0.716630 0.034981
Si Si4 0.575203 0.091427 0.229460
Si Si5 0.147402 0.907564 0.966796
Si Si6 0.431661 0.759712 0.073168
Si Si7 0.000000 0.500000 0.985889
Si Si8 0.870652 0.943039 0.800039
O O1 0.425038 0.352211 0.962030
O O2 0.448390 0.310894 0.683528
O O3 0.548702 0.400855 0.824484
O O4 0.528623 0.257027 0.913499
O O5 0.727997 0.296211 0.707778
O O6 0.789314 0.291875 0.973644
O O7 0.836328 0.395668 0.774661
O O8 0.697419 0.403011 0.895423
O O9 0.724236 0.643263 0.939723
O O10 0.843636 0.727888 0.028665
O O11 0.537299 0.166644 0.159861
O O12 0.530809 0.067018 0.380456
O O13 0.568323 0.029227 0.096332
O O14 0.129690 0.970002 0.842793
O O15 0.152932 0.946427 0.127212
#
# Coordination Sequence:
#
# PCOD8190801 Si02
#       8
#     8   8   8   8   8   8   4   8
#     4  12  23  42  67 101 135 179 227 290 345 412
#     4  10  22  42  65  95 129 176 229 280 344 411
#     4  10  22  43  64  94 131 175 228 284 336 408
#     4  10  22  41  67  96 132 176 224 277 348 406
#     4  11  25  41  65  96 139 180 230 278 345 416
#     4  11  23  41  69  99 135 175 227 284 342 409
#     4  10  22  44  64  98 138 174 224 286 336 420
#     4  11  25  41  62  96 136 178 230 278 346 418
#
# _framework density 21.774557999999999
#
# number of rings (size 3 to 8) (size 9 to 14) (size 15 to 20)
#    0.000    1.333    2.667    2.800    1.867    5.333 
#    0.000    2.667    0.000    0.000    0.000    0.000 
#    0.000    0.000    0.000    0.000    0.000    0.000 
#
# Total GULP energy -371827.844988 kJ/mol
# GULP energy per Si atom -12394.261500 kJ/mol
# Density = 2.172500 g / cm^3
# Si number density = 21.774558 Si / 1000 Ang^3
#
#
#
# Elastic Constant Matrix: (Units=GPa)
#
#
# Indices 1 2 3 4 5 6 
#
# 1 125.8328 64.7703 46.0645 0.0000 0.0000 0.0000
# 2 64.7703 103.2076 33.9259 0.0000 0.0000 0.0000
# 3 46.0645 33.9259 70.4113 0.0000 0.0000 0.0000
# 4 0.0000 0.0000 0.0000 43.6092 0.0000 0.0000
# 5 0.0000 0.0000 0.0000 0.0000 30.9602 0.0000
# 6 0.0000 0.0000 0.0000 0.0000 0.0000 40.6203
#
#
#
# Elastic Compliance Matrix: (Units=1/GPa)
#
#
# Indices 1 2 3 4 5 6 
#
# 1 0.013364 -0.006550 -0.005587 0.000000 0.000000 0.000000
# 2 -0.006550 0.014723 -0.002809 0.000000 0.000000 0.000000
# 3 -0.005587 -0.002809 0.019211 0.000000 0.000000 0.000000
# 4 0.000000 0.000000 0.000000 0.022931 0.000000 0.000000
# 5 0.000000 0.000000 0.000000 0.000000 0.032300 0.000000
# 6 0.000000 0.000000 0.000000 0.000000 0.000000 0.024618
#
#
# Mechanical properties :
#
#
# Convention : Reuss Voigt Hill
#
# Bulk Modulus (GPa) = 57.45119 65.44144 61.44631
# Shear Modulus (GPa) = 30.70493 33.35068 32.02780
#
# Velocity S-wave (km/s) = 3.75924 3.91786 3.83937
# Velocity P-wave (km/s) = 6.72937 7.11235 6.92350
#
# Compressibility (1/GPa) = 0.01740608
#
# Stress axis : x y z
#
# Youngs Moduli (GPa) = 74.82815 67.91956 52.05472
#
# Poissons Ratio (x) = 0.44490 0.29082
# Poissons Ratio (y) = 0.49015 0.14620
# Poissons Ratio (z) = 0.41805 0.19076
#
# Static dielectric constant tensor:
#      x y z
#    x 3.812930 0.000000 0.000000 
#    y 0.000000 4.052640 0.000000 
#    z 0.000000 0.000000 3.945950 
# 
# 
# High freq. dielectric constant tensor:
#      x y z
#    x 1.848590 0.000000 0.000000 
#    y 0.000000 1.856550 0.000000 
#    z 0.000000 0.000000 1.857020 
# 
# From -- ./inp_files/2148.got.cif
#   From: 2010.03.12/outbox.cif.g09.slc.cpg/sg45_2_cif.got.tgz:2148.got - 2010.04.14 02:50:11.
