data_PCOD8190962
_publ_section_title
;
Structure prediction by ZEFSAII (Michael W. Deem and Ramdas Pophale) SiO2 
 PCOD8190962
Probable space group: I B A 2
;
_chemical_formula_sum "Si O2"
_cell_formula_units_Z 60
_cell_length_a 24.792307
_cell_length_b 11.673711
_cell_length_c 8.415710
_cell_angle_alpha 90.000000
_cell_angle_beta 90.000000
_cell_angle_gamma 90.000000
_cell_volume 2435.659867
_symmetry_space_group_name_H-M "I B A 2"
_symmetry_group_IT_number 45
_symmetry_cell_setting 'orthorhombic'
loop_
_space_group_symop_operation_xyz
x,y,z
-x,-y,z
-x,y,1/2+z
x,-y,1/2+z
1/2+x,1/2+y,1/2+z
1/2-x,1/2-y,1/2+z
1/2-x,1/2+y,z
1/2+x,1/2-y,z
loop_
_atom_site_type_symbol
_atom_site_label
_atom_site_fract_x
_atom_site_fract_y
_atom_site_fract_z
Si Si1 0.210861 0.068485 0.297170
Si Si2 0.447789 0.633142 0.492387
Si Si3 0.417616 0.938977 0.320176
Si Si4 0.500000 0.000000 0.569859
Si Si5 0.826554 0.621171 0.787515
Si Si6 0.556450 0.621228 0.614569
Si Si7 0.167927 0.145365 0.966423
Si Si8 0.151342 0.735685 0.972943
O O1 0.274469 0.040782 0.323089
O O2 0.194589 0.174454 0.409700
O O3 0.174814 0.956394 0.335713
O O4 0.203675 0.106674 0.115511
O O5 0.504707 0.689631 0.544066
O O6 0.447585 0.510803 0.572066
O O7 0.439483 0.632586 0.303242
O O8 0.397414 0.700844 0.566323
O O9 0.459023 0.923689 0.466751
O O10 0.457911 0.924048 0.171888
O O11 0.383132 0.057369 0.325046
O O12 0.374627 0.835622 0.324950
O O13 0.815267 0.734854 0.889700
O O14 0.823112 0.649894 0.600258
O O15 0.607687 0.669549 0.523818
#
# Coordination Sequence:
#
# PCOD8190962 Si02
#       8
#     8   8   8   4   8   8   8   8
#     4  12  28  49  76 109 151 196 246 316 369 441
#     4  11  24  39  70 104 151 193 236 302 367 444
#     4  11  26  49  76 111 149 195 255 306 375 452
#     4  10  24  50  78 106 150 196 246 314 374 446
#     4  12  30  47  78 109 145 200 249 311 367 446
#     4  11  22  42  66 107 147 191 240 296 368 441
#     4  12  26  49  75 107 150 192 248 302 378 443
#     4  12  26  49  73 110 149 197 252 308 372 446
#
# _framework density 24.633983000000001
#
# number of rings (size 3 to 8) (size 9 to 14) (size 15 to 20)
#    0.000    0.533    4.000    3.200    9.333    3.200 
#    0.000    0.000    0.000    0.000    0.000    0.000 
#    0.000    0.000    0.000    0.000    0.000    0.000 
#
# Total GULP energy -371852.149700 kJ/mol
# GULP energy per Si atom -12395.071657 kJ/mol
# Density = 2.457791 g / cm^3
# Si number density = 24.633983 Si / 1000 Ang^3
#
#
#
# Elastic Constant Matrix: (Units=GPa)
#
#
# Indices 1 2 3 4 5 6 
#
# 1 151.8973 19.5318 28.4011 0.0000 0.0000 0.0000
# 2 19.5318 69.2288 14.9438 0.0000 0.0000 0.0000
# 3 28.4011 14.9438 79.5386 0.0000 0.0000 0.0000
# 4 0.0000 0.0000 0.0000 26.3924 0.0000 0.0000
# 5 0.0000 0.0000 0.0000 0.0000 24.0894 0.0000
# 6 0.0000 0.0000 0.0000 0.0000 0.0000 33.0845
#
#
#
# Elastic Compliance Matrix: (Units=1/GPa)
#
#
# Indices 1 2 3 4 5 6 
#
# 1 0.007209 -0.001541 -0.002285 0.000000 0.000000 0.000000
# 2 -0.001541 0.015385 -0.002340 0.000000 0.000000 0.000000
# 3 -0.002285 -0.002340 0.013828 0.000000 0.000000 0.000000
# 4 0.000000 0.000000 0.000000 0.037890 0.000000 0.000000
# 5 0.000000 0.000000 0.000000 0.000000 0.041512 0.000000
# 6 0.000000 0.000000 0.000000 0.000000 0.000000 0.030226
#
#
# Mechanical properties :
#
#
# Convention : Reuss Voigt Hill
#
# Bulk Modulus (GPa) = 41.51068 47.37980 44.44524
# Shear Modulus (GPa) = 30.04625 32.56577 31.30601
#
# Velocity S-wave (km/s) = 3.49622 3.63986 3.56876
# Velocity P-wave (km/s) = 5.76070 6.07783 5.92139
#
# Compressibility (1/GPa) = 0.02409019
#
# Stress axis : x y z
#
# Youngs Moduli (GPa) = 138.72202 64.99950 72.31710
#
# Poissons Ratio (x) = 0.10014 0.16521
# Poissons Ratio (y) = 0.21372 0.16925
# Poissons Ratio (z) = 0.31692 0.15212
#
# Static dielectric constant tensor:
#      x y z
#    x 5.565870 0.000000 0.000000 
#    y 0.000000 3.937210 0.000000 
#    z 0.000000 0.000000 4.480680 
# 
# 
# High freq. dielectric constant tensor:
#      x y z
#    x 2.003310 0.000000 0.000000 
#    y 0.000000 1.966860 0.000000 
#    z 0.000000 0.000000 1.979830 
# 
# From -- ./inp_files/2632.got.cif
#   From: 2010.03.12/outbox.cif.g09.slc.cpg/sg45_2_cif.got.tgz:2632.got - 2010.04.14 02:50:11.
