data_PCOD8190280
_publ_section_title
;
Structure prediction by ZEFSAII (Michael W. Deem and Ramdas Pophale) SiO2 
 PCOD8190280
Probable space group: I M M 2
;
_chemical_formula_sum "Si O2"
_cell_formula_units_Z 56
_cell_length_a 20.081946
_cell_length_b 8.694764
_cell_length_c 15.471586
_cell_angle_alpha 90.000000
_cell_angle_beta 90.000000
_cell_angle_gamma 90.000000
_cell_volume 2701.459302
_symmetry_space_group_name_H-M "I M M 2"
_symmetry_group_IT_number 44
_symmetry_cell_setting 'orthorhombic'
loop_
_space_group_symop_operation_xyz
x,y,z
-x,-y,z
-x,y,z
x,-y,z
1/2+x,1/2+y,1/2+z
1/2-x,1/2-y,1/2+z
1/2-x,1/2+y,1/2+z
1/2+x,1/2-y,1/2+z
loop_
_atom_site_type_symbol
_atom_site_label
_atom_site_fract_x
_atom_site_fract_y
_atom_site_fract_z
Si Si1 0.710093 0.817663 0.000000
Si Si2 0.698874 0.821429 0.650601
Si Si3 0.887777 0.327174 0.734109
Si Si4 0.744958 0.321829 0.817735
Si Si5 0.923972 0.819959 0.073706
Si Si6 0.573385 0.336614 0.388826
Si Si7 0.923575 0.180042 0.558874
O O1 0.748479 0.764624 0.087170
O O2 0.631942 0.767854 0.001988
O O3 0.713796 0.000000 0.996993
O O4 0.743142 0.749618 0.913478
O O5 0.699235 0.767134 0.750178
O O6 0.622216 0.786603 0.631563
O O7 0.715570 0.000000 0.642743
O O8 0.897624 0.500000 0.699464
O O9 0.816697 0.297140 0.775849
O O10 0.934242 0.292517 0.815853
O O11 0.906519 0.210566 0.658828
O O12 0.724877 0.500000 0.823977
O O13 0.000000 0.765795 0.087955
O O14 0.915260 0.000000 0.096380
O O15 0.892050 0.785309 0.978028
O O16 0.500000 0.372896 0.423952
O O17 0.604033 0.500000 0.353689
O O18 0.000000 0.234469 0.538389
O O19 0.917065 0.000000 0.540554
#
# Coordination Sequence:
#
# PCOD8190280 Si02
#       7
#     8   8   8   8   8   8   8
#     4  12  25  43  67  96 130 171 218 273 329 390
#     4  12  24  40  64  94 128 166 210 264 321 384
#     4  11  22  35  56  88 122 159 205 258 317 381
#     4  11  24  42  64  92 125 164 213 268 324 386
#     4   9  19  37  60  86 120 163 208 257 316 379
#     4   9  18  32  51  78 114 156 198 240 296 366
#     4  11  24  42  65  92 127 172 219 271 333 399
#
# _framework density 20.729538000000002
#
# number of rings (size 3 to 8) (size 9 to 14) (size 15 to 20)
#    0.000    1.286    1.429    6.000    0.000    8.000 
#    0.000    2.143    0.000    4.286    0.000    0.000 
#    0.000    0.000    0.000    0.000    0.000    0.000 
#
# Total GULP energy -346922.446725 kJ/mol
# GULP energy per Si atom -12390.087383 kJ/mol
# Density = 2.068236 g / cm^3
# Si number density = 20.729538 Si / 1000 Ang^3
#
#
#
# Elastic Constant Matrix: (Units=GPa)
#
#
# Indices 1 2 3 4 5 6 
#
# 1 84.4462 38.5605 13.9827 0.0000 0.0000 0.0000
# 2 38.5605 112.5240 30.8991 0.0000 0.0000 0.0000
# 3 13.9827 30.8991 83.2723 0.0000 0.0000 0.0000
# 4 0.0000 0.0000 0.0000 25.4185 0.0000 0.0000
# 5 0.0000 0.0000 0.0000 0.0000 28.2253 0.0000
# 6 0.0000 0.0000 0.0000 0.0000 0.0000 30.8674
#
#
#
# Elastic Compliance Matrix: (Units=1/GPa)
#
#
# Indices 1 2 3 4 5 6 
#
# 1 0.014069 -0.004646 -0.000638 0.000000 0.000000 0.000000
# 2 -0.004646 0.011429 -0.003461 0.000000 0.000000 0.000000
# 3 -0.000638 -0.003461 0.013400 0.000000 0.000000 0.000000
# 4 0.000000 0.000000 0.000000 0.039341 0.000000 0.000000
# 5 0.000000 0.000000 0.000000 0.000000 0.035429 0.000000
# 6 0.000000 0.000000 0.000000 0.000000 0.000000 0.032397
#
#
# Mechanical properties :
#
#
# Convention : Reuss Voigt Hill
#
# Bulk Modulus (GPa) = 46.71138 49.68080 48.19609
# Shear Modulus (GPa) = 29.29240 30.02224 29.65732
#
# Velocity S-wave (km/s) = 3.76317 3.80976 3.78654
# Velocity P-wave (km/s) = 6.43930 6.58563 6.51288
#
# Compressibility (1/GPa) = 0.02140806
#
# Stress axis : x y z
#
# Youngs Moduli (GPa) = 71.07795 87.49315 74.62568
#
# Poissons Ratio (x) = 0.40649 0.04765
# Poissons Ratio (y) = 0.33023 0.25827
# Poissons Ratio (z) = 0.04538 0.30281
#
# Static dielectric constant tensor:
#      x y z
#    x 3.888690 0.000000 0.000000 
#    y 0.000000 3.804540 0.000000 
#    z 0.000000 0.000000 3.880910 
# 
# 
# High freq. dielectric constant tensor:
#      x y z
#    x 1.815470 0.000000 0.000000 
#    y 0.000000 1.812560 0.000000 
#    z 0.000000 0.000000 1.801980 
# 
# From -- ./inp_files/19199.got.cif
#   From: 2010.03.12/outbox.cif.g09.slc.cpg/sg44_10_cif.got.tgz:19199.got - 2010.04.14 02:36:11.
