data_PCOD8190576
_publ_section_title
;
Structure prediction by ZEFSAII (Michael W. Deem and Ramdas Pophale) SiO2 
 PCOD8190576
Probable space group: I B A 2
;
_chemical_formula_sum "Si O2"
_cell_formula_units_Z 64
_cell_length_a 15.954405
_cell_length_b 8.939451
_cell_length_c 20.541234
_cell_angle_alpha 90.000000
_cell_angle_beta 90.000000
_cell_angle_gamma 90.000000
_cell_volume 2929.665188
_symmetry_space_group_name_H-M "I B A 2"
_symmetry_group_IT_number 45
_symmetry_cell_setting 'orthorhombic'
loop_
_space_group_symop_operation_xyz
x,y,z
-x,-y,z
-x,y,1/2+z
x,-y,1/2+z
1/2+x,1/2+y,1/2+z
1/2-x,1/2-y,1/2+z
1/2-x,1/2+y,z
1/2+x,1/2-y,z
loop_
_atom_site_type_symbol
_atom_site_label
_atom_site_fract_x
_atom_site_fract_y
_atom_site_fract_z
Si Si1 0.674726 0.820448 0.596850
Si Si2 0.207154 0.057407 0.819011
Si Si3 0.493336 0.667554 0.041511
Si Si4 0.311866 0.276353 0.742898
Si Si5 0.960905 0.354778 0.816479
Si Si6 0.347836 0.002000 0.914587
Si Si7 0.332864 0.850438 0.548420
Si Si8 0.576260 0.304588 0.905041
O O1 0.586951 0.750502 0.572655
O O2 0.698106 0.759491 0.667895
O O3 0.755910 0.763841 0.557197
O O4 0.668732 0.002334 0.595378
O O5 0.234354 0.212465 0.785443
O O6 0.283433 0.980369 0.856164
O O7 0.139384 0.071342 0.876968
O O8 0.180890 0.951683 0.758929
O O9 0.500000 0.500000 0.072437
O O10 0.577824 0.764087 0.055314
O O11 0.481159 0.638399 0.964020
O O12 0.398956 0.205779 0.763424
O O13 0.924312 0.402297 0.886593
O O14 0.000000 0.500000 0.781644
O O15 0.028140 0.231626 0.837623
O O16 0.376005 0.837489 0.936062
O O17 0.314417 0.089870 0.976400
#
# Coordination Sequence:
#
# PCOD8190576 Si02
#       8
#     8   8   8   8   8   8   8   8
#     4  12  27  48  71 101 140 199 244 290 355 426
#     4  11  23  40  70  99 133 181 224 294 349 414
#     4  12  27  45  72 109 145 183 241 297 361 437
#     4  11  25  46  64  99 137 179 241 274 339 423
#     4   9  21  38  65  94 134 168 214 283 347 409
#     4  10  20  39  66 101 133 170 226 289 361 418
#     4  12  25  46  75 102 147 191 238 304 362 431
#     4  11  21  41  67 102 136 173 229 288 368 419
#
# _framework density 21.845500000000001
#
# number of rings (size 3 to 8) (size 9 to 14) (size 15 to 20)
#    0.000    1.000    3.750    2.625    1.750    1.000 
#    4.500    0.000    0.000    0.000    0.000    0.000 
#    0.000    0.000    0.000    0.000    0.000    0.000 
#
# Total GULP energy -396587.383968 kJ/mol
# GULP energy per Si atom -12393.355749 kJ/mol
# Density = 2.179578 g / cm^3
# Si number density = 21.845500 Si / 1000 Ang^3
#
#
#
# Elastic Constant Matrix: (Units=GPa)
#
#
# Indices 1 2 3 4 5 6 
#
# 1 124.7716 49.7548 27.6088 0.0000 0.0000 0.0000
# 2 49.7548 119.6538 23.7867 0.0000 0.0000 0.0000
# 3 27.6088 23.7867 78.1981 0.0000 0.0000 0.0000
# 4 0.0000 0.0000 0.0000 34.7347 0.0000 0.0000
# 5 0.0000 0.0000 0.0000 0.0000 18.4840 0.0000
# 6 0.0000 0.0000 0.0000 0.0000 0.0000 28.7077
#
#
#
# Elastic Compliance Matrix: (Units=1/GPa)
#
#
# Indices 1 2 3 4 5 6 
#
# 1 0.010019 -0.003686 -0.002416 0.000000 0.000000 0.000000
# 2 -0.003686 0.010251 -0.001817 0.000000 0.000000 0.000000
# 3 -0.002416 -0.001817 0.014194 0.000000 0.000000 0.000000
# 4 0.000000 0.000000 0.000000 0.028790 0.000000 0.000000
# 5 0.000000 0.000000 0.000000 0.000000 0.054101 0.000000
# 6 0.000000 0.000000 0.000000 0.000000 0.000000 0.034834
#
#
# Mechanical properties :
#
#
# Convention : Reuss Voigt Hill
#
# Bulk Modulus (GPa) = 53.68781 58.32491 56.00636
# Shear Modulus (GPa) = 28.69686 31.15017 29.92352
#
# Velocity S-wave (km/s) = 3.62833 3.78025 3.70507
# Velocity P-wave (km/s) = 6.49481 6.76834 6.63299
#
# Compressibility (1/GPa) = 0.01862620
#
# Stress axis : x y z
#
# Youngs Moduli (GPa) = 99.80961 97.54851 70.45338
#
# Poissons Ratio (x) = 0.35955 0.17023
# Poissons Ratio (y) = 0.36788 0.12801
# Poissons Ratio (z) = 0.24116 0.17724
#
# Static dielectric constant tensor:
#      x y z
#    x 4.037960 0.000000 0.000000 
#    y 0.000000 3.973730 0.000000 
#    z 0.000000 0.000000 3.688300 
# 
# 
# High freq. dielectric constant tensor:
#      x y z
#    x 1.868320 0.000000 0.000000 
#    y 0.000000 1.867800 0.000000 
#    z 0.000000 0.000000 1.842760 
# 
# From -- ./inp_files/9263.got.cif
#   From: 2010.03.12/outbox.cif.g09.slc.cpg/sg45_5_cif.got.tgz:9263.got - 2010.04.14 02:50:11.
