data_PCOD8190491
_publ_section_title
;
Structure prediction by ZEFSAII (Michael W. Deem and Ramdas Pophale) SiO2 
 PCOD8190491
Probable space group: I B A 2
;
_chemical_formula_sum "Si O2"
_cell_formula_units_Z 60
_cell_length_a 24.092166
_cell_length_b 12.817437
_cell_length_c 9.001160
_cell_angle_alpha 90.000000
_cell_angle_beta 90.000000
_cell_angle_gamma 90.000000
_cell_volume 2779.556587
_symmetry_space_group_name_H-M "I B A 2"
_symmetry_group_IT_number 45
_symmetry_cell_setting 'orthorhombic'
loop_
_space_group_symop_operation_xyz
x,y,z
-x,-y,z
-x,y,1/2+z
x,-y,1/2+z
1/2+x,1/2+y,1/2+z
1/2-x,1/2-y,1/2+z
1/2-x,1/2+y,z
1/2+x,1/2-y,z
loop_
_atom_site_type_symbol
_atom_site_label
_atom_site_fract_x
_atom_site_fract_y
_atom_site_fract_z
Si Si1 0.075737 0.466236 0.576440
Si Si2 0.130394 0.689749 0.614100
Si Si3 0.947758 0.881712 0.100082
Si Si4 0.330519 0.276671 0.920515
Si Si5 0.724851 0.097792 0.925280
Si Si6 0.304963 0.096525 0.098314
Si Si7 0.438704 0.399880 0.952464
Si Si8 0.000000 0.500000 0.323383
O O1 0.090483 0.589067 0.599329
O O2 0.130745 0.403044 0.551347
O O3 0.038745 0.428127 0.717096
O O4 0.040661 0.435666 0.430351
O O5 0.095442 0.790035 0.562483
O O6 0.153346 0.705247 0.780474
O O7 0.185116 0.678213 0.512144
O O8 0.950293 0.903715 0.276150
O O9 0.008763 0.850793 0.039518
O O10 0.927051 0.983993 0.012665
O O11 0.286172 0.365524 0.878427
O O12 0.385103 0.329786 0.989855
O O13 0.292503 0.212882 0.041111
O O14 0.695164 0.073790 0.770964
O O15 0.731498 0.990309 0.015721
#
# Coordination Sequence:
#
# PCOD8190491 Si02
#       8
#     8   8   8   8   8   8   8   4
#     4  10  20  36  55  85 120 157 193 241 296 352
#     4  10  22  40  60  86 122 158 202 250 301 364
#     4  10  21  39  59  85 122 158 201 250 301 360
#     4  11  24  41  63  91 118 157 206 250 306 365
#     4  11  24  41  64  90 119 159 200 249 306 362
#     4  11  23  42  63  86 125 158 195 252 305 361
#     4  10  22  38  60  87 120 159 201 253 304 360
#     4  10  20  32  56  86 120 156 200 236 286 364
#
# _framework density 21.586176999999999
#
# number of rings (size 3 to 8) (size 9 to 14) (size 15 to 20)
#    0.000    1.600    0.000    6.400    0.000    9.600 
#    0.000    0.000    0.000    0.000    0.000    0.000 
#    0.000    0.000    0.000    0.000    0.000    0.000 
#
# Total GULP energy -371785.420513 kJ/mol
# GULP energy per Si atom -12392.847350 kJ/mol
# Density = 2.153705 g / cm^3
# Si number density = 21.586177 Si / 1000 Ang^3
#
#
#
# Elastic Constant Matrix: (Units=GPa)
#
#
# Indices 1 2 3 4 5 6 
#
# 1 88.8537 37.0360 26.8630 0.0000 0.0000 0.0000
# 2 37.0360 90.6233 30.3081 0.0000 0.0000 0.0000
# 3 26.8630 30.3081 124.2869 0.0000 0.0000 0.0000
# 4 0.0000 0.0000 0.0000 28.6001 0.0000 0.0000
# 5 0.0000 0.0000 0.0000 0.0000 -73.2485 0.0000
# 6 0.0000 0.0000 0.0000 0.0000 0.0000 29.5578
#
#
#
# Elastic Compliance Matrix: (Units=1/GPa)
#
#
# Indices 1 2 3 4 5 6 
#
# 1 0.013912 -0.005095 -0.001764 0.000000 0.000000 0.000000
# 2 -0.005095 0.013881 -0.002284 0.000000 0.000000 0.000000
# 3 -0.001764 -0.002284 0.008984 0.000000 0.000000 0.000000
# 4 0.000000 0.000000 0.000000 0.034965 0.000000 0.000000
# 5 0.000000 0.000000 0.000000 0.000000 -0.013652 0.000000
# 6 0.000000 0.000000 0.000000 0.000000 0.000000 0.033832
#
#
# Mechanical properties :
#
#
# Convention : Reuss Voigt Hill
#
# Bulk Modulus (GPa) = 54.08324 54.68646 54.38485
# Shear Modulus (GPa) = 42.96586 10.95231 26.95909
#
# Velocity S-wave (km/s) = 4.46627 2.25494 3.53782
# Velocity P-wave (km/s) = 7.19067 5.67175 6.47589
#
# Compressibility (1/GPa) = 0.01849002
#
# Stress axis : x y z
#
# Youngs Moduli (GPa) = 71.88181 72.04185 111.30768
#
# Poissons Ratio (x) = 0.36708 0.19638
# Poissons Ratio (y) = 0.36627 0.25418
# Poissons Ratio (z) = 0.12682 0.16452
#
# Static dielectric constant tensor:
#      x y z
#    x 4.172020 0.000000 0.000000 
#    y 0.000000 3.752130 0.000000 
#    z 0.000000 0.000000 3.969800 
# 
# 
# High freq. dielectric constant tensor:
#      x y z
#    x 1.859530 0.000000 0.000000 
#    y 0.000000 1.832640 0.000000 
#    z 0.000000 0.000000 1.859950 
# 
# From -- ./inp_files/2526.got.cif
#   From: 2010.03.12/outbox.cif.g09.slc.cpg/sg45_2_cif.got.tgz:2526.got - 2010.04.14 02:50:11.
