data_PCOD8190934
_publ_section_title
;
Structure prediction by ZEFSAII (Michael W. Deem and Ramdas Pophale) SiO2 
 PCOD8190934
Probable space group: I B A 2
;
_chemical_formula_sum "Si O2"
_cell_formula_units_Z 40
_cell_length_a 19.690030
_cell_length_b 8.954905
_cell_length_c 8.896223
_cell_angle_alpha 90.000000
_cell_angle_beta 90.000000
_cell_angle_gamma 90.000000
_cell_volume 1568.602929
_symmetry_space_group_name_H-M "I B A 2"
_symmetry_group_IT_number 45
_symmetry_cell_setting 'orthorhombic'
loop_
_space_group_symop_operation_xyz
x,y,z
-x,-y,z
-x,y,1/2+z
x,-y,1/2+z
1/2+x,1/2+y,1/2+z
1/2-x,1/2-y,1/2+z
1/2-x,1/2+y,z
1/2+x,1/2-y,z
loop_
_atom_site_type_symbol
_atom_site_label
_atom_site_fract_x
_atom_site_fract_y
_atom_site_fract_z
Si Si1 0.650814 0.964467 0.129870
Si Si2 0.933836 0.927587 0.234174
Si Si3 0.841151 0.049624 0.461005
Si Si4 0.061407 0.616466 0.877011
Si Si5 0.271912 0.841753 0.893159
O O1 0.711470 0.876419 0.216402
O O2 0.613353 0.054314 0.257497
O O3 0.597819 0.858631 0.039720
O O4 0.676680 0.081356 0.007645
O O5 0.870040 0.905853 0.123087
O O6 0.960568 0.777424 0.315128
O O7 0.907008 0.048274 0.355212
O O8 0.000000 0.000000 0.154681
O O9 0.781503 0.163952 0.411248
O O10 0.804865 0.886758 0.441113
O O11 0.000000 0.500000 0.899213
#
# Coordination Sequence:
#
# PCOD8190934 Si02
#       5
#     8   8   8   8   8
#     4  10  24  44  77 108 149 191 262 320 383 452
#     4  12  30  50  76 114 159 207 255 321 390 464
#     4  12  29  50  78 112 158 204 266 322 394 461
#     4  11  25  46  77 111 150 205 261 313 381 463
#     4  11  26  48  77 111 148 203 257 323 394 460
#
# _framework density 25.500399000000002
#
# number of rings (size 3 to 8) (size 9 to 14) (size 15 to 20)
#    0.000    0.800    2.000    2.400   14.000    6.400 
#    0.000    0.000    0.000    0.000    0.000    0.000 
#    0.000    0.000    0.000    0.000    0.000    0.000 
#
# Total GULP energy -247946.514864 kJ/mol
# GULP energy per Si atom -12397.325743 kJ/mol
# Density = 2.544236 g / cm^3
# Si number density = 25.500399 Si / 1000 Ang^3
#
#
#
# Elastic Constant Matrix: (Units=GPa)
#
#
# Indices 1 2 3 4 5 6 
#
# 1 119.1244 43.4643 28.4858 0.0000 0.0000 0.0000
# 2 43.4643 107.7737 34.7844 0.0000 0.0000 0.0000
# 3 28.4858 34.7844 125.3656 0.0000 0.0000 0.0000
# 4 0.0000 0.0000 0.0000 25.3260 0.0000 0.0000
# 5 0.0000 0.0000 0.0000 0.0000 25.5344 0.0000
# 6 0.0000 0.0000 0.0000 0.0000 0.0000 44.2235
#
#
#
# Elastic Compliance Matrix: (Units=1/GPa)
#
#
# Indices 1 2 3 4 5 6 
#
# 1 0.010024 -0.003633 -0.001270 0.000000 0.000000 0.000000
# 2 -0.003633 0.011508 -0.002368 0.000000 0.000000 0.000000
# 3 -0.001270 -0.002368 0.008922 0.000000 0.000000 0.000000
# 4 0.000000 0.000000 0.000000 0.039485 0.000000 0.000000
# 5 0.000000 0.000000 0.000000 0.000000 0.039163 0.000000
# 6 0.000000 0.000000 0.000000 0.000000 0.000000 0.022612
#
#
# Mechanical properties :
#
#
# Convention : Reuss Voigt Hill
#
# Bulk Modulus (GPa) = 62.83872 62.85919 62.84896
# Shear Modulus (GPa) = 32.99058 35.38539 34.18798
#
# Velocity S-wave (km/s) = 3.60075 3.72915 3.66551
# Velocity P-wave (km/s) = 6.47942 6.57616 6.52797
#
# Compressibility (1/GPa) = 0.01591376
#
# Stress axis : x y z
#
# Youngs Moduli (GPa) = 99.76426 86.89694 112.08145
#
# Poissons Ratio (x) = 0.31567 0.14230
# Poissons Ratio (y) = 0.36241 0.26536
# Poissons Ratio (z) = 0.12667 0.20574
#
# Static dielectric constant tensor:
#      x y z
#    x 4.546470 0.000000 0.000000 
#    y 0.000000 4.526900 0.000000 
#    z 0.000000 0.000000 5.017860 
# 
# 
# High freq. dielectric constant tensor:
#      x y z
#    x 2.023180 0.000000 0.000000 
#    y 0.000000 2.007000 0.000000 
#    z 0.000000 0.000000 2.033110 
# 
# From -- ./inp_files/2445.got.cif
#   From: 2010.03.12/outbox.cif.g09.slc.cpg/sg45_2_cif.got.tgz:2445.got - 2010.04.14 02:50:11.
