data_PCOD8190381
_publ_section_title
;
Structure prediction by ZEFSAII (Michael W. Deem and Ramdas Pophale) SiO2 
 PCOD8190381
Probable space group: I B A 2
;
_chemical_formula_sum "Si O2"
_cell_formula_units_Z 60
_cell_length_a 18.695903
_cell_length_b 10.329179
_cell_length_c 14.102226
_cell_angle_alpha 90.000000
_cell_angle_beta 90.000000
_cell_angle_gamma 90.000000
_cell_volume 2723.327804
_symmetry_space_group_name_H-M "I B A 2"
_symmetry_group_IT_number 45
_symmetry_cell_setting 'orthorhombic'
loop_
_space_group_symop_operation_xyz
x,y,z
-x,-y,z
-x,y,1/2+z
x,-y,1/2+z
1/2+x,1/2+y,1/2+z
1/2-x,1/2-y,1/2+z
1/2-x,1/2+y,z
1/2+x,1/2-y,z
loop_
_atom_site_type_symbol
_atom_site_label
_atom_site_fract_x
_atom_site_fract_y
_atom_site_fract_z
Si Si1 0.293808 0.827110 0.609870
Si Si2 0.458080 0.300503 0.912001
Si Si3 0.827317 0.393276 0.901739
Si Si4 0.500000 0.500000 0.762455
Si Si5 0.448456 0.894089 0.151855
Si Si6 0.060147 0.815103 0.123278
Si Si7 0.563053 0.087489 0.935005
Si Si8 0.709034 0.098432 0.203084
O O1 0.285181 0.860641 0.498564
O O2 0.374226 0.784218 0.637047
O O3 0.242941 0.706972 0.635649
O O4 0.270357 0.955068 0.667335
O O5 0.395272 0.200110 0.892915
O O6 0.455462 0.404916 0.829622
O O7 0.537930 0.234135 0.911921
O O8 0.443937 0.365507 0.014975
O O9 0.859338 0.541438 0.896613
O O10 0.770588 0.381669 0.814587
O O11 0.561613 0.435173 0.696114
O O12 0.486995 0.756402 0.151034
O O13 0.375959 0.882295 0.209439
O O14 0.500000 0.000000 0.201193
O O15 0.429450 0.941852 0.046691
O O16 0.500000 0.000000 0.892420
#
# Coordination Sequence:
#
# PCOD8190381 Si02
#       8
#     8   8   8   4   8   8   8   8
#     4  11  26  47  64  98 142 180 227 289 346 426
#     4   9  20  36  60  99 133 171 223 285 339 411
#     4  10  21  42  68  90 129 175 233 282 342 405
#     4  12  22  34  58  98 142 178 222 280 344 412
#     4  10  17  38  72 100 121 166 232 286 336 398
#     4  10  22  41  65  92 136 179 222 281 347 405
#     4   8  15  33  64  96 123 157 215 288 337 383
#     4  12  25  41  72  99 136 183 233 283 354 414
#
# _framework density 22.031867999999999
#
# number of rings (size 3 to 8) (size 9 to 14) (size 15 to 20)
#    0.000    1.867    2.667    2.800    1.867    4.800 
#    0.000    2.667    0.000    0.000    0.000    0.000 
#    0.000    0.000    0.000    0.000    0.000    0.000 
#
# Total GULP energy -371808.378141 kJ/mol
# GULP energy per Si atom -12393.612605 kJ/mol
# Density = 2.198172 g / cm^3
# Si number density = 22.031868 Si / 1000 Ang^3
#
#
#
# Elastic Constant Matrix: (Units=GPa)
#
#
# Indices 1 2 3 4 5 6 
#
# 1 50.5486 30.5922 26.3445 0.0000 0.0000 0.0000
# 2 30.5922 115.6555 74.1800 0.0000 0.0000 0.0000
# 3 26.3445 74.1800 148.7013 0.0000 0.0000 0.0000
# 4 0.0000 0.0000 0.0000 41.4035 0.0000 0.0000
# 5 0.0000 0.0000 0.0000 0.0000 23.3582 0.0000
# 6 0.0000 0.0000 0.0000 0.0000 0.0000 32.3802
#
#
#
# Elastic Compliance Matrix: (Units=1/GPa)
#
#
# Indices 1 2 3 4 5 6 
#
# 1 0.023804 -0.005281 -0.001583 0.000000 0.000000 0.000000
# 2 -0.005281 0.013886 -0.005992 0.000000 0.000000 0.000000
# 3 -0.001583 -0.005992 0.009994 0.000000 0.000000 0.000000
# 4 0.000000 0.000000 0.000000 0.024153 0.000000 0.000000
# 5 0.000000 0.000000 0.000000 0.000000 0.042811 0.000000
# 6 0.000000 0.000000 0.000000 0.000000 0.000000 0.030883
#
#
# Mechanical properties :
#
#
# Convention : Reuss Voigt Hill
#
# Bulk Modulus (GPa) = 45.50944 64.12654 54.81799
# Shear Modulus (GPa) = 28.00071 31.68097 29.84084
#
# Velocity S-wave (km/s) = 3.56886 3.79616 3.68426
# Velocity P-wave (km/s) = 6.13868 6.95585 6.56000
#
# Compressibility (1/GPa) = 0.02197346
#
# Stress axis : x y z
#
# Youngs Moduli (GPa) = 42.00968 72.01376 100.05852
#
# Poissons Ratio (x) = 0.38033 0.15835
# Poissons Ratio (y) = 0.22187 0.59950
# Poissons Ratio (z) = 0.06648 0.43147
#
# Static dielectric constant tensor:
#      x y z
#    x 3.590750 0.000000 0.000000 
#    y 0.000000 4.045200 0.000000 
#    z 0.000000 0.000000 4.241870 
# 
# 
# High freq. dielectric constant tensor:
#      x y z
#    x 1.823470 0.000000 0.000000 
#    y 0.000000 1.857270 0.000000 
#    z 0.000000 0.000000 1.886700 
# 
# From -- ./inp_files/6797.got.cif
#   From: 2010.03.12/outbox.cif.g09.slc.cpg/sg45_4_cif.got.tgz:6797.got - 2010.04.14 02:50:11.
