data_PCOD8190742
_publ_section_title
;
Structure prediction by ZEFSAII (Michael W. Deem and Ramdas Pophale) SiO2 
 PCOD8190742
Probable space group: I B A 2
;
_chemical_formula_sum "Si O2"
_cell_formula_units_Z 48
_cell_length_a 13.449749
_cell_length_b 9.836869
_cell_length_c 16.538208
_cell_angle_alpha 90.000000
_cell_angle_beta 90.000000
_cell_angle_gamma 90.000000
_cell_volume 2188.061462
_symmetry_space_group_name_H-M "I B A 2"
_symmetry_group_IT_number 45
_symmetry_cell_setting 'orthorhombic'
loop_
_space_group_symop_operation_xyz
x,y,z
-x,-y,z
-x,y,1/2+z
x,-y,1/2+z
1/2+x,1/2+y,1/2+z
1/2-x,1/2-y,1/2+z
1/2-x,1/2+y,z
1/2+x,1/2-y,z
loop_
_atom_site_type_symbol
_atom_site_label
_atom_site_fract_x
_atom_site_fract_y
_atom_site_fract_z
Si Si1 0.721533 0.873553 0.731170
Si Si2 0.140622 0.923068 0.957578
Si Si3 0.700383 0.134366 0.832379
Si Si4 0.441597 0.285839 0.435427
Si Si5 0.413996 0.611120 0.636655
Si Si6 0.045924 0.352377 0.107229
O O1 0.732293 0.730114 0.776120
O O2 0.832218 0.919263 0.704292
O O3 0.649045 0.852134 0.655734
O O4 0.679495 0.990780 0.789542
O O5 0.244104 0.883484 0.917712
O O6 0.053066 0.834763 0.916373
O O7 0.127757 0.083104 0.944914
O O8 0.143843 0.889250 0.051950
O O9 0.594734 0.200184 0.857481
O O10 0.433952 0.199372 0.517127
O O11 0.500000 0.500000 0.637035
O O12 0.464973 0.757046 0.651970
O O13 0.000000 0.500000 0.102978
#
# Coordination Sequence:
#
# PCOD8190742 Si02
#       6
#     8   8   8   8   8   8
#     4  12  27  42  64 104 141 174 214 274 340 402
#     4  10  21  45  71  94 129 176 226 268 320 394
#     4  12  25  42  67 100 140 173 213 270 339 397
#     4  10  22  45  69  96 127 175 226 268 324 389
#     4  11  22  45  73  93 129 184 227 266 327 402
#     4  11  24  45  68 100 131 169 228 283 325 380
#
# _framework density 21.937225999999999
#
# number of rings (size 3 to 8) (size 9 to 14) (size 15 to 20)
#    0.000    1.000    5.000    3.000    0.000    6.667 
#    9.000    0.000    0.000    0.000    0.000    0.000 
#    0.000    0.000    0.000    0.000    0.000    0.000 
#
# Total GULP energy -297684.051085 kJ/mol
# GULP energy per Si atom -12403.502129 kJ/mol
# Density = 2.188730 g / cm^3
# Si number density = 21.937226 Si / 1000 Ang^3
#
#
#
# Elastic Constant Matrix: (Units=GPa)
#
#
# Indices 1 2 3 4 5 6 
#
# 1 56.8045 12.8700 27.2253 0.0000 0.0000 0.0000
# 2 12.8700 98.7301 19.6799 0.0000 0.0000 0.0000
# 3 27.2253 19.6799 59.5100 0.0000 0.0000 0.0000
# 4 0.0000 0.0000 0.0000 14.0913 0.0000 0.0000
# 5 0.0000 0.0000 0.0000 0.0000 35.8115 0.0000
# 6 0.0000 0.0000 0.0000 0.0000 0.0000 24.4521
#
#
#
# Elastic Compliance Matrix: (Units=1/GPa)
#
#
# Indices 1 2 3 4 5 6 
#
# 1 0.022631 -0.000949 -0.010040 0.000000 0.000000 0.000000
# 2 -0.000949 0.010883 -0.003165 0.000000 0.000000 0.000000
# 3 -0.010040 -0.003165 0.022444 0.000000 0.000000 0.000000
# 4 0.000000 0.000000 0.000000 0.070966 0.000000 0.000000
# 5 0.000000 0.000000 0.000000 0.000000 0.027924 0.000000
# 6 0.000000 0.000000 0.000000 0.000000 0.000000 0.040896
#
#
# Mechanical properties :
#
#
# Convention : Reuss Voigt Hill
#
# Bulk Modulus (GPa) = 36.16535 37.17724 36.67129
# Shear Modulus (GPa) = 21.43461 25.22230 23.32846
#
# Velocity S-wave (km/s) = 3.12923 3.39447 3.26455
# Velocity P-wave (km/s) = 5.43854 5.68746 5.56439
#
# Compressibility (1/GPa) = 0.02765078
#
# Stress axis : x y z
#
# Youngs Moduli (GPa) = 44.18710 91.88489 44.55609
#
# Poissons Ratio (x) = 0.08719 0.44733
# Poissons Ratio (y) = 0.04193 0.14102
# Poissons Ratio (z) = 0.44363 0.29081
#
# Static dielectric constant tensor:
#      x y z
#    x 3.846020 0.000000 0.000000 
#    y 0.000000 4.244220 0.000000 
#    z 0.000000 0.000000 3.931610 
# 
# 
# High freq. dielectric constant tensor:
#      x y z
#    x 1.860080 0.000000 0.000000 
#    y 0.000000 1.875670 0.000000 
#    z 0.000000 0.000000 1.864270 
# 
# From -- ./inp_files/7581.got.cif
#   From: 2010.03.12/outbox.cif.g09.slc.cpg/sg45_4_cif.got.tgz:7581.got - 2010.04.14 02:50:11.
