data_PCOD8190031
_publ_section_title
;
Structure prediction by ZEFSAII (Michael W. Deem and Ramdas Pophale) SiO2 
 PCOD8190031
Probable space group: I M M 2
;
_chemical_formula_sum "Si O2"
_cell_formula_units_Z 40
_cell_length_a 25.692739
_cell_length_b 8.979493
_cell_length_c 8.877927
_cell_angle_alpha 90.000000
_cell_angle_beta 90.000000
_cell_angle_gamma 90.000000
_cell_volume 2048.206740
_symmetry_space_group_name_H-M "I M M 2"
_symmetry_group_IT_number 44
_symmetry_cell_setting 'orthorhombic'
loop_
_space_group_symop_operation_xyz
x,y,z
-x,-y,z
-x,y,z
x,-y,z
1/2+x,1/2+y,1/2+z
1/2-x,1/2-y,1/2+z
1/2-x,1/2+y,1/2+z
1/2+x,1/2-y,1/2+z
loop_
_atom_site_type_symbol
_atom_site_label
_atom_site_fract_x
_atom_site_fract_y
_atom_site_fract_z
Si Si1 0.300739 0.673866 0.897380
Si Si2 0.705495 0.671210 0.548660
Si Si3 0.102628 0.323832 0.556221
Si Si4 0.500000 0.674012 0.564897
Si Si5 0.400101 0.328206 0.373667
Si Si6 0.000000 0.676369 0.386133
O O1 0.309504 0.500000 0.924896
O O2 0.298783 0.714583 0.722534
O O3 0.347867 0.760568 0.971289
O O4 0.246944 0.721541 0.972347
O O5 0.722950 0.500000 0.528284
O O6 0.650170 0.701891 0.474155
O O7 0.105898 0.500000 0.552453
O O8 0.102606 0.272825 0.727627
O O9 0.050639 0.264688 0.474616
O O10 0.500000 0.500000 0.602827
O O11 0.550360 0.721291 0.470495
O O12 0.500000 0.761770 0.719263
O O13 0.404263 0.500000 0.324287
O O14 0.000000 0.500000 0.377446
#
# Coordination Sequence:
#
# PCOD8190031 Si02
#       6
#     8   8   8   4   8   4
#     4  11  23  39  60  85 114 150 191 237 288 339
#     4  10  22  39  58  84 117 151 190 235 284 342
#     4  11  23  39  59  85 117 152 192 236 283 339
#     4  10  21  38  62  90 118 150 191 238 284 336
#     4  10  21  38  60  87 118 151 190 236 285 338
#     4  10  23  40  58  84 118 154 191 234 284 340
#
# _framework density 19.529277
#
# number of rings (size 3 to 8) (size 9 to 14) (size 15 to 20)
#    0.000    1.600    0.000    4.200    0.000    9.600 
#    0.000    0.000    0.000    0.000    0.000    0.000 
#    0.000    0.000    0.000    0.000    0.000    0.000 
#
# Total GULP energy -248127.027503 kJ/mol
# GULP energy per Si atom -12406.351375 kJ/mol
# Density = 1.948483 g / cm^3
# Si number density = 19.529277 Si / 1000 Ang^3
#
#
#
# Elastic Constant Matrix: (Units=GPa)
#
#
# Indices 1 2 3 4 5 6 
#
# 1 155.1979 44.9456 73.9833 0.0000 0.0000 0.0000
# 2 44.9456 51.2391 45.7502 0.0000 0.0000 0.0000
# 3 73.9833 45.7502 149.6033 0.0000 0.0000 0.0000
# 4 0.0000 0.0000 0.0000 -98.5048 0.0000 0.0000
# 5 0.0000 0.0000 0.0000 0.0000 37.3918 0.0000
# 6 0.0000 0.0000 0.0000 0.0000 0.0000 -94.8386
#
#
#
# Elastic Compliance Matrix: (Units=1/GPa)
#
#
# Indices 1 2 3 4 5 6 
#
# 1 0.009503 -0.005694 -0.002958 0.000000 0.000000 0.000000
# 2 -0.005694 0.030259 -0.006438 0.000000 0.000000 0.000000
# 3 -0.002958 -0.006438 0.010116 0.000000 0.000000 0.000000
# 4 0.000000 0.000000 0.000000 -0.010152 0.000000 0.000000
# 5 0.000000 0.000000 0.000000 0.000000 0.026744 0.000000
# 6 0.000000 0.000000 0.000000 0.000000 0.000000 -0.010544
#
#
# Mechanical properties :
#
#
# Convention : Reuss Voigt Hill
#
# Bulk Modulus (GPa) = 50.76671 76.15539 63.46105
# Shear Modulus (GPa) = 53.95438 -18.43292 17.76073
#
# Velocity S-wave (km/s) = 5.26188 -3.07556 3.01897
# Velocity P-wave (km/s) = 7.93525 5.14471 6.68716
#
# Compressibility (1/GPa) = 0.01969795
#
# Stress axis : x y z
#
# Youngs Moduli (GPa) = 105.23539 33.04780 98.85532
#
# Poissons Ratio (x) = 0.18818 0.29240
# Poissons Ratio (y) = 0.59924 0.63639
# Poissons Ratio (z) = 0.31128 0.21275
#
# Static dielectric constant tensor:
#      x y z
#    x 3.814590 0.000000 0.000000 
#    y 0.000000 3.978560 0.000000 
#    z 0.000000 0.000000 3.697040 
# 
# 
# High freq. dielectric constant tensor:
#      x y z
#    x 1.782360 0.000000 0.000000 
#    y 0.000000 1.758880 0.000000 
#    z 0.000000 0.000000 1.777960 
# 
# From -- ./inp_files/9604.got.cif
#   From: 2010.03.12/outbox.cif.g09.slc.cpg/sg44_5_cif.got.tgz:9604.got - 2010.04.14 02:36:11.
