data_PCOD8190367
_publ_section_title
;
Structure prediction by ZEFSAII (Michael W. Deem and Ramdas Pophale) SiO2 
 PCOD8190367
Probable space group: I B A 2
;
_chemical_formula_sum "Si O2"
_cell_formula_units_Z 40
_cell_length_a 8.652343
_cell_length_b 23.071485
_cell_length_c 8.693268
_cell_angle_alpha 90.000000
_cell_angle_beta 90.000000
_cell_angle_gamma 90.000000
_cell_volume 1735.371037
_symmetry_space_group_name_H-M "I B A 2"
_symmetry_group_IT_number 45
_symmetry_cell_setting 'orthorhombic'
loop_
_space_group_symop_operation_xyz
x,y,z
-x,-y,z
-x,y,1/2+z
x,-y,1/2+z
1/2+x,1/2+y,1/2+z
1/2-x,1/2-y,1/2+z
1/2-x,1/2+y,z
1/2+x,1/2-y,z
loop_
_atom_site_type_symbol
_atom_site_label
_atom_site_fract_x
_atom_site_fract_y
_atom_site_fract_z
Si Si1 0.753941 0.509262 0.031770
Si Si2 0.283662 0.420201 0.764216
Si Si3 0.284643 0.205411 0.238561
Si Si4 0.583374 0.928342 0.802435
Si Si5 0.098116 0.302374 0.396123
O O1 0.654687 0.460321 0.123104
O O2 0.837613 0.554488 0.143113
O O3 0.648636 0.550248 0.920303
O O4 0.881066 0.476373 0.929274
O O5 0.324732 0.352482 0.744756
O O6 0.097494 0.424297 0.768386
O O7 0.177847 0.259733 0.274540
O O8 0.414226 0.202155 0.371358
O O9 0.362264 0.213135 0.071650
O O10 0.653751 0.867272 0.858437
#
# Coordination Sequence:
#
# PCOD8190367 Si02
#       5
#     8   8   8   8   8
#     4  10  17  28  46  78 113 148 175 232 289 352
#     4  10  18  28  49  77 114 145 186 226 293 339
#     4  11  24  40  60  86 119 156 199 242 289 344
#     4  10  18  28  49  77 114 145 186 226 293 339
#     4  11  24  40  60  86 119 156 199 242 289 344
#
# _framework density 23.049827000000001
#
# number of rings (size 3 to 8) (size 9 to 14) (size 15 to 20)
#    0.000    1.600    2.000    6.000   11.200    0.000 
#    0.000    0.000    0.000    0.000    0.000    8.400 
#    0.000    0.000    0.000    0.000    0.000    0.000 
#
# Total GULP energy -247873.354214 kJ/mol
# GULP energy per Si atom -12393.667711 kJ/mol
# Density = 2.299736 g / cm^3
# Si number density = 23.049827 Si / 1000 Ang^3
#
#
#
# Elastic Constant Matrix: (Units=GPa)
#
#
# Indices 1 2 3 4 5 6 
#
# 1 8.7987 16.6262 2.7808 -0.0009 0.0010 0.0001
# 2 16.6262 134.5375 36.3062 -0.0031 0.0003 -0.0003
# 3 2.7808 36.3062 128.1435 -0.0097 0.0065 0.0005
# 4 -0.0009 -0.0031 -0.0097 39.6045 0.0009 -0.0006
# 5 0.0010 0.0003 0.0065 0.0009 17.5852 -0.0004
# 6 0.0001 -0.0003 0.0005 -0.0006 -0.0004 22.3207
#
#
#
# Elastic Compliance Matrix: (Units=1/GPa)
#
#
# Indices 1 2 3 4 5 6 
#
# 1 0.148821 -0.018970 0.002145 0.000003 -0.000009 -0.000001
# 2 -0.018970 0.010466 -0.002554 0.000000 0.000002 0.000000
# 3 0.002145 -0.002554 0.008481 0.000002 -0.000003 0.000000
# 4 0.000003 0.000000 0.000002 0.025250 -0.000001 0.000001
# 5 -0.000009 0.000002 -0.000003 -0.000001 0.056866 0.000001
# 6 -0.000001 0.000000 0.000000 0.000001 0.000001 0.044801
#
#
# Mechanical properties :
#
#
# Convention : Reuss Voigt Hill
#
# Bulk Modulus (GPa) = 7.75131 42.54514 25.14822
# Shear Modulus (GPa) = 13.28212 30.28652 21.78432
#
# Velocity S-wave (km/s) = 2.40309 3.62879 3.07758
# Velocity P-wave (km/s) = 3.32716 6.00462 4.85414
#
# Compressibility (1/GPa) = 0.12901047
#
# Stress axis : x y z
#
# Youngs Moduli (GPa) = 6.71949 95.54425 117.91447
#
# Poissons Ratio (x) = 1.81249 -0.25295
# Poissons Ratio (y) = 0.12747 0.30112
# Poissons Ratio (z) = -0.01441 0.24399
#
# Static dielectric constant tensor:
#      x y z
#    x 3.329200 0.000000 0.000000 
#    y 0.000000 4.978260 0.000000 
#    z 0.000000 0.000000 4.600710 
# 
# 
# High freq. dielectric constant tensor:
#      x y z
#    x 1.839440 0.000000 0.000000 
#    y 0.000000 1.933880 0.000000 
#    z 0.000000 0.000000 1.933140 
# 
# From -- ./inp_files/946.got.cif
#   From: 2010.03.12/outbox.cif.g09.slc.cpg/sg45_1_cif.got.tgz:946.got - 2010.04.14 02:50:11.
