data_PCOD8190792
_publ_section_title
;
Structure prediction by ZEFSAII (Michael W. Deem and Ramdas Pophale) SiO2 
 PCOD8190792
Probable space group: I B A 2
;
_chemical_formula_sum "Si O2"
_cell_formula_units_Z 44
_cell_length_a 12.036581
_cell_length_b 8.517100
_cell_length_c 19.690024
_cell_angle_alpha 90.000000
_cell_angle_beta 90.000000
_cell_angle_gamma 90.000000
_cell_volume 2018.557544
_symmetry_space_group_name_H-M "I B A 2"
_symmetry_group_IT_number 45
_symmetry_cell_setting 'orthorhombic'
loop_
_space_group_symop_operation_xyz
x,y,z
-x,-y,z
-x,y,1/2+z
x,-y,1/2+z
1/2+x,1/2+y,1/2+z
1/2-x,1/2-y,1/2+z
1/2-x,1/2+y,z
1/2+x,1/2-y,z
loop_
_atom_site_type_symbol
_atom_site_label
_atom_site_fract_x
_atom_site_fract_y
_atom_site_fract_z
Si Si1 0.320516 0.631334 0.189090
Si Si2 0.886728 0.581558 0.854007
Si Si3 0.226900 0.142557 0.783247
Si Si4 0.805274 0.774681 0.570081
Si Si5 0.000000 0.000000 0.608396
Si Si6 0.378403 0.977608 0.008821
O O1 0.322685 0.742057 0.254849
O O2 0.312825 0.452027 0.216429
O O3 0.215359 0.677308 0.140334
O O4 0.438059 0.636136 0.150979
O O5 0.870639 0.752401 0.818287
O O6 0.781428 0.471511 0.838177
O O7 0.000000 0.500000 0.827563
O O8 0.888612 0.599898 0.934786
O O9 0.905521 0.902747 0.567582
O O10 0.690288 0.862829 0.556718
O O11 0.824952 0.651846 0.508795
O O12 0.500000 0.000000 0.041548
#
# Coordination Sequence:
#
# PCOD8190792 Si02
#       6
#     8   8   8   8   4   8
#     4  11  22  39  63  96 128 167 210 268 333 388
#     4  10  23  42  64  92 125 175 220 269 328 380
#     4  10  22  41  63  92 130 166 215 271 318 399
#     4  12  23  43  65  99 131 172 219 276 334 404
#     4  12  24  38  66  98 130 168 216 268 344 394
#     4  11  24  42  67  92 133 176 222 274 331 391
#
# _framework density 21.797744000000002
#
# number of rings (size 3 to 8) (size 9 to 14) (size 15 to 20)
#    0.000    1.091    3.636    2.182    2.545    0.000 
#    0.000    1.818    0.000    0.000    0.000    0.000 
#    0.000    0.000    0.000    0.000    0.000    0.000 
#
# Total GULP energy -272619.669027 kJ/mol
# GULP energy per Si atom -12391.803138 kJ/mol
# Density = 2.174813 g / cm^3
# Si number density = 21.797744 Si / 1000 Ang^3
#
#
#
# Elastic Constant Matrix: (Units=GPa)
#
#
# Indices 1 2 3 4 5 6 
#
# 1 119.3018 52.8769 32.2168 0.0000 0.0000 0.0000
# 2 52.8769 122.9003 44.0299 0.0000 0.0000 0.0000
# 3 32.2168 44.0299 73.6528 0.0000 0.0000 0.0000
# 4 0.0000 0.0000 0.0000 25.9276 0.0000 0.0000
# 5 0.0000 0.0000 0.0000 0.0000 30.7274 0.0000
# 6 0.0000 0.0000 0.0000 0.0000 0.0000 39.6673
#
#
#
# Elastic Compliance Matrix: (Units=1/GPa)
#
#
# Indices 1 2 3 4 5 6 
#
# 1 0.010694 -0.003723 -0.002453 0.000000 0.000000 0.000000
# 2 -0.003723 0.011650 -0.005336 0.000000 0.000000 0.000000
# 3 -0.002453 -0.005336 0.017840 0.000000 0.000000 0.000000
# 4 0.000000 0.000000 0.000000 0.038569 0.000000 0.000000
# 5 0.000000 0.000000 0.000000 0.000000 0.032544 0.000000
# 6 0.000000 0.000000 0.000000 0.000000 0.000000 0.025210
#
#
# Mechanical properties :
#
#
# Convention : Reuss Voigt Hill
#
# Bulk Modulus (GPa) = 58.26853 63.78912 61.02883
# Shear Modulus (GPa) = 30.25722 31.71322 30.98522
#
# Velocity S-wave (km/s) = 3.72975 3.81843 3.77435
# Velocity P-wave (km/s) = 6.73331 6.98342 6.85951
#
# Compressibility (1/GPa) = 0.01716192
#
# Stress axis : x y z
#
# Youngs Moduli (GPa) = 93.50791 85.83726 56.05406
#
# Poissons Ratio (x) = 0.31953 0.13747
# Poissons Ratio (y) = 0.34808 0.29911
# Poissons Ratio (z) = 0.22933 0.45804
#
# Static dielectric constant tensor:
#      x y z
#    x 3.930850 0.000000 0.000000 
#    y 0.000000 4.168240 0.000000 
#    z 0.000000 0.000000 3.657220 
# 
# 
# High freq. dielectric constant tensor:
#      x y z
#    x 1.847760 0.000000 0.000000 
#    y 0.000000 1.872510 0.000000 
#    z 0.000000 0.000000 1.842100 
# 
# From -- ./inp_files/9654.got.cif
#   From: 2010.03.12/outbox.cif.g09.slc.cpg/sg45_5_cif.got.tgz:9654.got - 2010.04.14 02:50:11.
