data_PCOD8190289
_publ_section_title
;
Structure prediction by ZEFSAII (Michael W. Deem and Ramdas Pophale) SiO2 
 PCOD8190289
Probable space group: I M M 2
;
_chemical_formula_sum "Si O2"
_cell_formula_units_Z 32
_cell_length_a 8.279514
_cell_length_b 17.798841
_cell_length_c 10.292019
_cell_angle_alpha 90.000000
_cell_angle_beta 90.000000
_cell_angle_gamma 90.000000
_cell_volume 1516.691132
_symmetry_space_group_name_H-M "I M M 2"
_symmetry_group_IT_number 44
_symmetry_cell_setting 'orthorhombic'
loop_
_space_group_symop_operation_xyz
x,y,z
-x,-y,z
-x,y,z
x,-y,z
1/2+x,1/2+y,1/2+z
1/2-x,1/2-y,1/2+z
1/2-x,1/2+y,1/2+z
1/2+x,1/2-y,1/2+z
loop_
_atom_site_type_symbol
_atom_site_label
_atom_site_fract_x
_atom_site_fract_y
_atom_site_fract_z
Si Si1 0.812689 0.174810 0.121080
Si Si2 0.812759 0.161775 0.612734
Si Si3 0.692049 0.416168 0.373636
Si Si4 0.313599 0.913729 0.359524
O O1 0.708828 0.249841 0.133559
O O2 0.793253 0.123244 0.247392
O O3 0.000000 0.195842 0.104164
O O4 0.744007 0.130680 0.996306
O O5 0.745141 0.121275 0.741316
O O6 0.711373 0.131519 0.492108
O O7 0.000000 0.143090 0.589614
O O8 0.500000 0.417898 0.376002
O O9 0.763492 0.500000 0.382769
O O10 0.500000 0.908207 0.319328
O O11 0.258831 0.000000 0.378103
#
# Coordination Sequence:
#
# PCOD8190289 Si02
#       4
#     8   8   8   8
#     4  11  22  38  62  89 119 155 196 245 303 364
#     4  11  22  38  62  89 119 155 196 245 303 364
#     4   9  19  36  58  84 112 145 190 241 290 346
#     4  11  24  41  60  86 122 161 204 253 300 351
#
# _framework density 21.098559999999999
#
# number of rings (size 3 to 8) (size 9 to 14) (size 15 to 20)
#    0.000    1.500    0.000    5.250    0.000    6.000 
#    0.000    3.750    0.000    9.000    0.000    0.000 
#    0.000    0.000    0.000    0.000    0.000    0.000 
#
# Total GULP energy -198509.726657 kJ/mol
# GULP energy per Si atom -12406.857916 kJ/mol
# Density = 2.105054 g / cm^3
# Si number density = 21.098560 Si / 1000 Ang^3
#
#
#
# Elastic Constant Matrix: (Units=GPa)
#
#
# Indices 1 2 3 4 5 6 
#
# 1 34.2004 11.9891 7.1146 0.0001 0.0000 0.0000
# 2 11.9891 138.0230 49.6464 0.0000 0.0001 0.0000
# 3 7.1146 49.6464 152.0832 -0.0003 0.0002 -0.0001
# 4 0.0001 0.0000 -0.0003 48.9556 0.0001 0.0000
# 5 0.0000 0.0001 0.0002 0.0001 20.2635 0.0000
# 6 0.0000 0.0000 -0.0001 0.0000 0.0000 23.3887
#
#
#
# Elastic Compliance Matrix: (Units=1/GPa)
#
#
# Indices 1 2 3 4 5 6 
#
# 1 0.030211 -0.002397 -0.000631 0.000000 0.000000 0.000000
# 2 -0.002397 0.008399 -0.002630 0.000000 0.000000 0.000000
# 3 -0.000631 -0.002630 0.007463 0.000000 0.000000 0.000000
# 4 0.000000 0.000000 0.000000 0.020427 0.000000 0.000000
# 5 0.000000 0.000000 0.000000 0.000000 0.049350 0.000000
# 6 0.000000 0.000000 0.000000 0.000000 0.000000 0.042756
#
#
# Mechanical properties :
#
#
# Convention : Reuss Voigt Hill
#
# Bulk Modulus (GPa) = 28.77028 51.31187 40.04108
# Shear Modulus (GPa) = 27.54706 35.55865 31.55286
#
# Velocity S-wave (km/s) = 3.61728 4.10977 3.87136
# Velocity P-wave (km/s) = 5.57782 6.84786 6.24520
#
# Compressibility (1/GPa) = 0.03475809
#
# Stress axis : x y z
#
# Youngs Moduli (GPa) = 33.10044 119.05722 133.98873
#
# Poissons Ratio (x) = 0.28542 0.08451
# Poissons Ratio (y) = 0.07935 0.35236
# Poissons Ratio (z) = 0.02088 0.31309
#
# Static dielectric constant tensor:
#      x y z
#    x 3.430020 0.000000 0.000000 
#    y 0.000000 3.981120 0.000000 
#    z 0.000000 0.000000 3.947520 
# 
# 
# High freq. dielectric constant tensor:
#      x y z
#    x 1.806070 0.000000 0.000000 
#    y 0.000000 1.843120 0.000000 
#    z 0.000000 0.000000 1.841870 
# 
# From -- ./inp_files/4176.got.cif
#   From: 2010.03.12/outbox.cif.g09.slc.cpg/sg44_3_cif.got.tgz:4176.got - 2010.04.14 02:36:11.
