data_PCOD8190240
_publ_section_title
;
Structure prediction by ZEFSAII (Michael W. Deem and Ramdas Pophale) SiO2 
 PCOD8190240
Probable space group: I M M 2
;
_chemical_formula_sum "Si O2"
_cell_formula_units_Z 64
_cell_length_a 9.068775
_cell_length_b 18.378438
_cell_length_c 26.296329
_cell_angle_alpha 90.000000
_cell_angle_beta 90.000000
_cell_angle_gamma 90.000000
_cell_volume 4382.807026
_symmetry_space_group_name_H-M "I M M 2"
_symmetry_group_IT_number 44
_symmetry_cell_setting 'orthorhombic'
loop_
_space_group_symop_operation_xyz
x,y,z
-x,-y,z
-x,y,z
x,-y,z
1/2+x,1/2+y,1/2+z
1/2-x,1/2-y,1/2+z
1/2-x,1/2+y,1/2+z
1/2+x,1/2-y,1/2+z
loop_
_atom_site_type_symbol
_atom_site_label
_atom_site_fract_x
_atom_site_fract_y
_atom_site_fract_z
Si Si1 0.672419 0.916994 0.141060
Si Si2 0.326832 0.165888 0.752343
Si Si3 0.673498 0.916298 0.650751
Si Si4 0.162810 0.712099 0.704577
Si Si5 0.825672 0.580379 0.347792
Si Si6 0.824953 0.835679 0.051130
Si Si7 0.166211 0.205897 0.598022
Si Si8 0.170787 0.585376 0.462096
O O1 0.500000 0.905118 0.127212
O O2 0.713523 0.870494 0.191748
O O3 0.768433 0.892127 0.093332
O O4 0.708967 0.000000 0.153786
O O5 0.500000 0.171722 0.755752
O O6 0.278175 0.113449 0.706123
O O7 0.268527 0.248012 0.744530
O O8 0.259911 0.134198 0.804880
O O9 0.500000 0.906401 0.643017
O O10 0.755092 0.872052 0.605902
O O11 0.721970 0.000000 0.646945
O O12 0.165657 0.752973 0.651155
O O13 0.000000 0.712935 0.728500
O O14 0.757926 0.500000 0.339211
O O15 0.788326 0.608071 0.404368
O O16 0.000000 0.574955 0.341117
O O17 0.756140 0.755207 0.058022
O O18 0.000000 0.829584 0.054316
O O19 0.776625 0.866458 0.996756
O O20 0.000000 0.193612 0.577847
O O21 0.201165 0.500000 0.470791
O O22 0.000000 0.602659 0.474268
#
# Coordination Sequence:
#
# PCOD8190240 Si02
#       8
#     8   8   8   8   8   8   8   8
#     4   9  17  29  43  57  76 105 138 166 193 232
#     4   9  15  24  40  59  79 106 137 164 192 229
#     4   9  16  25  39  61  87 110 132 163 202 237
#     4   8  15  26  38  54  76 101 129 162 197 231
#     4   8  14  25  41  59  77 101 136 170 193 221
#     4  11  20  28  40  58  80 104 131 165 205 243
#     4   9  17  29  42  55  75 105 139 168 193 231
#     4   9  17  29  43  57  76 104 136 167 197 232
#
# _framework density 14.602513999999999
#
# number of rings (size 3 to 8) (size 9 to 14) (size 15 to 20)
#    0.000    3.000    0.000    3.750    0.000    6.750 
#    0.000    0.625    0.000    1.875    0.000    0.000 
#    0.000    1.000    0.000    8.000    0.000    2.625 
#
# Total GULP energy -396636.478283 kJ/mol
# GULP energy per Si atom -12394.889946 kJ/mol
# Density = 1.456928 g / cm^3
# Si number density = 14.602514 Si / 1000 Ang^3
#
#
#
# Elastic Constant Matrix: (Units=GPa)
#
#
# Indices 1 2 3 4 5 6 
#
# 1 60.5549 43.0396 36.6384 0.0000 0.0000 0.0000
# 2 43.0396 110.5060 54.6052 0.0000 0.0000 0.0000
# 3 36.6384 54.6052 77.8244 0.0000 0.0000 0.0000
# 4 0.0000 0.0000 0.0000 23.6951 0.0000 0.0000
# 5 0.0000 0.0000 0.0000 0.0000 16.2227 0.0000
# 6 0.0000 0.0000 0.0000 0.0000 0.0000 23.1324
#
#
#
# Elastic Compliance Matrix: (Units=1/GPa)
#
#
# Indices 1 2 3 4 5 6 
#
# 1 0.025546 -0.006133 -0.007723 0.000000 0.000000 0.000000
# 2 -0.006133 0.015324 -0.007865 0.000000 0.000000 0.000000
# 3 -0.007723 -0.007865 0.022004 0.000000 0.000000 0.000000
# 4 0.000000 0.000000 0.000000 0.042203 0.000000 0.000000
# 5 0.000000 0.000000 0.000000 0.000000 0.061642 0.000000
# 6 0.000000 0.000000 0.000000 0.000000 0.000000 0.043229
#
#
# Mechanical properties :
#
#
# Convention : Reuss Voigt Hill
#
# Bulk Modulus (GPa) = 51.46298 57.49463 54.47880
# Shear Modulus (GPa) = 19.24050 20.25018 19.74534
#
# Velocity S-wave (km/s) = 3.63384 3.72796 3.68120
# Velocity P-wave (km/s) = 7.27499 7.61504 7.44695
#
# Compressibility (1/GPa) = 0.01943144
#
# Stress axis : x y z
#
# Youngs Moduli (GPa) = 39.14493 65.25552 45.44677
#
# Poissons Ratio (x) = 0.40023 0.35100
# Poissons Ratio (y) = 0.24009 0.35743
# Poissons Ratio (z) = 0.30233 0.51322
#
# Static dielectric constant tensor:
#      x y z
#    x 2.765580 0.000000 0.000000 
#    y 0.000000 3.004100 0.000000 
#    z 0.000000 0.000000 2.734440 
# 
# 
# High freq. dielectric constant tensor:
#      x y z
#    x 1.549680 0.000000 0.000000 
#    y 0.000000 1.550150 0.000000 
#    z 0.000000 0.000000 1.525030 
# 
# From -- ./inp_files/25239.got.cif
#   From: 2010.03.12/outbox.cif.g09.slc.cpg/sg44_13_cif.got.tgz:25239.got - 2010.04.14 02:36:11.
