data_PCOD8190715
_publ_section_title
;
Structure prediction by ZEFSAII (Michael W. Deem and Ramdas Pophale) SiO2 
 PCOD8190715
Probable space group: I B A 2
;
_chemical_formula_sum "Si O2"
_cell_formula_units_Z 48
_cell_length_a 14.300156
_cell_length_b 5.014831
_cell_length_c 31.381828
_cell_angle_alpha 90.000000
_cell_angle_beta 90.000000
_cell_angle_gamma 90.000000
_cell_volume 2250.480814
_symmetry_space_group_name_H-M "I B A 2"
_symmetry_group_IT_number 45
_symmetry_cell_setting 'orthorhombic'
loop_
_space_group_symop_operation_xyz
x,y,z
-x,-y,z
-x,y,1/2+z
x,-y,1/2+z
1/2+x,1/2+y,1/2+z
1/2-x,1/2-y,1/2+z
1/2-x,1/2+y,z
1/2+x,1/2-y,z
loop_
_atom_site_type_symbol
_atom_site_label
_atom_site_fract_x
_atom_site_fract_y
_atom_site_fract_z
Si Si1 0.688475 0.031251 0.776820
Si Si2 0.555553 0.248233 0.609497
Si Si3 0.813156 0.083617 0.940661
Si Si4 0.000000 0.500000 0.828441
Si Si5 0.191700 0.051695 0.538396
Si Si6 0.500000 0.500000 0.387195
Si Si7 0.807686 0.524402 0.677988
O O1 0.733274 0.313814 0.789542
O O2 0.662933 0.040378 0.727047
O O3 0.592141 0.962483 0.800045
O O4 0.500000 0.500000 0.628946
O O5 0.611711 0.373669 0.570741
O O6 0.607825 0.113591 0.648890
O O7 0.500000 0.000000 0.589049
O O8 0.762083 0.358023 0.928781
O O9 0.843149 0.082570 0.990081
O O10 0.908858 0.053932 0.915341
O O11 0.980073 0.750758 0.857686
O O12 0.279456 0.246789 0.547056
O O13 0.778998 0.221448 0.667306
#
# Coordination Sequence:
#
# PCOD8190715 Si02
#       7
#     8   8   8   4   8   4   8
#     4  10  23  43  66  94 127 170 211 260 318 381
#     4  12  24  36  58  98 126 162 210 264 316 368
#     4  10  23  43  66  94 127 170 211 260 318 381
#     4  12  26  42  66 100 128 166 210 266 328 386
#     4  10  21  41  63  85 123 169 210 253 312 373
#     4  12  26  42  66 100 128 166 210 266 328 386
#     4  10  21  41  63  85 123 169 210 253 312 373
#
# _framework density 21.328776999999999
#
# number of rings (size 3 to 8) (size 9 to 14) (size 15 to 20)
#    0.000    1.333    0.000    5.000    2.333    4.000 
#    3.000    0.000    0.000    0.000    0.000    0.000 
#    0.000    0.000    0.000    0.000    0.000    0.000 
#
# Total GULP energy -297621.552138 kJ/mol
# GULP energy per Si atom -12400.898006 kJ/mol
# Density = 2.128023 g / cm^3
# Si number density = 21.328777 Si / 1000 Ang^3
#
#
#
# Elastic Constant Matrix: (Units=GPa)
#
#
# Indices 1 2 3 4 5 6 
#
# 1 101.6586 9.2412 58.8234 0.0000 0.0000 0.0000
# 2 9.2412 96.6346 25.6756 0.0000 0.0000 0.0000
# 3 58.8234 25.6756 82.6229 0.0000 0.0000 0.0000
# 4 0.0000 0.0000 0.0000 36.9857 0.0000 0.0000
# 5 0.0000 0.0000 0.0000 0.0000 6.8256 0.0000
# 6 0.0000 0.0000 0.0000 0.0000 0.0000 23.0126
#
#
#
# Elastic Compliance Matrix: (Units=1/GPa)
#
#
# Indices 1 2 3 4 5 6 
#
# 1 0.016990 0.001732 -0.012634 0.000000 0.000000 0.000000
# 2 0.001732 0.011456 -0.004793 0.000000 0.000000 0.000000
# 3 -0.012634 -0.004793 0.022588 0.000000 0.000000 0.000000
# 4 0.000000 0.000000 0.000000 0.027037 0.000000 0.000000
# 5 0.000000 0.000000 0.000000 0.000000 0.146508 0.000000
# 6 0.000000 0.000000 0.000000 0.000000 0.000000 0.043455
#
#
# Mechanical properties :
#
#
# Convention : Reuss Voigt Hill
#
# Bulk Modulus (GPa) = 50.90869 52.04409 51.47639
# Shear Modulus (GPa) = 16.34133 25.84315 21.09224
#
# Velocity S-wave (km/s) = 2.77097 3.48466 3.14811
# Velocity P-wave (km/s) = 5.84449 6.37529 6.11565
#
# Compressibility (1/GPa) = 0.01964301
#
# Stress axis : x y z
#
# Youngs Moduli (GPa) = 58.85774 87.28916 44.27168
#
# Poissons Ratio (x) = -0.15120 0.55935
# Poissons Ratio (y) = -0.10195 0.21221
# Poissons Ratio (z) = 0.74363 0.41840
#
# Static dielectric constant tensor:
#      x y z
#    x 3.713530 0.000000 0.000000 
#    y 0.000000 3.539960 0.000000 
#    z 0.000000 0.000000 3.899640 
# 
# 
# High freq. dielectric constant tensor:
#      x y z
#    x 1.832520 0.000000 0.000000 
#    y 0.000000 1.863270 0.000000 
#    z 0.000000 0.000000 1.842860 
# 
# From -- ./inp_files/10068.got.cif
#   From: 2010.03.12/outbox.cif.g09.slc.cpg/sg45_6_cif.got.tgz:10068.got - 2010.04.14 02:50:11.
