data_PCOD8190377
_publ_section_title
;
Structure prediction by ZEFSAII (Michael W. Deem and Ramdas Pophale) SiO2 
 PCOD8190377
Probable space group: I B A 2
;
_chemical_formula_sum "Si O2"
_cell_formula_units_Z 64
_cell_length_a 14.534054
_cell_length_b 8.670668
_cell_length_c 22.630651
_cell_angle_alpha 90.000000
_cell_angle_beta 90.000000
_cell_angle_gamma 90.000000
_cell_volume 2851.913664
_symmetry_space_group_name_H-M "I B A 2"
_symmetry_group_IT_number 45
_symmetry_cell_setting 'orthorhombic'
loop_
_space_group_symop_operation_xyz
x,y,z
-x,-y,z
-x,y,1/2+z
x,-y,1/2+z
1/2+x,1/2+y,1/2+z
1/2-x,1/2-y,1/2+z
1/2-x,1/2+y,z
1/2+x,1/2-y,z
loop_
_atom_site_type_symbol
_atom_site_label
_atom_site_fract_x
_atom_site_fract_y
_atom_site_fract_z
Si Si1 0.733262 0.484987 0.332130
Si Si2 0.690067 0.438391 0.960642
Si Si3 0.371105 0.772963 0.480520
Si Si4 0.645619 0.686000 0.658311
Si Si5 0.459719 0.668187 0.042159
Si Si6 0.999055 0.815577 0.752268
Si Si7 0.114076 0.310375 0.349595
Si Si8 0.185043 0.870275 0.206494
O O1 0.688009 0.572881 0.388986
O O2 0.843664 0.517432 0.338521
O O3 0.699624 0.307763 0.333355
O O4 0.709433 0.552211 0.268552
O O5 0.677483 0.608835 0.984581
O O6 0.788832 0.394105 0.989384
O O7 0.605958 0.335078 0.984539
O O8 0.454147 0.783326 0.528348
O O9 0.417911 0.793548 0.416609
O O10 0.601870 0.733573 0.595695
O O11 0.577203 0.741972 0.708518
O O12 0.741905 0.766731 0.672562
O O13 0.657994 0.501572 0.659434
O O14 0.500000 0.500000 0.057957
O O15 0.021975 0.726202 0.812816
O O16 0.902831 0.763500 0.722927
O O17 0.000000 0.000000 0.763660
#
# Coordination Sequence:
#
# PCOD8190377 Si02
#       8
#     8   8   8   8   8   8   8   8
#     4  10  17  33  56  87 122 149 199 241 300 350
#     4   9  20  34  58  88 116 158 195 247 298 347
#     4   9  20  36  59  89 118 156 196 246 297 348
#     4  11  23  39  59  86 118 158 197 242 297 351
#     4  10  21  38  60  85 117 155 209 244 284 353
#     4  10  19  32  55  85 109 152 196 236 281 346
#     4  10  18  32  59  88 123 155 195 243 299 354
#     4  11  21  37  61  85 119 155 195 250 295 347
#
# _framework density 22.441071999999998
#
# number of rings (size 3 to 8) (size 9 to 14) (size 15 to 20)
#    0.000    2.000    3.750    1.125    1.750    3.500 
#    0.000    1.250    0.000    4.500    0.000    0.000 
#    0.000    0.000    0.000    0.000    0.000    0.000 
#
# Total GULP energy -396463.237319 kJ/mol
# GULP energy per Si atom -12389.476166 kJ/mol
# Density = 2.238999 g / cm^3
# Si number density = 22.441072 Si / 1000 Ang^3
#
#
#
# Elastic Constant Matrix: (Units=GPa)
#
#
# Indices 1 2 3 4 5 6 
#
# 1 131.0541 25.8844 59.5405 0.0000 0.0000 0.0000
# 2 25.8844 26.6812 25.1332 0.0000 0.0000 0.0000
# 3 59.5405 25.1332 88.6878 0.0000 0.0000 0.0000
# 4 0.0000 0.0000 0.0000 18.1277 0.0000 0.0000
# 5 0.0000 0.0000 0.0000 0.0000 47.3347 0.0000
# 6 0.0000 0.0000 0.0000 0.0000 0.0000 28.9885
#
#
#
# Elastic Compliance Matrix: (Units=1/GPa)
#
#
# Indices 1 2 3 4 5 6 
#
# 1 0.011504 -0.005300 -0.006221 0.000000 0.000000 0.000000
# 2 -0.005300 0.053570 -0.011623 0.000000 0.000000 0.000000
# 3 -0.006221 -0.011623 0.018746 0.000000 0.000000 0.000000
# 4 0.000000 0.000000 0.000000 0.055164 0.000000 0.000000
# 5 0.000000 0.000000 0.000000 0.000000 0.021126 0.000000
# 6 0.000000 0.000000 0.000000 0.000000 0.000000 0.034496
#
#
# Mechanical properties :
#
#
# Convention : Reuss Voigt Hill
#
# Bulk Modulus (GPa) = 26.64438 51.94882 39.29660
# Shear Modulus (GPa) = 19.73131 27.94786 23.83958
#
# Velocity S-wave (km/s) = 2.96843 3.53284 3.26286
# Velocity P-wave (km/s) = 4.86288 6.31193 5.63418
#
# Compressibility (1/GPa) = 0.03753136
#
# Stress axis : x y z
#
# Youngs Moduli (GPa) = 86.92994 18.66718 53.34542
#
# Poissons Ratio (x) = 0.09894 0.33186
# Poissons Ratio (y) = 0.46073 0.62004
# Poissons Ratio (z) = 0.54078 0.21697
#
# Static dielectric constant tensor:
#      x y z
#    x 4.393140 0.000000 0.000000 
#    y 0.000000 3.806240 0.000000 
#    z 0.000000 0.000000 4.055410 
# 
# 
# High freq. dielectric constant tensor:
#      x y z
#    x 1.889290 0.000000 0.000000 
#    y 0.000000 1.843710 0.000000 
#    z 0.000000 0.000000 1.884730 
# 
# From -- ./inp_files/9776.got.cif
#   From: 2010.03.12/outbox.cif.g09.slc.cpg/sg45_5_cif.got.tgz:9776.got - 2010.04.14 02:50:11.
