data_PCOD8190192
_publ_section_title
;
Structure prediction by ZEFSAII (Michael W. Deem and Ramdas Pophale) SiO2 
 PCOD8190192
Probable space group: I M M 2
;
_chemical_formula_sum "Si O2"
_cell_formula_units_Z 64
_cell_length_a 30.588613
_cell_length_b 8.855537
_cell_length_c 11.929721
_cell_angle_alpha 90.000000
_cell_angle_beta 90.000000
_cell_angle_gamma 90.000000
_cell_volume 3231.506054
_symmetry_space_group_name_H-M "I M M 2"
_symmetry_group_IT_number 44
_symmetry_cell_setting 'orthorhombic'
loop_
_space_group_symop_operation_xyz
x,y,z
-x,-y,z
-x,y,z
x,-y,z
1/2+x,1/2+y,1/2+z
1/2-x,1/2-y,1/2+z
1/2-x,1/2+y,1/2+z
1/2+x,1/2-y,1/2+z
loop_
_atom_site_type_symbol
_atom_site_label
_atom_site_fract_x
_atom_site_fract_y
_atom_site_fract_z
Si Si1 0.197347 0.326341 0.169090
Si Si2 0.836171 0.674826 0.923476
Si Si3 0.876666 0.823525 0.567563
Si Si4 0.049754 0.325307 0.163019
Si Si5 0.204333 0.175741 0.721116
Si Si6 0.427427 0.677614 0.429159
Si Si7 0.623874 0.677338 0.809720
Si Si8 0.048271 0.672027 0.708276
O O1 0.188909 0.500000 0.200505
O O2 0.248105 0.283995 0.174460
O O3 0.169176 0.225285 0.252896
O O4 0.183341 0.289704 0.043760
O O5 0.849056 0.500000 0.910304
O O6 0.800974 0.721914 0.830890
O O7 0.877614 0.780397 0.904271
O O8 0.831376 0.778860 0.627710
O O9 0.873483 0.773295 0.438795
O O10 0.917076 0.737826 0.622019
O O11 0.886027 0.000000 0.579527
O O12 0.062009 0.500000 0.149954
O O13 0.082001 0.254613 0.253752
O O14 0.000000 0.302534 0.204718
O O15 0.055278 0.250882 0.042439
O O16 0.200215 0.000000 0.752873
O O17 0.432825 0.500000 0.440251
O O18 0.454793 0.736416 0.324111
O O19 0.618062 0.500000 0.795578
O O20 0.061339 0.500000 0.735365
O O21 0.000000 0.681422 0.652971
#
# Coordination Sequence:
#
# PCOD8190192 Si02
#       8
#     8   8   8   8   8   8   8   8
#     4  10  23  41  63  90 126 166 204 254 310 365
#     4  11  22  38  64  94 125 163 203 252 308 365
#     4  10  23  42  63  88 122 163 205 254 307 360
#     4  11  24  42  64  90 123 163 205 254 312 371
#     4  10  22  41  63  90 124 164 207 253 306 363
#     4  12  23  38  63  94 127 161 200 253 308 365
#     4  11  24  41  64  91 123 164 209 257 308 365
#     4  11  24  41  63  92 124 160 203 251 306 369
#
# _framework density 19.805008000000001
#
# number of rings (size 3 to 8) (size 9 to 14) (size 15 to 20)
#    0.000    1.250    2.500    3.000    1.750    6.000 
#    0.000    2.500    0.000    0.000    0.000    0.000 
#    0.000    0.000    0.000    0.000    0.000    0.000 
#
# Total GULP energy -396949.614270 kJ/mol
# GULP energy per Si atom -12404.675446 kJ/mol
# Density = 1.975993 g / cm^3
# Si number density = 19.805008 Si / 1000 Ang^3
#
#
#
# Elastic Constant Matrix: (Units=GPa)
#
#
# Indices 1 2 3 4 5 6 
#
# 1 130.5047 48.2327 53.9505 0.0000 0.0000 0.0000
# 2 48.2327 98.2161 65.0124 0.0000 0.0000 0.0000
# 3 53.9505 65.0124 135.3565 0.0000 0.0000 0.0000
# 4 0.0000 0.0000 0.0000 25.5074 0.0000 0.0000
# 5 0.0000 0.0000 0.0000 0.0000 45.2760 0.0000
# 6 0.0000 0.0000 0.0000 0.0000 0.0000 31.4192
#
#
#
# Elastic Compliance Matrix: (Units=1/GPa)
#
#
# Indices 1 2 3 4 5 6 
#
# 1 0.009846 -0.003281 -0.002349 0.000000 0.000000 0.000000
# 2 -0.003281 0.016021 -0.006387 0.000000 0.000000 0.000000
# 3 -0.002349 -0.006387 0.011392 0.000000 0.000000 0.000000
# 4 0.000000 0.000000 0.000000 0.039204 0.000000 0.000000
# 5 0.000000 0.000000 0.000000 0.000000 0.022087 0.000000
# 6 0.000000 0.000000 0.000000 0.000000 0.000000 0.031828
#
#
# Mechanical properties :
#
#
# Convention : Reuss Voigt Hill
#
# Bulk Modulus (GPa) = 75.61190 77.60762 76.60976
# Shear Modulus (GPa) = 31.48246 33.56595 32.52421
#
# Velocity S-wave (km/s) = 3.99133 4.12129 4.05683
# Velocity P-wave (km/s) = 7.71375 7.86877 7.79165
#
# Compressibility (1/GPa) = 0.01322543
#
# Stress axis : x y z
#
# Youngs Moduli (GPa) = 101.56439 62.41985 87.78179
#
# Poissons Ratio (x) = 0.20477 0.20618
# Poissons Ratio (y) = 0.33318 0.56068
# Poissons Ratio (z) = 0.23855 0.39869
#
# Static dielectric constant tensor:
#      x y z
#    x 3.727720 0.000000 0.000000 
#    y 0.000000 3.651680 0.000000 
#    z 0.000000 0.000000 3.670760 
# 
# 
# High freq. dielectric constant tensor:
#      x y z
#    x 1.786530 0.000000 0.000000 
#    y 0.000000 1.777850 0.000000 
#    z 0.000000 0.000000 1.775420 
# 
# From -- ./inp_files/11420.got.cif
#   From: 2010.03.12/outbox.cif.g09.slc.cpg/sg44_6_cif.got.tgz:11420.got - 2010.04.14 02:36:11.
