data_PCOD8190369
_publ_section_title
;
Structure prediction by ZEFSAII (Michael W. Deem and Ramdas Pophale) SiO2 
 PCOD8190369
Probable space group: I B A 2
;
_chemical_formula_sum "Si O2"
_cell_formula_units_Z 56
_cell_length_a 16.270979
_cell_length_b 20.777330
_cell_length_c 9.205686
_cell_angle_alpha 90.000000
_cell_angle_beta 90.000000
_cell_angle_gamma 90.000000
_cell_volume 3112.143253
_symmetry_space_group_name_H-M "I B A 2"
_symmetry_group_IT_number 45
_symmetry_cell_setting 'orthorhombic'
loop_
_space_group_symop_operation_xyz
x,y,z
-x,-y,z
-x,y,1/2+z
x,-y,1/2+z
1/2+x,1/2+y,1/2+z
1/2-x,1/2-y,1/2+z
1/2-x,1/2+y,z
1/2+x,1/2-y,z
loop_
_atom_site_type_symbol
_atom_site_label
_atom_site_fract_x
_atom_site_fract_y
_atom_site_fract_z
Si Si1 0.442164 0.423647 0.411790
Si Si2 0.400151 0.542727 0.578721
Si Si3 0.765683 0.138964 0.022823
Si Si4 0.828673 0.301119 0.294594
Si Si5 0.892867 0.256450 0.017382
Si Si6 0.822797 0.280020 0.733508
Si Si7 0.575107 0.281459 0.998096
O O1 0.393855 0.467893 0.530247
O O2 0.537635 0.425362 0.461185
O O3 0.430924 0.448423 0.245350
O O4 0.411012 0.350773 0.423577
O O5 0.309336 0.571755 0.556675
O O6 0.833678 0.194815 0.021571
O O7 0.697001 0.154560 0.145732
O O8 0.714819 0.136577 0.869344
O O9 0.862164 0.310989 0.131900
O O10 0.761674 0.244380 0.302514
O O11 0.906357 0.275023 0.384515
O O12 0.982816 0.229806 0.054570
O O13 0.887866 0.292625 0.862642
O O14 0.861829 0.224420 0.631822
#
# Coordination Sequence:
#
# PCOD8190369 Si02
#       7
#     8   8   8   8   8   8   8
#     4  11  23  34  49  71  99 139 193 225 263 300
#     4  11  22  36  49  69 102 142 187 232 258 311
#     4   9  18  35  48  65 100 135 169 219 270 308
#     4   9  19  31  46  72  97 134 173 210 267 323
#     4  10  17  29  48  72  97 127 176 213 259 321
#     4   9  19  30  47  70  97 134 174 211 269 324
#     4  11  20  31  50  71 102 142 173 218 264 320
#
# _framework density 17.994029999999999
#
# number of rings (size 3 to 8) (size 9 to 14) (size 15 to 20)
#    0.000    2.000    1.429    5.143    2.000    2.286 
#    0.000    0.000    0.000    0.000    0.000    0.000 
#    0.000    0.000    0.000  501.429    0.000    0.000 
#
# Total GULP energy -346869.014265 kJ/mol
# GULP energy per Si atom -12388.179081 kJ/mol
# Density = 1.795307 g / cm^3
# Si number density = 17.994030 Si / 1000 Ang^3
#
#
#
# Elastic Constant Matrix: (Units=GPa)
#
#
# Indices 1 2 3 4 5 6 
#
# 1 63.4341 34.9179 29.9412 0.0000 0.0000 0.0000
# 2 34.9179 52.5231 29.9095 0.0000 0.0000 0.0000
# 3 29.9412 29.9095 122.3129 0.0000 0.0000 0.0000
# 4 0.0000 0.0000 0.0000 15.2850 0.0000 0.0000
# 5 0.0000 0.0000 0.0000 0.0000 25.7695 0.0000
# 6 0.0000 0.0000 0.0000 0.0000 0.0000 33.2571
#
#
#
# Elastic Compliance Matrix: (Units=1/GPa)
#
#
# Indices 1 2 3 4 5 6 
#
# 1 0.025471 -0.015548 -0.002433 0.000000 0.000000 0.000000
# 2 -0.015548 0.031610 -0.003924 0.000000 0.000000 0.000000
# 3 -0.002433 -0.003924 0.009731 0.000000 0.000000 0.000000
# 4 0.000000 0.000000 0.000000 0.065423 0.000000 0.000000
# 5 0.000000 0.000000 0.000000 0.000000 0.038806 0.000000
# 6 0.000000 0.000000 0.000000 0.000000 0.000000 0.030069
#
#
# Mechanical properties :
#
#
# Convention : Reuss Voigt Hill
#
# Bulk Modulus (GPa) = 43.47347 47.53415 45.50381
# Shear Modulus (GPa) = 19.79511 24.42909 22.11210
#
# Velocity S-wave (km/s) = 3.32036 3.68859 3.50931
# Velocity P-wave (km/s) = 6.23796 6.67944 6.46247
#
# Compressibility (1/GPa) = 0.02300253
#
# Stress axis : x y z
#
# Youngs Moduli (GPa) = 39.25962 31.63543 102.76605
#
# Poissons Ratio (x) = 0.49187 0.25005
# Poissons Ratio (y) = 0.61041 0.40322
# Poissons Ratio (z) = 0.09553 0.12413
#
# Static dielectric constant tensor:
#      x y z
#    x 3.349930 0.000000 0.000000 
#    y 0.000000 2.953700 0.000000 
#    z 0.000000 0.000000 3.768740 
# 
# 
# High freq. dielectric constant tensor:
#      x y z
#    x 1.688890 0.000000 0.000000 
#    y 0.000000 1.629420 0.000000 
#    z 0.000000 0.000000 1.721230 
# 
# From -- ./inp_files/2176.got.cif
#   From: 2010.03.12/outbox.cif.g09.slc.cpg/sg45_2_cif.got.tgz:2176.got - 2010.04.14 02:50:11.
