data_PCOD8190378
_publ_section_title
;
Structure prediction by ZEFSAII (Michael W. Deem and Ramdas Pophale) SiO2 
 PCOD8190378
Probable space group: I B A 2
;
_chemical_formula_sum "Si O2"
_cell_formula_units_Z 60
_cell_length_a 8.528044
_cell_length_b 21.226501
_cell_length_c 14.579860
_cell_angle_alpha 90.000000
_cell_angle_beta 90.000000
_cell_angle_gamma 90.000000
_cell_volume 2639.254050
_symmetry_space_group_name_H-M "I B A 2"
_symmetry_group_IT_number 45
_symmetry_cell_setting 'orthorhombic'
loop_
_space_group_symop_operation_xyz
x,y,z
-x,-y,z
-x,y,1/2+z
x,-y,1/2+z
1/2+x,1/2+y,1/2+z
1/2-x,1/2-y,1/2+z
1/2-x,1/2+y,z
1/2+x,1/2-y,z
loop_
_atom_site_type_symbol
_atom_site_label
_atom_site_fract_x
_atom_site_fract_y
_atom_site_fract_z
Si Si1 0.594552 0.172092 0.682000
Si Si2 0.122679 0.885407 0.073535
Si Si3 0.888736 0.666726 0.461372
Si Si4 0.300752 0.220588 0.480166
Si Si5 0.898254 0.444433 0.686888
Si Si6 0.000000 0.000000 0.972574
Si Si7 0.582835 0.288842 0.164941
Si Si8 0.168912 0.530864 0.886342
O O1 0.602116 0.164417 0.571749
O O2 0.513760 0.110413 0.723177
O O3 0.501805 0.233115 0.719999
O O4 0.770616 0.181613 0.719824
O O5 0.171077 0.833119 0.999163
O O6 0.276411 0.919836 0.112339
O O7 0.001910 0.936576 0.033188
O O8 0.034108 0.847528 0.152890
O O9 0.775408 0.722125 0.423443
O O10 0.827952 0.601687 0.422371
O O11 0.061426 0.685652 0.424435
O O12 0.362487 0.253876 0.572465
O O13 0.813772 0.471876 0.776581
O O14 0.000000 0.500000 0.639176
O O15 0.831722 0.002188 0.919283
O O16 0.000000 0.500000 0.916782
#
# Coordination Sequence:
#
# PCOD8190378 Si02
#       8
#     8   8   8   8   8   4   8   8
#     4  10  18  35  64  95 125 174 220 272 335 402
#     4  12  22  39  67 108 125 173 239 285 335 413
#     4  10  19  35  66  92 130 173 221 276 337 402
#     4  10  17  33  63  97 132 163 222 285 338 387
#     4  11  26  44  65  96 143 184 223 283 354 408
#     4  12  28  42  76 100 132 186 244 286 338 414
#     4  10  17  33  60  98 133 157 211 296 330 382
#     4  11  27  50  66  96 151 187 225 289 355 411
#
# _framework density 22.733695000000001
#
# number of rings (size 3 to 8) (size 9 to 14) (size 15 to 20)
#    0.000    1.333    6.667    2.400    3.733    0.533 
#    2.400    2.667    0.000    0.000    0.000    0.000 
#    0.000    0.000    0.000    0.000    0.000    0.000 
#
# Total GULP energy -371747.276289 kJ/mol
# GULP energy per Si atom -12391.575876 kJ/mol
# Density = 2.268195 g / cm^3
# Si number density = 22.733695 Si / 1000 Ang^3
#
#
#
# Elastic Constant Matrix: (Units=GPa)
#
#
# Indices 1 2 3 4 5 6 
#
# 1 145.5304 52.1443 3.4888 0.0001 0.0000 0.0000
# 2 52.1443 146.1589 11.2180 0.0000 0.0000 0.0000
# 3 3.4888 11.2180 17.2905 0.0001 -0.0001 -0.0001
# 4 0.0001 0.0000 0.0001 12.9666 0.0000 0.0000
# 5 0.0000 0.0000 -0.0001 0.0000 20.6115 0.0000
# 6 0.0000 0.0000 -0.0001 0.0000 0.0000 55.7714
#
#
#
# Elastic Compliance Matrix: (Units=1/GPa)
#
#
# Indices 1 2 3 4 5 6 
#
# 1 0.007880 -0.002830 0.000246 0.000000 0.000000 0.000000
# 2 -0.002830 0.008217 -0.004760 0.000000 0.000000 0.000000
# 3 0.000246 -0.004760 0.060874 0.000000 0.000000 0.000000
# 4 0.000000 0.000000 0.000000 0.077121 0.000000 0.000000
# 5 0.000000 0.000000 0.000000 0.000000 0.048517 0.000000
# 6 0.000000 0.000000 0.000000 0.000000 0.000000 0.017930
#
#
# Mechanical properties :
#
#
# Convention : Reuss Voigt Hill
#
# Bulk Modulus (GPa) = 16.05584 49.18690 32.62137
# Shear Modulus (GPa) = 19.53225 34.01182 26.77203
#
# Velocity S-wave (km/s) = 2.93435 3.87214 3.43539
# Velocity P-wave (km/s) = 4.30795 6.45557 5.48784
#
# Compressibility (1/GPa) = 0.06228264
#
# Stress axis : x y z
#
# Youngs Moduli (GPa) = 126.91106 121.70089 16.42738
#
# Poissons Ratio (x) = 0.34442 -0.00404
# Poissons Ratio (y) = 0.35916 0.07820
# Poissons Ratio (z) = -0.03125 0.57930
#
# Static dielectric constant tensor:
#      x y z
#    x 4.815890 0.000000 0.000000 
#    y 0.000000 4.464250 0.000000 
#    z 0.000000 0.000000 3.385120 
# 
# 
# High freq. dielectric constant tensor:
#      x y z
#    x 1.916650 0.000000 0.000000 
#    y 0.000000 1.916340 0.000000 
#    z 0.000000 0.000000 1.835390 
# 
# From -- ./inp_files/7690.got.cif
#   From: 2010.03.12/outbox.cif.g09.slc.cpg/sg45_4_cif.got.tgz:7690.got - 2010.04.14 02:50:11.
