data_PCOD8190361
_publ_section_title
;
Structure prediction by ZEFSAII (Michael W. Deem and Ramdas Pophale) SiO2 
 PCOD8190361
Probable space group: I B A 2
;
_chemical_formula_sum "Si O2"
_cell_formula_units_Z 40
_cell_length_a 16.186716
_cell_length_b 17.133105
_cell_length_c 5.259348
_cell_angle_alpha 90.000000
_cell_angle_beta 90.000000
_cell_angle_gamma 90.000000
_cell_volume 1458.568169
_symmetry_space_group_name_H-M "I B A 2"
_symmetry_group_IT_number 45
_symmetry_cell_setting 'orthorhombic'
loop_
_space_group_symop_operation_xyz
x,y,z
-x,-y,z
-x,y,1/2+z
x,-y,1/2+z
1/2+x,1/2+y,1/2+z
1/2-x,1/2-y,1/2+z
1/2-x,1/2+y,z
1/2+x,1/2-y,z
loop_
_atom_site_type_symbol
_atom_site_label
_atom_site_fract_x
_atom_site_fract_y
_atom_site_fract_z
Si Si1 0.780104 0.787087 0.714040
Si Si2 0.965003 0.915456 0.811782
Si Si3 0.775255 0.954528 0.776316
Si Si4 0.090876 0.464346 0.586319
Si Si5 0.948374 0.286340 0.111506
O O1 0.730777 0.739488 0.503948
O O2 0.735624 0.871633 0.702723
O O3 0.878807 0.779976 0.657341
O O4 0.869844 0.927377 0.757595
O O5 0.012580 0.870561 0.578573
O O6 0.000000 0.000000 0.886073
O O7 0.754254 0.020905 0.567293
O O8 0.136317 0.512693 0.817045
O O9 0.091418 0.373059 0.639773
O O10 0.000000 0.500000 0.532368
O O11 0.983081 0.277513 0.828463
#
# Coordination Sequence:
#
# PCOD8190361 Si02
#       5
#     8   8   8   8   8
#     4  12  30  54  71 105 167 206 238 308 392 464
#     4  10  16  30  54  99 139 163 217 310 370 385
#     4  12  23  43  75  97 135 192 256 301 343 452
#     4  10  16  32  61  99 146 171 225 328 358 420
#     4  12  23  43  75 109 140 194 254 301 381 439
#
# _framework density 27.424154999999999
#
# number of rings (size 3 to 8) (size 9 to 14) (size 15 to 20)
#    0.000    0.800    8.000    2.400    0.000    1.600 
#    0.000    6.000    0.000    0.000    0.000    0.000 
#    0.000    0.000    0.000    0.000    0.000    0.000 
#
# Total GULP energy -248016.733754 kJ/mol
# GULP energy per Si atom -12400.836688 kJ/mol
# Density = 2.736174 g / cm^3
# Si number density = 27.424155 Si / 1000 Ang^3
#
#
#
# Elastic Constant Matrix: (Units=GPa)
#
#
# Indices 1 2 3 4 5 6 
#
# 1 80.6792 -0.9659 35.7505 0.0000 0.0000 0.0000
# 2 -0.9659 142.4888 43.0499 0.0000 0.0000 0.0000
# 3 35.7505 43.0499 213.1239 0.0000 0.0000 0.0000
# 4 0.0000 0.0000 0.0000 19.3183 0.0000 0.0000
# 5 0.0000 0.0000 0.0000 0.0000 83.8341 0.0000
# 6 0.0000 0.0000 0.0000 0.0000 0.0000 28.3740
#
#
#
# Elastic Compliance Matrix: (Units=1/GPa)
#
#
# Indices 1 2 3 4 5 6 
#
# 1 0.013480 0.000825 -0.002428 0.000000 0.000000 0.000000
# 2 0.000825 0.007525 -0.001658 0.000000 0.000000 0.000000
# 3 -0.002428 -0.001658 0.005434 0.000000 0.000000 0.000000
# 4 0.000000 0.000000 0.000000 0.051764 0.000000 0.000000
# 5 0.000000 0.000000 0.000000 0.000000 0.011928 0.000000
# 6 0.000000 0.000000 0.000000 0.000000 0.000000 0.035244
#
#
# Mechanical properties :
#
#
# Convention : Reuss Voigt Hill
#
# Bulk Modulus (GPa) = 50.20858 65.77345 57.99102
# Shear Modulus (GPa) = 36.09130 50.20243 43.14686
#
# Velocity S-wave (km/s) = 3.63166 4.28318 3.97081
# Velocity P-wave (km/s) = 5.99443 6.96396 6.49730
#
# Compressibility (1/GPa) = 0.01991691
#
# Stress axis : x y z
#
# Youngs Moduli (GPa) = 74.18123 132.89538 184.01461
#
# Poissons Ratio (x) = -0.10963 0.44677
# Poissons Ratio (y) = -0.06119 0.30516
# Poissons Ratio (z) = 0.18011 0.22038
#
# Static dielectric constant tensor:
#      x y z
#    x 4.813790 0.000000 0.000000 
#    y 0.000000 4.646430 0.000000 
#    z 0.000000 0.000000 5.516840 
# 
# 
# High freq. dielectric constant tensor:
#      x y z
#    x 2.132520 0.000000 0.000000 
#    y 0.000000 2.114140 0.000000 
#    z 0.000000 0.000000 2.135730 
# 
# From -- ./inp_files/263.got.cif
#   From: 2010.03.12/outbox.cif.g09.slc.cpg/sg45_1_cif.got.tgz:263.got - 2010.04.14 02:50:11.
