data_PCOD8190047
_publ_section_title
;
Structure prediction by ZEFSAII (Michael W. Deem and Ramdas Pophale) SiO2 
 PCOD8190047
Probable space group: I M M 2
;
_chemical_formula_sum "Si O2"
_cell_formula_units_Z 48
_cell_length_a 8.783897
_cell_length_b 29.771565
_cell_length_c 9.098852
_cell_angle_alpha 90.000000
_cell_angle_beta 90.000000
_cell_angle_gamma 90.000000
_cell_volume 2379.444067
_symmetry_space_group_name_H-M "I M M 2"
_symmetry_group_IT_number 44
_symmetry_cell_setting 'orthorhombic'
loop_
_space_group_symop_operation_xyz
x,y,z
-x,-y,z
-x,y,z
x,-y,z
1/2+x,1/2+y,1/2+z
1/2-x,1/2-y,1/2+z
1/2-x,1/2+y,1/2+z
1/2+x,1/2-y,1/2+z
loop_
_atom_site_type_symbol
_atom_site_label
_atom_site_fract_x
_atom_site_fract_y
_atom_site_fract_z
Si Si1 0.823226 0.624515 0.594230
Si Si2 0.323535 0.793764 0.614595
Si Si3 0.177514 0.947844 0.289877
Si Si4 0.325242 0.787119 0.274421
Si Si5 0.677750 0.051962 0.596612
Si Si6 0.679188 0.626169 0.284219
O O1 0.753773 0.578634 0.656454
O O2 0.793676 0.663704 0.710956
O O3 0.741713 0.638283 0.444170
O O4 0.000000 0.616942 0.562318
O O5 0.500000 0.805767 0.638749
O O6 0.283669 0.787584 0.444841
O O7 0.285762 0.747821 0.696929
O O8 0.221862 0.834110 0.674096
O O9 0.249120 0.932088 0.443705
O O10 0.000000 0.937084 0.294998
O O11 0.211255 0.000000 0.261436
O O12 0.500000 0.772526 0.248219
O O13 0.500000 0.062096 0.586642
O O14 0.749686 0.079379 0.730300
O O15 0.713071 0.000000 0.627594
O O16 0.500000 0.620750 0.291854
#
# Coordination Sequence:
#
# PCOD8190047 Si02
#       6
#     8   8   8   8   8   8
#     4  11  23  40  62  87 120 160 202 247 296 354
#     4  11  23  40  63  89 119 154 195 242 293 355
#     4  10  21  38  61  90 123 158 198 245 297 352
#     4  10  23  41  61  88 119 153 195 242 293 350
#     4  10  21  39  63  89 118 155 200 247 297 356
#     4  12  25  40  60  87 121 157 198 249 302 356
#
# _framework density 20.172779999999999
#
# number of rings (size 3 to 8) (size 9 to 14) (size 15 to 20)
#    0.000    1.333    0.000    5.500    0.000    9.333 
#    0.000    0.000    0.000    0.000    0.000    0.000 
#    0.000    0.000    0.000    0.000    0.000    0.000 
#
# Total GULP energy -297806.414844 kJ/mol
# GULP energy per Si atom -12408.600619 kJ/mol
# Density = 2.012687 g / cm^3
# Si number density = 20.172780 Si / 1000 Ang^3
#
#
#
# Elastic Constant Matrix: (Units=GPa)
#
#
# Indices 1 2 3 4 5 6 
#
# 1 126.8692 51.4952 59.7240 0.0002 0.0002 0.0002
# 2 51.4952 89.7576 50.4294 0.0002 -0.0001 0.0001
# 3 59.7240 50.4294 133.5793 0.0025 0.0004 -0.0001
# 4 0.0002 0.0002 0.0025 37.3385 0.0002 0.0002
# 5 0.0002 -0.0001 0.0004 0.0002 36.4749 0.0008
# 6 0.0002 0.0001 -0.0001 0.0002 0.0008 35.1908
#
#
#
# Elastic Compliance Matrix: (Units=1/GPa)
#
#
# Indices 1 2 3 4 5 6 
#
# 1 0.011323 -0.004635 -0.003313 0.000000 0.000000 0.000000
# 2 -0.004635 0.016038 -0.003982 0.000000 0.000000 0.000000
# 3 -0.003313 -0.003982 0.010471 -0.000001 0.000000 0.000000
# 4 0.000000 0.000000 -0.000001 0.026782 0.000000 0.000000
# 5 0.000000 0.000000 0.000000 0.000000 0.027416 -0.000001
# 6 0.000000 0.000000 0.000000 0.000000 -0.000001 0.028417
#
#
# Mechanical properties :
#
#
# Convention : Reuss Voigt Hill
#
# Bulk Modulus (GPa) = 71.57474 74.83370 73.20422
# Shear Modulus (GPa) = 33.56539 34.37132 33.96836
#
# Velocity S-wave (km/s) = 4.08351 4.13225 4.10795
# Velocity P-wave (km/s) = 7.60206 7.74236 7.67253
#
# Compressibility (1/GPa) = 0.01397141
#
# Stress axis : x y z
#
# Youngs Moduli (GPa) = 88.31684 62.35329 95.50405
#
# Poissons Ratio (x) = 0.28900 0.31638
# Poissons Ratio (y) = 0.40934 0.38033
# Poissons Ratio (z) = 0.29257 0.24831
#
# Static dielectric constant tensor:
#      x y z
#    x 3.761760 0.000000 0.000000 
#    y 0.000000 3.679580 0.000000 
#    z 0.000000 0.000000 3.697420 
# 
# 
# High freq. dielectric constant tensor:
#      x y z
#    x 1.800010 0.000000 0.000000 
#    y 0.000000 1.796650 0.000000 
#    z 0.000000 0.000000 1.795940 
# 
# From -- ./inp_files/4937.got.cif
#   From: 2010.03.12/outbox.cif.g09.slc.cpg/sg44_3_cif.got.tgz:4937.got - 2010.04.14 02:36:11.
