data_PCOD8190542
_publ_section_title
;
Structure prediction by ZEFSAII (Michael W. Deem and Ramdas Pophale) SiO2 
 PCOD8190542
Probable space group: I B A 2
;
_chemical_formula_sum "Si O2"
_cell_formula_units_Z 60
_cell_length_a 11.302133
_cell_length_b 24.960811
_cell_length_c 8.746183
_cell_angle_alpha 90.000000
_cell_angle_beta 90.000000
_cell_angle_gamma 90.000000
_cell_volume 2467.389235
_symmetry_space_group_name_H-M "I B A 2"
_symmetry_group_IT_number 45
_symmetry_cell_setting 'orthorhombic'
loop_
_space_group_symop_operation_xyz
x,y,z
-x,-y,z
-x,y,1/2+z
x,-y,1/2+z
1/2+x,1/2+y,1/2+z
1/2-x,1/2-y,1/2+z
1/2-x,1/2+y,z
1/2+x,1/2-y,z
loop_
_atom_site_type_symbol
_atom_site_label
_atom_site_fract_x
_atom_site_fract_y
_atom_site_fract_z
Si Si1 0.368000 0.825988 0.076260
Si Si2 0.648889 0.069769 0.573919
Si Si3 0.581145 0.293299 0.076876
Si Si4 0.500000 0.500000 0.872090
Si Si5 0.138602 0.795080 0.242281
Si Si6 0.822926 0.977950 0.619720
Si Si7 0.082709 0.429783 0.221434
Si Si8 0.304651 0.824189 0.741793
O O1 0.436344 0.770556 0.056249
O O2 0.261417 0.818140 0.192039
O O3 0.449470 0.869333 0.163545
O O4 0.323435 0.847944 0.911630
O O5 0.773210 0.039215 0.606484
O O6 0.543087 0.041643 0.675763
O O7 0.607873 0.064073 0.398939
O O8 0.664671 0.131902 0.614247
O O9 0.458509 0.319983 0.128236
O O10 0.669426 0.306848 0.214845
O O11 0.622131 0.316593 0.914613
O O12 0.593117 0.467256 0.766792
O O13 0.410927 0.464273 0.977607
O O14 0.122556 0.730917 0.225982
O O15 0.701771 0.943668 0.624606
#
# Coordination Sequence:
#
# PCOD8190542 Si02
#       8
#     8   8   8   4   8   8   8   8
#     4  10  22  39  61  90 127 167 215 267 328 383
#     4  12  26  43  68 101 135 173 221 275 327 392
#     4  10  20  37  59  87 123 168 216 269 323 387
#     4  10  24  50  74  98 132 174 212 268 324 398
#     4  10  20  37  59  87 123 168 216 269 323 387
#     4  11  25  48  74 100 131 175 214 266 330 389
#     4  12  26  43  68 101 135 173 221 275 327 392
#     4  10  22  39  61  90 127 167 215 267 328 383
#
# _framework density 24.317202000000002
#
# number of rings (size 3 to 8) (size 9 to 14) (size 15 to 20)
#    0.000    1.333    1.333    3.600    3.733    6.400 
#    4.800    0.000    0.000    0.000    0.000    0.000 
#    0.000    0.000    0.000    0.000    0.000    0.000 
#
# Total GULP energy -371694.790337 kJ/mol
# GULP energy per Si atom -12389.826345 kJ/mol
# Density = 2.426185 g / cm^3
# Si number density = 24.317202 Si / 1000 Ang^3
#
#
#
# Elastic Constant Matrix: (Units=GPa)
#
#
# Indices 1 2 3 4 5 6 
#
# 1 105.2254 3.1343 30.9974 -0.0003 -0.0003 -0.0001
# 2 3.1343 26.3017 4.6097 -0.0008 0.0001 0.0000
# 3 30.9974 4.6097 136.6817 -0.0040 0.0019 -0.0019
# 4 -0.0003 -0.0008 -0.0040 27.5663 0.0002 -0.0007
# 5 -0.0003 0.0001 0.0019 0.0002 46.6957 0.0005
# 6 -0.0001 0.0000 -0.0019 -0.0007 0.0005 -1.2490
#
#
#
# Elastic Compliance Matrix: (Units=1/GPa)
#
#
# Indices 1 2 3 4 5 6 
#
# 1 0.010201 -0.000815 -0.002286 0.000000 0.000000 0.000002
# 2 -0.000815 0.038312 -0.001107 0.000001 0.000000 0.000003
# 3 -0.002286 -0.001107 0.007872 0.000001 0.000000 -0.000011
# 4 0.000000 0.000001 0.000001 0.036276 0.000000 -0.000020
# 5 0.000000 0.000000 0.000000 0.000000 0.021415 0.000009
# 6 0.000002 0.000003 -0.000011 -0.000020 0.000009 -0.800618
#
#
# Mechanical properties :
#
#
# Convention : Reuss Voigt Hill
#
# Bulk Modulus (GPa) = 20.84716 38.41019 29.62868
# Shear Modulus (GPa) = -7.55132 29.90040 11.17454
#
# Velocity S-wave (km/s) = -1.76411 3.51037 2.14600
# Velocity P-wave (km/s) = 2.10765 5.67979 4.28382
#
# Compressibility (1/GPa) = 0.04796817
#
# Stress axis : x y z
#
# Youngs Moduli (GPa) = 98.02877 26.10181 127.03190
#
# Poissons Ratio (x) = 0.02127 0.29039
# Poissons Ratio (y) = 0.07989 0.14066
# Poissons Ratio (z) = 0.22409 0.02890
#
# Static dielectric constant tensor:
#      x y z
#    x 4.515150 0.000000 0.000000 
#    y 0.000000 4.164800 0.000000 
#    z 0.000000 0.000000 4.388900 
# 
# 
# High freq. dielectric constant tensor:
#      x y z
#    x 1.985450 0.000000 0.000000 
#    y 0.000000 1.935650 0.000000 
#    z 0.000000 0.000000 1.972760 
# 
# From -- ./inp_files/1457.got.cif
#   From: 2010.03.12/outbox.cif.g09.slc.cpg/sg45_1_cif.got.tgz:1457.got - 2010.04.14 02:50:11.
