data_PCOD8190911
_publ_section_title
;
Structure prediction by ZEFSAII (Michael W. Deem and Ramdas Pophale) SiO2 
 PCOD8190911
Probable space group: I B A 2
;
_chemical_formula_sum "Si O2"
_cell_formula_units_Z 56
_cell_length_a 21.109908
_cell_length_b 13.132522
_cell_length_c 8.956574
_cell_angle_alpha 90.000000
_cell_angle_beta 90.000000
_cell_angle_gamma 90.000000
_cell_volume 2482.998150
_symmetry_space_group_name_H-M "I B A 2"
_symmetry_group_IT_number 45
_symmetry_cell_setting 'orthorhombic'
loop_
_space_group_symop_operation_xyz
x,y,z
-x,-y,z
-x,y,1/2+z
x,-y,1/2+z
1/2+x,1/2+y,1/2+z
1/2-x,1/2-y,1/2+z
1/2-x,1/2+y,z
1/2+x,1/2-y,z
loop_
_atom_site_type_symbol
_atom_site_label
_atom_site_fract_x
_atom_site_fract_y
_atom_site_fract_z
Si Si1 0.500000 0.000000 0.467340
Si Si2 0.415485 0.453914 0.793853
Si Si3 0.712340 0.937999 0.079602
Si Si4 0.128496 0.817459 0.328666
Si Si5 0.234176 0.621318 0.759927
Si Si6 0.921734 0.608691 0.713359
Si Si7 0.500000 0.500000 0.046829
Si Si8 0.327597 0.691860 0.151560
O O1 0.553276 0.947148 0.363240
O O2 0.469243 0.912629 0.574284
O O3 0.399794 0.573483 0.784943
O O4 0.459051 0.425802 0.651736
O O5 0.354355 0.382393 0.781999
O O6 0.453966 0.429919 0.944843
O O7 0.646052 0.935169 0.165416
O O8 0.756238 0.841876 0.116360
O O9 0.747519 0.041776 0.127256
O O10 0.707778 0.941507 0.901223
O O11 0.202081 0.813711 0.282422
O O12 0.087402 0.729213 0.248162
O O13 0.126781 0.806162 0.507838
O O14 0.176308 0.695212 0.716658
#
# Coordination Sequence:
#
# PCOD8190911 Si02
#       8
#     4   8   8   8   8   8   4   8
#     4  10  26  48  76  94 146 188 248 290 344 396
#     4  11  22  46  68 100 140 181 231 294 341 425
#     4  11  24  43  73 103 141 179 225 298 358 416
#     4  11  24  43  71 104 142 181 231 292 357 425
#     4  11  25  42  70 111 141 183 226 287 371 429
#     4  11  24  49  70 105 136 190 234 295 343 426
#     4  10  24  42  68  94 134 188 230 276 350 400
#     4  11  24  44  70 108 141 185 226 293 363 429
#
# _framework density 22.553380000000001
#
# number of rings (size 3 to 8) (size 9 to 14) (size 15 to 20)
#    0.000    1.143    4.286    0.857    4.000    2.286 
#    0.000    0.000    0.000    0.000    0.000    0.000 
#    0.000    0.000    0.000    0.000    0.000    0.000 
#
# Total GULP energy -347095.429597 kJ/mol
# GULP energy per Si atom -12396.265343 kJ/mol
# Density = 2.250205 g / cm^3
# Si number density = 22.553380 Si / 1000 Ang^3
#
#
#
# Elastic Constant Matrix: (Units=GPa)
#
#
# Indices 1 2 3 4 5 6 
#
# 1 84.1498 21.4697 46.7175 0.0000 0.0000 0.0000
# 2 21.4697 124.8567 59.8015 0.0000 0.0000 0.0000
# 3 46.7175 59.8015 141.0172 0.0000 0.0000 0.0000
# 4 0.0000 0.0000 0.0000 26.8129 0.0000 0.0000
# 5 0.0000 0.0000 0.0000 0.0000 16.1116 0.0000
# 6 0.0000 0.0000 0.0000 0.0000 0.0000 31.3706
#
#
#
# Elastic Compliance Matrix: (Units=1/GPa)
#
#
# Indices 1 2 3 4 5 6 
#
# 1 0.014568 -0.000243 -0.004723 0.000000 0.000000 0.000000
# 2 -0.000243 0.010055 -0.004183 0.000000 0.000000 0.000000
# 3 -0.004723 -0.004183 0.010430 0.000000 0.000000 0.000000
# 4 0.000000 0.000000 0.000000 0.037295 0.000000 0.000000
# 5 0.000000 0.000000 0.000000 0.000000 0.062067 0.000000
# 6 0.000000 0.000000 0.000000 0.000000 0.000000 0.031877
#
#
# Mechanical properties :
#
#
# Convention : Reuss Voigt Hill
#
# Bulk Modulus (GPa) = 59.68841 67.33346 63.51093
# Shear Modulus (GPa) = 26.29153 29.66136 27.97645
#
# Velocity S-wave (km/s) = 3.41801 3.63045 3.52583
# Velocity P-wave (km/s) = 6.48844 6.89156 6.69303
#
# Compressibility (1/GPa) = 0.01675367
#
# Stress axis : x y z
#
# Youngs Moduli (GPa) = 68.64510 99.45653 95.87576
#
# Poissons Ratio (x) = 0.02415 0.45284
# Poissons Ratio (y) = 0.01667 0.40109
# Poissons Ratio (z) = 0.32422 0.41607
#
# Static dielectric constant tensor:
#      x y z
#    x 4.127850 0.000000 0.000000 
#    y 0.000000 3.783330 0.000000 
#    z 0.000000 0.000000 4.255550 
# 
# 
# High freq. dielectric constant tensor:
#      x y z
#    x 1.892280 0.000000 0.000000 
#    y 0.000000 1.870000 0.000000 
#    z 0.000000 0.000000 1.901930 
# 
# From -- ./inp_files/2357.got.cif
#   From: 2010.03.12/outbox.cif.g09.slc.cpg/sg45_2_cif.got.tgz:2357.got - 2010.04.14 02:50:11.
