data_PCOD8190721
_publ_section_title
;
Structure prediction by ZEFSAII (Michael W. Deem and Ramdas Pophale) SiO2 
 PCOD8190721
Probable space group: I B A 2
;
_chemical_formula_sum "Si O2"
_cell_formula_units_Z 48
_cell_length_a 9.770918
_cell_length_b 13.803203
_cell_length_c 17.419683
_cell_angle_alpha 90.000000
_cell_angle_beta 90.000000
_cell_angle_gamma 90.000000
_cell_volume 2349.392030
_symmetry_space_group_name_H-M "I B A 2"
_symmetry_group_IT_number 45
_symmetry_cell_setting 'orthorhombic'
loop_
_space_group_symop_operation_xyz
x,y,z
-x,-y,z
-x,y,1/2+z
x,-y,1/2+z
1/2+x,1/2+y,1/2+z
1/2-x,1/2-y,1/2+z
1/2-x,1/2+y,z
1/2+x,1/2-y,z
loop_
_atom_site_type_symbol
_atom_site_label
_atom_site_fract_x
_atom_site_fract_y
_atom_site_fract_z
Si Si1 0.324337 0.722053 0.518730
Si Si2 0.133428 0.560906 0.978697
Si Si3 0.883592 0.434017 0.150210
Si Si4 0.390501 0.420635 0.734444
Si Si5 0.552668 0.258055 0.120140
Si Si6 0.136390 0.950150 0.911010
O O1 0.374245 0.822005 0.477678
O O2 0.455789 0.679293 0.564261
O O3 0.193051 0.733034 0.575172
O O4 0.298323 0.641527 0.454887
O O5 0.168897 0.529568 0.066561
O O6 0.000000 0.500000 0.953271
O O7 0.249842 0.533507 0.917584
O O8 0.761274 0.447611 0.209017
O O9 0.000000 0.500000 0.185988
O O10 0.952922 0.329828 0.142111
O O11 0.500000 0.500000 0.705359
O O12 0.420039 0.315810 0.698096
O O13 0.394263 0.413428 0.825665
O O14 0.000000 0.000000 0.945502
#
# Coordination Sequence:
#
# PCOD8190721 Si02
#       6
#     8   8   8   8   8   8
#     4  11  22  41  70  97 128 174 226 281 325 394
#     4  10  21  41  66  96 125 168 229 271 330 396
#     4  10  22  41  67  95 124 171 222 271 320 393
#     4  11  26  44  62  99 137 175 215 271 342 396
#     4  11  22  42  66 100 125 170 226 261 333 394
#     4  11  25  43  64  98 136 173 219 274 343 398
#
# _framework density 20.430817000000001
#
# number of rings (size 3 to 8) (size 9 to 14) (size 15 to 20)
#    0.000    1.333    3.333    4.000    4.667    0.667 
#   15.000    0.000    0.000    0.000    0.000    0.000 
#    0.000    0.000    0.000    0.000    0.000    0.000 
#
# Total GULP energy -297368.383175 kJ/mol
# GULP energy per Si atom -12390.349299 kJ/mol
# Density = 2.038432 g / cm^3
# Si number density = 20.430817 Si / 1000 Ang^3
#
#
#
# Elastic Constant Matrix: (Units=GPa)
#
#
# Indices 1 2 3 4 5 6 
#
# 1 146.5902 47.5568 44.9659 0.0000 0.0000 0.0000
# 2 47.5568 90.2509 48.2836 0.0000 0.0000 0.0000
# 3 44.9659 48.2836 79.3752 0.0000 0.0000 0.0000
# 4 0.0000 0.0000 0.0000 35.4402 0.0000 0.0000
# 5 0.0000 0.0000 0.0000 0.0000 28.7153 0.0000
# 6 0.0000 0.0000 0.0000 0.0000 0.0000 38.3390
#
#
#
# Elastic Compliance Matrix: (Units=1/GPa)
#
#
# Indices 1 2 3 4 5 6 
#
# 1 0.008740 -0.002901 -0.003187 0.000000 0.000000 0.000000
# 2 -0.002901 0.017388 -0.008934 0.000000 0.000000 0.000000
# 3 -0.003187 -0.008934 0.019838 0.000000 0.000000 0.000000
# 4 0.000000 0.000000 0.000000 0.028217 0.000000 0.000000
# 5 0.000000 0.000000 0.000000 0.000000 0.034825 0.000000
# 6 0.000000 0.000000 0.000000 0.000000 0.000000 0.026083
#
#
# Mechanical properties :
#
#
# Convention : Reuss Voigt Hill
#
# Bulk Modulus (GPa) = 62.79924 66.42542 64.61233
# Shear Modulus (GPa) = 29.33541 32.19289 30.76415
#
# Velocity S-wave (km/s) = 3.79336 3.97382 3.88464
# Velocity P-wave (km/s) = 7.07039 7.32379 7.19820
#
# Compressibility (1/GPa) = 0.01592376
#
# Stress axis : x y z
#
# Youngs Moduli (GPa) = 114.41202 57.50982 50.40753
#
# Poissons Ratio (x) = 0.16682 0.16065
# Poissons Ratio (y) = 0.33187 0.45034
# Poissons Ratio (z) = 0.36462 0.51379
#
# Static dielectric constant tensor:
#      x y z
#    x 3.892540 0.000000 0.000000 
#    y 0.000000 3.797810 0.000000 
#    z 0.000000 0.000000 3.519160 
# 
# 
# High freq. dielectric constant tensor:
#      x y z
#    x 1.820710 0.000000 0.000000 
#    y 0.000000 1.801560 0.000000 
#    z 0.000000 0.000000 1.773160 
# 
# From -- ./inp_files/7543.got.cif
#   From: 2010.03.12/outbox.cif.g09.slc.cpg/sg45_4_cif.got.tgz:7543.got - 2010.04.14 02:50:11.
