data_PCOD8190653
_publ_section_title
;
Structure prediction by ZEFSAII (Michael W. Deem and Ramdas Pophale) SiO2 
 PCOD8190653
Probable space group: I B A 2
;
_chemical_formula_sum "Si O2"
_cell_formula_units_Z 56
_cell_length_a 19.259535
_cell_length_b 8.859545
_cell_length_c 15.955852
_cell_angle_alpha 90.000000
_cell_angle_beta 90.000000
_cell_angle_gamma 90.000000
_cell_volume 2722.558467
_symmetry_space_group_name_H-M "I B A 2"
_symmetry_group_IT_number 45
_symmetry_cell_setting 'orthorhombic'
loop_
_space_group_symop_operation_xyz
x,y,z
-x,-y,z
-x,y,1/2+z
x,-y,1/2+z
1/2+x,1/2+y,1/2+z
1/2-x,1/2-y,1/2+z
1/2-x,1/2+y,z
1/2+x,1/2-y,z
loop_
_atom_site_type_symbol
_atom_site_label
_atom_site_fract_x
_atom_site_fract_y
_atom_site_fract_z
Si Si1 0.651751 0.284884 0.439770
Si Si2 0.886217 0.337525 0.586596
Si Si3 0.689121 0.903259 0.281529
Si Si4 0.558519 0.892487 0.183958
Si Si5 0.825405 0.252927 0.751892
Si Si6 0.515151 0.675385 0.048903
Si Si7 0.281458 0.958188 0.964159
O O1 0.638369 0.298070 0.339271
O O2 0.576831 0.287590 0.483870
O O3 0.697829 0.430110 0.469486
O O4 0.695565 0.133377 0.462987
O O5 0.911026 0.505842 0.609071
O O6 0.875082 0.234330 0.670589
O O7 0.814203 0.361419 0.538964
O O8 0.942890 0.259490 0.524831
O O9 0.615432 0.838343 0.250747
O O10 0.753435 0.830073 0.233223
O O11 0.693310 0.874149 0.380030
O O12 0.695239 0.075105 0.257723
O O13 0.530945 0.738918 0.142178
O O14 0.500000 0.000000 0.228382
O O15 0.500000 0.500000 0.053535
#
# Coordination Sequence:
#
# PCOD8190653 Si02
#       7
#     8   8   8   8   8   8   8
#     4  10  22  41  61  90 124 159 201 253 304 366
#     4  10  21  39  60  87 120 162 201 248 301 368
#     4   9  19  37  58  90 117 157 198 251 302 363
#     4   9  19  39  58  82 120 156 198 247 302 365
#     4   9  20  37  61  86 123 155 203 248 302 359
#     4  11  24  40  59  89 125 157 206 251 306 361
#     4  10  21  37  63  91 118 158 209 249 303 364
#
# _framework density 20.568888999999999
#
# number of rings (size 3 to 8) (size 9 to 14) (size 15 to 20)
#    0.000    2.286    1.429    0.000    4.000    1.143 
#   10.286    0.714    0.000    0.000    0.000    0.000 
#    0.000    0.000    0.000    0.000    0.000    0.000 
#
# Total GULP energy -346943.009757 kJ/mol
# GULP energy per Si atom -12390.821777 kJ/mol
# Density = 2.052207 g / cm^3
# Si number density = 20.568889 Si / 1000 Ang^3
#
#
#
# Elastic Constant Matrix: (Units=GPa)
#
#
# Indices 1 2 3 4 5 6 
#
# 1 119.7454 25.6508 55.7089 0.0000 0.0000 0.0000
# 2 25.6508 58.6963 24.1297 0.0000 0.0000 0.0000
# 3 55.7089 24.1297 68.0887 0.0000 0.0000 0.0000
# 4 0.0000 0.0000 0.0000 15.7829 0.0000 0.0000
# 5 0.0000 0.0000 0.0000 0.0000 41.9704 0.0000
# 6 0.0000 0.0000 0.0000 0.0000 0.0000 35.7195
#
#
#
# Elastic Compliance Matrix: (Units=1/GPa)
#
#
# Indices 1 2 3 4 5 6 
#
# 1 0.013611 -0.001604 -0.010568 0.000000 0.000000 0.000000
# 2 -0.001604 0.020131 -0.005822 0.000000 0.000000 0.000000
# 3 -0.010568 -0.005822 0.025397 0.000000 0.000000 0.000000
# 4 0.000000 0.000000 0.000000 0.063360 0.000000 0.000000
# 5 0.000000 0.000000 0.000000 0.000000 0.023826 0.000000
# 6 0.000000 0.000000 0.000000 0.000000 0.000000 0.027996
#
#
# Mechanical properties :
#
#
# Convention : Reuss Voigt Hill
#
# Bulk Modulus (GPa) = 43.19437 50.83436 47.01436
# Shear Modulus (GPa) = 22.93311 28.09730 25.51521
#
# Velocity S-wave (km/s) = 3.34270 3.69997 3.52586
# Velocity P-wave (km/s) = 5.99530 6.55903 6.28349
#
# Compressibility (1/GPa) = 0.02315117
#
# Stress axis : x y z
#
# Youngs Moduli (GPa) = 73.46929 49.67439 39.37546
#
# Poissons Ratio (x) = 0.07966 0.41612
# Poissons Ratio (y) = 0.11782 0.22925
# Poissons Ratio (z) = 0.77643 0.28921
#
# Static dielectric constant tensor:
#      x y z
#    x 4.075000 0.000000 0.000000 
#    y 0.000000 3.634070 0.000000 
#    z 0.000000 0.000000 3.895930 
# 
# 
# High freq. dielectric constant tensor:
#      x y z
#    x 1.810680 0.000000 0.000000 
#    y 0.000000 1.792040 0.000000 
#    z 0.000000 0.000000 1.790390 
# 
# From -- ./inp_files/6935.got.cif
#   From: 2010.03.12/outbox.cif.g09.slc.cpg/sg45_4_cif.got.tgz:6935.got - 2010.04.14 02:50:11.
