data_PCOD8190999
_publ_section_title
;
Structure prediction by ZEFSAII (Michael W. Deem and Ramdas Pophale) SiO2 
 PCOD8190999
Probable space group: I B A 2
;
_chemical_formula_sum "Si O2"
_cell_formula_units_Z 48
_cell_length_a 4.842899
_cell_length_b 28.046678
_cell_length_c 16.315378
_cell_angle_alpha 90.000000
_cell_angle_beta 90.000000
_cell_angle_gamma 90.000000
_cell_volume 2216.072581
_symmetry_space_group_name_H-M "I B A 2"
_symmetry_group_IT_number 45
_symmetry_cell_setting 'orthorhombic'
loop_
_space_group_symop_operation_xyz
x,y,z
-x,-y,z
-x,y,1/2+z
x,-y,1/2+z
1/2+x,1/2+y,1/2+z
1/2-x,1/2-y,1/2+z
1/2-x,1/2+y,z
1/2+x,1/2-y,z
loop_
_atom_site_type_symbol
_atom_site_label
_atom_site_fract_x
_atom_site_fract_y
_atom_site_fract_z
Si Si1 0.000000 0.000000 0.716841
Si Si2 0.355116 0.637758 0.779584
Si Si3 0.642293 0.897193 0.375520
Si Si4 0.174843 0.631122 0.552161
Si Si5 0.270582 0.217595 0.664897
Si Si6 0.500000 0.000000 0.827093
Si Si7 0.352234 0.589487 0.128463
O O1 0.244326 0.021530 0.773796
O O2 0.163316 0.964748 0.656588
O O3 0.557750 0.625207 0.854999
O O4 0.302684 0.692698 0.752441
O O5 0.482114 0.615541 0.699230
O O6 0.055181 0.618005 0.801815
O O7 0.552067 0.872052 0.460551
O O8 0.625151 0.955556 0.380336
O O9 0.260363 0.683522 0.584430
O O10 0.449716 0.597571 0.549556
O O11 0.951491 0.609925 0.615628
O O12 0.584425 0.235394 0.659524
#
# Coordination Sequence:
#
# PCOD8190999 Si02
#       7
#     4   8   8   8   8   4   8
#     4  12  22  36  64  94 124 174 240 274 300 386
#     4  11  22  41  66  91 126 169 220 273 324 398
#     4  12  23  41  63  98 136 176 213 267 337 387
#     4  11  25  41  64  94 134 172 208 275 346 397
#     4  11  23  44  69  95 123 167 220 275 331 401
#     4  12  22  38  62  96 134 178 222 274 316 388
#     4  11  21  40  61  91 124 174 224 264 320 384
#
# _framework density 21.659942000000001
#
# number of rings (size 3 to 8) (size 9 to 14) (size 15 to 20)
#    0.000    0.667    3.333    7.000    0.000    1.333 
#    0.000    5.000    0.000    0.000    0.000    0.000 
#    0.000    0.000    0.000    0.000    0.000    0.000 
#
# Total GULP energy -297392.227039 kJ/mol
# GULP energy per Si atom -12391.342793 kJ/mol
# Density = 2.161064 g / cm^3
# Si number density = 21.659942 Si / 1000 Ang^3
#
#
#
# Elastic Constant Matrix: (Units=GPa)
#
#
# Indices 1 2 3 4 5 6 
#
# 1 87.0717 23.0559 9.1180 0.0000 0.0000 0.0000
# 2 23.0559 114.3020 42.8123 0.0000 0.0000 0.0000
# 3 9.1180 42.8123 79.6348 -0.0002 0.0000 0.0000
# 4 0.0000 0.0000 -0.0002 21.1349 0.0000 0.0000
# 5 0.0000 0.0000 0.0000 0.0000 29.4054 0.0000
# 6 0.0000 0.0000 0.0000 0.0000 0.0000 43.6841
#
#
#
# Elastic Compliance Matrix: (Units=1/GPa)
#
#
# Indices 1 2 3 4 5 6 
#
# 1 0.012133 -0.002413 -0.000092 0.000000 0.000000 0.000000
# 2 -0.002413 0.011434 -0.005871 0.000000 0.000000 0.000000
# 3 -0.000092 -0.005871 0.015724 0.000000 0.000000 0.000000
# 4 0.000000 0.000000 0.000000 0.047315 0.000000 0.000000
# 5 0.000000 0.000000 0.000000 0.000000 0.034007 0.000000
# 6 0.000000 0.000000 0.000000 0.000000 0.000000 0.022892
#
#
# Mechanical properties :
#
#
# Convention : Reuss Voigt Hill
#
# Bulk Modulus (GPa) = 44.36546 47.88677 46.12611
# Shear Modulus (GPa) = 29.80247 32.57970 31.19108
#
# Velocity S-wave (km/s) = 3.71337 3.88254 3.79890
# Velocity P-wave (km/s) = 6.23800 6.50040 6.37055
#
# Compressibility (1/GPa) = 0.02254006
#
# Stress axis : x y z
#
# Youngs Moduli (GPa) = 82.41742 87.45481 63.59644
#
# Poissons Ratio (x) = 0.21103 0.00585
# Poissons Ratio (y) = 0.19887 0.37337
# Poissons Ratio (z) = 0.00758 0.51345
#
# Static dielectric constant tensor:
#      x y z
#    x 4.331350 0.000000 0.000000 
#    y 0.000000 4.485530 0.000000 
#    z 0.000000 0.000000 4.002970 
# 
# 
# High freq. dielectric constant tensor:
#      x y z
#    x 1.875230 0.000000 0.000000 
#    y 0.000000 1.840110 0.000000 
#    z 0.000000 0.000000 1.829570 
# 
# From -- ./inp_files/5199.got.cif
#   From: 2010.03.12/outbox.cif.g09.slc.cpg/sg45_3_cif.got.tgz:5199.got - 2010.04.14 02:50:11.
