data_PCOD8190841
_publ_section_title
;
Structure prediction by ZEFSAII (Michael W. Deem and Ramdas Pophale) SiO2 
 PCOD8190841
Probable space group: I B A 2
;
_chemical_formula_sum "Si O2"
_cell_formula_units_Z 48
_cell_length_a 12.956633
_cell_length_b 12.680855
_cell_length_c 13.004289
_cell_angle_alpha 90.000000
_cell_angle_beta 90.000000
_cell_angle_gamma 90.000000
_cell_volume 2136.620084
_symmetry_space_group_name_H-M "I B A 2"
_symmetry_group_IT_number 45
_symmetry_cell_setting 'orthorhombic'
loop_
_space_group_symop_operation_xyz
x,y,z
-x,-y,z
-x,y,1/2+z
x,-y,1/2+z
1/2+x,1/2+y,1/2+z
1/2-x,1/2-y,1/2+z
1/2-x,1/2+y,z
1/2+x,1/2-y,z
loop_
_atom_site_type_symbol
_atom_site_label
_atom_site_fract_x
_atom_site_fract_y
_atom_site_fract_z
Si Si1 0.101289 0.441322 0.279610
Si Si2 0.493053 0.382239 0.326815
Si Si3 0.991180 0.717832 0.644139
Si Si4 0.312530 0.739537 0.367254
Si Si5 0.718851 0.126314 0.678401
Si Si6 0.144941 0.819447 0.500762
O O1 0.146673 0.360913 0.364004
O O2 0.190569 0.521388 0.242146
O O3 0.000000 0.500000 0.327086
O O4 0.064564 0.376012 0.181097
O O5 0.500000 0.500000 0.282425
O O6 0.475586 0.304998 0.231984
O O7 0.596121 0.344456 0.387588
O O8 0.395083 0.386163 0.403683
O O9 0.879401 0.671865 0.617036
O O10 0.043193 0.760832 0.541564
O O11 0.260909 0.713330 0.257413
O O12 0.228848 0.734076 0.459250
O O13 0.806549 0.107349 0.591207
#
# Coordination Sequence:
#
# PCOD8190841 Si02
#       6
#     8   8   8   8   8   8
#     4   9  21  43  69  94 132 177 217 280 330 374
#     4  11  25  44  65  99 140 176 218 276 334 394
#     4  10  22  46  66  95 137 169 221 287 323 389
#     4  11  24  44  69  98 136 175 225 275 329 402
#     4  11  22  43  71  94 132 174 226 275 331 399
#     4  12  24  42  70  97 132 182 219 271 344 390
#
# _framework density 22.465388999999998
#
# number of rings (size 3 to 8) (size 9 to 14) (size 15 to 20)
#    0.000    1.333    5.000    1.000    2.333    2.000 
#    3.000    0.833    0.000    0.000    0.000    0.000 
#    0.000    0.000    0.000    0.000    0.000    0.000 
#
# Total GULP energy -297549.694283 kJ/mol
# GULP energy per Si atom -12397.903928 kJ/mol
# Density = 2.241426 g / cm^3
# Si number density = 22.465389 Si / 1000 Ang^3
#
#
#
# Elastic Constant Matrix: (Units=GPa)
#
#
# Indices 1 2 3 4 5 6 
#
# 1 96.6640 37.4251 30.9804 0.0000 0.0000 0.0000
# 2 37.4251 118.5589 19.2501 0.0000 0.0000 0.0000
# 3 30.9804 19.2501 77.7950 0.0000 0.0000 0.0000
# 4 0.0000 0.0000 0.0000 10.2523 0.0000 0.0000
# 5 0.0000 0.0000 0.0000 0.0000 54.2673 0.0000
# 6 0.0000 0.0000 0.0000 0.0000 0.0000 33.1794
#
#
#
# Elastic Compliance Matrix: (Units=1/GPa)
#
#
# Indices 1 2 3 4 5 6 
#
# 1 0.013064 -0.003417 -0.004357 0.000000 0.000000 0.000000
# 2 -0.003417 0.009681 -0.001035 0.000000 0.000000 0.000000
# 3 -0.004357 -0.001035 0.014846 0.000000 0.000000 0.000000
# 4 0.000000 0.000000 0.000000 0.097539 0.000000 0.000000
# 5 0.000000 0.000000 0.000000 0.000000 0.018427 0.000000
# 6 0.000000 0.000000 0.000000 0.000000 0.000000 0.030139
#
#
# Mechanical properties :
#
#
# Convention : Reuss Voigt Hill
#
# Bulk Modulus (GPa) = 50.06606 52.03656 51.05131
# Shear Modulus (GPa) = 24.04165 33.23062 28.63613
#
# Velocity S-wave (km/s) = 3.27489 3.85020 3.57414
# Velocity P-wave (km/s) = 6.05261 6.55581 6.30923
#
# Compressibility (1/GPa) = 0.01997361
#
# Stress axis : x y z
#
# Youngs Moduli (GPa) = 76.54421 103.29348 67.36004
#
# Poissons Ratio (x) = 0.35290 0.29350
# Poissons Ratio (y) = 0.26151 0.06972
# Poissons Ratio (z) = 0.33352 0.10691
#
# Static dielectric constant tensor:
#      x y z
#    x 4.504010 0.000000 0.000000 
#    y 0.000000 3.962150 0.000000 
#    z 0.000000 0.000000 3.698830 
# 
# 
# High freq. dielectric constant tensor:
#      x y z
#    x 1.910080 0.000000 0.000000 
#    y 0.000000 1.865510 0.000000 
#    z 0.000000 0.000000 1.866700 
# 
# From -- ./inp_files/6490.got.cif
#   From: 2010.03.12/outbox.cif.g09.slc.cpg/sg45_4_cif.got.tgz:6490.got - 2010.04.14 02:50:11.
