data_PCOD8190968
_publ_section_title
;
Structure prediction by ZEFSAII (Michael W. Deem and Ramdas Pophale) SiO2 
 PCOD8190968
Probable space group: I B A 2
;
_chemical_formula_sum "Si O2"
_cell_formula_units_Z 56
_cell_length_a 16.749289
_cell_length_b 10.360709
_cell_length_c 14.817337
_cell_angle_alpha 90.000000
_cell_angle_beta 90.000000
_cell_angle_gamma 90.000000
_cell_volume 2571.319305
_symmetry_space_group_name_H-M "I B A 2"
_symmetry_group_IT_number 45
_symmetry_cell_setting 'orthorhombic'
loop_
_space_group_symop_operation_xyz
x,y,z
-x,-y,z
-x,y,1/2+z
x,-y,1/2+z
1/2+x,1/2+y,1/2+z
1/2-x,1/2-y,1/2+z
1/2-x,1/2+y,z
1/2+x,1/2-y,z
loop_
_atom_site_type_symbol
_atom_site_label
_atom_site_fract_x
_atom_site_fract_y
_atom_site_fract_z
Si Si1 0.950215 0.879705 0.052400
Si Si2 0.587008 0.952831 0.282938
Si Si3 0.831251 0.029345 0.162316
Si Si4 0.906731 0.705878 0.603369
Si Si5 0.242005 0.418879 0.337792
Si Si6 0.346278 0.770735 0.927872
Si Si7 0.802434 0.498383 0.023845
O O1 0.005624 0.756313 0.075735
O O2 0.902822 0.928521 0.142579
O O3 0.891939 0.852634 0.968433
O O4 0.000000 0.000000 0.015632
O O5 0.587058 0.897229 0.182929
O O6 0.600820 0.839373 0.353401
O O7 0.500000 0.000000 0.307999
O O8 0.653797 0.067635 0.292069
O O9 0.851446 0.173597 0.129553
O O10 0.809605 0.031064 0.268006
O O11 0.754710 0.978067 0.108177
O O12 0.866130 0.620401 0.523354
O O13 0.265389 0.276235 0.375422
O O14 0.243258 0.506586 0.427244
O O15 0.338480 0.857428 0.019771
#
# Coordination Sequence:
#
# PCOD8190968 Si02
#       7
#     8   8   8   8   8   8   8
#     4  10  25  45  67 102 141 186 230 284 369 424
#     4  11  26  45  66 107 139 177 236 294 365 419
#     4  11  22  45  71  99 141 181 236 290 347 432
#     4  11  24  45  68 101 141 182 231 294 359 430
#     4  11  23  45  70 101 140 182 238 287 349 429
#     4  11  24  46  69 101 137 182 238 291 354 424
#     4  11  24  41  72 101 135 178 239 291 350 414
#
# _framework density 21.778703
#
# number of rings (size 3 to 8) (size 9 to 14) (size 15 to 20)
#    0.000    1.143    4.286    0.857    6.000    0.000 
#    7.714    0.000    0.000    0.000    0.000    0.000 
#    0.000    0.000    0.000    0.000    0.000    0.000 
#
# Total GULP energy -346948.197010 kJ/mol
# GULP energy per Si atom -12391.007036 kJ/mol
# Density = 2.172913 g / cm^3
# Si number density = 21.778703 Si / 1000 Ang^3
#
#
#
# Elastic Constant Matrix: (Units=GPa)
#
#
# Indices 1 2 3 4 5 6 
#
# 1 127.7760 72.9549 37.1706 0.0000 0.0000 0.0000
# 2 72.9549 113.7927 40.7626 0.0000 0.0000 0.0000
# 3 37.1706 40.7626 100.4477 0.0000 0.0000 0.0000
# 4 0.0000 0.0000 0.0000 39.2736 0.0000 0.0000
# 5 0.0000 0.0000 0.0000 0.0000 26.7342 0.0000
# 6 0.0000 0.0000 0.0000 0.0000 0.0000 47.7171
#
#
#
# Elastic Compliance Matrix: (Units=1/GPa)
#
#
# Indices 1 2 3 4 5 6 
#
# 1 0.012565 -0.007477 -0.001615 0.000000 0.000000 0.000000
# 2 -0.007477 0.014732 -0.003211 0.000000 0.000000 0.000000
# 3 -0.001615 -0.003211 0.011856 0.000000 0.000000 0.000000
# 4 0.000000 0.000000 0.000000 0.025462 0.000000 0.000000
# 5 0.000000 0.000000 0.000000 0.000000 0.037405 0.000000
# 6 0.000000 0.000000 0.000000 0.000000 0.000000 0.020957
#
#
# Mechanical properties :
#
#
# Convention : Reuss Voigt Hill
#
# Bulk Modulus (GPa) = 68.74937 71.53252 70.14094
# Shear Modulus (GPa) = 32.80083 35.48690 34.14386
#
# Velocity S-wave (km/s) = 3.88506 4.04100 3.96380
# Velocity P-wave (km/s) = 7.19449 7.39523 7.29555
#
# Compressibility (1/GPa) = 0.01454559
#
# Stress axis : x y z
#
# Youngs Moduli (GPa) = 79.58416 67.87896 84.34206
#
# Poissons Ratio (x) = 0.50754 0.13625
# Poissons Ratio (y) = 0.59507 0.27086
# Poissons Ratio (z) = 0.12857 0.21799
#
# Static dielectric constant tensor:
#      x y z
#    x 4.178020 0.000000 0.000000 
#    y 0.000000 4.271040 0.000000 
#    z 0.000000 0.000000 3.867400 
# 
# 
# High freq. dielectric constant tensor:
#      x y z
#    x 1.855130 0.000000 0.000000 
#    y 0.000000 1.858870 0.000000 
#    z 0.000000 0.000000 1.854190 
# 
# From -- ./inp_files/6525.got.cif
#   From: 2010.03.12/outbox.cif.g09.slc.cpg/sg45_4_cif.got.tgz:6525.got - 2010.04.14 02:50:11.
