data_PCOD8190594
_publ_section_title
;
Structure prediction by ZEFSAII (Michael W. Deem and Ramdas Pophale) SiO2 
 PCOD8190594
Probable space group: I B A 2
;
_chemical_formula_sum "Si O2"
_cell_formula_units_Z 44
_cell_length_a 8.325128
_cell_length_b 27.666984
_cell_length_c 8.757031
_cell_angle_alpha 90.000000
_cell_angle_beta 90.000000
_cell_angle_gamma 90.000000
_cell_volume 2017.017311
_symmetry_space_group_name_H-M "I B A 2"
_symmetry_group_IT_number 45
_symmetry_cell_setting 'orthorhombic'
loop_
_space_group_symop_operation_xyz
x,y,z
-x,-y,z
-x,y,1/2+z
x,-y,1/2+z
1/2+x,1/2+y,1/2+z
1/2-x,1/2-y,1/2+z
1/2-x,1/2+y,z
1/2+x,1/2-y,z
loop_
_atom_site_type_symbol
_atom_site_label
_atom_site_fract_x
_atom_site_fract_y
_atom_site_fract_z
Si Si1 0.834463 0.782082 0.148860
Si Si2 0.632805 0.435725 0.237812
Si Si3 0.391988 0.353620 0.149650
Si Si4 0.172283 0.644216 0.364021
Si Si5 0.158265 0.693630 0.855710
Si Si6 0.500000 0.500000 0.997285
O O1 0.750333 0.809510 0.286634
O O2 0.884030 0.729554 0.214668
O O3 0.993715 0.809904 0.093361
O O4 0.710255 0.777025 0.007510
O O5 0.487668 0.401272 0.190246
O O6 0.796213 0.403865 0.258797
O O7 0.592725 0.460636 0.397972
O O8 0.639816 0.475587 0.103293
O O9 0.308254 0.339033 0.308048
O O10 0.257899 0.365192 0.024522
O O11 0.986223 0.656387 0.390814
#
# Coordination Sequence:
#
# PCOD8190594 Si02
#       6
#     8   8   8   8   8   4
#     4  11  24  41  63  90 128 182 228 261 318 399
#     4  10  21  40  70 103 125 170 219 266 330 401
#     4  11  23  41  63  93 130 169 222 268 320 405
#     4  11  23  40  62  98 133 171 219 281 331 387
#     4  12  25  41  65  92 134 176 221 279 331 377
#     4  10  20  40  74 100 128 172 226 268 318 426
#
# _framework density 21.814388000000001
#
# number of rings (size 3 to 8) (size 9 to 14) (size 15 to 20)
#    0.000    1.091    1.818    5.455    2.545    4.364 
#    0.000    1.818    0.000    6.545    0.000    0.000 
#    0.000    0.000    0.000    0.000    0.000    0.000 
#
# Total GULP energy -272772.855890 kJ/mol
# GULP energy per Si atom -12398.766177 kJ/mol
# Density = 2.176474 g / cm^3
# Si number density = 21.814388 Si / 1000 Ang^3
#
#
#
# Elastic Constant Matrix: (Units=GPa)
#
#
# Indices 1 2 3 4 5 6 
#
# 1 112.4761 47.8266 44.4269 -0.0006 -0.0007 -0.0002
# 2 47.8266 104.9410 51.3587 -0.0030 -0.0012 -0.0006
# 3 44.4269 51.3587 122.8892 -0.0127 -0.0002 0.0003
# 4 -0.0006 -0.0030 -0.0127 41.5858 -0.0008 -0.0014
# 5 -0.0007 -0.0012 -0.0002 -0.0008 33.1495 0.0004
# 6 -0.0002 -0.0006 0.0003 -0.0014 0.0004 25.8469
#
#
#
# Elastic Compliance Matrix: (Units=1/GPa)
#
#
# Indices 1 2 3 4 5 6 
#
# 1 0.011606 -0.004068 -0.002496 -0.000001 0.000000 0.000000
# 2 -0.004068 0.013405 -0.004132 0.000000 0.000000 0.000000
# 3 -0.002496 -0.004132 0.010766 0.000003 0.000000 0.000000
# 4 -0.000001 0.000000 0.000003 0.024047 0.000001 0.000001
# 5 0.000000 0.000000 0.000000 0.000001 0.030166 0.000000
# 6 0.000000 0.000000 0.000000 0.000001 0.000000 0.038689
#
#
# Mechanical properties :
#
#
# Convention : Reuss Voigt Hill
#
# Bulk Modulus (GPa) = 69.50774 69.72564 69.61669
# Shear Modulus (GPa) = 32.28566 33.22938 32.75752
#
# Velocity S-wave (km/s) = 3.85127 3.90715 3.87931
# Velocity P-wave (km/s) = 7.19088 7.23789 7.21442
#
# Compressibility (1/GPa) = 0.01438689
#
# Stress axis : x y z
#
# Youngs Moduli (GPa) = 86.15925 74.59733 92.88127
#
# Poissons Ratio (x) = 0.30347 0.23181
# Poissons Ratio (y) = 0.35051 0.38376
# Poissons Ratio (z) = 0.21503 0.30822
#
# Static dielectric constant tensor:
#      x y z
#    x 3.850490 0.000000 -0.000010 
#    y 0.000000 4.065160 0.000000 
#    z -0.000010 0.000000 4.071880 
# 
# 
# High freq. dielectric constant tensor:
#      x y z
#    x 1.830920 0.000000 0.000000 
#    y 0.000000 1.854260 0.000000 
#    z 0.000000 0.000000 1.876700 
# 
# From -- ./inp_files/1028.got.cif
#   From: 2010.03.12/outbox.cif.g09.slc.cpg/sg45_1_cif.got.tgz:1028.got - 2010.04.14 02:50:11.
