data_PCOD8190510
_publ_section_title
;
Structure prediction by ZEFSAII (Michael W. Deem and Ramdas Pophale) SiO2 
 PCOD8190510
Probable space group: I B A 2
;
_chemical_formula_sum "Si O2"
_cell_formula_units_Z 48
_cell_length_a 29.479876
_cell_length_b 16.026334
_cell_length_c 4.983655
_cell_angle_alpha 90.000000
_cell_angle_beta 90.000000
_cell_angle_gamma 90.000000
_cell_volume 2354.549429
_symmetry_space_group_name_H-M "I B A 2"
_symmetry_group_IT_number 45
_symmetry_cell_setting 'orthorhombic'
loop_
_space_group_symop_operation_xyz
x,y,z
-x,-y,z
-x,y,1/2+z
x,-y,1/2+z
1/2+x,1/2+y,1/2+z
1/2-x,1/2-y,1/2+z
1/2-x,1/2+y,z
1/2+x,1/2-y,z
loop_
_atom_site_type_symbol
_atom_site_label
_atom_site_fract_x
_atom_site_fract_y
_atom_site_fract_z
Si Si1 0.123719 0.726962 0.254630
Si Si2 0.472629 0.727434 0.526420
Si Si3 0.834167 0.445859 0.234950
Si Si4 0.769898 0.055259 0.705319
Si Si5 0.848817 0.824023 0.285603
Si Si6 0.071560 0.059014 0.458903
O O1 0.073733 0.731605 0.126943
O O2 0.134533 0.631360 0.320865
O O3 0.128247 0.784373 0.519496
O O4 0.158230 0.755171 0.018415
O O5 0.487702 0.756552 0.230336
O O6 0.467808 0.627554 0.493270
O O7 0.844942 0.521203 0.438343
O O8 0.781902 0.416754 0.248497
O O9 0.799798 0.138384 0.724101
O O10 0.781703 0.015681 0.419853
O O11 0.880493 0.894883 0.416793
O O12 0.066755 0.994544 0.222794
#
# Coordination Sequence:
#
# PCOD8190510 Si02
#       6
#     8   8   8   8   8   8
#     4  11  23  39  60  85 113 149 191 238 293 347
#     4  11  23  39  57  80 111 148 188 235 290 337
#     4  10  22  40  62  86 113 148 188 235 293 350
#     4  10  20  35  56  84 120 159 194 229 272 325
#     4  11  21  35  56  85 120 156 193 231 274 328
#     4  11  21  34  53  79 113 153 192 226 262 313
#
# _framework density 20.386066
#
# number of rings (size 3 to 8) (size 9 to 14) (size 15 to 20)
#    0.000    1.333    0.000    8.000    0.000    3.333 
#    0.000    0.000    0.000    3.000    0.000    0.000 
#    0.000    0.000    0.000    0.000    0.000    0.000 
#
# Total GULP energy -297543.489805 kJ/mol
# GULP energy per Si atom -12397.645409 kJ/mol
# Density = 2.033967 g / cm^3
# Si number density = 20.386066 Si / 1000 Ang^3
#
#
#
# Elastic Constant Matrix: (Units=GPa)
#
#
# Indices 1 2 3 4 5 6 
#
# 1 75.4672 44.6967 28.6544 0.0000 0.0000 0.0000
# 2 44.6967 68.3064 15.9460 0.0000 0.0000 0.0000
# 3 28.6544 15.9460 107.9533 0.0005 0.0003 -0.0003
# 4 0.0000 0.0000 0.0005 13.1425 -0.0003 0.0000
# 5 0.0000 0.0000 0.0003 -0.0003 28.5516 0.0001
# 6 0.0000 0.0000 -0.0003 0.0000 0.0001 21.4255
#
#
#
# Elastic Compliance Matrix: (Units=1/GPa)
#
#
# Indices 1 2 3 4 5 6 
#
# 1 0.023237 -0.014257 -0.004062 0.000000 0.000000 0.000000
# 2 -0.014257 0.023910 0.000252 0.000000 0.000000 0.000000
# 3 -0.004062 0.000252 0.010304 0.000000 0.000000 0.000000
# 4 0.000000 0.000000 0.000000 0.076089 0.000001 0.000000
# 5 0.000000 0.000000 0.000000 0.000001 0.035024 0.000000
# 6 0.000000 0.000000 0.000000 0.000000 0.000000 0.046673
#
#
# Mechanical properties :
#
#
# Convention : Reuss Voigt Hill
#
# Bulk Modulus (GPa) = 46.90803 47.81346 47.36075
# Shear Modulus (GPa) = 19.34406 23.45258 21.39832
#
# Velocity S-wave (km/s) = 3.08374 3.39547 3.24335
# Velocity P-wave (km/s) = 5.97822 6.23516 6.10804
#
# Compressibility (1/GPa) = 0.02131831
#
# Stress axis : x y z
#
# Youngs Moduli (GPa) = 43.03466 41.82322 97.04834
#
# Poissons Ratio (x) = 0.59628 0.39421
# Poissons Ratio (y) = 0.61355 -0.02450
# Poissons Ratio (z) = 0.17480 -0.01056
#
# Static dielectric constant tensor:
#      x y z
#    x 3.603450 0.000000 0.000000 
#    y 0.000000 3.576750 0.000000 
#    z 0.000000 0.000000 3.993980 
# 
# 
# High freq. dielectric constant tensor:
#      x y z
#    x 1.786360 0.000000 0.000000 
#    y 0.000000 1.772410 0.000000 
#    z 0.000000 0.000000 1.823450 
# 
# From -- ./inp_files/195.got.cif
#   From: 2010.03.12/outbox.cif.g09.slc.cpg/sg45_1_cif.got.tgz:195.got - 2010.04.14 02:50:11.
