data_PCOD8190117
_publ_section_title
;
Structure prediction by ZEFSAII (Michael W. Deem and Ramdas Pophale) SiO2 
 PCOD8190117
Probable space group: I M M 2
;
_chemical_formula_sum "Si O2"
_cell_formula_units_Z 40
_cell_length_a 28.396849
_cell_length_b 9.059630
_cell_length_c 9.425493
_cell_angle_alpha 90.000000
_cell_angle_beta 90.000000
_cell_angle_gamma 90.000000
_cell_volume 2424.848939
_symmetry_space_group_name_H-M "I M M 2"
_symmetry_group_IT_number 44
_symmetry_cell_setting 'orthorhombic'
loop_
_space_group_symop_operation_xyz
x,y,z
-x,-y,z
-x,y,z
x,-y,z
1/2+x,1/2+y,1/2+z
1/2-x,1/2-y,1/2+z
1/2-x,1/2+y,1/2+z
1/2+x,1/2-y,1/2+z
loop_
_atom_site_type_symbol
_atom_site_label
_atom_site_fract_x
_atom_site_fract_y
_atom_site_fract_z
Si Si1 0.364020 0.171219 0.206180
Si Si2 0.283920 0.171290 0.992638
Si Si3 0.552732 0.668777 0.304095
Si Si4 0.137782 0.168380 0.978166
Si Si5 0.296274 0.174224 0.670098
O O1 0.334761 0.199380 0.063663
O O2 0.417371 0.236341 0.188485
O O3 0.338523 0.256182 0.337856
O O4 0.367114 0.000000 0.245085
O O5 0.245080 0.268073 0.070188
O O6 0.269517 0.000000 0.004222
O O7 0.287513 0.224472 0.830904
O O8 0.500000 0.732540 0.321623
O O9 0.551269 0.500000 0.251425
O O10 0.580766 0.678701 0.455859
O O11 0.154329 0.254705 0.118273
O O12 0.155214 0.000000 0.987086
O O13 0.300232 0.000000 0.657697
#
# Coordination Sequence:
#
# PCOD8190117 Si02
#       5
#     8   8   8   8   8
#     4   9  17  31  51  75 101 130 166 205 247 296
#     4  10  22  36  49  70 102 134 167 208 252 300
#     4   8  16  31  52  77 104 132 165 209 254 296
#     4   9  18  32  50  73 101 130 163 205 250 295
#     4  11  22  34  50  71  98 133 171 209 248 298
#
# _framework density 16.495873
#
# number of rings (size 3 to 8) (size 9 to 14) (size 15 to 20)
#    1.200    1.400    0.000    2.400    0.000    6.800 
#    0.000    0.000    0.000    1.200    0.000    5.600 
#    0.000    0.000    0.000    0.000    0.000    0.000 
#
# Total GULP energy -247787.016608 kJ/mol
# GULP energy per Si atom -12389.350830 kJ/mol
# Density = 1.645833 g / cm^3
# Si number density = 16.495873 Si / 1000 Ang^3
#
#
#
# Elastic Constant Matrix: (Units=GPa)
#
#
# Indices 1 2 3 4 5 6 
#
# 1 102.4713 37.9568 43.5863 0.0000 0.0000 0.0000
# 2 37.9568 82.6627 46.1195 0.0000 0.0000 0.0000
# 3 43.5863 46.1195 103.8108 0.0000 0.0000 0.0000
# 4 0.0000 0.0000 0.0000 23.2430 0.0000 0.0000
# 5 0.0000 0.0000 0.0000 0.0000 22.3840 0.0000
# 6 0.0000 0.0000 0.0000 0.0000 0.0000 24.2627
#
#
#
# Elastic Compliance Matrix: (Units=1/GPa)
#
#
# Indices 1 2 3 4 5 6 
#
# 1 0.012721 -0.003804 -0.003651 0.000000 0.000000 0.000000
# 2 -0.003804 0.017222 -0.006054 0.000000 0.000000 0.000000
# 3 -0.003651 -0.006054 0.013855 0.000000 0.000000 0.000000
# 4 0.000000 0.000000 0.000000 0.043024 0.000000 0.000000
# 5 0.000000 0.000000 0.000000 0.000000 0.044675 0.000000
# 6 0.000000 0.000000 0.000000 0.000000 0.000000 0.041216
#
#
# Mechanical properties :
#
#
# Convention : Reuss Voigt Hill
#
# Bulk Modulus (GPa) = 59.59455 60.47445 60.03450
# Shear Modulus (GPa) = 24.35187 24.73008 24.54098
#
# Velocity S-wave (km/s) = 3.84636 3.87611 3.86126
# Velocity P-wave (km/s) = 7.47872 7.53474 7.50678
#
# Compressibility (1/GPa) = 0.01678006
#
# Stress axis : x y z
#
# Youngs Moduli (GPa) = 78.61088 58.06636 72.17456
#
# Poissons Ratio (x) = 0.22089 0.26351
# Poissons Ratio (y) = 0.29905 0.43693
# Poissons Ratio (z) = 0.28701 0.35152
#
# Static dielectric constant tensor:
#      x y z
#    x 3.105410 0.000000 0.000000 
#    y 0.000000 3.151150 0.000000 
#    z 0.000000 0.000000 2.974800 
# 
# 
# High freq. dielectric constant tensor:
#      x y z
#    x 1.624900 0.000000 0.000000 
#    y 0.000000 1.646600 0.000000 
#    z 0.000000 0.000000 1.607530 
# 
# From -- ./inp_files/9855.got.cif
#   From: 2010.03.12/outbox.cif.g09.slc.cpg/sg44_5_cif.got.tgz:9855.got - 2010.04.14 02:36:11.
