data_PCOD8190917
_publ_section_title
;
Structure prediction by ZEFSAII (Michael W. Deem and Ramdas Pophale) SiO2 
 PCOD8190917
Probable space group: I B A 2
;
_chemical_formula_sum "Si O2"
_cell_formula_units_Z 28
_cell_length_a 9.231141
_cell_length_b 14.658001
_cell_length_c 8.472873
_cell_angle_alpha 90.000000
_cell_angle_beta 90.000000
_cell_angle_gamma 90.000000
_cell_volume 1146.465073
_symmetry_space_group_name_H-M "I B A 2"
_symmetry_group_IT_number 45
_symmetry_cell_setting 'orthorhombic'
loop_
_space_group_symop_operation_xyz
x,y,z
-x,-y,z
-x,y,1/2+z
x,-y,1/2+z
1/2+x,1/2+y,1/2+z
1/2-x,1/2-y,1/2+z
1/2-x,1/2+y,z
1/2+x,1/2-y,z
loop_
_atom_site_type_symbol
_atom_site_label
_atom_site_fract_x
_atom_site_fract_y
_atom_site_fract_z
Si Si1 0.396096 0.701662 0.915150
Si Si2 0.789320 0.546791 0.533161
Si Si3 0.690854 0.659959 0.057133
Si Si4 0.000000 0.500000 0.780360
O O1 0.335562 0.620557 0.026189
O O2 0.351246 0.690536 0.733339
O O3 0.568663 0.694726 0.934554
O O4 0.338847 0.795172 0.992814
O O5 0.714925 0.448160 0.548350
O O6 0.889850 0.561111 0.379866
O O7 0.899358 0.567128 0.676804
#
# Coordination Sequence:
#
# PCOD8190917 Si02
#       4
#     8   8   8   4
#     4  12  29  47  74 105 144 187 237 293 354 421
#     4  11  25  46  74 102 146 184 236 286 358 410
#     4  12  29  47  74 105 144 187 237 293 354 421
#     4  10  24  42  78 106 136 184 238 290 348 422
#
# _framework density 24.422898
#
# number of rings (size 3 to 8) (size 9 to 14) (size 15 to 20)
#    0.000    0.571    2.857    2.571   16.000    2.286 
#    0.000    0.000    0.000    0.000    0.000    0.000 
#    0.000    0.000    0.000    0.000    0.000    0.000 
#
# Total GULP energy -173605.867812 kJ/mol
# GULP energy per Si atom -12400.419129 kJ/mol
# Density = 2.436731 g / cm^3
# Si number density = 24.422898 Si / 1000 Ang^3
#
#
#
# Elastic Constant Matrix: (Units=GPa)
#
#
# Indices 1 2 3 4 5 6 
#
# 1 99.6977 0.6527 15.8409 -0.0002 0.0000 -0.0001
# 2 0.6527 77.0923 -1.6650 0.0001 0.0009 0.0000
# 3 15.8409 -1.6650 127.0680 0.0011 0.0049 0.0001
# 4 -0.0002 0.0001 0.0011 22.6807 0.0025 0.0001
# 5 0.0000 0.0009 0.0049 0.0025-1078.3886 0.0003
# 6 -0.0001 0.0000 0.0001 0.0001 0.0003 23.9605
#
#
#
# Elastic Compliance Matrix: (Units=1/GPa)
#
#
# Indices 1 2 3 4 5 6 
#
# 1 0.010234 -0.000114 -0.001277 0.000000 0.000000 0.000000
# 2 -0.000114 0.012976 0.000184 0.000000 0.000000 0.000000
# 3 -0.001277 0.000184 0.008031 0.000000 0.000000 0.000000
# 4 0.000000 0.000000 0.000000 0.044090 0.000000 0.000000
# 5 0.000000 0.000000 0.000000 0.000000 -0.000927 0.000000
# 6 0.000000 0.000000 0.000000 0.000000 0.000000 0.041735
#
#
# Mechanical properties :
#
#
# Convention : Reuss Voigt Hill
#
# Bulk Modulus (GPa) = 34.68929 37.05723 35.87326
# Shear Modulus (GPa) = 39.01255 -187.08086 -74.03416
#
# Velocity S-wave (km/s) = 4.00105 -8.76167 -5.51174
# Velocity P-wave (km/s) = 5.96481 9.33540 5.07793
#
# Compressibility (1/GPa) = 0.02882734
#
# Stress axis : x y z
#
# Youngs Moduli (GPa) = 97.71328 77.06288 124.51049
#
# Poissons Ratio (x) = 0.00880 0.15904
# Poissons Ratio (y) = 0.01116 -0.02294
# Poissons Ratio (z) = 0.12481 -0.01420
#
# Static dielectric constant tensor:
#      x y z
#    x 5.210760 0.000000 0.000000 
#    y 0.000000 4.083240 0.000000 
#    z 0.000000 0.000000 4.738870 
# 
# 
# High freq. dielectric constant tensor:
#      x y z
#    x 1.984380 0.000000 0.000000 
#    y 0.000000 1.958790 0.000000 
#    z 0.000000 0.000000 1.988400 
# 
# From -- ./inp_files/863.got.cif
#   From: 2010.03.12/outbox.cif.g09.slc.cpg/sg45_1_cif.got.tgz:863.got - 2010.04.14 02:50:11.
