data_PCOD8190545
_publ_section_title
;
Structure prediction by ZEFSAII (Michael W. Deem and Ramdas Pophale) SiO2 
 PCOD8190545
Probable space group: I B A 2
;
_chemical_formula_sum "Si O2"
_cell_formula_units_Z 52
_cell_length_a 9.533995
_cell_length_b 16.854089
_cell_length_c 16.154032
_cell_angle_alpha 90.000000
_cell_angle_beta 90.000000
_cell_angle_gamma 90.000000
_cell_volume 2595.739713
_symmetry_space_group_name_H-M "I B A 2"
_symmetry_group_IT_number 45
_symmetry_cell_setting 'orthorhombic'
loop_
_space_group_symop_operation_xyz
x,y,z
-x,-y,z
-x,y,1/2+z
x,-y,1/2+z
1/2+x,1/2+y,1/2+z
1/2-x,1/2-y,1/2+z
1/2-x,1/2+y,z
1/2+x,1/2-y,z
loop_
_atom_site_type_symbol
_atom_site_label
_atom_site_fract_x
_atom_site_fract_y
_atom_site_fract_z
Si Si1 0.757959 0.171994 0.509760
Si Si2 0.500000 0.000000 0.730065
Si Si3 0.186145 0.200574 0.823131
Si Si4 0.502517 0.234073 0.089872
Si Si5 0.284937 0.462839 0.635915
Si Si6 0.519577 0.829465 0.765061
Si Si7 0.056385 0.112338 0.680130
O O1 0.813026 0.170062 0.416755
O O2 0.594293 0.196561 0.517488
O O3 0.776759 0.083983 0.548591
O O4 0.846567 0.240150 0.556358
O O5 0.632934 0.025887 0.675220
O O6 0.471056 0.076767 0.788542
O O7 0.343795 0.217306 0.794478
O O8 0.117896 0.128398 0.771299
O O9 0.108942 0.284871 0.809639
O O10 0.514766 0.171370 0.164857
O O11 0.422496 0.309479 0.126623
O O12 0.356191 0.548559 0.626823
O O13 0.392773 0.411705 0.693155
#
# Coordination Sequence:
#
# PCOD8190545 Si02
#       7
#     8   4   8   8   8   8   8
#     4  11  22  38  61  93 125 160 207 272 322 381
#     4  12  22  38  66  98 120 164 226 276 310 384
#     4  11  23  40  62  94 130 166 217 271 335 391
#     4  10  20  37  62  86 117 166 218 249 311 391
#     4  10  21  39  62  90 121 161 214 257 320 384
#     4  11  23  40  66  92 125 174 223 266 322 407
#     4   9  20  39  62  84 120 168 216 253 308 403
#
# _framework density 20.032824999999999
#
# number of rings (size 3 to 8) (size 9 to 14) (size 15 to 20)
#    0.000    1.538    3.077    2.769    4.308    0.000 
#    0.000    8.462    0.000    0.000    0.000    0.000 
#    0.000    0.000    0.000    0.000    0.000    0.000 
#
# Total GULP energy -322246.674783 kJ/mol
# GULP energy per Si atom -12394.102876 kJ/mol
# Density = 1.998723 g / cm^3
# Si number density = 20.032825 Si / 1000 Ang^3
#
#
#
# Elastic Constant Matrix: (Units=GPa)
#
#
# Indices 1 2 3 4 5 6 
#
# 1 121.4130 41.5593 30.7638 0.0000 0.0000 0.0000
# 2 41.5593 127.0100 31.3925 0.0000 0.0000 0.0000
# 3 30.7638 31.3925 86.9251 0.0000 0.0000 0.0000
# 4 0.0000 0.0000 0.0000 19.8941 0.0000 0.0000
# 5 0.0000 0.0000 0.0000 0.0000 25.4959 0.0000
# 6 0.0000 0.0000 0.0000 0.0000 0.0000 25.3632
#
#
#
# Elastic Compliance Matrix: (Units=1/GPa)
#
#
# Indices 1 2 3 4 5 6 
#
# 1 0.009755 -0.002568 -0.002525 0.000000 0.000000 0.000000
# 2 -0.002568 0.009321 -0.002457 0.000000 0.000000 0.000000
# 3 -0.002525 -0.002457 0.013285 0.000000 0.000000 0.000000
# 4 0.000000 0.000000 0.000000 0.050266 0.000000 0.000000
# 5 0.000000 0.000000 0.000000 0.000000 0.039222 0.000000
# 6 0.000000 0.000000 0.000000 0.000000 0.000000 0.039427
#
#
# Mechanical properties :
#
#
# Convention : Reuss Voigt Hill
#
# Bulk Modulus (GPa) = 57.93519 60.30882 59.12200
# Shear Modulus (GPa) = 27.45271 29.59278 28.52275
#
# Velocity S-wave (km/s) = 3.70589 3.84762 3.77742
# Velocity P-wave (km/s) = 6.87709 7.06465 6.97150
#
# Compressibility (1/GPa) = 0.01726067
#
# Stress axis : x y z
#
# Youngs Moduli (GPa) = 102.51006 107.28414 75.27114
#
# Poissons Ratio (x) = 0.27549 0.19007
# Poissons Ratio (y) = 0.26324 0.18497
# Poissons Ratio (z) = 0.25885 0.26364
#
# Static dielectric constant tensor:
#      x y z
#    x 3.873250 0.000000 0.000000 
#    y 0.000000 3.839470 0.000000 
#    z 0.000000 0.000000 3.387870 
# 
# 
# High freq. dielectric constant tensor:
#      x y z
#    x 1.802660 0.000000 0.000000 
#    y 0.000000 1.787970 0.000000 
#    z 0.000000 0.000000 1.742530 
# 
# From -- ./inp_files/7657.got.cif
#   From: 2010.03.12/outbox.cif.g09.slc.cpg/sg45_4_cif.got.tgz:7657.got - 2010.04.14 02:50:11.
