data_PCOD8190156
_publ_section_title
;
Structure prediction by ZEFSAII (Michael W. Deem and Ramdas Pophale) SiO2 
 PCOD8190156
Probable space group: I M M 2
;
_chemical_formula_sum "Si O2"
_cell_formula_units_Z 48
_cell_length_a 13.210268
_cell_length_b 16.894377
_cell_length_c 9.698780
_cell_angle_alpha 90.000000
_cell_angle_beta 90.000000
_cell_angle_gamma 90.000000
_cell_volume 2164.566426
_symmetry_space_group_name_H-M "I M M 2"
_symmetry_group_IT_number 44
_symmetry_cell_setting 'orthorhombic'
loop_
_space_group_symop_operation_xyz
x,y,z
-x,-y,z
-x,y,z
x,-y,z
1/2+x,1/2+y,1/2+z
1/2-x,1/2-y,1/2+z
1/2-x,1/2+y,1/2+z
1/2+x,1/2-y,1/2+z
loop_
_atom_site_type_symbol
_atom_site_label
_atom_site_fract_x
_atom_site_fract_y
_atom_site_fract_z
Si Si1 0.383571 0.086568 0.611860
Si Si2 0.684082 0.644417 0.461848
Si Si3 0.380868 0.500000 0.950955
Si Si4 0.385870 0.192020 0.859682
Si Si5 0.681396 0.355533 0.767965
Si Si6 0.381233 0.500000 0.278533
Si Si7 0.887743 0.693460 0.853519
O O1 0.500000 0.073663 0.644710
O O2 0.341550 0.144278 0.728735
O O3 0.368327 0.126260 0.465831
O O4 0.328859 0.000000 0.614587
O O5 0.802707 0.670515 0.474921
O O6 0.648776 0.616276 0.614580
O O7 0.667786 0.576410 0.349601
O O8 0.616949 0.719530 0.418968
O O9 0.500000 0.500000 0.919983
O O10 0.329607 0.575794 0.880259
O O11 0.359231 0.500000 0.114610
O O12 0.500000 0.167649 0.905805
O O13 0.388757 0.284524 0.822216
O O14 0.796541 0.322543 0.748411
O O15 0.500000 0.500000 0.307508
O O16 0.000000 0.683733 0.786082
#
# Coordination Sequence:
#
# PCOD8190156 Si02
#       7
#     8   8   4   8   8   4   8
#     4   9  18  34  60  91 121 167 216 260 316 380
#     4  11  24  41  65  97 132 174 221 271 330 392
#     4  11  27  47  68  95 128 170 222 278 332 391
#     4  10  22  39  63  94 132 174 218 267 325 391
#     4  11  24  41  65  97 132 174 221 271 330 392
#     4  11  27  47  68  95 128 170 222 278 332 391
#     4  10  22  39  63  94 132 174 218 267 325 391
#
# _framework density 22.175342000000001
#
# number of rings (size 3 to 8) (size 9 to 14) (size 15 to 20)
#    0.000    1.667    1.667    1.500    4.667    4.667 
#    0.000    0.000    0.000    2.000    0.000    0.000 
#    0.000    0.000    0.000    0.000    0.000    0.000 
#
# Total GULP energy -297455.805360 kJ/mol
# GULP energy per Si atom -12393.991890 kJ/mol
# Density = 2.212487 g / cm^3
# Si number density = 22.175342 Si / 1000 Ang^3
#
#
#
# Elastic Constant Matrix: (Units=GPa)
#
#
# Indices 1 2 3 4 5 6 
#
# 1 123.8394 17.1468 13.2947 0.0000 0.0000 0.0000
# 2 17.1468 158.8285 47.9746 0.0000 0.0000 0.0000
# 3 13.2947 47.9746 108.0008 0.0000 0.0000 0.0000
# 4 0.0000 0.0000 0.0000 21.7155 0.0000 0.0000
# 5 0.0000 0.0000 0.0000 0.0000 19.2621 0.0000
# 6 0.0000 0.0000 0.0000 0.0000 0.0000 26.4681
#
#
#
# Elastic Compliance Matrix: (Units=1/GPa)
#
#
# Indices 1 2 3 4 5 6 
#
# 1 0.008245 -0.000674 -0.000716 0.000000 0.000000 0.000000
# 2 -0.000674 0.007327 -0.003172 0.000000 0.000000 0.000000
# 3 -0.000716 -0.003172 0.010756 0.000000 0.000000 0.000000
# 4 0.000000 0.000000 0.000000 0.046050 0.000000 0.000000
# 5 0.000000 0.000000 0.000000 0.000000 0.051915 0.000000
# 6 0.000000 0.000000 0.000000 0.000000 0.000000 0.037781
#
#
# Mechanical properties :
#
#
# Convention : Reuss Voigt Hill
#
# Bulk Modulus (GPa) = 58.12035 60.83345 59.47690
# Shear Modulus (GPa) = 28.25935 34.30598 31.28267
#
# Velocity S-wave (km/s) = 3.57369 3.93750 3.76000
# Velocity P-wave (km/s) = 6.57987 6.94005 6.76236
#
# Compressibility (1/GPa) = 0.01720568
#
# Stress axis : x y z
#
# Youngs Moduli (GPa) = 121.28389 136.48383 92.97003
#
# Poissons Ratio (x) = 0.09199 0.06653
# Poissons Ratio (y) = 0.08174 0.29487
# Poissons Ratio (z) = 0.08679 0.43288
#
# Static dielectric constant tensor:
#      x y z
#    x 4.093880 0.000000 0.000000 
#    y 0.000000 4.070430 0.000000 
#    z 0.000000 0.000000 3.715540 
# 
# 
# High freq. dielectric constant tensor:
#      x y z
#    x 1.886810 0.000000 0.000000 
#    y 0.000000 1.876960 0.000000 
#    z 0.000000 0.000000 1.855180 
# 
# From -- ./inp_files/7152.got.cif
#   From: 2010.03.12/outbox.cif.g09.slc.cpg/sg44_4_cif.got.tgz:7152.got - 2010.04.14 02:36:11.
