data_PCOD8190691
_publ_section_title
;
Structure prediction by ZEFSAII (Michael W. Deem and Ramdas Pophale) SiO2 
 PCOD8190691
Probable space group: I B A 2
;
_chemical_formula_sum "Si O2"
_cell_formula_units_Z 60
_cell_length_a 29.621738
_cell_length_b 5.133281
_cell_length_c 17.378811
_cell_angle_alpha 90.000000
_cell_angle_beta 90.000000
_cell_angle_gamma 90.000000
_cell_volume 2642.564735
_symmetry_space_group_name_H-M "I B A 2"
_symmetry_group_IT_number 45
_symmetry_cell_setting 'orthorhombic'
loop_
_space_group_symop_operation_xyz
x,y,z
-x,-y,z
-x,y,1/2+z
x,-y,1/2+z
1/2+x,1/2+y,1/2+z
1/2-x,1/2-y,1/2+z
1/2-x,1/2+y,z
1/2+x,1/2-y,z
loop_
_atom_site_type_symbol
_atom_site_label
_atom_site_fract_x
_atom_site_fract_y
_atom_site_fract_z
Si Si1 0.500000 0.500000 0.458791
Si Si2 0.319009 0.657556 0.758906
Si Si3 0.109563 0.797251 0.710888
Si Si4 0.526595 0.260957 0.106901
Si Si5 0.639110 0.754708 0.416312
Si Si6 0.295646 0.151640 0.693622
Si Si7 0.416498 0.747088 0.382515
Si Si8 0.722828 0.216655 0.018951
O O1 0.470785 0.307591 0.514383
O O2 0.467684 0.681702 0.407250
O O3 0.367088 0.586698 0.717001
O O4 0.327770 0.773116 0.842969
O O5 0.289117 0.389430 0.755481
O O6 0.282983 0.853971 0.717186
O O7 0.076842 0.766362 0.638785
O O8 0.149687 0.593165 0.694717
O O9 0.083649 0.736267 0.790308
O O10 0.500000 0.500000 0.147058
O O11 0.500000 0.000000 0.127871
O O12 0.616274 0.472863 0.416398
O O13 0.671236 0.783924 0.490205
O O14 0.600769 0.978110 0.416472
O O15 0.277720 0.233764 0.611033
O O16 0.750632 0.464465 0.988401
#
# Coordination Sequence:
#
# PCOD8190691 Si02
#       8
#     4   8   8   8   8   8   8   8
#     4  10  28  40  62 100 144 170 230 280 338 382
#     4   9  19  40  67  95 114 163 228 269 314 402
#     4   9  22  39  66  89 121 169 224 268 321 393
#     4  10  25  38  55  88 130 166 216 262 333 380
#     4  11  23  45  70  93 133 177 226 269 349 413
#     4  10  21  39  68  90 127 162 221 265 331 392
#     4  11  24  41  69  96 132 178 230 280 331 403
#     4  12  27  44  65 103 139 174 219 279 345 412
#
# _framework density 22.705217000000001
#
# number of rings (size 3 to 8) (size 9 to 14) (size 15 to 20)
#    1.200    0.533    1.333    1.600    6.533    1.067 
#    0.000    4.000    0.000    0.000    0.000    0.000 
#    0.000    0.000    0.000    0.000    0.000    0.000 
#
# Total GULP energy -371676.011887 kJ/mol
# GULP energy per Si atom -12389.200396 kJ/mol
# Density = 2.265354 g / cm^3
# Si number density = 22.705217 Si / 1000 Ang^3
#
#
#
# Elastic Constant Matrix: (Units=GPa)
#
#
# Indices 1 2 3 4 5 6 
#
# 1 92.4942 1.7329 33.0632 0.0000 0.0000 0.0000
# 2 1.7329 140.7745 10.1134 0.0000 0.0000 0.0000
# 3 33.0632 10.1134 56.8700 0.0000 0.0000 0.0000
# 4 0.0000 0.0000 0.0000 14.4507 0.0000 0.0000
# 5 0.0000 0.0000 0.0000 0.0000 47.2913 0.0000
# 6 0.0000 0.0000 0.0000 0.0000 0.0000 -122.6984
#
#
#
# Elastic Compliance Matrix: (Units=1/GPa)
#
#
# Indices 1 2 3 4 5 6 
#
# 1 0.013671 0.000408 -0.008021 0.000000 0.000000 0.000000
# 2 0.000408 0.007208 -0.001519 0.000000 0.000000 0.000000
# 3 -0.008021 -0.001519 0.022517 0.000000 0.000000 0.000000
# 4 0.000000 0.000000 0.000000 0.069201 0.000000 0.000000
# 5 0.000000 0.000000 0.000000 0.000000 0.021146 0.000000
# 6 0.000000 0.000000 0.000000 0.000000 0.000000 -0.008150
#
#
# Mechanical properties :
#
#
# Convention : Reuss Voigt Hill
#
# Bulk Modulus (GPa) = 39.78906 42.21750 41.00328
# Shear Modulus (GPa) = 32.84444 4.15732 18.50088
#
# Velocity S-wave (km/s) = 3.80749 1.35461 2.85762
# Velocity P-wave (km/s) = 6.07384 4.59138 5.38388
#
# Compressibility (1/GPa) = 0.02513254
#
# Stress axis : x y z
#
# Youngs Moduli (GPa) = 73.14806 138.74129 44.41068
#
# Poissons Ratio (x) = -0.05660 0.35620
# Poissons Ratio (y) = -0.02984 0.06746
# Poissons Ratio (z) = 0.58669 0.21074
#
# Static dielectric constant tensor:
#      x y z
#    x 4.029510 0.000000 0.000000 
#    y 0.000000 4.408260 0.000000 
#    z 0.000000 0.000000 3.741980 
# 
# 
# High freq. dielectric constant tensor:
#      x y z
#    x 1.905260 0.000000 0.000000 
#    y 0.000000 1.907690 0.000000 
#    z 0.000000 0.000000 1.871270 
# 
# From -- ./inp_files/8547.got.cif
#   From: 2010.03.12/outbox.cif.g09.slc.cpg/sg45_5_cif.got.tgz:8547.got - 2010.04.14 02:50:11.
