data_PCOD8190680
_publ_section_title
;
Structure prediction by ZEFSAII (Michael W. Deem and Ramdas Pophale) SiO2 
 PCOD8190680
Probable space group: I B A 2
;
_chemical_formula_sum "Si O2"
_cell_formula_units_Z 56
_cell_length_a 19.088465
_cell_length_b 12.734448
_cell_length_c 10.788519
_cell_angle_alpha 90.000000
_cell_angle_beta 90.000000
_cell_angle_gamma 90.000000
_cell_volume 2622.484688
_symmetry_space_group_name_H-M "I B A 2"
_symmetry_group_IT_number 45
_symmetry_cell_setting 'orthorhombic'
loop_
_space_group_symop_operation_xyz
x,y,z
-x,-y,z
-x,y,1/2+z
x,-y,1/2+z
1/2+x,1/2+y,1/2+z
1/2-x,1/2-y,1/2+z
1/2-x,1/2+y,z
1/2+x,1/2-y,z
loop_
_atom_site_type_symbol
_atom_site_label
_atom_site_fract_x
_atom_site_fract_y
_atom_site_fract_z
Si Si1 0.858605 0.519439 0.252250
Si Si2 0.500000 0.000000 0.403544
Si Si3 0.752932 0.332607 0.886732
Si Si4 0.101862 0.139437 0.953873
Si Si5 0.548463 0.292329 0.709439
Si Si6 0.940115 0.661743 0.085777
Si Si7 0.000000 0.000000 0.576568
Si Si8 0.304085 0.202789 0.163051
O O1 0.808440 0.580231 0.347108
O O2 0.878190 0.586046 0.131034
O O3 0.819949 0.416119 0.203609
O O4 0.931077 0.500088 0.320742
O O5 0.489619 0.104800 0.485233
O O6 0.677908 0.389119 0.901623
O O7 0.746149 0.247359 0.774271
O O8 0.771519 0.287458 0.024284
O O9 0.050258 0.190959 0.854487
O O10 0.103537 0.233755 0.052015
O O11 0.068515 0.029957 0.997326
O O12 0.495683 0.195250 0.691044
O O13 0.519648 0.399120 0.653776
O O14 0.624665 0.268515 0.653846
#
# Coordination Sequence:
#
# PCOD8190680 Si02
#       8
#     8   4   8   8   8   8   4   8
#     4  12  24  40  67  97 130 173 221 273 334 399
#     4  12  22  38  64  96 130 168 216 274 334 396
#     4  11  25  43  64  94 133 176 220 275 334 401
#     4  10  22  40  60  88 126 165 214 269 322 387
#     4  10  21  39  62  90 125 163 212 267 322 384
#     4  11  21  37  62  93 126 166 216 271 328 392
#     4  10  22  38  64  90 120 164 214 266 326 388
#     4  11  25  44  65  95 133 175 222 274 332 402
#
# _framework density 21.353795999999999
#
# number of rings (size 3 to 8) (size 9 to 14) (size 15 to 20)
#    0.000    1.143    0.000    7.714    0.000    5.714 
#    0.000    0.000    0.000    0.000    0.000    0.000 
#    0.000    0.000    0.000    0.000    0.000    0.000 
#
# Total GULP energy -346989.604947 kJ/mol
# GULP energy per Si atom -12392.485891 kJ/mol
# Density = 2.130519 g / cm^3
# Si number density = 21.353796 Si / 1000 Ang^3
#
#
#
# Elastic Constant Matrix: (Units=GPa)
#
#
# Indices 1 2 3 4 5 6 
#
# 1 96.1859 42.7931 45.1396 0.0000 0.0000 0.0000
# 2 42.7931 101.9002 34.6952 0.0000 0.0000 0.0000
# 3 45.1396 34.6952 115.6306 0.0000 0.0000 0.0000
# 4 0.0000 0.0000 0.0000 11.6169 0.0000 0.0000
# 5 0.0000 0.0000 0.0000 0.0000 37.8521 0.0000
# 6 0.0000 0.0000 0.0000 0.0000 0.0000 7.4478
#
#
#
# Elastic Compliance Matrix: (Units=1/GPa)
#
#
# Indices 1 2 3 4 5 6 
#
# 1 0.014448 -0.004619 -0.004254 0.000000 0.000000 0.000000
# 2 -0.004619 0.012407 -0.001920 0.000000 0.000000 0.000000
# 3 -0.004254 -0.001920 0.010885 0.000000 0.000000 0.000000
# 4 0.000000 0.000000 0.000000 0.086081 0.000000 0.000000
# 5 0.000000 0.000000 0.000000 0.000000 0.026419 0.000000
# 6 0.000000 0.000000 0.000000 0.000000 0.000000 0.134268
#
#
# Mechanical properties :
#
#
# Convention : Reuss Voigt Hill
#
# Bulk Modulus (GPa) = 61.90314 62.10805 62.00559
# Shear Modulus (GPa) = 16.05249 24.12262 20.08755
#
# Velocity S-wave (km/s) = 2.74476 3.36469 3.07041
# Velocity P-wave (km/s) = 6.25277 6.65156 6.45525
#
# Compressibility (1/GPa) = 0.01615427
#
# Stress axis : x y z
#
# Youngs Moduli (GPa) = 69.21368 80.60074 91.86990
#
# Poissons Ratio (x) = 0.37229 0.39084
# Poissons Ratio (y) = 0.31970 0.17635
# Poissons Ratio (z) = 0.29445 0.15472
#
# Static dielectric constant tensor:
#      x y z
#    x 4.066780 0.000000 0.000000 
#    y 0.000000 4.054140 0.000000 
#    z 0.000000 0.000000 4.116790 
# 
# 
# High freq. dielectric constant tensor:
#      x y z
#    x 1.843320 0.000000 0.000000 
#    y 0.000000 1.840680 0.000000 
#    z 0.000000 0.000000 1.848750 
# 
# From -- ./inp_files/3788.got.cif
#   From: 2010.03.12/outbox.cif.g09.slc.cpg/sg45_2_cif.got.tgz:3788.got - 2010.04.14 02:50:11.
