data_PCOD8190974
_publ_section_title
;
Structure prediction by ZEFSAII (Michael W. Deem and Ramdas Pophale) SiO2 
 PCOD8190974
Probable space group: I B A 2
;
_chemical_formula_sum "Si O2"
_cell_formula_units_Z 52
_cell_length_a 15.377403
_cell_length_b 17.527669
_cell_length_c 8.567337
_cell_angle_alpha 90.000000
_cell_angle_beta 90.000000
_cell_angle_gamma 90.000000
_cell_volume 2309.154597
_symmetry_space_group_name_H-M "I B A 2"
_symmetry_group_IT_number 45
_symmetry_cell_setting 'orthorhombic'
loop_
_space_group_symop_operation_xyz
x,y,z
-x,-y,z
-x,y,1/2+z
x,-y,1/2+z
1/2+x,1/2+y,1/2+z
1/2-x,1/2-y,1/2+z
1/2-x,1/2+y,z
1/2+x,1/2-y,z
loop_
_atom_site_type_symbol
_atom_site_label
_atom_site_fract_x
_atom_site_fract_y
_atom_site_fract_z
Si Si1 0.712476 0.340395 0.657020
Si Si2 0.386217 0.932886 0.869765
Si Si3 0.841761 0.272772 0.412653
Si Si4 0.500000 0.000000 0.613841
Si Si5 0.906631 0.868339 0.073099
Si Si6 0.286631 0.471200 0.396164
Si Si7 0.420248 0.602662 0.421686
O O1 0.789319 0.318602 0.543718
O O2 0.712695 0.274779 0.787172
O O3 0.726584 0.423273 0.736682
O O4 0.625264 0.344660 0.552985
O O5 0.381988 0.844085 0.821030
O O6 0.419001 0.971245 0.712641
O O7 0.298233 0.976858 0.927424
O O8 0.459367 0.934991 0.003823
O O9 0.908584 0.215898 0.496533
O O10 0.923978 0.854594 0.255315
O O11 0.814033 0.911855 0.036581
O O12 0.983732 0.915277 0.987559
O O13 0.369709 0.525474 0.381402
#
# Coordination Sequence:
#
# PCOD8190974 Si02
#       7
#     8   8   8   4   8   8   8
#     4  11  24  43  69 106 142 192 247 297 371 439
#     4  11  24  45  70  99 134 176 237 289 360 420
#     4  11  24  43  68 102 141 187 239 298 363 437
#     4  10  26  44  68 100 130 178 232 298 348 426
#     4  11  26  42  68 106 149 190 237 298 367 434
#     4  11  24  43  73 102 140 191 243 302 362 447
#     4  12  24  45  69 106 146 192 244 297 363 439
#
# _framework density 22.519064
#
# number of rings (size 3 to 8) (size 9 to 14) (size 15 to 20)
#    0.000    0.923    1.538    5.077    2.154    4.923 
#    0.000    4.615    0.000    0.000    0.000    0.000 
#    0.000    0.000    0.000    0.000    0.000    0.000 
#
# Total GULP energy -322221.694596 kJ/mol
# GULP energy per Si atom -12393.142100 kJ/mol
# Density = 2.246781 g / cm^3
# Si number density = 22.519064 Si / 1000 Ang^3
#
#
#
# Elastic Constant Matrix: (Units=GPa)
#
#
# Indices 1 2 3 4 5 6 
#
# 1 89.4661 38.5937 17.3790 0.0000 0.0000 0.0000
# 2 38.5937 133.0734 26.9837 0.0000 0.0000 0.0000
# 3 17.3790 26.9837 107.3103 0.0000 0.0000 0.0000
# 4 0.0000 0.0000 0.0000 22.8218 0.0000 0.0000
# 5 0.0000 0.0000 0.0000 0.0000 38.1252 0.0000
# 6 0.0000 0.0000 0.0000 0.0000 0.0000 29.5346
#
#
#
# Elastic Compliance Matrix: (Units=1/GPa)
#
#
# Indices 1 2 3 4 5 6 
#
# 1 0.012924 -0.003502 -0.001212 0.000000 0.000000 0.000000
# 2 -0.003502 0.008868 -0.001663 0.000000 0.000000 0.000000
# 3 -0.001212 -0.001663 0.009933 0.000000 0.000000 0.000000
# 4 0.000000 0.000000 0.000000 0.043818 0.000000 0.000000
# 5 0.000000 0.000000 0.000000 0.000000 0.026229 0.000000
# 6 0.000000 0.000000 0.000000 0.000000 0.000000 0.033859
#
#
# Mechanical properties :
#
#
# Convention : Reuss Voigt Hill
#
# Bulk Modulus (GPa) = 52.71484 55.08474 53.89979
# Shear Modulus (GPa) = 32.31897 34.55586 33.43742
#
# Velocity S-wave (km/s) = 3.79249 3.92154 3.85755
# Velocity P-wave (km/s) = 6.52971 6.70963 6.62028
#
# Compressibility (1/GPa) = 0.01896999
#
# Stress axis : x y z
#
# Youngs Moduli (GPa) = 77.37699 112.77125 100.67273
#
# Poissons Ratio (x) = 0.39496 0.12205
# Poissons Ratio (y) = 0.27100 0.16738
# Poissons Ratio (z) = 0.09381 0.18749
#
# Static dielectric constant tensor:
#      x y z
#    x 3.986750 0.000000 0.000000 
#    y 0.000000 4.158920 0.000000 
#    z 0.000000 0.000000 4.193480 
# 
# 
# High freq. dielectric constant tensor:
#      x y z
#    x 1.875230 0.000000 0.000000 
#    y 0.000000 1.888490 0.000000 
#    z 0.000000 0.000000 1.904650 
# 
# From -- ./inp_files/2121.got.cif
#   From: 2010.03.12/outbox.cif.g09.slc.cpg/sg45_2_cif.got.tgz:2121.got - 2010.04.14 02:50:11.
