data_PCOD8190392
_publ_section_title
;
Structure prediction by ZEFSAII (Michael W. Deem and Ramdas Pophale) SiO2 
 PCOD8190392
Probable space group: I B A 2
;
_chemical_formula_sum "Si O2"
_cell_formula_units_Z 48
_cell_length_a 9.207766
_cell_length_b 15.890659
_cell_length_c 16.217117
_cell_angle_alpha 90.000000
_cell_angle_beta 90.000000
_cell_angle_gamma 90.000000
_cell_volume 2372.847525
_symmetry_space_group_name_H-M "I B A 2"
_symmetry_group_IT_number 45
_symmetry_cell_setting 'orthorhombic'
loop_
_space_group_symop_operation_xyz
x,y,z
-x,-y,z
-x,y,1/2+z
x,-y,1/2+z
1/2+x,1/2+y,1/2+z
1/2-x,1/2-y,1/2+z
1/2-x,1/2+y,z
1/2+x,1/2-y,z
loop_
_atom_site_type_symbol
_atom_site_label
_atom_site_fract_x
_atom_site_fract_y
_atom_site_fract_z
Si Si1 0.000000 0.500000 0.872460
Si Si2 0.930114 0.831041 0.565300
Si Si3 0.103523 0.759767 0.889793
Si Si4 0.500000 0.500000 0.502426
Si Si5 0.763208 0.193844 0.623573
Si Si6 0.142216 0.338655 0.801594
Si Si7 0.234513 0.399571 0.459978
O O1 0.928325 0.570229 0.814606
O O2 0.883745 0.466973 0.936591
O O3 0.967510 0.792272 0.474901
O O4 0.783744 0.789322 0.599776
O O5 0.912441 0.932536 0.559711
O O6 0.061982 0.806764 0.627133
O O7 0.206312 0.832026 0.851878
O O8 0.973845 0.732781 0.828481
O O9 0.214264 0.681667 0.902476
O O10 0.390894 0.444455 0.446666
O O11 0.683290 0.169010 0.706672
O O12 0.713248 0.126300 0.555262
#
# Coordination Sequence:
#
# PCOD8190392 Si02
#       7
#     4   8   8   4   8   8   8
#     4  10  22  36  56  84 112 146 190 232 282 330
#     4  10  20  37  58  82 109 150 191 226 273 341
#     4  10  20  36  59  82 114 156 192 224 278 344
#     4  10  18  32  56  82 106 134 188 240 266 312
#     4  10  21  36  56  81 112 147 188 229 281 337
#     4  11  21  37  58  86 116 147 187 240 285 327
#     4   9  20  36  55  82 110 149 191 224 275 340
#
# _framework density 20.228859
#
# number of rings (size 3 to 8) (size 9 to 14) (size 15 to 20)
#    0.000    2.000    0.000    5.000    0.000    3.333 
#    0.000    8.333    0.000   14.000    0.000    0.000 
#    0.000    0.000    0.000    0.000    0.000    0.000 
#
# Total GULP energy -297463.690214 kJ/mol
# GULP energy per Si atom -12394.320426 kJ/mol
# Density = 2.018282 g / cm^3
# Si number density = 20.228859 Si / 1000 Ang^3
#
#
#
# Elastic Constant Matrix: (Units=GPa)
#
#
# Indices 1 2 3 4 5 6 
#
# 1 85.1222 34.1463 29.2729 0.0000 0.0000 0.0000
# 2 34.1463 99.6921 12.2927 0.0000 0.0000 0.0000
# 3 29.2729 12.2927 87.6285 0.0000 0.0000 0.0000
# 4 0.0000 0.0000 0.0000 14.1459 0.0000 0.0000
# 5 0.0000 0.0000 0.0000 0.0000 29.7314 0.0000
# 6 0.0000 0.0000 0.0000 0.0000 0.0000 42.8412
#
#
#
# Elastic Compliance Matrix: (Units=1/GPa)
#
#
# Indices 1 2 3 4 5 6 
#
# 1 0.015121 -0.004637 -0.004401 0.000000 0.000000 0.000000
# 2 -0.004637 0.011629 -0.000082 0.000000 0.000000 0.000000
# 3 -0.004401 -0.000082 0.012894 0.000000 0.000000 0.000000
# 4 0.000000 0.000000 0.000000 0.070692 0.000000 0.000000
# 5 0.000000 0.000000 0.000000 0.000000 0.033634 0.000000
# 6 0.000000 0.000000 0.000000 0.000000 0.000000 0.023342
#
#
# Mechanical properties :
#
#
# Convention : Reuss Voigt Hill
#
# Bulk Modulus (GPa) = 46.72039 47.09628 46.90834
# Shear Modulus (GPa) = 25.94881 30.45909 28.20395
#
# Velocity S-wave (km/s) = 3.58545 3.88458 3.73801
# Velocity P-wave (km/s) = 6.34718 6.59183 6.47066
#
# Compressibility (1/GPa) = 0.02140393
#
# Stress axis : x y z
#
# Youngs Moduli (GPa) = 66.13225 85.99056 77.55828
#
# Poissons Ratio (x) = 0.39871 0.34133
# Poissons Ratio (y) = 0.30663 0.00640
# Poissons Ratio (z) = 0.29104 0.00709
#
# Static dielectric constant tensor:
#      x y z
#    x 3.764840 0.000000 0.000000 
#    y 0.000000 3.900310 0.000000 
#    z 0.000000 0.000000 3.396320 
# 
# 
# High freq. dielectric constant tensor:
#      x y z
#    x 1.799730 0.000000 0.000000 
#    y 0.000000 1.794780 0.000000 
#    z 0.000000 0.000000 1.764250 
# 
# From -- ./inp_files/5640.got.cif
#   From: 2010.03.12/outbox.cif.g09.slc.cpg/sg45_3_cif.got.tgz:5640.got - 2010.04.14 02:50:11.
