data_PCOD8190067
_publ_section_title
;
Structure prediction by ZEFSAII (Michael W. Deem and Ramdas Pophale) SiO2 
 PCOD8190067
Probable space group: I M M 2
;
_chemical_formula_sum "Si O2"
_cell_formula_units_Z 40
_cell_length_a 8.929306
_cell_length_b 7.642809
_cell_length_c 29.576715
_cell_angle_alpha 90.000000
_cell_angle_beta 90.000000
_cell_angle_gamma 90.000000
_cell_volume 2018.462331
_symmetry_space_group_name_H-M "I M M 2"
_symmetry_group_IT_number 44
_symmetry_cell_setting 'orthorhombic'
loop_
_space_group_symop_operation_xyz
x,y,z
-x,-y,z
-x,y,z
x,-y,z
1/2+x,1/2+y,1/2+z
1/2-x,1/2-y,1/2+z
1/2-x,1/2+y,1/2+z
1/2+x,1/2-y,1/2+z
loop_
_atom_site_type_symbol
_atom_site_label
_atom_site_fract_x
_atom_site_fract_y
_atom_site_fract_z
Si Si1 0.666955 0.207275 0.531450
Si Si2 0.678337 0.500000 0.279121
Si Si3 0.668520 0.292335 0.119341
Si Si4 0.678325 0.500000 0.381865
Si Si5 0.323879 0.296707 0.939994
Si Si6 0.322710 0.806093 0.216695
O O1 0.500000 0.283493 0.524794
O O2 0.735880 0.284570 0.577656
O O3 0.768881 0.264394 0.489329
O O4 0.662388 0.000000 0.534867
O O5 0.500000 0.500000 0.278457
O O6 0.735595 0.500000 0.330283
O O7 0.743041 0.329648 0.253191
O O8 0.500000 0.219847 0.114156
O O9 0.668017 0.500000 0.118884
O O10 0.742055 0.228047 0.166424
O O11 0.500000 0.500000 0.385938
O O12 0.741346 0.677383 0.403454
O O13 0.500000 0.264712 0.937138
O O14 0.282916 0.500000 0.930713
O O15 0.500000 0.780411 0.213670
O O16 0.278004 0.000000 0.232990
#
# Coordination Sequence:
#
# PCOD8190067 Si02
#       6
#     8   4   8   4   8   8
#     4   9  17  30  51  79 111 147 185 226 281 341
#     4   9  18  33  51  77 111 143 179 229 284 337
#     4   9  15  26  47  73 105 144 183 223 268 322
#     4  11  23  37  59  89 119 149 189 243 304 355
#     4  10  21  39  61  83 112 151 196 242 285 342
#     4   9  16  28  48  74 105 141 181 224 269 322
#
# _framework density 19.817066000000001
#
# number of rings (size 3 to 8) (size 9 to 14) (size 15 to 20)
#    0.000    2.600    1.000    1.500    0.000    4.400 
#    1.800    2.000    0.000    2.400    0.000    0.000 
#    0.000    0.000    0.000    0.000    0.000    0.000 
#
# Total GULP energy -247956.006884 kJ/mol
# GULP energy per Si atom -12397.800344 kJ/mol
# Density = 1.977196 g / cm^3
# Si number density = 19.817066 Si / 1000 Ang^3
#
#
#
# Elastic Constant Matrix: (Units=GPa)
#
#
# Indices 1 2 3 4 5 6 
#
# 1 79.2220 32.6020 51.8142 0.0000 0.0000 0.0000
# 2 32.6020 102.5692 77.3133 0.0000 0.0000 0.0000
# 3 51.8142 77.3133 192.9799 0.0000 0.0000 0.0000
# 4 0.0000 0.0000 0.0000 11.9502 0.0000 0.0000
# 5 0.0000 0.0000 0.0000 0.0000 25.4043 0.0000
# 6 0.0000 0.0000 0.0000 0.0000 0.0000 16.6758
#
#
#
# Elastic Compliance Matrix: (Units=1/GPa)
#
#
# Indices 1 2 3 4 5 6 
#
# 1 0.015785 -0.002611 -0.003192 0.000000 0.000000 0.000000
# 2 -0.002611 0.014399 -0.005068 0.000000 0.000000 0.000000
# 3 -0.003192 -0.005068 0.008069 0.000000 0.000000 0.000000
# 4 0.000000 0.000000 0.000000 0.083681 0.000000 0.000000
# 5 0.000000 0.000000 0.000000 0.000000 0.039363 0.000000
# 6 0.000000 0.000000 0.000000 0.000000 0.000000 0.059967
#
#
# Mechanical properties :
#
#
# Convention : Reuss Voigt Hill
#
# Bulk Modulus (GPa) = 60.56342 77.58113 69.07227
# Shear Modulus (GPa) = 20.11982 25.00881 22.56432
#
# Velocity S-wave (km/s) = 3.18980 3.55629 3.37802
# Velocity P-wave (km/s) = 6.64786 7.48977 7.08134
#
# Compressibility (1/GPa) = 0.01651162
#
# Stress axis : x y z
#
# Youngs Moduli (GPa) = 63.35087 69.44747 123.92783
#
# Poissons Ratio (x) = 0.18135 0.39559
# Poissons Ratio (y) = 0.16543 0.62803
# Poissons Ratio (z) = 0.20222 0.35194
#
# Static dielectric constant tensor:
#      x y z
#    x 3.400120 0.000000 0.000000 
#    y 0.000000 3.518690 0.000000 
#    z 0.000000 0.000000 3.793690 
# 
# 
# High freq. dielectric constant tensor:
#      x y z
#    x 1.737280 0.000000 0.000000 
#    y 0.000000 1.768620 0.000000 
#    z 0.000000 0.000000 1.776650 
# 
# From -- ./inp_files/25949.got.cif
#   From: 2010.03.12/outbox.cif.g09.slc.cpg/sg44_13_cif.got.tgz:25949.got - 2010.04.14 02:36:11.
