data_PCOD8190601
_publ_section_title
;
Structure prediction by ZEFSAII (Michael W. Deem and Ramdas Pophale) SiO2 
 PCOD8190601
Probable space group: I B A 2
;
_chemical_formula_sum "Si O2"
_cell_formula_units_Z 64
_cell_length_a 14.769659
_cell_length_b 10.952651
_cell_length_c 15.827966
_cell_angle_alpha 90.000000
_cell_angle_beta 90.000000
_cell_angle_gamma 90.000000
_cell_volume 2560.441316
_symmetry_space_group_name_H-M "I B A 2"
_symmetry_group_IT_number 45
_symmetry_cell_setting 'orthorhombic'
loop_
_space_group_symop_operation_xyz
x,y,z
-x,-y,z
-x,y,1/2+z
x,-y,1/2+z
1/2+x,1/2+y,1/2+z
1/2-x,1/2-y,1/2+z
1/2-x,1/2+y,z
1/2+x,1/2-y,z
loop_
_atom_site_type_symbol
_atom_site_label
_atom_site_fract_x
_atom_site_fract_y
_atom_site_fract_z
Si Si1 0.194610 0.839737 0.561160
Si Si2 0.630536 0.192674 0.203498
Si Si3 0.748506 0.135566 0.939613
Si Si4 0.634110 0.922643 0.150951
Si Si5 0.821443 0.769127 0.778095
Si Si6 0.575346 0.717085 0.875282
Si Si7 0.086179 0.085298 0.906649
Si Si8 0.405937 0.053961 0.970874
O O1 0.118782 0.769688 0.616871
O O2 0.253933 0.738007 0.511940
O O3 0.145104 0.927911 0.492477
O O4 0.259513 0.920239 0.621875
O O5 0.602750 0.051247 0.192149
O O6 0.736321 0.189807 0.224424
O O7 0.573364 0.265562 0.274309
O O8 0.701910 0.181847 0.855484
O O9 0.854813 0.103978 0.908383
O O10 0.686166 0.025993 0.972771
O O11 0.574432 0.902137 0.066693
O O12 0.613462 0.811945 0.216482
O O13 0.860869 0.894567 0.818039
O O14 0.474421 0.711750 0.914049
O O15 0.625172 0.836264 0.910942
O O16 0.000000 0.000000 0.888803
O O17 0.500000 0.000000 0.934607
#
# Coordination Sequence:
#
# PCOD8190601 Si02
#       8
#     8   8   8   8   8   8   8   8
#     4  10  21  43  65 100 135 181 238 287 342 428
#     4  10  22  41  70 101 134 181 233 291 356 416
#     4  10  20  41  68  90 134 185 228 282 348 436
#     4  11  22  39  70 103 135 184 228 293 361 416
#     4   9  22  42  63  96 139 174 233 282 343 429
#     4  11  25  42  68 102 137 183 238 288 358 439
#     4  11  26  45  70  99 142 190 234 289 355 429
#     4  12  24  39  68 102 137 179 230 298 357 414
#
# _framework density 24.995691999999998
#
# number of rings (size 3 to 8) (size 9 to 14) (size 15 to 20)
#    0.000    1.500    2.500    2.250    1.750    4.000 
#    0.000    1.250    0.000    0.000    0.000    0.000 
#    0.000    0.000    0.000    0.000    0.000    0.000 
#
# Total GULP energy -396490.284022 kJ/mol
# GULP energy per Si atom -12390.321376 kJ/mol
# Density = 2.493880 g / cm^3
# Si number density = 24.995692 Si / 1000 Ang^3
#
#
#
# Elastic Constant Matrix: (Units=GPa)
#
#
# Indices 1 2 3 4 5 6 
#
# 1 84.3968 -16.6711 2.8752 0.0000 0.0000 0.0000
# 2 -16.6711 34.7876 17.4960 0.0000 0.0000 0.0000
# 3 2.8752 17.4960 128.6382 0.0000 0.0000 0.0000
# 4 0.0000 0.0000 0.0000 36.6815 0.0000 0.0000
# 5 0.0000 0.0000 0.0000 0.0000 27.6562 0.0000
# 6 0.0000 0.0000 0.0000 0.0000 0.0000 29.4244
#
#
#
# Elastic Compliance Matrix: (Units=1/GPa)
#
#
# Indices 1 2 3 4 5 6 
#
# 1 0.013271 0.006987 -0.001247 0.000000 0.000000 0.000000
# 2 0.006987 0.034535 -0.004853 0.000000 0.000000 0.000000
# 3 -0.001247 -0.004853 0.008462 0.000000 0.000000 0.000000
# 4 0.000000 0.000000 0.000000 0.027262 0.000000 0.000000
# 5 0.000000 0.000000 0.000000 0.000000 0.036158 0.000000
# 6 0.000000 0.000000 0.000000 0.000000 0.000000 0.033985
#
#
# Mechanical properties :
#
#
# Convention : Reuss Voigt Hill
#
# Bulk Modulus (GPa) = 17.22887 28.35810 22.79348
# Shear Modulus (GPa) = 29.19755 35.02724 32.11239
#
# Velocity S-wave (km/s) = 3.42146 3.74750 3.58818
# Velocity P-wave (km/s) = 4.74513 5.48587 5.12889
#
# Compressibility (1/GPa) = 0.05804212
#
# Stress axis : x y z
#
# Youngs Moduli (GPa) = 75.34970 28.95602 118.17951
#
# Poissons Ratio (x) = -0.20232 0.14736
# Poissons Ratio (y) = -0.52648 0.57356
# Poissons Ratio (z) = 0.09396 0.14053
#
# Static dielectric constant tensor:
#      x y z
#    x 4.933120 0.000000 0.000000 
#    y 0.000000 5.026530 0.000000 
#    z 0.000000 0.000000 4.788480 
# 
# 
# High freq. dielectric constant tensor:
#      x y z
#    x 1.996950 0.000000 0.000000 
#    y 0.000000 2.001940 0.000000 
#    z 0.000000 0.000000 2.001520 
# 
# From -- ./inp_files/6821.got.cif
#   From: 2010.03.12/outbox.cif.g09.slc.cpg/sg45_4_cif.got.tgz:6821.got - 2010.04.14 02:50:11.
