data_PCOD8190685
_publ_section_title
;
Structure prediction by ZEFSAII (Michael W. Deem and Ramdas Pophale) SiO2 
 PCOD8190685
Probable space group: I B A 2
;
_chemical_formula_sum "Si O2"
_cell_formula_units_Z 64
_cell_length_a 31.646935
_cell_length_b 7.611134
_cell_length_c 12.967869
_cell_angle_alpha 90.000000
_cell_angle_beta 90.000000
_cell_angle_gamma 90.000000
_cell_volume 3123.558455
_symmetry_space_group_name_H-M "I B A 2"
_symmetry_group_IT_number 45
_symmetry_cell_setting 'orthorhombic'
loop_
_space_group_symop_operation_xyz
x,y,z
-x,-y,z
-x,y,1/2+z
x,-y,1/2+z
1/2+x,1/2+y,1/2+z
1/2-x,1/2-y,1/2+z
1/2-x,1/2+y,z
1/2+x,1/2-y,z
loop_
_atom_site_type_symbol
_atom_site_label
_atom_site_fract_x
_atom_site_fract_y
_atom_site_fract_z
Si Si1 0.702937 0.686444 0.115480
Si Si2 0.725370 0.994077 0.742392
Si Si3 0.995458 0.192444 0.869216
Si Si4 0.796264 0.174574 0.869566
Si Si5 0.502753 0.799948 0.086125
Si Si6 0.573911 0.198182 0.238822
Si Si7 0.929465 0.306370 0.244475
Si Si8 0.863885 0.994559 0.744048
O O1 0.746164 0.601185 0.156007
O O2 0.663614 0.561753 0.144656
O O3 0.696549 0.870923 0.176610
O O4 0.704867 0.710333 0.992045
O O5 0.696386 0.855268 0.805021
O O6 0.752082 0.093461 0.831080
O O7 0.947928 0.265332 0.849705
O O8 0.032596 0.318644 0.827247
O O9 0.000000 0.000000 0.818081
O O10 0.001852 0.172022 0.990464
O O11 0.833858 0.038782 0.841841
O O12 0.464674 0.760906 0.162795
O O13 0.548394 0.758169 0.136399
O O14 0.500000 0.000000 0.048072
O O15 0.611586 0.329671 0.212276
O O16 0.591594 0.999574 0.235667
O O17 0.894832 0.163130 0.277160
#
# Coordination Sequence:
#
# PCOD8190685 Si02
#       8
#     8   8   8   8   8   8   8   8
#     4  10  21  39  64  94 125 160 205 250 304 374
#     4   9  20  40  68  91 123 159 203 260 297 363
#     4  11  20  34  60  85 108 153 208 254 303 356
#     4  10  21  39  64  95 124 162 205 248 308 371
#     4   9  20  36  58  83 105 153 211 251 301 355
#     4  10  22  40  58  79 120 157 197 257 298 352
#     4  10  22  40  58  79 120 157 197 257 299 349
#     4  11  24  37  58  89 126 160 198 244 311 369
#
# _framework density 20.489450999999999
#
# number of rings (size 3 to 8) (size 9 to 14) (size 15 to 20)
#    0.000    2.000    1.250    2.625    3.500    2.000 
#    0.000    1.250    0.000    0.000    0.000    0.000 
#    0.000    0.000    0.000    0.000    0.000    0.000 
#
# Total GULP energy -396688.119544 kJ/mol
# GULP energy per Si atom -12396.503736 kJ/mol
# Density = 2.044282 g / cm^3
# Si number density = 20.489451 Si / 1000 Ang^3
#
#
#
# Elastic Constant Matrix: (Units=GPa)
#
#
# Indices 1 2 3 4 5 6 
#
# 1 83.1479 49.7091 36.1628 0.0000 0.0000 0.0000
# 2 49.7091 126.3745 49.4957 0.0000 0.0000 0.0000
# 3 36.1628 49.4957 129.2539 0.0000 0.0000 0.0000
# 4 0.0000 0.0000 0.0000 27.9853 0.0000 0.0000
# 5 0.0000 0.0000 0.0000 0.0000 12.1146 0.0000
# 6 0.0000 0.0000 0.0000 0.0000 0.0000 42.9091
#
#
#
# Elastic Compliance Matrix: (Units=1/GPa)
#
#
# Indices 1 2 3 4 5 6 
#
# 1 0.016378 -0.005468 -0.002488 0.000000 0.000000 0.000000
# 2 -0.005468 0.011134 -0.002734 0.000000 0.000000 0.000000
# 3 -0.002488 -0.002734 0.009480 0.000000 0.000000 0.000000
# 4 0.000000 0.000000 0.000000 0.035733 0.000000 0.000000
# 5 0.000000 0.000000 0.000000 0.000000 0.082545 0.000000
# 6 0.000000 0.000000 0.000000 0.000000 0.000000 0.023305
#
#
# Mechanical properties :
#
#
# Convention : Reuss Voigt Hill
#
# Bulk Modulus (GPa) = 64.05331 67.72349 65.88840
# Shear Modulus (GPa) = 24.37127 30.16237 27.26682
#
# Velocity S-wave (km/s) = 3.45259 3.84095 3.65193
# Velocity P-wave (km/s) = 6.87192 7.26603 7.07172
#
# Compressibility (1/GPa) = 0.01561200
#
# Stress axis : x y z
#
# Youngs Moduli (GPa) = 61.05840 89.81141 105.48630
#
# Poissons Ratio (x) = 0.49105 0.26250
# Poissons Ratio (y) = 0.33384 0.28840
# Poissons Ratio (z) = 0.15194 0.24555
#
# Static dielectric constant tensor:
#      x y z
#    x 3.552290 0.000000 0.000000 
#    y 0.000000 3.920300 0.000000 
#    z 0.000000 0.000000 3.519550 
# 
# 
# High freq. dielectric constant tensor:
#      x y z
#    x 1.784330 0.000000 0.000000 
#    y 0.000000 1.818150 0.000000 
#    z 0.000000 0.000000 1.786390 
# 
# From -- ./inp_files/4975.got.cif
#   From: 2010.03.12/outbox.cif.g09.slc.cpg/sg45_3_cif.got.tgz:4975.got - 2010.04.14 02:50:11.
