data_PCOD8190738
_publ_section_title
;
Structure prediction by ZEFSAII (Michael W. Deem and Ramdas Pophale) SiO2 
 PCOD8190738
Probable space group: I B A 2
;
_chemical_formula_sum "Si O2"
_cell_formula_units_Z 60
_cell_length_a 11.966921
_cell_length_b 8.885374
_cell_length_c 23.999327
_cell_angle_alpha 90.000000
_cell_angle_beta 90.000000
_cell_angle_gamma 90.000000
_cell_volume 2551.862089
_symmetry_space_group_name_H-M "I B A 2"
_symmetry_group_IT_number 45
_symmetry_cell_setting 'orthorhombic'
loop_
_space_group_symop_operation_xyz
x,y,z
-x,-y,z
-x,y,1/2+z
x,-y,1/2+z
1/2+x,1/2+y,1/2+z
1/2-x,1/2-y,1/2+z
1/2-x,1/2+y,z
1/2+x,1/2-y,z
loop_
_atom_site_type_symbol
_atom_site_label
_atom_site_fract_x
_atom_site_fract_y
_atom_site_fract_z
Si Si1 0.322565 0.766841 0.067030
Si Si2 0.617418 0.914546 0.727791
Si Si3 0.818504 0.667137 0.466461
Si Si4 0.466937 0.346789 0.221967
Si Si5 0.713746 0.422520 0.389728
Si Si6 0.801667 0.170889 0.312497
Si Si7 0.302025 0.477586 0.137593
Si Si8 0.500000 0.000000 0.034801
O O1 0.337517 0.639093 0.113674
O O2 0.220230 0.872392 0.084781
O O3 0.428515 0.880101 0.070187
O O4 0.289555 0.702962 0.005935
O O5 0.577607 0.748384 0.707804
O O6 0.686028 0.891198 0.785123
O O7 0.500000 0.000000 0.737097
O O8 0.695384 0.990214 0.680179
O O9 0.792837 0.532965 0.424346
O O10 0.856361 0.817904 0.432493
O O11 0.923766 0.612505 0.500297
O O12 0.500000 0.500000 0.253954
O O13 0.381695 0.263444 0.264032
O O14 0.406969 0.398124 0.165679
O O15 0.788493 0.309604 0.353576
O O16 0.644440 0.530297 0.347486
#
# Coordination Sequence:
#
# PCOD8190738 Si02
#       8
#     8   8   8   8   8   8   8   4
#     4  12  24  47  73 103 141 183 238 296 354 423
#     4  11  23  41  68 102 141 186 237 287 347 418
#     4  11  23  47  69 101 141 180 235 303 342 428
#     4  11  23  42  64 102 141 184 235 284 342 418
#     4  10  21  44  70  94 145 183 226 299 357 394
#     4  10  22  42  65 100 140 183 231 293 344 417
#     4  11  25  43  71 101 146 185 232 293 349 415
#     4  12  26  46  78 100 140 182 238 286 368 424
#
# _framework density 23.512242000000001
#
# number of rings (size 3 to 8) (size 9 to 14) (size 15 to 20)
#    0.000    1.067    2.667    3.200    0.933    6.400 
#   12.000    4.667    0.000    0.000    0.000    0.000 
#    0.000    0.000    0.000    0.000    0.000    0.000 
#
# Total GULP energy -371689.712287 kJ/mol
# GULP energy per Si atom -12389.657076 kJ/mol
# Density = 2.345873 g / cm^3
# Si number density = 23.512242 Si / 1000 Ang^3
#
#
#
# Elastic Constant Matrix: (Units=GPa)
#
#
# Indices 1 2 3 4 5 6 
#
# 1 76.2412 33.5440 46.6596 0.0000 0.0000 0.0000
# 2 33.5440 149.0632 66.9717 0.0000 0.0000 0.0000
# 3 46.6596 66.9717 125.2369 0.0000 0.0000 0.0000
# 4 0.0000 0.0000 0.0000 53.0065 0.0000 0.0000
# 5 0.0000 0.0000 0.0000 0.0000 -23.4174 0.0000
# 6 0.0000 0.0000 0.0000 0.0000 0.0000 44.9640
#
#
#
# Elastic Compliance Matrix: (Units=1/GPa)
#
#
# Indices 1 2 3 4 5 6 
#
# 1 0.017181 -0.001304 -0.005704 0.000000 0.000000 0.000000
# 2 -0.001304 0.008929 -0.004289 0.000000 0.000000 0.000000
# 3 -0.005704 -0.004289 0.012404 0.000000 0.000000 0.000000
# 4 0.000000 0.000000 0.000000 0.018866 0.000000 0.000000
# 5 0.000000 0.000000 0.000000 0.000000 -0.042703 0.000000
# 6 0.000000 0.000000 0.000000 0.000000 0.000000 0.022240
#
#
# Mechanical properties :
#
#
# Convention : Reuss Voigt Hill
#
# Bulk Modulus (GPa) = 62.81424 71.65465 67.23444
# Shear Modulus (GPa) = 77.14209 28.46835 52.80522
#
# Velocity S-wave (km/s) = 5.73416 3.48341 4.74419
# Velocity P-wave (km/s) = 8.40323 6.83524 7.65946
#
# Compressibility (1/GPa) = 0.01591996
#
# Stress axis : x y z
#
# Youngs Moduli (GPa) = 58.20526 111.99504 80.62124
#
# Poissons Ratio (x) = 0.14599 0.45986
# Poissons Ratio (y) = 0.07587 0.34580
# Poissons Ratio (z) = 0.33200 0.48037
#
# Static dielectric constant tensor:
#      x y z
#    x 5.392930 0.000000 0.000000 
#    y 0.000000 4.763170 0.000000 
#    z 0.000000 0.000000 4.459500 
# 
# 
# High freq. dielectric constant tensor:
#      x y z
#    x 1.901320 0.000000 0.000000 
#    y 0.000000 1.959900 0.000000 
#    z 0.000000 0.000000 1.943350 
# 
# From -- ./inp_files/10019.got.cif
#   From: 2010.03.12/outbox.cif.g09.slc.cpg/sg45_6_cif.got.tgz:10019.got - 2010.04.14 02:50:11.
