data_PCOD8190394
_publ_section_title
;
Structure prediction by ZEFSAII (Michael W. Deem and Ramdas Pophale) SiO2 
 PCOD8190394
Probable space group: I B A 2
;
_chemical_formula_sum "Si O2"
_cell_formula_units_Z 64
_cell_length_a 9.479077
_cell_length_b 19.015702
_cell_length_c 19.925669
_cell_angle_alpha 90.000000
_cell_angle_beta 90.000000
_cell_angle_gamma 90.000000
_cell_volume 3591.627810
_symmetry_space_group_name_H-M "I B A 2"
_symmetry_group_IT_number 45
_symmetry_cell_setting 'orthorhombic'
loop_
_space_group_symop_operation_xyz
x,y,z
-x,-y,z
-x,y,1/2+z
x,-y,1/2+z
1/2+x,1/2+y,1/2+z
1/2-x,1/2-y,1/2+z
1/2-x,1/2+y,z
1/2+x,1/2-y,z
loop_
_atom_site_type_symbol
_atom_site_label
_atom_site_fract_x
_atom_site_fract_y
_atom_site_fract_z
Si Si1 0.265004 0.731949 0.242080
Si Si2 0.576715 0.574949 0.199033
Si Si3 0.734996 0.268051 0.532814
Si Si4 0.076715 0.074949 0.075861
Si Si5 0.659666 0.140506 0.626314
Si Si6 0.470923 0.318071 0.310096
Si Si7 0.659666 0.859494 0.648580
Si Si8 0.970923 0.818071 0.964798
O O1 0.224143 0.664918 0.197147
O O2 0.369458 0.706658 0.300337
O O3 0.127114 0.758020 0.279874
O O4 0.339026 0.792764 0.198332
O O5 0.500000 0.500000 0.202133
O O6 0.500000 0.617640 0.137447
O O7 0.555197 0.609575 0.270874
O O8 0.744260 0.577023 0.179880
O O9 0.660974 0.207236 0.576562
O O10 0.775857 0.335082 0.577748
O O11 0.872886 0.241980 0.495020
O O12 0.630542 0.293342 0.474558
O O13 0.244260 0.077023 0.095014
O O14 0.055197 0.109575 0.004020
O O15 0.000000 0.000000 0.072762
O O16 0.500000 0.113192 0.637447
O O17 0.437808 0.332127 0.387447
#
# Coordination Sequence:
#
# PCOD8190394 Si02
#       8
#     8   8   8   8   8   8   8   8
#     4  10  19  31  52  87 113 139 184 219 282 352
#     4  10  21  37  56  79 107 146 198 234 260 325
#     4  10  19  31  52  87 113 139 184 219 282 352
#     4  10  21  37  56  79 107 146 198 234 260 325
#     4  10  18  32  58  82 110 145 178 235 285 324
#     4  11  21  34  54  81 116 149 178 228 284 335
#     4  10  18  32  58  82 110 145 178 235 285 324
#     4  11  21  34  54  81 116 149 178 228 284 335
#
# _framework density 17.819219
#
# number of rings (size 3 to 8) (size 9 to 14) (size 15 to 20)
#    0.000    1.750    5.000    0.750    0.000    0.500 
#    0.000    2.500    0.000    0.000    0.000    1.750 
#    0.000    0.000    0.000    0.000    0.000    0.000 
#
# Total GULP energy -396585.243115 kJ/mol
# GULP energy per Si atom -12393.288847 kJ/mol
# Density = 1.777866 g / cm^3
# Si number density = 17.819219 Si / 1000 Ang^3
#
#
#
# Elastic Constant Matrix: (Units=GPa)
#
#
# Indices 1 2 3 4 5 6 
#
# 1 127.8940 50.1184 26.5881 0.0000 0.0000 0.0000
# 2 50.1184 76.9749 33.1599 0.0000 0.0000 0.0000
# 3 26.5881 33.1599 119.4899 0.0000 0.0000 0.0000
# 4 0.0000 0.0000 0.0000 16.2678 0.0000 0.0000
# 5 0.0000 0.0000 0.0000 0.0000 26.3290 0.0000
# 6 0.0000 0.0000 0.0000 0.0000 0.0000 20.9016
#
#
#
# Elastic Compliance Matrix: (Units=1/GPa)
#
#
# Indices 1 2 3 4 5 6 
#
# 1 0.010524 -0.006637 -0.000500 0.000000 0.000000 0.000000
# 2 -0.006637 0.018940 -0.003779 0.000000 0.000000 0.000000
# 3 -0.000500 -0.003779 0.009529 0.000000 0.000000 0.000000
# 4 0.000000 0.000000 0.000000 0.061471 0.000000 0.000000
# 5 0.000000 0.000000 0.000000 0.000000 0.037981 0.000000
# 6 0.000000 0.000000 0.000000 0.000000 0.000000 0.047843
#
#
# Mechanical properties :
#
#
# Convention : Reuss Voigt Hill
#
# Bulk Modulus (GPa) = 58.27116 60.45462 59.36289
# Shear Modulus (GPa) = 23.38189 26.99917 25.19053
#
# Velocity S-wave (km/s) = 3.62632 3.89674 3.76396
# Velocity P-wave (km/s) = 7.09267 7.36522 7.23023
#
# Compressibility (1/GPa) = 0.01716115
#
# Stress axis : x y z
#
# Youngs Moduli (GPa) = 95.02437 52.79693 104.94280
#
# Poissons Ratio (x) = 0.35039 0.05246
# Poissons Ratio (y) = 0.63064 0.39663
# Poissons Ratio (z) = 0.04750 0.19955
#
# Static dielectric constant tensor:
#      x y z
#    x 3.431670 0.000000 0.000000 
#    y 0.000000 2.906440 0.000000 
#    z 0.000000 0.000000 3.422430 
# 
# 
# High freq. dielectric constant tensor:
#      x y z
#    x 1.705530 0.000000 0.000000 
#    y 0.000000 1.654890 0.000000 
#    z 0.000000 0.000000 1.681270 
# 
# From -- ./inp_files/7765.got.cif
#   From: 2010.03.12/outbox.cif.g09.slc.cpg/sg45_4_cif.got.tgz:7765.got - 2010.04.14 02:50:11.
