data_PCOD8190533
_publ_section_title
;
Structure prediction by ZEFSAII (Michael W. Deem and Ramdas Pophale) SiO2 
 PCOD8190533
Probable space group: I B A 2
;
_chemical_formula_sum "Si O2"
_cell_formula_units_Z 52
_cell_length_a 10.516046
_cell_length_b 15.765101
_cell_length_c 15.171321
_cell_angle_alpha 90.000000
_cell_angle_beta 90.000000
_cell_angle_gamma 90.000000
_cell_volume 2515.200623
_symmetry_space_group_name_H-M "I B A 2"
_symmetry_group_IT_number 45
_symmetry_cell_setting 'orthorhombic'
loop_
_space_group_symop_operation_xyz
x,y,z
-x,-y,z
-x,y,1/2+z
x,-y,1/2+z
1/2+x,1/2+y,1/2+z
1/2-x,1/2-y,1/2+z
1/2-x,1/2+y,z
1/2+x,1/2-y,z
loop_
_atom_site_type_symbol
_atom_site_label
_atom_site_fract_x
_atom_site_fract_y
_atom_site_fract_z
Si Si1 0.500000 0.000000 0.335800
Si Si2 0.900220 0.822123 0.136972
Si Si3 0.393719 0.592691 0.323824
Si Si4 0.741612 0.576150 0.302429
Si Si5 0.845230 0.232958 0.195968
Si Si6 0.365487 0.165644 0.372020
Si Si7 0.617850 0.659346 0.444560
O O1 0.377156 0.968582 0.279027
O O2 0.545504 0.917009 0.390743
O O3 0.909229 0.879426 0.222946
O O4 0.773039 0.766728 0.140452
O O5 0.031829 0.769328 0.132546
O O6 0.890847 0.874217 0.044804
O O7 0.370039 0.492787 0.315820
O O8 0.279806 0.637911 0.375575
O O9 0.512461 0.617817 0.382394
O O10 0.699063 0.639329 0.225717
O O11 0.748856 0.628512 0.395909
O O12 0.890195 0.293200 0.276026
O O13 0.391752 0.237691 0.445410
#
# Coordination Sequence:
#
# PCOD8190533 Si02
#       7
#     4   8   8   8   8   8   8
#     4  10  20  36  66  94 118 174 204 266 330 390
#     4  11  23  38  63  95 123 172 218 268 328 390
#     4  10  21  42  59  93 122 167 215 263 319 387
#     4  10  21  40  64  90 128 168 217 270 332 389
#     4  10  21  40  63  90 127 166 216 269 322 394
#     4   9  20  36  63  87 124 160 210 254 322 378
#     4  11  23  37  64  91 128 168 214 266 318 397
#
# _framework density 20.674294
#
# number of rings (size 3 to 8) (size 9 to 14) (size 15 to 20)
#    0.000    1.846    3.077    1.385    6.462    0.000 
#    5.538    0.000    0.000   12.000    0.000    0.000 
#    0.000    0.000    0.000    0.000    0.000    0.000 
#
# Total GULP energy -322103.926172 kJ/mol
# GULP energy per Si atom -12388.612545 kJ/mol
# Density = 2.062724 g / cm^3
# Si number density = 20.674294 Si / 1000 Ang^3
#
#
#
# Elastic Constant Matrix: (Units=GPa)
#
#
# Indices 1 2 3 4 5 6 
#
# 1 101.5547 44.7541 39.7649 0.0000 0.0000 0.0000
# 2 44.7541 115.3259 26.4517 0.0000 0.0000 0.0000
# 3 39.7649 26.4517 109.4597 0.0000 0.0000 0.0000
# 4 0.0000 0.0000 0.0000 6.4686 0.0000 0.0000
# 5 0.0000 0.0000 0.0000 0.0000 12.0616 0.0000
# 6 0.0000 0.0000 0.0000 0.0000 0.0000 13.1795
#
#
#
# Elastic Compliance Matrix: (Units=1/GPa)
#
#
# Indices 1 2 3 4 5 6 
#
# 1 0.013198 -0.004258 -0.003766 0.000000 0.000000 0.000000
# 2 -0.004258 0.010554 -0.001004 0.000000 0.000000 0.000000
# 3 -0.003766 -0.001004 0.010746 0.000000 0.000000 0.000000
# 4 0.000000 0.000000 0.000000 0.154593 0.000000 0.000000
# 5 0.000000 0.000000 0.000000 0.000000 0.082908 0.000000
# 6 0.000000 0.000000 0.000000 0.000000 0.000000 0.075875
#
#
# Mechanical properties :
#
#
# Convention : Reuss Voigt Hill
#
# Bulk Modulus (GPa) = 60.81388 60.92017 60.86703
# Shear Modulus (GPa) = 13.46222 20.69990 17.08106
#
# Velocity S-wave (km/s) = 2.55455 3.16767 2.87748
# Velocity P-wave (km/s) = 6.17900 6.55053 6.36747
#
# Compressibility (1/GPa) = 0.01644361
#
# Stress axis : x y z
#
# Youngs Moduli (GPa) = 75.77023 94.75429 93.05566
#
# Poissons Ratio (x) = 0.40346 0.35041
# Poissons Ratio (y) = 0.32262 0.09338
# Poissons Ratio (z) = 0.28532 0.09509
#
# Static dielectric constant tensor:
#      x y z
#    x 4.125190 0.000000 0.000000 
#    y 0.000000 4.011100 0.000000 
#    z 0.000000 0.000000 3.344110 
# 
# 
# High freq. dielectric constant tensor:
#      x y z
#    x 1.831590 0.000000 0.000000 
#    y 0.000000 1.816410 0.000000 
#    z 0.000000 0.000000 1.764410 
# 
# From -- ./inp_files/6228.got.cif
#   From: 2010.03.12/outbox.cif.g09.slc.cpg/sg45_4_cif.got.tgz:6228.got - 2010.04.14 02:50:11.
