data_PCOD8190401
_publ_section_title
;
Structure prediction by ZEFSAII (Michael W. Deem and Ramdas Pophale) SiO2 
 PCOD8190401
Probable space group: I B A 2
;
_chemical_formula_sum "Si O2"
_cell_formula_units_Z 60
_cell_length_a 22.242721
_cell_length_b 13.928764
_cell_length_c 9.108276
_cell_angle_alpha 90.000000
_cell_angle_beta 90.000000
_cell_angle_gamma 90.000000
_cell_volume 2821.867882
_symmetry_space_group_name_H-M "I B A 2"
_symmetry_group_IT_number 45
_symmetry_cell_setting 'orthorhombic'
loop_
_space_group_symop_operation_xyz
x,y,z
-x,-y,z
-x,y,1/2+z
x,-y,1/2+z
1/2+x,1/2+y,1/2+z
1/2-x,1/2-y,1/2+z
1/2-x,1/2+y,z
1/2+x,1/2-y,z
loop_
_atom_site_type_symbol
_atom_site_label
_atom_site_fract_x
_atom_site_fract_y
_atom_site_fract_z
Si Si1 0.921538 0.839216 0.643650
Si Si2 0.540783 0.347950 0.304717
Si Si3 0.500000 0.000000 0.696970
Si Si4 0.806710 0.542927 0.174495
Si Si5 0.641781 0.469327 0.177487
Si Si6 0.723340 0.505176 0.426582
Si Si7 0.891440 0.374188 0.107218
Si Si8 0.090300 0.352864 0.286486
O O1 0.949155 0.852129 0.479654
O O2 0.898621 0.731277 0.680468
O O3 0.971366 0.865051 0.766412
O O4 0.867164 0.914921 0.663466
O O5 0.577388 0.423260 0.205384
O O6 0.561123 0.246318 0.239931
O O7 0.454280 0.933241 0.604356
O O8 0.538318 0.931587 0.801273
O O9 0.768303 0.564800 0.321885
O O10 0.836783 0.435299 0.179516
O O11 0.860688 0.619454 0.162350
O O12 0.764170 0.559175 0.034532
O O13 0.683090 0.440745 0.317083
O O14 0.677176 0.433164 0.030319
O O15 0.874466 0.351569 0.939670
#
# Coordination Sequence:
#
# PCOD8190401 Si02
#       8
#     8   8   4   8   8   8   8   8
#     4  11  24  42  63  95 128 162 208 258 315 377
#     4  11  24  42  63  95 128 162 208 258 315 377
#     4  10  18  34  60  92 130 170 186 254 302 384
#     4  10  20  41  65  91 127 164 198 266 302 382
#     4  11  23  43  65  87 119 171 209 270 302 364
#     4  10  22  42  65  89 120 164 220 254 316 346
#     4  10  20  37  61  95 128 162 203 248 314 377
#     4  10  20  37  61  95 128 162 203 248 314 377
#
# _framework density 21.262513999999999
#
# number of rings (size 3 to 8) (size 9 to 14) (size 15 to 20)
#    0.000    1.600    4.000    0.800    1.867    1.067 
#    2.400    8.000    0.000    0.000    0.000    0.000 
#    0.000    0.000    0.000    0.000    0.000    0.000 
#
# Total GULP energy -371684.308956 kJ/mol
# GULP energy per Si atom -12389.476965 kJ/mol
# Density = 2.121412 g / cm^3
# Si number density = 21.262514 Si / 1000 Ang^3
#
#
#
# Elastic Constant Matrix: (Units=GPa)
#
#
# Indices 1 2 3 4 5 6 
#
# 1 100.3843 34.1977 31.5138 0.0000 0.0000 0.0000
# 2 34.1977 95.6673 12.4189 0.0000 0.0000 0.0000
# 3 31.5138 12.4189 99.6495 0.0000 0.0000 0.0000
# 4 0.0000 0.0000 0.0000 18.2646 0.0000 0.0000
# 5 0.0000 0.0000 0.0000 0.0000 37.0097 0.0000
# 6 0.0000 0.0000 0.0000 0.0000 0.0000 16.3600
#
#
#
# Elastic Compliance Matrix: (Units=1/GPa)
#
#
# Indices 1 2 3 4 5 6 
#
# 1 0.012394 -0.003986 -0.003423 0.000000 0.000000 0.000000
# 2 -0.003986 0.011907 -0.000223 0.000000 0.000000 0.000000
# 3 -0.003423 -0.000223 0.011145 0.000000 0.000000 0.000000
# 4 0.000000 0.000000 0.000000 0.054751 0.000000 0.000000
# 5 0.000000 0.000000 0.000000 0.000000 0.027020 0.000000
# 6 0.000000 0.000000 0.000000 0.000000 0.000000 0.061125
#
#
# Mechanical properties :
#
#
# Convention : Reuss Voigt Hill
#
# Bulk Modulus (GPa) = 49.54940 50.21799 49.88369
# Shear Modulus (GPa) = 24.95837 28.83159 26.89498
#
# Velocity S-wave (km/s) = 3.42982 3.68636 3.56040
# Velocity P-wave (km/s) = 6.24813 6.46439 6.35718
#
# Compressibility (1/GPa) = 0.02018188
#
# Stress axis : x y z
#
# Youngs Moduli (GPa) = 80.68281 83.98568 89.72260
#
# Poissons Ratio (x) = 0.33478 0.30711
# Poissons Ratio (y) = 0.32161 0.02003
# Poissons Ratio (z) = 0.27617 0.01875
#
# Static dielectric constant tensor:
#      x y z
#    x 3.969910 0.000000 0.000000 
#    y 0.000000 3.661170 0.000000 
#    z 0.000000 0.000000 3.789290 
# 
# 
# High freq. dielectric constant tensor:
#      x y z
#    x 1.848540 0.000000 0.000000 
#    y 0.000000 1.799990 0.000000 
#    z 0.000000 0.000000 1.832130 
# 
# From -- ./inp_files/1913.got.cif
#   From: 2010.03.12/outbox.cif.g09.slc.cpg/sg45_1_cif.got.tgz:1913.got - 2010.04.14 02:50:11.
