data_PCOD8190665
_publ_section_title
;
Structure prediction by ZEFSAII (Michael W. Deem and Ramdas Pophale) SiO2 
 PCOD8190665
Probable space group: I B A 2
;
_chemical_formula_sum "Si O2"
_cell_formula_units_Z 40
_cell_length_a 8.746310
_cell_length_b 22.699976
_cell_length_c 8.642221
_cell_angle_alpha 90.000000
_cell_angle_beta 90.000000
_cell_angle_gamma 90.000000
_cell_volume 1715.835434
_symmetry_space_group_name_H-M "I B A 2"
_symmetry_group_IT_number 45
_symmetry_cell_setting 'orthorhombic'
loop_
_space_group_symop_operation_xyz
x,y,z
-x,-y,z
-x,y,1/2+z
x,-y,1/2+z
1/2+x,1/2+y,1/2+z
1/2-x,1/2-y,1/2+z
1/2-x,1/2+y,z
1/2+x,1/2-y,z
loop_
_atom_site_type_symbol
_atom_site_label
_atom_site_fract_x
_atom_site_fract_y
_atom_site_fract_z
Si Si1 0.281751 0.698432 0.739470
Si Si2 0.270670 0.416732 0.792193
Si Si3 0.908629 0.202105 0.890754
Si Si4 0.791880 0.505564 0.536191
Si Si5 0.418802 0.082476 0.775410
O O1 0.158138 0.747823 0.779020
O O2 0.353700 0.707637 0.568124
O O3 0.408236 0.705218 0.874689
O O4 0.198066 0.635703 0.746735
O O5 0.371356 0.359847 0.812242
O O6 0.319534 0.452698 0.638278
O O7 0.093687 0.395762 0.779272
O O8 0.306596 0.461347 0.932454
O O9 0.894869 0.550443 0.438017
O O10 0.900593 0.466702 0.645205
#
# Coordination Sequence:
#
# PCOD8190665 Si02
#       5
#     8   8   8   8   8
#     4  12  28  49  72 101 136 179 231 287 350 413
#     4  11  21  40  70 102 139 179 232 276 338 397
#     4  12  28  49  72 101 136 179 231 287 350 413
#     4  10  21  38  67 104 139 184 227 278 325 408
#     4  11  21  40  70 102 139 179 232 276 338 397
#
# _framework density 23.312259000000001
#
# number of rings (size 3 to 8) (size 9 to 14) (size 15 to 20)
#    0.000    0.800    2.000    7.200    5.600    0.000 
#    0.000    6.000    0.000    0.000    0.000    0.000 
#    0.000    0.000    0.000    0.000    0.000    0.000 
#
# Total GULP energy -247943.114237 kJ/mol
# GULP energy per Si atom -12397.155712 kJ/mol
# Density = 2.325920 g / cm^3
# Si number density = 23.312259 Si / 1000 Ang^3
#
#
#
# Elastic Constant Matrix: (Units=GPa)
#
#
# Indices 1 2 3 4 5 6 
#
# 1 68.3667 39.7531 16.2259 -0.0002 -0.0007 -0.0001
# 2 39.7531 130.6445 47.1753 0.0002 -0.0010 -0.0002
# 3 16.2259 47.1753 139.5018 0.0004 -0.0057 -0.0014
# 4 -0.0002 0.0002 0.0004 60.1901 -0.0019 -0.0005
# 5 -0.0007 -0.0010 -0.0057 -0.0019 20.4830 -0.0001
# 6 -0.0001 -0.0002 -0.0014 -0.0005 -0.0001 28.3230
#
#
#
# Elastic Compliance Matrix: (Units=1/GPa)
#
#
# Indices 1 2 3 4 5 6 
#
# 1 0.017780 -0.005312 -0.000272 0.000000 0.000000 0.000000
# 2 -0.005312 0.010306 -0.002867 0.000000 0.000000 0.000000
# 3 -0.000272 -0.002867 0.008170 0.000000 0.000002 0.000000
# 4 0.000000 0.000000 0.000000 0.016614 0.000002 0.000000
# 5 0.000000 0.000000 0.000002 0.000002 0.048821 0.000000
# 6 0.000000 0.000000 0.000000 0.000000 0.000000 0.035307
#
#
# Mechanical properties :
#
#
# Convention : Reuss Voigt Hill
#
# Bulk Modulus (GPa) = 51.66969 60.53575 56.10272
# Shear Modulus (GPa) = 31.18147 37.48981 34.33564
#
# Velocity S-wave (km/s) = 3.66123 4.01454 3.84195
# Velocity P-wave (km/s) = 6.33128 6.89292 6.61806
#
# Compressibility (1/GPa) = 0.01935371
#
# Stress axis : x y z
#
# Youngs Moduli (GPa) = 56.24190 97.02929 122.40466
#
# Poissons Ratio (x) = 0.51544 0.03325
# Poissons Ratio (y) = 0.29877 0.35098
# Poissons Ratio (z) = 0.01528 0.27822
#
# Static dielectric constant tensor:
#      x y z
#    x 4.121710 0.000000 0.000010 
#    y 0.000000 4.332500 0.000000 
#    z 0.000010 0.000000 4.616860 
# 
# 
# High freq. dielectric constant tensor:
#      x y z
#    x 1.899850 0.000000 0.000000 
#    y 0.000000 1.934960 0.000000 
#    z 0.000000 0.000000 1.944910 
# 
# From -- ./inp_files/943.got.cif
#   From: 2010.03.12/outbox.cif.g09.slc.cpg/sg45_1_cif.got.tgz:943.got - 2010.04.14 02:50:11.
