data_PCOD8190224
_publ_section_title
;
Structure prediction by ZEFSAII (Michael W. Deem and Ramdas Pophale) SiO2 
 PCOD8190224
Probable space group: I M M 2
;
_chemical_formula_sum "Si O2"
_cell_formula_units_Z 48
_cell_length_a 18.284731
_cell_length_b 8.578492
_cell_length_c 15.074486
_cell_angle_alpha 90.000000
_cell_angle_beta 90.000000
_cell_angle_gamma 90.000000
_cell_volume 2364.514812
_symmetry_space_group_name_H-M "I M M 2"
_symmetry_group_IT_number 44
_symmetry_cell_setting 'orthorhombic'
loop_
_space_group_symop_operation_xyz
x,y,z
-x,-y,z
-x,y,z
x,-y,z
1/2+x,1/2+y,1/2+z
1/2-x,1/2-y,1/2+z
1/2-x,1/2+y,1/2+z
1/2+x,1/2-y,1/2+z
loop_
_atom_site_type_symbol
_atom_site_label
_atom_site_fract_x
_atom_site_fract_y
_atom_site_fract_z
Si Si1 0.152319 0.317514 0.769540
Si Si2 0.500000 0.315536 0.212735
Si Si3 0.733810 0.320012 0.425969
Si Si4 0.275534 0.684273 0.628864
Si Si5 0.500000 0.315197 0.016356
Si Si6 0.880931 0.182030 0.382465
Si Si7 0.080075 0.679536 0.205593
O O1 0.143638 0.500000 0.757217
O O2 0.073393 0.240252 0.759583
O O3 0.174512 0.277867 0.870534
O O4 0.211952 0.254832 0.696495
O O5 0.500000 0.500000 0.209990
O O6 0.500000 0.243316 0.113874
O O7 0.712017 0.500000 0.419635
O O8 0.742739 0.266411 0.528062
O O9 0.809612 0.287754 0.377253
O O10 0.283789 0.500000 0.640503
O O11 0.353981 0.762302 0.644670
O O12 0.500000 0.500000 0.015947
O O13 0.572316 0.258223 0.965945
O O14 0.924876 0.214334 0.293074
O O15 0.860133 0.000000 0.389133
O O16 0.093627 0.500000 0.230984
O O17 0.000000 0.698455 0.158342
#
# Coordination Sequence:
#
# PCOD8190224 Si02
#       7
#     8   4   8   8   4   8   8
#     4  11  23  42  65  91 124 165 206 254 309 368
#     4  11  23  41  63  90 123 162 207 257 308 362
#     4  11  23  40  62  92 122 160 208 256 305 365
#     4  10  23  42  65  91 123 163 207 252 308 370
#     4   9  20  35  57  90 123 158 201 247 304 370
#     4  11  20  35  59  88 123 161 198 245 305 367
#     4  11  23  38  59  90 125 161 202 251 305 361
#
# _framework density 20.300148
#
# number of rings (size 3 to 8) (size 9 to 14) (size 15 to 20)
#    0.000    1.333    2.500    3.250    0.000    3.000 
#    1.500    2.500    0.000    0.000    0.000    0.000 
#    0.000    0.000    0.000    0.000    0.000    0.000 
#
# Total GULP energy -297557.816788 kJ/mol
# GULP energy per Si atom -12398.242366 kJ/mol
# Density = 2.025394 g / cm^3
# Si number density = 20.300148 Si / 1000 Ang^3
#
#
#
# Elastic Constant Matrix: (Units=GPa)
#
#
# Indices 1 2 3 4 5 6 
#
# 1 149.5269 32.5585 39.2670 0.0000 0.0000 0.0000
# 2 32.5585 52.5555 25.2456 0.0000 0.0000 0.0000
# 3 39.2670 25.2456 90.7913 0.0000 0.0000 0.0000
# 4 0.0000 0.0000 0.0000 27.7632 0.0000 0.0000
# 5 0.0000 0.0000 0.0000 0.0000 28.3668 0.0000
# 6 0.0000 0.0000 0.0000 0.0000 0.0000 33.2222
#
#
#
# Elastic Compliance Matrix: (Units=1/GPa)
#
#
# Indices 1 2 3 4 5 6 
#
# 1 0.008179 -0.003887 -0.002457 0.000000 0.000000 0.000000
# 2 -0.003887 0.023808 -0.004939 0.000000 0.000000 0.000000
# 3 -0.002457 -0.004939 0.013450 0.000000 0.000000 0.000000
# 4 0.000000 0.000000 0.000000 0.036019 0.000000 0.000000
# 5 0.000000 0.000000 0.000000 0.000000 0.035253 0.000000
# 6 0.000000 0.000000 0.000000 0.000000 0.000000 0.030100
#
#
# Mechanical properties :
#
#
# Convention : Reuss Voigt Hill
#
# Bulk Modulus (GPa) = 43.72148 54.11288 48.91718
# Shear Modulus (GPa) = 28.24881 30.92394 29.58638
#
# Velocity S-wave (km/s) = 3.73440 3.90723 3.82179
# Velocity P-wave (km/s) = 6.33866 6.86072 6.60485
#
# Compressibility (1/GPa) = 0.02287205
#
# Stress axis : x y z
#
# Youngs Moduli (GPa) = 122.26011 42.00265 74.34873
#
# Poissons Ratio (x) = 0.16327 0.18265
# Poissons Ratio (y) = 0.47523 0.36721
# Poissons Ratio (z) = 0.30035 0.20745
#
# Static dielectric constant tensor:
#      x y z
#    x 3.767000 0.000000 0.000000 
#    y 0.000000 3.525940 0.000000 
#    z 0.000000 0.000000 3.795210 
# 
# 
# High freq. dielectric constant tensor:
#      x y z
#    x 1.803370 0.000000 0.000000 
#    y 0.000000 1.787350 0.000000 
#    z 0.000000 0.000000 1.786870 
# 
# From -- ./inp_files/18829.got.cif
#   From: 2010.03.12/outbox.cif.g09.slc.cpg/sg44_10_cif.got.tgz:18829.got - 2010.04.14 02:36:11.
