data_PCOD8190479
_publ_section_title
;
Structure prediction by ZEFSAII (Michael W. Deem and Ramdas Pophale) SiO2 
 PCOD8190479
Probable space group: I B A 2
;
_chemical_formula_sum "Si O2"
_cell_formula_units_Z 64
_cell_length_a 9.948688
_cell_length_b 16.081401
_cell_length_c 18.894556
_cell_angle_alpha 90.000000
_cell_angle_beta 90.000000
_cell_angle_gamma 90.000000
_cell_volume 3022.918119
_symmetry_space_group_name_H-M "I B A 2"
_symmetry_group_IT_number 45
_symmetry_cell_setting 'orthorhombic'
loop_
_space_group_symop_operation_xyz
x,y,z
-x,-y,z
-x,y,1/2+z
x,-y,1/2+z
1/2+x,1/2+y,1/2+z
1/2-x,1/2-y,1/2+z
1/2-x,1/2+y,z
1/2+x,1/2-y,z
loop_
_atom_site_type_symbol
_atom_site_label
_atom_site_fract_x
_atom_site_fract_y
_atom_site_fract_z
Si Si1 0.011789 0.665062 0.564410
Si Si2 0.866176 0.848990 0.208320
Si Si3 0.637057 0.546234 0.437507
Si Si4 0.106725 0.346342 0.212800
Si Si5 0.132365 0.868744 0.286820
Si Si6 0.802180 0.175024 0.557133
Si Si7 0.107219 0.437178 0.936367
Si Si8 0.868204 0.673082 0.807984
O O1 0.043027 0.620410 0.639783
O O2 0.113792 0.740466 0.551369
O O3 0.035967 0.594147 0.507197
O O4 0.857183 0.696314 0.560496
O O5 0.872693 0.750695 0.201026
O O6 0.840733 0.879036 0.127572
O O7 0.746047 0.871460 0.261318
O O8 0.999791 0.888785 0.241458
O O9 0.500000 0.500000 0.456436
O O10 0.637101 0.574618 0.355944
O O11 0.657991 0.624893 0.487545
O O12 0.754556 0.482012 0.453856
O O13 0.245292 0.391629 0.234046
O O14 0.008479 0.359875 0.278387
O O15 0.142032 0.772485 0.309302
O O16 0.141977 0.358365 0.887749
O O17 0.000000 0.500000 0.899935
#
# Coordination Sequence:
#
# PCOD8190479 Si02
#       8
#     8   8   8   8   8   8   8   8
#     4  11  24  43  69  99 128 169 224 269 328 388
#     4   9  19  37  67  96 126 153 211 277 327 372
#     4  12  27  45  62  94 138 178 219 266 322 386
#     4   9  19  35  66  97 122 153 212 275 322 374
#     4  10  21  41  65  96 126 163 215 269 319 392
#     4  11  24  44  70  98 128 170 220 272 325 392
#     4  12  25  43  62  89 137 176 214 267 320 387
#     4  10  19  39  65  93 119 167 211 265 325 379
#
# _framework density 21.171595
#
# number of rings (size 3 to 8) (size 9 to 14) (size 15 to 20)
#    0.000    1.500    2.500    2.250    7.000    0.000 
#    4.500    7.500    0.000    0.000    0.000    0.000 
#    0.000    0.000    0.000    0.000    0.000    0.000 
#
# Total GULP energy -396804.439147 kJ/mol
# GULP energy per Si atom -12400.138723 kJ/mol
# Density = 2.112341 g / cm^3
# Si number density = 21.171595 Si / 1000 Ang^3
#
#
#
# Elastic Constant Matrix: (Units=GPa)
#
#
# Indices 1 2 3 4 5 6 
#
# 1 163.8118 29.6346 27.1351 0.0000 0.0000 0.0000
# 2 29.6346 46.2880 23.6911 0.0000 0.0000 0.0000
# 3 27.1351 23.6911 101.6855 0.0000 0.0000 0.0000
# 4 0.0000 0.0000 0.0000 13.1147 0.0000 0.0000
# 5 0.0000 0.0000 0.0000 0.0000 25.4648 0.0000
# 6 0.0000 0.0000 0.0000 0.0000 0.0000 29.6499
#
#
#
# Elastic Compliance Matrix: (Units=1/GPa)
#
#
# Indices 1 2 3 4 5 6 
#
# 1 0.006981 -0.003992 -0.000933 0.000000 0.000000 0.000000
# 2 -0.003992 0.026812 -0.005181 0.000000 0.000000 0.000000
# 3 -0.000933 -0.005181 0.011290 0.000000 0.000000 0.000000
# 4 0.000000 0.000000 0.000000 0.076250 0.000000 0.000000
# 5 0.000000 0.000000 0.000000 0.000000 0.039270 0.000000
# 6 0.000000 0.000000 0.000000 0.000000 0.000000 0.033727
#
#
# Mechanical properties :
#
#
# Convention : Reuss Voigt Hill
#
# Bulk Modulus (GPa) = 40.20818 52.52299 46.36559
# Shear Modulus (GPa) = 22.43830 29.06752 25.75291
#
# Velocity S-wave (km/s) = 3.25904 3.70935 3.49146
# Velocity P-wave (km/s) = 5.76147 6.57327 6.18071
#
# Compressibility (1/GPa) = 0.02487056
#
# Stress axis : x y z
#
# Youngs Moduli (GPa) = 143.23997 37.29722 88.57112
#
# Poissons Ratio (x) = 0.14889 0.08263
# Poissons Ratio (y) = 0.57183 0.45892
# Poissons Ratio (z) = 0.13363 0.19325
#
# Static dielectric constant tensor:
#      x y z
#    x 5.577120 0.000000 0.000000 
#    y 0.000000 3.383810 0.000000 
#    z 0.000000 0.000000 4.071610 
# 
# 
# High freq. dielectric constant tensor:
#      x y z
#    x 1.849440 0.000000 0.000000 
#    y 0.000000 1.800970 0.000000 
#    z 0.000000 0.000000 1.842440 
# 
# From -- ./inp_files/7774.got.cif
#   From: 2010.03.12/outbox.cif.g09.slc.cpg/sg45_4_cif.got.tgz:7774.got - 2010.04.14 02:50:11.
