data_PCOD8190088
_publ_section_title
;
Structure prediction by ZEFSAII (Michael W. Deem and Ramdas Pophale) SiO2 
 PCOD8190088
Probable space group: I M M 2
;
_chemical_formula_sum "Si O2"
_cell_formula_units_Z 40
_cell_length_a 15.476510
_cell_length_b 18.289725
_cell_length_c 6.659640
_cell_angle_alpha 90.000000
_cell_angle_beta 90.000000
_cell_angle_gamma 90.000000
_cell_volume 1885.085103
_symmetry_space_group_name_H-M "I M M 2"
_symmetry_group_IT_number 44
_symmetry_cell_setting 'orthorhombic'
loop_
_space_group_symop_operation_xyz
x,y,z
-x,-y,z
-x,y,z
x,-y,z
1/2+x,1/2+y,1/2+z
1/2-x,1/2-y,1/2+z
1/2-x,1/2+y,1/2+z
1/2+x,1/2-y,1/2+z
loop_
_atom_site_type_symbol
_atom_site_label
_atom_site_fract_x
_atom_site_fract_y
_atom_site_fract_z
Si Si1 0.597785 0.083502 0.601760
Si Si2 0.681063 0.316523 0.480883
Si Si3 0.595753 0.346432 0.085699
Si Si4 0.642763 0.219698 0.826487
Si Si5 0.256237 0.415228 0.824135
O O1 0.500000 0.090754 0.518287
O O2 0.609587 0.136588 0.795949
O O3 0.665558 0.107241 0.429129
O O4 0.616089 0.000000 0.672104
O O5 0.615906 0.352454 0.322116
O O6 0.623944 0.263386 0.619793
O O7 0.753931 0.273366 0.355327
O O8 0.733456 0.376224 0.610617
O O9 0.500000 0.378478 0.050922
O O10 0.663874 0.395145 0.966401
O O11 0.596737 0.261439 0.010692
O O12 0.257790 0.500000 0.778514
#
# Coordination Sequence:
#
# PCOD8190088 Si02
#       5
#     8   8   8   8   8
#     4  10  21  39  64  93 125 163 206 254 310 370
#     4  11  21  38  64  91 122 163 208 249 304 368
#     4  11  24  40  64  95 126 162 206 256 308 365
#     4  11  20  39  63  92 122 160 202 252 307 363
#     4  10  23  42  64  90 126 166 207 256 307 366
#
# _framework density 21.219201999999999
#
# number of rings (size 3 to 8) (size 9 to 14) (size 15 to 20)
#    0.000    1.400    4.000    1.800    0.000    6.000 
#    0.000    1.000    0.000    2.400    0.000    0.000 
#    0.000    0.000    0.000    0.000    0.000    0.000 
#
# Total GULP energy -247982.497977 kJ/mol
# GULP energy per Si atom -12399.124899 kJ/mol
# Density = 2.117091 g / cm^3
# Si number density = 21.219202 Si / 1000 Ang^3
#
#
#
# Elastic Constant Matrix: (Units=GPa)
#
#
# Indices 1 2 3 4 5 6 
#
# 1 136.0242 12.1525 26.2290 0.0000 0.0000 0.0000
# 2 12.1525 74.8749 22.8194 0.0000 0.0000 0.0000
# 3 26.2290 22.8194 93.8683 0.0000 0.0000 0.0000
# 4 0.0000 0.0000 0.0000 27.0270 0.0000 0.0000
# 5 0.0000 0.0000 0.0000 0.0000 15.9268 0.0000
# 6 0.0000 0.0000 0.0000 0.0000 0.0000 23.9305
#
#
#
# Elastic Compliance Matrix: (Units=1/GPa)
#
#
# Indices 1 2 3 4 5 6 
#
# 1 0.007799 -0.000650 -0.002021 0.000000 0.000000 0.000000
# 2 -0.000650 0.014478 -0.003338 0.000000 0.000000 0.000000
# 3 -0.002021 -0.003338 0.012030 0.000000 0.000000 0.000000
# 4 0.000000 0.000000 0.000000 0.037000 0.000000 0.000000
# 5 0.000000 0.000000 0.000000 0.000000 0.062787 0.000000
# 6 0.000000 0.000000 0.000000 0.000000 0.000000 0.041788
#
#
# Mechanical properties :
#
#
# Convention : Reuss Voigt Hill
#
# Bulk Modulus (GPa) = 44.86565 47.46323 46.16444
# Shear Modulus (GPa) = 25.59761 29.61462 27.60612
#
# Velocity S-wave (km/s) = 3.47701 3.73990 3.61085
# Velocity P-wave (km/s) = 6.10813 6.40825 6.25999
#
# Compressibility (1/GPa) = 0.02228877
#
# Stress axis : x y z
#
# Youngs Moduli (GPa) = 128.21396 69.06823 83.12865
#
# Poissons Ratio (x) = 0.04488 0.16803
# Poissons Ratio (y) = 0.08332 0.27749
# Poissons Ratio (z) = 0.25917 0.23056
#
# Static dielectric constant tensor:
#      x y z
#    x 3.786510 0.000000 0.000000 
#    y 0.000000 3.832810 0.000000 
#    z 0.000000 0.000000 3.753390 
# 
# 
# High freq. dielectric constant tensor:
#      x y z
#    x 1.830900 0.000000 0.000000 
#    y 0.000000 1.826270 0.000000 
#    z 0.000000 0.000000 1.822420 
# 
# From -- ./inp_files/1901.got.cif
#   From: 2010.03.12/outbox.cif.g09.slc.cpg/sg44_1_cif.got.tgz:1901.got - 2010.04.14 02:36:11.
