data_PCOD8190969
_publ_section_title
;
Structure prediction by ZEFSAII (Michael W. Deem and Ramdas Pophale) SiO2 
 PCOD8190969
Probable space group: I B A 2
;
_chemical_formula_sum "Si O2"
_cell_formula_units_Z 56
_cell_length_a 10.653338
_cell_length_b 20.739766
_cell_length_c 11.289287
_cell_angle_alpha 90.000000
_cell_angle_beta 90.000000
_cell_angle_gamma 90.000000
_cell_volume 2494.342418
_symmetry_space_group_name_H-M "I B A 2"
_symmetry_group_IT_number 45
_symmetry_cell_setting 'orthorhombic'
loop_
_space_group_symop_operation_xyz
x,y,z
-x,-y,z
-x,y,1/2+z
x,-y,1/2+z
1/2+x,1/2+y,1/2+z
1/2-x,1/2-y,1/2+z
1/2-x,1/2+y,z
1/2+x,1/2-y,z
loop_
_atom_site_type_symbol
_atom_site_label
_atom_site_fract_x
_atom_site_fract_y
_atom_site_fract_z
Si Si1 0.863785 0.025984 0.243190
Si Si2 0.851385 0.676169 0.142979
Si Si3 0.252340 0.399856 0.811505
Si Si4 0.775177 0.630768 0.385562
Si Si5 0.521051 0.924881 0.482552
Si Si6 0.115573 0.880793 0.044228
Si Si7 0.856808 0.819274 0.103220
O O1 0.830550 0.082306 0.335893
O O2 0.850253 0.052125 0.109335
O O3 0.764225 0.968303 0.247028
O O4 0.000000 0.000000 0.275818
O O5 0.838681 0.672632 0.283472
O O6 0.713488 0.674190 0.084054
O O7 0.907761 0.746671 0.118421
O O8 0.938747 0.617119 0.097555
O O9 0.118362 0.403328 0.878456
O O10 0.268210 0.343571 0.712445
O O11 0.367965 0.390996 0.904004
O O12 0.716958 0.679703 0.479922
O O13 0.881280 0.590873 0.448808
O O14 0.500000 0.000000 0.513325
O O15 0.976989 0.864779 0.089053
#
# Coordination Sequence:
#
# PCOD8190969 Si02
#       7
#     8   8   8   8   8   8   8
#     4  11  21  43  70 104 141 179 230 300 359 421
#     4  10  28  47  70 104 147 190 238 304 361 442
#     4  11  25  43  73 109 143 186 239 303 361 437
#     4  11  27  45  72 108 138 191 243 298 369 443
#     4  11  25  49  75 105 147 190 243 309 369 441
#     4  10  25  46  67 105 143 180 233 297 355 430
#     4  12  27  45  75 105 141 199 240 291 375 437
#
# _framework density 22.450806
#
# number of rings (size 3 to 8) (size 9 to 14) (size 15 to 20)
#    0.000    1.143    2.857    0.857   12.000    2.286 
#    0.000    0.000    0.000    0.000    0.000    0.000 
#    0.000    0.000    0.000    0.000    0.000    0.000 
#
# Total GULP energy -347117.468110 kJ/mol
# GULP energy per Si atom -12397.052432 kJ/mol
# Density = 2.239971 g / cm^3
# Si number density = 22.450806 Si / 1000 Ang^3
#
#
#
# Elastic Constant Matrix: (Units=GPa)
#
#
# Indices 1 2 3 4 5 6 
#
# 1 60.4199 17.1968 26.3509 -0.0003 0.0001 0.0000
# 2 17.1968 134.5877 53.2796 0.0003 0.0003 0.0000
# 3 26.3509 53.2796 142.1595 0.0002 0.0007 0.0000
# 4 -0.0003 0.0003 0.0002 26.0698 0.0002 0.0000
# 5 0.0001 0.0003 0.0007 0.0002 23.4190 -0.0001
# 6 0.0000 0.0000 0.0000 0.0000 -0.0001 26.1010
#
#
#
# Elastic Compliance Matrix: (Units=1/GPa)
#
#
# Indices 1 2 3 4 5 6 
#
# 1 0.018159 -0.001160 -0.002931 0.000000 0.000000 0.000000
# 2 -0.001160 0.008799 -0.003083 0.000000 0.000000 0.000000
# 3 -0.002931 -0.003083 0.008733 0.000000 0.000000 0.000000
# 4 0.000000 0.000000 0.000000 0.038359 0.000000 0.000000
# 5 0.000000 0.000000 0.000000 0.000000 0.042700 0.000000
# 6 0.000000 0.000000 0.000000 0.000000 0.000000 0.038313
#
#
# Mechanical properties :
#
#
# Convention : Reuss Voigt Hill
#
# Bulk Modulus (GPa) = 46.85285 58.98018 52.91651
# Shear Modulus (GPa) = 28.32463 31.14061 29.73262
#
# Velocity S-wave (km/s) = 3.55580 3.72837 3.64310
# Velocity P-wave (km/s) = 6.14595 6.69792 6.42786
#
# Compressibility (1/GPa) = 0.02134342
#
# Stress axis : x y z
#
# Youngs Moduli (GPa) = 55.06785 113.65411 114.50765
#
# Poissons Ratio (x) = 0.13182 0.33566
# Poissons Ratio (y) = 0.06387 0.35298
# Poissons Ratio (z) = 0.16142 0.35035
#
# Static dielectric constant tensor:
#      x y z
#    x 4.049090 0.000000 0.000000 
#    y 0.000000 3.931120 0.000000 
#    z 0.000000 0.000000 4.218000 
# 
# 
# High freq. dielectric constant tensor:
#      x y z
#    x 1.885590 0.000000 0.000000 
#    y 0.000000 1.880730 0.000000 
#    z 0.000000 0.000000 1.891550 
# 
# From -- ./inp_files/3764.got.cif
#   From: 2010.03.12/outbox.cif.g09.slc.cpg/sg45_2_cif.got.tgz:3764.got - 2010.04.14 02:50:11.
