data_PCOD8190586
_publ_section_title
;
Structure prediction by ZEFSAII (Michael W. Deem and Ramdas Pophale) SiO2 
 PCOD8190586
Probable space group: I B A 2
;
_chemical_formula_sum "Si O2"
_cell_formula_units_Z 48
_cell_length_a 9.715681
_cell_length_b 16.009242
_cell_length_c 16.251732
_cell_angle_alpha 90.000000
_cell_angle_beta 90.000000
_cell_angle_gamma 90.000000
_cell_volume 2527.805582
_symmetry_space_group_name_H-M "I B A 2"
_symmetry_group_IT_number 45
_symmetry_cell_setting 'orthorhombic'
loop_
_space_group_symop_operation_xyz
x,y,z
-x,-y,z
-x,y,1/2+z
x,-y,1/2+z
1/2+x,1/2+y,1/2+z
1/2-x,1/2-y,1/2+z
1/2-x,1/2+y,z
1/2+x,1/2-y,z
loop_
_atom_site_type_symbol
_atom_site_label
_atom_site_fract_x
_atom_site_fract_y
_atom_site_fract_z
Si Si1 0.029802 0.167421 0.312730
Si Si2 0.623001 0.563008 0.953329
Si Si3 0.232695 0.309238 0.278837
Si Si4 0.369492 0.954489 0.395259
Si Si5 0.500000 0.500000 0.710026
Si Si6 0.500000 0.000000 0.552419
Si Si7 0.256959 0.578531 0.624117
O O1 0.069190 0.144339 0.405637
O O2 0.144103 0.225763 0.271748
O O3 0.883657 0.214872 0.312235
O O4 0.016807 0.081112 0.264831
O O5 0.500000 0.500000 0.975717
O O6 0.735937 0.514423 0.897716
O O7 0.687864 0.604658 0.034565
O O8 0.162703 0.372242 0.343639
O O9 0.248064 0.344579 0.186710
O O10 0.415875 0.936202 0.490907
O O11 0.500000 0.000000 0.351014
O O12 0.360937 0.507325 0.656819
O O13 0.602969 0.954902 0.614323
#
# Coordination Sequence:
#
# PCOD8190586 Si02
#       7
#     8   8   8   8   4   4   8
#     4  11  24  40  62  88 125 166 215 250 318 379
#     4  11  18  40  67  88 120 163 214 262 295 388
#     4  11  24  40  58  94 123 162 207 260 316 373
#     4   9  20  37  62  90 118 158 213 244 310 374
#     4  10  20  40  62  86 116 172 206 252 312 390
#     4   8  20  34  60  92 120 160 204 250 312 368
#     4  10  21  36  61  92 121 153 208 257 318 359
#
# _framework density 18.988800999999999
#
# number of rings (size 3 to 8) (size 9 to 14) (size 15 to 20)
#    0.500    1.333    3.333    1.000    3.500    1.333 
#    0.000   10.000    0.000    0.000    0.000    0.000 
#    0.000    0.000    0.000    0.000    0.000    0.000 
#
# Total GULP energy -297465.710802 kJ/mol
# GULP energy per Si atom -12394.404617 kJ/mol
# Density = 1.894558 g / cm^3
# Si number density = 18.988801 Si / 1000 Ang^3
#
#
#
# Elastic Constant Matrix: (Units=GPa)
#
#
# Indices 1 2 3 4 5 6 
#
# 1 154.4256 52.6582 41.5624 0.0000 0.0000 0.0000
# 2 52.6582 80.3573 35.4783 0.0000 0.0000 0.0000
# 3 41.5624 35.4783 91.0162 0.0000 0.0000 0.0000
# 4 0.0000 0.0000 0.0000 6.6879 0.0000 0.0000
# 5 0.0000 0.0000 0.0000 0.0000 28.8381 0.0000
# 6 0.0000 0.0000 0.0000 0.0000 0.0000 36.2776
#
#
#
# Elastic Compliance Matrix: (Units=1/GPa)
#
#
# Indices 1 2 3 4 5 6 
#
# 1 0.008660 -0.004746 -0.002105 0.000000 0.000000 0.000000
# 2 -0.004746 0.017632 -0.004706 0.000000 0.000000 0.000000
# 3 -0.002105 -0.004706 0.013783 0.000000 0.000000 0.000000
# 4 0.000000 0.000000 0.000000 0.149523 0.000000 0.000000
# 5 0.000000 0.000000 0.000000 0.000000 0.034676 0.000000
# 6 0.000000 0.000000 0.000000 0.000000 0.000000 0.027565
#
#
# Mechanical properties :
#
#
# Convention : Reuss Voigt Hill
#
# Bulk Modulus (GPa) = 58.95532 65.02189 61.98861
# Shear Modulus (GPa) = 17.81854 27.43408 22.62631
#
# Velocity S-wave (km/s) = 3.06661 3.80511 3.45564
# Velocity P-wave (km/s) = 6.60709 7.32269 6.97407
#
# Compressibility (1/GPa) = 0.01696200
#
# Stress axis : x y z
#
# Youngs Moduli (GPa) = 115.46773 56.71487 72.55558
#
# Poissons Ratio (x) = 0.26916 0.15272
# Poissons Ratio (y) = 0.54800 0.34143
# Poissons Ratio (z) = 0.24304 0.26689
#
# Static dielectric constant tensor:
#      x y z
#    x 3.955440 0.000000 0.000000 
#    y 0.000000 3.078760 0.000000 
#    z 0.000000 0.000000 3.532210 
# 
# 
# High freq. dielectric constant tensor:
#      x y z
#    x 1.767370 0.000000 0.000000 
#    y 0.000000 1.694280 0.000000 
#    z 0.000000 0.000000 1.741960 
# 
# From -- ./inp_files/7606.got.cif
#   From: 2010.03.12/outbox.cif.g09.slc.cpg/sg45_4_cif.got.tgz:7606.got - 2010.04.14 02:50:11.
