data_PCOD8190626
_publ_section_title
;
Structure prediction by ZEFSAII (Michael W. Deem and Ramdas Pophale) SiO2 
 PCOD8190626
Probable space group: I B A 2
;
_chemical_formula_sum "Si O2"
_cell_formula_units_Z 64
_cell_length_a 4.968549
_cell_length_b 33.705923
_cell_length_c 19.013133
_cell_angle_alpha 90.000000
_cell_angle_beta 90.000000
_cell_angle_gamma 90.000000
_cell_volume 3184.120448
_symmetry_space_group_name_H-M "I B A 2"
_symmetry_group_IT_number 45
_symmetry_cell_setting 'orthorhombic'
loop_
_space_group_symop_operation_xyz
x,y,z
-x,-y,z
-x,y,1/2+z
x,-y,1/2+z
1/2+x,1/2+y,1/2+z
1/2-x,1/2-y,1/2+z
1/2-x,1/2+y,z
1/2+x,1/2-y,z
loop_
_atom_site_type_symbol
_atom_site_label
_atom_site_fract_x
_atom_site_fract_y
_atom_site_fract_z
Si Si1 0.027106 0.275902 0.616300
Si Si2 0.746501 0.026584 0.958213
Si Si3 0.507566 0.146601 0.703077
Si Si4 0.507566 0.853399 0.867617
Si Si5 0.972894 0.724098 0.454393
Si Si6 0.514136 0.597041 0.203410
Si Si7 0.253499 0.973416 0.112480
Si Si8 0.014136 0.097041 0.367283
O O1 0.734082 0.259172 0.634338
O O2 0.053661 0.288947 0.535347
O O3 0.091544 0.313995 0.662784
O O4 0.656227 0.043780 0.035347
O O5 0.500000 0.000000 0.926176
O O6 0.852516 0.059982 0.905794
O O7 0.000000 0.000000 0.971856
O O8 0.500000 0.155906 0.785347
O O9 0.206549 0.133770 0.683617
O O10 0.714246 0.110927 0.681228
O O11 0.591544 0.813995 0.907909
O O12 0.206548 0.866230 0.887076
O O13 0.714246 0.889073 0.889466
O O14 0.265917 0.740828 0.436355
O O15 0.647484 0.559982 0.164900
O O16 0.500000 0.586214 0.285347
O O17 0.500000 0.000000 0.144518
O O18 0.000000 0.000000 0.098837
#
# Coordination Sequence:
#
# PCOD8190626 Si02
#       8
#     8   8   8   8   8   8   8   8
#     4  10  21  36  54  79 109 140 179 225 271 324
#     4  10  21  37  57  82 111 143 182 227 274 328
#     4  10  21  36  55  79 108 142 181 224 270 324
#     4  10  21  36  55  79 108 142 181 224 270 324
#     4  10  21  36  54  79 109 140 179 225 271 324
#     4  10  21  37  55  80 111 142 181 226 271 325
#     4  10  21  37  57  82 111 143 182 227 274 328
#     4  10  21  37  55  80 111 142 181 226 271 325
#
# _framework density 20.099740000000001
#
# number of rings (size 3 to 8) (size 9 to 14) (size 15 to 20)
#    0.000    2.000    0.000    3.000    0.000    3.500 
#    0.000    1.250    0.000    0.000    0.000    0.000 
#    0.000    0.000    0.000    0.000    0.000    0.000 
#
# Total GULP energy -396580.098845 kJ/mol
# GULP energy per Si atom -12393.128089 kJ/mol
# Density = 2.005399 g / cm^3
# Si number density = 20.099740 Si / 1000 Ang^3
#
#
#
# Elastic Constant Matrix: (Units=GPa)
#
#
# Indices 1 2 3 4 5 6 
#
# 1 107.8852 30.7170 41.5770 0.0000 0.0000 0.0000
# 2 30.7170 108.9842 67.8121 0.0000 0.0000 0.0000
# 3 41.5770 67.8121 74.3670 0.0000 0.0000 0.0000
# 4 0.0000 0.0000 0.0000 34.8930 0.0000 0.0000
# 5 0.0000 0.0000 0.0000 0.0000 22.8490 0.0000
# 6 0.0000 0.0000 0.0000 0.0000 0.0000 26.7536
#
#
#
# Elastic Compliance Matrix: (Units=1/GPa)
#
#
# Indices 1 2 3 4 5 6 
#
# 1 0.011970 0.001827 -0.008358 0.000000 0.000000 0.000000
# 2 0.001827 0.021488 -0.020615 0.000000 0.000000 0.000000
# 3 -0.008358 -0.020615 0.036918 0.000000 0.000000 0.000000
# 4 0.000000 0.000000 0.000000 0.028659 0.000000 0.000000
# 5 0.000000 0.000000 0.000000 0.000000 0.043766 0.000000
# 6 0.000000 0.000000 0.000000 0.000000 0.000000 0.037378
#
#
# Mechanical properties :
#
#
# Convention : Reuss Voigt Hill
#
# Bulk Modulus (GPa) = 62.17799 63.49427 62.83613
# Shear Modulus (GPa) = 20.84788 26.97447 23.91118
#
# Velocity S-wave (km/s) = 3.22409 3.66735 3.45284
# Velocity P-wave (km/s) = 6.69787 7.04207 6.87213
#
# Compressibility (1/GPa) = 0.01608286
#
# Stress axis : x y z
#
# Youngs Moduli (GPa) = 83.54235 46.53742 27.08719
#
# Poissons Ratio (x) = -0.08501 0.22639
# Poissons Ratio (y) = -0.15261 0.55841
# Poissons Ratio (z) = 0.69824 0.95939
#
# Static dielectric constant tensor:
#      x y z
#    x 4.072800 0.000000 0.000000 
#    y 0.000000 3.254190 0.000000 
#    z 0.000000 0.000000 3.661890 
# 
# 
# High freq. dielectric constant tensor:
#      x y z
#    x 1.809470 0.000000 0.000000 
#    y 0.000000 1.773220 0.000000 
#    z 0.000000 0.000000 1.774590 
# 
# From -- ./inp_files/7377.got.cif
#   From: 2010.03.12/outbox.cif.g09.slc.cpg/sg45_4_cif.got.tgz:7377.got - 2010.04.14 02:50:11.
