data_PCOD8190808
_publ_section_title
;
Structure prediction by ZEFSAII (Michael W. Deem and Ramdas Pophale) SiO2 
 PCOD8190808
Probable space group: I B A 2
;
_chemical_formula_sum "Si O2"
_cell_formula_units_Z 60
_cell_length_a 10.280966
_cell_length_b 12.139847
_cell_length_c 22.709185
_cell_angle_alpha 90.000000
_cell_angle_beta 90.000000
_cell_angle_gamma 90.000000
_cell_volume 2834.318715
_symmetry_space_group_name_H-M "I B A 2"
_symmetry_group_IT_number 45
_symmetry_cell_setting 'orthorhombic'
loop_
_space_group_symop_operation_xyz
x,y,z
-x,-y,z
-x,y,1/2+z
x,-y,1/2+z
1/2+x,1/2+y,1/2+z
1/2-x,1/2-y,1/2+z
1/2-x,1/2+y,z
1/2+x,1/2-y,z
loop_
_atom_site_type_symbol
_atom_site_label
_atom_site_fract_x
_atom_site_fract_y
_atom_site_fract_z
Si Si1 0.363597 0.476131 0.342000
Si Si2 0.904269 0.899524 0.154699
Si Si3 0.779620 0.037229 0.533056
Si Si4 0.139459 0.803039 0.433353
Si Si5 0.468523 0.846522 0.183008
Si Si6 0.000000 0.500000 0.078879
Si Si7 0.358869 0.637421 0.450426
Si Si8 0.811637 0.522992 0.736357
O O1 0.500000 0.500000 0.306499
O O2 0.350428 0.351488 0.366745
O O3 0.378078 0.549732 0.399567
O O4 0.238140 0.503543 0.302639
O O5 0.845263 0.904733 0.089228
O O6 0.970717 0.783957 0.173235
O O7 0.791217 0.907683 0.200881
O O8 0.000000 0.000000 0.164404
O O9 0.785137 0.121297 0.479704
O O10 0.629697 0.002196 0.540258
O O11 0.855377 0.925143 0.513806
O O12 0.220333 0.691281 0.435829
O O13 0.987058 0.783953 0.450994
O O14 0.564406 0.894306 0.234293
O O15 0.507459 0.891804 0.119267
O O16 0.332678 0.903716 0.203863
#
# Coordination Sequence:
#
# PCOD8190808 Si02
#       8
#     8   8   8   8   8   4   8   8
#     4   9  20  45  67  92 132 168 223 278 340 411
#     4  12  25  39  67  97 130 181 226 275 350 414
#     4  11  23  40  64  92 132 176 223 277 347 411
#     4  10  23  42  66  94 135 173 222 282 343 411
#     4  10  24  44  62  96 141 169 228 281 339 414
#     4  10  22  42  62  96 134 176 220 292 334 410
#     4  10  23  43  63  99 132 174 228 279 343 417
#     4  10  22  45  64  96 132 177 219 288 338 409
#
# _framework density 21.169108000000001
#
# number of rings (size 3 to 8) (size 9 to 14) (size 15 to 20)
#    0.000    1.867    2.667    2.400    5.600    2.133 
#    9.600    0.000    0.000    0.000    0.000    0.000 
#    0.000    0.000    0.000    0.000    0.000    0.000 
#
# Total GULP energy -371705.893028 kJ/mol
# GULP energy per Si atom -12390.196434 kJ/mol
# Density = 2.112093 g / cm^3
# Si number density = 21.169108 Si / 1000 Ang^3
#
#
#
# Elastic Constant Matrix: (Units=GPa)
#
#
# Indices 1 2 3 4 5 6 
#
# 1 109.0752 41.9414 33.3158 0.0000 0.0000 0.0000
# 2 41.9414 120.7101 21.7742 0.0000 0.0000 0.0000
# 3 33.3158 21.7742 84.4712 0.0000 0.0000 0.0000
# 4 0.0000 0.0000 0.0000 10.9737 0.0000 0.0000
# 5 0.0000 0.0000 0.0000 0.0000 47.2884 0.0000
# 6 0.0000 0.0000 0.0000 0.0000 0.0000 34.2200
#
#
#
# Elastic Compliance Matrix: (Units=1/GPa)
#
#
# Indices 1 2 3 4 5 6 
#
# 1 0.011592 -0.003359 -0.003706 0.000000 0.000000 0.000000
# 2 -0.003359 0.009662 -0.001166 0.000000 0.000000 0.000000
# 3 -0.003706 -0.001166 0.013600 0.000000 0.000000 0.000000
# 4 0.000000 0.000000 0.000000 0.091127 0.000000 0.000000
# 5 0.000000 0.000000 0.000000 0.000000 0.021147 0.000000
# 6 0.000000 0.000000 0.000000 0.000000 0.000000 0.029223
#
#
# Mechanical properties :
#
#
# Convention : Reuss Voigt Hill
#
# Bulk Modulus (GPa) = 54.37015 56.47992 55.42503
# Shear Modulus (GPa) = 25.13292 32.97809 29.05551
#
# Velocity S-wave (km/s) = 3.44938 3.95123 3.70880
# Velocity P-wave (km/s) = 6.45010 6.89598 6.67676
#
# Compressibility (1/GPa) = 0.01839245
#
# Stress axis : x y z
#
# Youngs Moduli (GPa) = 86.26992 103.50145 73.52693
#
# Poissons Ratio (x) = 0.34767 0.27248
# Poissons Ratio (y) = 0.28979 0.08571
# Poissons Ratio (z) = 0.31971 0.12065
#
# Static dielectric constant tensor:
#      x y z
#    x 3.067930 0.000000 0.000000 
#    y 0.000000 3.849110 0.000000 
#    z 0.000000 0.000000 3.782510 
# 
# 
# High freq. dielectric constant tensor:
#      x y z
#    x 1.843140 0.000000 0.000000 
#    y 0.000000 1.814990 0.000000 
#    z 0.000000 0.000000 1.822960 
# 
# From -- ./inp_files/9089.got.cif
#   From: 2010.03.12/outbox.cif.g09.slc.cpg/sg45_5_cif.got.tgz:9089.got - 2010.04.14 02:50:11.
