data_PCOD8190923
_publ_section_title
;
Structure prediction by ZEFSAII (Michael W. Deem and Ramdas Pophale) SiO2 
 PCOD8190923
Probable space group: I B A 2
;
_chemical_formula_sum "Si O2"
_cell_formula_units_Z 56
_cell_length_a 8.634934
_cell_length_b 21.325223
_cell_length_c 13.918640
_cell_angle_alpha 90.000000
_cell_angle_beta 90.000000
_cell_angle_gamma 90.000000
_cell_volume 2563.004720
_symmetry_space_group_name_H-M "I B A 2"
_symmetry_group_IT_number 45
_symmetry_cell_setting 'orthorhombic'
loop_
_space_group_symop_operation_xyz
x,y,z
-x,-y,z
-x,y,1/2+z
x,-y,1/2+z
1/2+x,1/2+y,1/2+z
1/2-x,1/2-y,1/2+z
1/2-x,1/2+y,z
1/2+x,1/2-y,z
loop_
_atom_site_type_symbol
_atom_site_label
_atom_site_fract_x
_atom_site_fract_y
_atom_site_fract_z
Si Si1 0.415892 0.063491 0.708870
Si Si2 0.461655 0.164389 0.083894
Si Si3 0.972399 0.165660 0.247114
Si Si4 0.916240 0.063152 0.110751
Si Si5 0.047967 0.065133 0.911942
Si Si6 0.288354 0.751625 0.164216
Si Si7 0.603743 0.061162 0.434289
O O1 0.528419 0.118938 0.675868
O O2 0.257512 0.065002 0.649918
O O3 0.390024 0.072337 0.821056
O O4 0.500000 0.000000 0.682082
O O5 0.608038 0.211136 0.086451
O O6 0.307212 0.204868 0.096293
O O7 0.463985 0.122807 0.986775
O O8 0.010599 0.119345 0.159588
O O9 0.959725 0.126138 0.345278
O O10 0.810834 0.200728 0.228414
O O11 0.110866 0.215847 0.245673
O O12 0.000000 0.000000 0.142271
O O13 0.922098 0.074325 0.996416
O O14 0.215612 0.053743 0.963025
O O15 0.000000 0.000000 0.856786
O O16 0.500000 0.000000 0.461134
#
# Coordination Sequence:
#
# PCOD8190923 Si02
#       7
#     8   8   8   8   8   8   8
#     4  11  25  44  71 104 139 179 220 288 358 414
#     4  11  23  46  68  98 136 179 230 290 323 418
#     4  11  22  47  66  97 139 177 230 290 321 420
#     4  11  24  42  71 103 137 177 219 285 353 416
#     4  11  25  41  68 107 136 177 224 281 358 413
#     4  10  24  43  73  94 135 190 239 266 347 388
#     4  11  25  43  70 106 141 174 227 285 356 419
#
# _framework density 21.849353000000001
#
# number of rings (size 3 to 8) (size 9 to 14) (size 15 to 20)
#    0.000    1.143    2.857    1.714   10.000    1.143 
#    0.000   15.714    0.000    0.000    0.000    0.000 
#    0.000    0.000    0.000    0.000    0.000    0.000 
#
# Total GULP energy -347145.845705 kJ/mol
# GULP energy per Si atom -12398.065918 kJ/mol
# Density = 2.179962 g / cm^3
# Si number density = 21.849353 Si / 1000 Ang^3
#
#
#
# Elastic Constant Matrix: (Units=GPa)
#
#
# Indices 1 2 3 4 5 6 
#
# 1 127.3837 83.4975 62.8408 0.0001 0.0000 0.0000
# 2 83.4975 165.6661 66.3698 0.0000 0.0000 0.0000
# 3 62.8408 66.3698 118.6425 0.0001 0.0001 0.0000
# 4 0.0001 0.0000 0.0001 37.1187 0.0000 0.0000
# 5 0.0000 0.0000 0.0001 0.0000 23.8427 0.0000
# 6 0.0000 0.0000 0.0000 0.0000 0.0000 35.1370
#
#
#
# Elastic Compliance Matrix: (Units=1/GPa)
#
#
# Indices 1 2 3 4 5 6 
#
# 1 0.013172 -0.004954 -0.004206 0.000000 0.000000 0.000000
# 2 -0.004954 0.009643 -0.002770 0.000000 0.000000 0.000000
# 3 -0.004206 -0.002770 0.012206 0.000000 0.000000 0.000000
# 4 0.000000 0.000000 0.000000 0.026941 0.000000 0.000000
# 5 0.000000 0.000000 0.000000 0.000000 0.041941 0.000000
# 6 0.000000 0.000000 0.000000 0.000000 0.000000 0.028460
#
#
# Mechanical properties :
#
#
# Convention : Reuss Voigt Hill
#
# Bulk Modulus (GPa) = 89.59570 93.01206 91.30388
# Shear Modulus (GPa) = 31.26095 32.48530 31.87312
#
# Velocity S-wave (km/s) = 3.78663 3.86007 3.82352
# Velocity P-wave (km/s) = 7.75972 7.90753 7.83397
#
# Compressibility (1/GPa) = 0.01116125
#
# Stress axis : x y z
#
# Youngs Moduli (GPa) = 75.91685 103.70146 81.92708
#
# Poissons Ratio (x) = 0.51375 0.34455
# Poissons Ratio (y) = 0.37610 0.22697
# Poissons Ratio (z) = 0.31927 0.28729
#
# Static dielectric constant tensor:
#      x y z
#    x 4.176040 0.000000 0.000000 
#    y 0.000000 4.332420 0.000000 
#    z 0.000000 0.000000 3.694560 
# 
# 
# High freq. dielectric constant tensor:
#      x y z
#    x 1.869740 0.000000 0.000000 
#    y 0.000000 1.880630 0.000000 
#    z 0.000000 0.000000 1.841680 
# 
# From -- ./inp_files/5732.got.cif
#   From: 2010.03.12/outbox.cif.g09.slc.cpg/sg45_3_cif.got.tgz:5732.got - 2010.04.14 02:50:11.
