data_PCOD8190612
_publ_section_title
;
Structure prediction by ZEFSAII (Michael W. Deem and Ramdas Pophale) SiO2 
 PCOD8190612
Probable space group: I B A 2
;
_chemical_formula_sum "Si O2"
_cell_formula_units_Z 48
_cell_length_a 15.142842
_cell_length_b 9.019263
_cell_length_c 15.830356
_cell_angle_alpha 90.000000
_cell_angle_beta 90.000000
_cell_angle_gamma 90.000000
_cell_volume 2162.066878
_symmetry_space_group_name_H-M "I B A 2"
_symmetry_group_IT_number 45
_symmetry_cell_setting 'orthorhombic'
loop_
_space_group_symop_operation_xyz
x,y,z
-x,-y,z
-x,y,1/2+z
x,-y,1/2+z
1/2+x,1/2+y,1/2+z
1/2-x,1/2-y,1/2+z
1/2-x,1/2+y,z
1/2+x,1/2-y,z
loop_
_atom_site_type_symbol
_atom_site_label
_atom_site_fract_x
_atom_site_fract_y
_atom_site_fract_z
Si Si1 0.500000 0.000000 0.515400
Si Si2 0.004383 0.741242 0.892307
Si Si3 0.318340 0.904911 0.039864
Si Si4 0.000000 0.000000 0.519522
Si Si5 0.829596 0.900640 0.102265
Si Si6 0.164338 0.257353 0.280236
Si Si7 0.171944 0.418540 0.848910
O O1 0.452644 0.884238 0.451787
O O2 0.579972 0.934574 0.571266
O O3 0.919104 0.675286 0.843908
O O4 0.077150 0.802384 0.827815
O O5 0.978361 0.864998 0.958814
O O6 0.305440 0.727415 0.034828
O O7 0.252542 0.985368 0.105487
O O8 0.304306 0.964671 0.944919
O O9 0.086214 0.004329 0.579676
O O10 0.845478 0.803809 0.185949
O O11 0.166983 0.436610 0.288409
O O12 0.252737 0.190840 0.317739
#
# Coordination Sequence:
#
# PCOD8190612 Si02
#       7
#     4   8   8   4   8   8   8
#     4  10  20  44  72 100 122 184 250 284 344 416
#     4  11  23  45  74  99 135 184 242 291 343 439
#     4  11  23  45  70 100 135 189 239 291 349 432
#     4  12  26  46  70 108 138 188 246 288 358 430
#     4  12  27  44  67 109 147 181 233 303 369 422
#     4  12  25  45  67 104 142 182 231 297 365 419
#     4  11  23  45  74 100 135 193 242 284 351 439
#
# _framework density 22.200977000000002
#
# number of rings (size 3 to 8) (size 9 to 14) (size 15 to 20)
#    0.000    0.667    6.667    3.000    4.667    0.667 
#    9.000    0.000    0.000    0.000    0.000    0.000 
#    0.000    0.000    0.000    0.000    0.000    0.000 
#
# Total GULP energy -297408.321816 kJ/mol
# GULP energy per Si atom -12392.013409 kJ/mol
# Density = 2.215045 g / cm^3
# Si number density = 22.200977 Si / 1000 Ang^3
#
#
#
# Elastic Constant Matrix: (Units=GPa)
#
#
# Indices 1 2 3 4 5 6 
#
# 1 163.9773 48.8662 44.3797 0.0000 0.0000 0.0000
# 2 48.8662 92.5859 23.5152 0.0000 0.0000 0.0000
# 3 44.3797 23.5152 74.0255 0.0000 0.0000 0.0000
# 4 0.0000 0.0000 0.0000 41.4046 0.0000 0.0000
# 5 0.0000 0.0000 0.0000 0.0000 24.4453 0.0000
# 6 0.0000 0.0000 0.0000 0.0000 0.0000 43.5588
#
#
#
# Elastic Compliance Matrix: (Units=1/GPa)
#
#
# Indices 1 2 3 4 5 6 
#
# 1 0.008119 -0.003316 -0.003814 0.000000 0.000000 0.000000
# 2 -0.003316 0.013103 -0.002174 0.000000 0.000000 0.000000
# 3 -0.003814 -0.002174 0.016486 0.000000 0.000000 0.000000
# 4 0.000000 0.000000 0.000000 0.024152 0.000000 0.000000
# 5 0.000000 0.000000 0.000000 0.000000 0.040908 0.000000
# 6 0.000000 0.000000 0.000000 0.000000 0.000000 0.022957
#
#
# Mechanical properties :
#
#
# Convention : Reuss Voigt Hill
#
# Bulk Modulus (GPa) = 52.35818 62.67898 57.51858
# Shear Modulus (GPa) = 33.17827 36.13691 34.65759
#
# Velocity S-wave (km/s) = 3.87001 4.03887 3.95534
# Velocity P-wave (km/s) = 6.60335 7.07417 6.84281
#
# Compressibility (1/GPa) = 0.01909921
#
# Stress axis : x y z
#
# Youngs Moduli (GPa) = 123.16849 76.31614 60.65731
#
# Poissons Ratio (x) = 0.25310 0.23134
# Poissons Ratio (y) = 0.40848 0.13188
# Poissons Ratio (z) = 0.46976 0.16593
#
# Static dielectric constant tensor:
#      x y z
#    x 4.006820 0.000000 0.000000 
#    y 0.000000 3.785440 0.000000 
#    z 0.000000 0.000000 3.783930 
# 
# 
# High freq. dielectric constant tensor:
#      x y z
#    x 1.887200 0.000000 0.000000 
#    y 0.000000 1.882520 0.000000 
#    z 0.000000 0.000000 1.853050 
# 
# From -- ./inp_files/7593.got.cif
#   From: 2010.03.12/outbox.cif.g09.slc.cpg/sg45_4_cif.got.tgz:7593.got - 2010.04.14 02:50:11.
