data_PCOD8190961
_publ_section_title
;
Structure prediction by ZEFSAII (Michael W. Deem and Ramdas Pophale) SiO2 
 PCOD8190961
Probable space group: I B A 2
;
_chemical_formula_sum "Si O2"
_cell_formula_units_Z 60
_cell_length_a 10.888827
_cell_length_b 24.012985
_cell_length_c 9.631301
_cell_angle_alpha 90.000000
_cell_angle_beta 90.000000
_cell_angle_gamma 90.000000
_cell_volume 2518.327472
_symmetry_space_group_name_H-M "I B A 2"
_symmetry_group_IT_number 45
_symmetry_cell_setting 'orthorhombic'
loop_
_space_group_symop_operation_xyz
x,y,z
-x,-y,z
-x,y,1/2+z
x,-y,1/2+z
1/2+x,1/2+y,1/2+z
1/2-x,1/2-y,1/2+z
1/2-x,1/2+y,z
1/2+x,1/2-y,z
loop_
_atom_site_type_symbol
_atom_site_label
_atom_site_fract_x
_atom_site_fract_y
_atom_site_fract_z
Si Si1 0.080965 0.285031 0.813870
Si Si2 0.000000 0.500000 0.922185
Si Si3 0.176276 0.837964 0.922784
Si Si4 0.181119 0.916024 0.174272
Si Si5 0.850007 0.166674 0.415568
Si Si6 0.614039 0.780990 0.014322
Si Si7 0.167810 0.472875 0.674126
Si Si8 0.913316 0.100542 0.669422
O O1 0.202793 0.318680 0.843713
O O2 0.087733 0.219274 0.843471
O O3 0.044423 0.294183 0.655764
O O4 0.966883 0.310162 0.896485
O O5 0.084127 0.462884 0.813987
O O6 0.089060 0.534206 0.030250
O O7 0.119063 0.785661 0.001695
O O8 0.081157 0.859421 0.804444
O O9 0.210890 0.886521 0.029040
O O10 0.206179 0.874190 0.300827
O O11 0.037659 0.936833 0.179559
O O12 0.276815 0.965695 0.187473
O O13 0.745082 0.190578 0.515971
O O14 0.936704 0.134452 0.525918
O O15 0.283863 0.431539 0.668387
#
# Coordination Sequence:
#
# PCOD8190961 Si02
#       8
#     8   4   8   8   8   8   8   8
#     4  11  24  43  66  97 137 184 230 286 336 411
#     4  10  24  50  70  98 136 186 208 284 344 418
#     4  11  25  42  64 100 140 176 230 281 353 400
#     4  12  24  44  71 106 131 182 233 289 342 407
#     4  11  25  42  64 100 140 176 230 281 353 400
#     4  11  24  43  66  97 137 184 230 286 336 411
#     4  11  25  48  74 102 137 179 226 280 348 407
#     4  12  24  46  69 102 135 180 231 291 342 405
#
# _framework density 23.825337000000001
#
# number of rings (size 3 to 8) (size 9 to 14) (size 15 to 20)
#    0.000    0.800    2.667    4.400    3.733    0.000 
#   14.400    4.000    0.000    0.000    0.000    0.000 
#    0.000    0.000    0.000    0.000    0.000    0.000 
#
# Total GULP energy -371858.620892 kJ/mol
# GULP energy per Si atom -12395.287363 kJ/mol
# Density = 2.377111 g / cm^3
# Si number density = 23.825337 Si / 1000 Ang^3
#
#
#
# Elastic Constant Matrix: (Units=GPa)
#
#
# Indices 1 2 3 4 5 6 
#
# 1 105.7151 20.5778 23.8289 -0.0040 0.0001 -0.0001
# 2 20.5778 66.5540 22.9178 0.0009 -0.0002 -0.0001
# 3 23.8289 22.9178 112.0457 -0.0168 -0.0010 -0.0008
# 4 -0.0040 0.0009 -0.0168 -99.6130 0.0014 -0.0009
# 5 0.0001 -0.0002 -0.0010 0.0014 43.6009 0.0000
# 6 -0.0001 -0.0001 -0.0008 -0.0009 0.0000 28.1174
#
#
#
# Elastic Compliance Matrix: (Units=1/GPa)
#
#
# Indices 1 2 3 4 5 6 
#
# 1 0.010345 -0.002626 -0.001663 0.000000 0.000000 0.000000
# 2 -0.002626 0.016830 -0.002884 0.000001 0.000000 0.000000
# 3 -0.001663 -0.002884 0.009869 -0.000002 0.000000 0.000000
# 4 0.000000 0.000001 -0.000002 -0.010039 0.000000 0.000000
# 5 0.000000 0.000000 0.000000 0.000000 0.022935 0.000000
# 6 0.000000 0.000000 0.000000 0.000000 0.000000 0.035565
#
#
# Mechanical properties :
#
#
# Convention : Reuss Voigt Hill
#
# Bulk Modulus (GPa) = 44.05639 46.55155 45.30397
# Shear Modulus (GPa) = 46.54702 8.88709 27.71705
#
# Velocity S-wave (km/s) = 4.42484 1.93344 3.41448
# Velocity P-wave (km/s) = 6.68110 4.95634 5.88228
#
# Compressibility (1/GPa) = 0.02269818
#
# Stress axis : x y z
#
# Youngs Moduli (GPa) = 96.66116 59.41610 101.33245
#
# Poissons Ratio (x) = 0.15603 0.16852
# Poissons Ratio (y) = 0.25384 0.29224
# Poissons Ratio (z) = 0.16075 0.17136
#
# Static dielectric constant tensor:
#      x y z
#    x 4.520260 0.000000 0.000000 
#    y 0.000000 4.136580 -0.000020 
#    z 0.000000 -0.000020 4.573370 
# 
# 
# High freq. dielectric constant tensor:
#      x y z
#    x 1.965090 0.000000 0.000000 
#    y 0.000000 1.914980 0.000000 
#    z 0.000000 0.000000 1.967060 
# 
# From -- ./inp_files/1460.got.cif
#   From: 2010.03.12/outbox.cif.g09.slc.cpg/sg45_1_cif.got.tgz:1460.got - 2010.04.14 02:50:11.
