data_PCOD8190511
_publ_section_title
;
Structure prediction by ZEFSAII (Michael W. Deem and Ramdas Pophale) SiO2 
 PCOD8190511
Probable space group: I B A 2
;
_chemical_formula_sum "Si O2"
_cell_formula_units_Z 64
_cell_length_a 22.969314
_cell_length_b 8.328943
_cell_length_c 16.858298
_cell_angle_alpha 90.000000
_cell_angle_beta 90.000000
_cell_angle_gamma 90.000000
_cell_volume 3225.162795
_symmetry_space_group_name_H-M "I B A 2"
_symmetry_group_IT_number 45
_symmetry_cell_setting 'orthorhombic'
loop_
_space_group_symop_operation_xyz
x,y,z
-x,-y,z
-x,y,1/2+z
x,-y,1/2+z
1/2+x,1/2+y,1/2+z
1/2-x,1/2-y,1/2+z
1/2-x,1/2+y,z
1/2+x,1/2-y,z
loop_
_atom_site_type_symbol
_atom_site_label
_atom_site_fract_x
_atom_site_fract_y
_atom_site_fract_z
Si Si1 0.818511 0.314737 0.083390
Si Si2 0.586943 0.398235 0.501000
Si Si3 0.870009 0.180533 0.409474
Si Si4 0.003100 0.683050 0.739971
Si Si5 0.874386 0.813262 0.731425
Si Si6 0.192848 0.683456 0.553328
Si Si7 0.994974 0.679105 0.921191
Si Si8 0.599053 0.378622 0.144826
O O1 0.838109 0.306651 0.175361
O O2 0.813511 0.493660 0.052419
O O3 0.758043 0.222875 0.077370
O O4 0.865918 0.229886 0.028589
O O5 0.614386 0.494747 0.426878
O O6 0.528318 0.306894 0.475865
O O7 0.571659 0.524650 0.570587
O O8 0.848123 0.199232 0.319466
O O9 0.819032 0.245762 0.465876
O O10 0.927048 0.286136 0.423588
O O11 0.021433 0.687857 0.832397
O O12 0.049233 0.779751 0.688454
O O13 0.000000 0.500000 0.709510
O O14 0.941875 0.768123 0.728143
O O15 0.869041 0.997104 0.703315
O O16 0.148203 0.755984 0.616474
O O17 0.000000 0.500000 0.956365
#
# Coordination Sequence:
#
# PCOD8190511 Si02
#       8
#     8   8   8   8   8   8   8   8
#     4  11  23  42  62  83 113 149 192 239 284 335
#     4  10  21  36  57  84 116 152 191 232 282 336
#     4  10  21  38  60  86 117 151 189 233 284 340
#     4  10  20  35  56  85 119 151 187 233 283 336
#     4  10  21  38  60  86 117 151 189 233 284 340
#     4  11  23  42  62  83 113 149 192 239 284 335
#     4  10  20  35  56  85 119 151 187 233 283 336
#     4  10  21  36  57  84 116 152 191 232 282 336
#
# _framework density 19.843958000000001
#
# number of rings (size 3 to 8) (size 9 to 14) (size 15 to 20)
#    0.000    1.750    0.000    5.250    0.000    9.000 
#    0.000   13.750    0.000    0.000    0.000    0.000 
#    0.000    0.000    0.000    0.000    0.000    0.000 
#
# Total GULP energy -396916.530049 kJ/mol
# GULP energy per Si atom -12403.641564 kJ/mol
# Density = 1.979879 g / cm^3
# Si number density = 19.843958 Si / 1000 Ang^3
#
#
#
# Elastic Constant Matrix: (Units=GPa)
#
#
# Indices 1 2 3 4 5 6 
#
# 1 45.6370 -6.5389 23.4062 0.0000 0.0000 0.0000
# 2 -6.5389 92.2598 7.4148 0.0000 0.0000 0.0000
# 3 23.4062 7.4148 82.0005 0.0000 0.0000 0.0000
# 4 0.0000 0.0000 0.0000 25.3532 0.0000 0.0000
# 5 0.0000 0.0000 0.0000 0.0000 3.0700 0.0000
# 6 0.0000 0.0000 0.0000 0.0000 0.0000 33.4848
#
#
#
# Elastic Compliance Matrix: (Units=1/GPa)
#
#
# Indices 1 2 3 4 5 6 
#
# 1 0.026221 0.002478 -0.007708 0.000000 0.000000 0.000000
# 2 0.002478 0.011152 -0.001716 0.000000 0.000000 0.000000
# 3 -0.007708 -0.001716 0.014551 0.000000 0.000000 0.000000
# 4 0.000000 0.000000 0.000000 0.039443 0.000000 0.000000
# 5 0.000000 0.000000 0.000000 0.000000 0.325734 0.000000
# 6 0.000000 0.000000 0.000000 0.000000 0.000000 0.029864
#
#
# Mechanical properties :
#
#
# Convention : Reuss Voigt Hill
#
# Bulk Modulus (GPa) = 26.29439 29.82907 28.06173
# Shear Modulus (GPa) = 10.55890 25.42262 17.99076
#
# Velocity S-wave (km/s) = 2.30922 3.58317 3.01427
# Velocity P-wave (km/s) = 4.51546 5.67303 5.12702
#
# Compressibility (1/GPa) = 0.03803093
#
# Stress axis : x y z
#
# Youngs Moduli (GPa) = 38.13795 89.66625 68.72612
#
# Poissons Ratio (x) = -0.22218 0.52977
# Poissons Ratio (y) = -0.09450 0.11792
# Poissons Ratio (z) = 0.29399 0.15384
#
# Static dielectric constant tensor:
#      x y z
#    x 3.450770 0.000000 0.000000 
#    y 0.000000 3.820120 0.000000 
#    z 0.000000 0.000000 3.846890 
# 
# 
# High freq. dielectric constant tensor:
#      x y z
#    x 1.762410 0.000000 0.000000 
#    y 0.000000 1.790180 0.000000 
#    z 0.000000 0.000000 1.777640 
# 
# From -- ./inp_files/8444.got.cif
#   From: 2010.03.12/outbox.cif.g09.slc.cpg/sg45_5_cif.got.tgz:8444.got - 2010.04.14 02:50:11.
