data_PCOD8190318
_publ_section_title
;
Structure prediction by ZEFSAII (Michael W. Deem and Ramdas Pophale) SiO2 
 PCOD8190318
Probable space group: I M M 2
;
_chemical_formula_sum "Si O2"
_cell_formula_units_Z 64
_cell_length_a 9.739039
_cell_length_b 26.715128
_cell_length_c 18.326050
_cell_angle_alpha 90.000000
_cell_angle_beta 90.000000
_cell_angle_gamma 90.000000
_cell_volume 4768.065705
_symmetry_space_group_name_H-M "I M M 2"
_symmetry_group_IT_number 44
_symmetry_cell_setting 'orthorhombic'
loop_
_space_group_symop_operation_xyz
x,y,z
-x,-y,z
-x,y,z
x,-y,z
1/2+x,1/2+y,1/2+z
1/2-x,1/2-y,1/2+z
1/2-x,1/2+y,1/2+z
1/2+x,1/2-y,1/2+z
loop_
_atom_site_type_symbol
_atom_site_label
_atom_site_fract_x
_atom_site_fract_y
_atom_site_fract_z
Si Si1 0.336514 0.444925 0.672780
Si Si2 0.159894 0.149199 0.427158
Si Si3 0.836481 0.850136 0.089800
Si Si4 0.153056 0.796795 0.950538
Si Si5 0.337113 0.555612 0.836432
Si Si6 0.162772 0.755344 0.174993
Si Si7 0.652999 0.194989 0.540768
Si Si8 0.840295 0.750440 0.338933
O O1 0.500000 0.442764 0.673730
O O2 0.287216 0.500000 0.646800
O O3 0.276775 0.403328 0.617365
O O4 0.281486 0.434349 0.754647
O O5 0.218655 0.098355 0.390757
O O6 0.241830 0.156809 0.502696
O O7 0.186446 0.194299 0.370741
O O8 0.000000 0.145029 0.447133
O O9 0.774924 0.806623 0.141824
O O10 0.000000 0.848948 0.095513
O O11 0.795010 0.840847 0.005164
O O12 0.148995 0.746607 0.997409
O O13 0.258163 0.791704 0.883829
O O14 0.000000 0.808352 0.920336
O O15 0.500000 0.559131 0.834759
O O16 0.290867 0.500000 0.862871
O O17 0.218667 0.747986 0.256783
O O18 0.000000 0.760695 0.177698
O O19 0.202580 0.707970 0.123411
O O20 0.500000 0.171180 0.541406
O O21 0.000000 0.736387 0.342975
#
# Coordination Sequence:
#
# PCOD8190318 Si02
#       8
#     8   8   8   8   8   8   8   8
#     4   8  12  17  27  46  70  91 112 140 167 187
#     4   9  15  22  34  51  69  89 112 137 165 194
#     4   8  12  19  31  45  64  91 117 136 159 195
#     4   8  14  23  33  46  66  91 113 133 163 201
#     4   8  13  20  30  47  71  93 111 135 166 195
#     4   8  13  21  33  47  63  87 116 139 161 193
#     4   8  14  24  35  46  63  88 115 139 163 195
#     4   9  15  22  34  51  68  86 112 143 166 188
#
# _framework density 13.422634
#
# number of rings (size 3 to 8) (size 9 to 14) (size 15 to 20)
#    0.000    3.750    0.000    3.000    0.000    3.000 
#    0.000    0.625    0.000    1.125    0.000    0.875 
#    0.000    2.500    0.000   10.250    0.000    1.250 
#
# Total GULP energy -396463.876577 kJ/mol
# GULP energy per Si atom -12389.496143 kJ/mol
# Density = 1.339208 g / cm^3
# Si number density = 13.422634 Si / 1000 Ang^3
#
#
#
# Elastic Constant Matrix: (Units=GPa)
#
#
# Indices 1 2 3 4 5 6 
#
# 1 28.2093 23.4631 32.2311 0.0000 0.0000 0.0000
# 2 23.4631 84.9472 57.0997 0.0000 0.0000 0.0000
# 3 32.2311 57.0997 104.3439 0.0001 0.0000 0.0000
# 4 0.0000 0.0000 0.0001 25.7812 0.0000 0.0000
# 5 0.0000 0.0000 0.0000 0.0000 17.8331 0.0000
# 6 0.0000 0.0000 0.0000 0.0000 0.0000 9.5532
#
#
#
# Elastic Compliance Matrix: (Units=1/GPa)
#
#
# Indices 1 2 3 4 5 6 
#
# 1 0.056749 -0.006156 -0.014161 0.000000 0.000000 0.000000
# 2 -0.006156 0.019290 -0.008654 0.000000 0.000000 0.000000
# 3 -0.014161 -0.008654 0.018694 0.000000 0.000000 0.000000
# 4 0.000000 0.000000 0.000000 0.038788 0.000000 0.000000
# 5 0.000000 0.000000 0.000000 0.000000 0.056075 0.000000
# 6 0.000000 0.000000 0.000000 0.000000 0.000000 0.104677
#
#
# Mechanical properties :
#
#
# Convention : Reuss Voigt Hill
#
# Bulk Modulus (GPa) = 27.18091 49.23202 38.20647
# Shear Modulus (GPa) = 13.71824 17.61393 15.66609
#
# Velocity S-wave (km/s) = 3.20038 3.62644 3.42005
# Velocity P-wave (km/s) = 5.82671 7.36836 6.64241
#
# Compressibility (1/GPa) = 0.03679053
#
# Stress axis : x y z
#
# Youngs Moduli (GPa) = 17.62135 51.84163 53.49424
#
# Poissons Ratio (x) = 0.31914 0.75752
# Poissons Ratio (y) = 0.10848 0.46295
# Poissons Ratio (z) = 0.24953 0.44864
#
# Static dielectric constant tensor:
#      x y z
#    x 2.374860 0.000000 0.000000 
#    y 0.000000 2.752150 0.000000 
#    z 0.000000 0.000000 2.869470 
# 
# 
# High freq. dielectric constant tensor:
#      x y z
#    x 1.468820 0.000000 0.000000 
#    y 0.000000 1.486110 0.000000 
#    z 0.000000 0.000000 1.503300 
# 
# From -- ./inp_files/20929.got.cif
#   From: 2010.03.12/outbox.cif.g09.slc.cpg/sg44_11_cif.got.tgz:20929.got - 2010.04.14 02:36:11.
