data_PCOD8190623
_publ_section_title
;
Structure prediction by ZEFSAII (Michael W. Deem and Ramdas Pophale) SiO2 
 PCOD8190623
Probable space group: I B A 2
;
_chemical_formula_sum "Si O2"
_cell_formula_units_Z 64
_cell_length_a 9.552533
_cell_length_b 20.933658
_cell_length_c 15.078242
_cell_angle_alpha 90.000000
_cell_angle_beta 90.000000
_cell_angle_gamma 90.000000
_cell_volume 3015.187893
_symmetry_space_group_name_H-M "I B A 2"
_symmetry_group_IT_number 45
_symmetry_cell_setting 'orthorhombic'
loop_
_space_group_symop_operation_xyz
x,y,z
-x,-y,z
-x,y,1/2+z
x,-y,1/2+z
1/2+x,1/2+y,1/2+z
1/2-x,1/2-y,1/2+z
1/2-x,1/2+y,z
1/2+x,1/2-y,z
loop_
_atom_site_type_symbol
_atom_site_label
_atom_site_fract_x
_atom_site_fract_y
_atom_site_fract_z
Si Si1 0.427099 0.059703 0.788680
Si Si2 0.387232 0.552040 0.738550
Si Si3 0.402102 0.693287 0.529445
Si Si4 0.097898 0.193287 0.738592
Si Si5 0.572901 0.059703 0.979356
Si Si6 0.887232 0.052040 0.029487
Si Si7 0.904119 0.698446 0.235834
Si Si8 0.595881 0.801554 0.532202
O O1 0.259607 0.046580 0.791201
O O2 0.500000 0.062693 0.884018
O O3 0.465124 0.126774 0.742378
O O4 0.500000 0.000000 0.737083
O O5 0.500000 0.500000 0.772020
O O6 0.456814 0.621453 0.757838
O O7 0.354187 0.543978 0.634018
O O8 0.389936 0.704231 0.634018
O O9 0.456814 0.621453 0.510198
O O10 0.499998 0.747547 0.485249
O O11 0.248046 0.700968 0.486668
O O12 0.000002 0.247547 0.782788
O O13 0.251954 0.200968 0.781368
O O14 0.500000 0.000000 0.030953
O O15 0.740393 0.046580 0.976835
O O16 0.534876 0.126774 0.025659
O O17 0.000000 0.000000 0.996017
O O18 0.892102 0.717545 0.134018
#
# Coordination Sequence:
#
# PCOD8190623 Si02
#       8
#     8   8   8   8   8   8   8   8
#     4  10  21  36  51  73 107 144 179 221 269 319
#     4   9  18  34  57  83 109 138 178 225 268 316
#     4   8  15  28  48  77 107 132 165 216 269 310
#     4   8  15  28  48  77 107 132 165 216 269 310
#     4  10  21  36  51  73 107 144 179 221 269 319
#     4   9  18  34  57  83 109 138 178 225 268 316
#     4   9  17  31  51  73 101 136 175 219 264 313
#     4   9  17  31  51  73 101 136 175 219 264 313
#
# _framework density 21.225874999999998
#
# number of rings (size 3 to 8) (size 9 to 14) (size 15 to 20)
#    0.000    3.000    0.000    2.250    0.000    4.000 
#    0.000   12.500    0.000    0.000    0.000    0.000 
#    0.000    0.000    0.000    0.000    0.000    0.000 
#
# Total GULP energy -396418.951961 kJ/mol
# GULP energy per Si atom -12388.092249 kJ/mol
# Density = 2.117756 g / cm^3
# Si number density = 21.225875 Si / 1000 Ang^3
#
#
#
# Elastic Constant Matrix: (Units=GPa)
#
#
# Indices 1 2 3 4 5 6 
#
# 1 135.9211 114.4867 24.7600 0.0000 0.0000 0.0000
# 2 114.4867 225.8181 1.6476 0.0000 0.0000 0.0000
# 3 24.7600 1.6476 25.2535 -0.0001 0.0000 0.0000
# 4 0.0000 0.0000 -0.0001 7.1958 0.0000 0.0000
# 5 0.0000 0.0000 0.0000 0.0000 18.8441 0.0000
# 6 0.0000 0.0000 0.0000 0.0000 0.0000 50.8987
#
#
#
# Elastic Compliance Matrix: (Units=1/GPa)
#
#
# Indices 1 2 3 4 5 6 
#
# 1 0.018115 -0.009059 -0.017170 0.000000 0.000000 0.000000
# 2 -0.009059 0.008961 0.008297 0.000000 0.000000 0.000000
# 3 -0.017170 0.008297 0.055892 0.000001 0.000000 0.000000
# 4 0.000000 0.000000 0.000001 0.138970 0.000000 0.000000
# 5 0.000000 0.000000 0.000000 0.000000 0.053067 0.000000
# 6 0.000000 0.000000 0.000000 0.000000 0.000000 0.019647
#
#
# Mechanical properties :
#
#
# Convention : Reuss Voigt Hill
#
# Bulk Modulus (GPa) = 21.22963 74.30905 47.76934
# Shear Modulus (GPa) = 14.44181 31.79428 23.11805
#
# Velocity S-wave (km/s) = 2.61125 3.87447 3.30380
# Velocity P-wave (km/s) = 4.37207 7.42294 6.09160
#
# Compressibility (1/GPa) = 0.04710398
#
# Stress axis : x y z
#
# Youngs Moduli (GPa) = 55.20138 111.59956 17.89163
#
# Poissons Ratio (x) = 1.01098 0.30721
# Poissons Ratio (y) = 0.50007 -0.14845
# Poissons Ratio (z) = 0.94783 -0.92598
#
# Static dielectric constant tensor:
#      x y z
#    x 4.132960 0.000000 0.000000 
#    y 0.000000 4.526590 0.000000 
#    z 0.000000 0.000000 3.240230 
# 
# 
# High freq. dielectric constant tensor:
#      x y z
#    x 1.825390 0.000000 0.000000 
#    y 0.000000 1.853650 0.000000 
#    z 0.000000 0.000000 1.784740 
# 
# From -- ./inp_files/8990.got.cif
#   From: 2010.03.12/outbox.cif.g09.slc.cpg/sg45_5_cif.got.tgz:8990.got - 2010.04.14 02:50:11.
