data_PCOD8190070
_publ_section_title
;
Structure prediction by ZEFSAII (Michael W. Deem and Ramdas Pophale) SiO2 
 PCOD8190070
Probable space group: I M M 2
;
_chemical_formula_sum "Si O2"
_cell_formula_units_Z 48
_cell_length_a 9.055415
_cell_length_b 18.136540
_cell_length_c 14.755840
_cell_angle_alpha 90.000000
_cell_angle_beta 90.000000
_cell_angle_gamma 90.000000
_cell_volume 2423.409097
_symmetry_space_group_name_H-M "I M M 2"
_symmetry_group_IT_number 44
_symmetry_cell_setting 'orthorhombic'
loop_
_space_group_symop_operation_xyz
x,y,z
-x,-y,z
-x,y,z
x,-y,z
1/2+x,1/2+y,1/2+z
1/2-x,1/2-y,1/2+z
1/2-x,1/2+y,1/2+z
1/2+x,1/2-y,1/2+z
loop_
_atom_site_type_symbol
_atom_site_label
_atom_site_fract_x
_atom_site_fract_y
_atom_site_fract_z
Si Si1 0.830414 0.648881 0.000000
Si Si2 0.329728 0.758817 0.327772
Si Si3 0.832700 0.617609 0.366867
Si Si4 0.166892 0.000000 0.757375
Si Si5 0.665867 0.500000 0.043788
Si Si6 0.166031 0.418637 0.568145
Si Si7 0.674721 0.722468 0.636294
O O1 0.742892 0.573474 0.008514
O O2 0.769962 0.712829 0.068195
O O3 0.000000 0.633677 0.024336
O O4 0.813415 0.671798 0.894767
O O5 0.500000 0.741215 0.307413
O O6 0.256113 0.692406 0.382630
O O7 0.246240 0.768769 0.233999
O O8 0.752867 0.572412 0.288240
O O9 0.829576 0.573157 0.459955
O O10 0.000000 0.633740 0.335015
O O11 0.166803 0.000000 0.650745
O O12 0.000000 0.000000 0.796263
O O13 0.500000 0.500000 0.005677
O O14 0.207019 0.500000 0.607142
O O15 0.280796 0.358026 0.600885
O O16 0.000000 0.396307 0.599421
O O17 0.500000 0.724649 0.645264
#
# Coordination Sequence:
#
# PCOD8190070 Si02
#       7
#     8   8   8   4   4   8   8
#     4  10  23  43  65  88 123 164 204 251 308 368
#     4  11  23  41  63  91 122 163 208 253 308 370
#     4  11  21  36  60  91 124 160 201 252 307 367
#     4  11  23  37  57  90 127 164 201 251 314 376
#     4  11  25  41  61  90 121 158 207 257 308 360
#     4  10  21  39  61  89 125 164 202 246 306 366
#     4  11  23  41  65  95 123 160 209 256 307 368
#
# _framework density 19.806809000000001
#
# number of rings (size 3 to 8) (size 9 to 14) (size 15 to 20)
#    0.000    1.333    2.500    3.000    0.000    7.667 
#    1.500    0.000    0.000    0.000    0.000    0.000 
#    0.000    0.000    0.000    0.000    0.000    0.000 
#
# Total GULP energy -297621.900278 kJ/mol
# GULP energy per Si atom -12400.912512 kJ/mol
# Density = 1.976173 g / cm^3
# Si number density = 19.806809 Si / 1000 Ang^3
#
#
#
# Elastic Constant Matrix: (Units=GPa)
#
#
# Indices 1 2 3 4 5 6 
#
# 1 119.7197 73.8918 41.9902 0.0000 0.0000 0.0000
# 2 73.8918 142.9335 36.3185 0.0000 0.0000 0.0000
# 3 41.9902 36.3185 81.4301 0.0000 0.0000 0.0000
# 4 0.0000 0.0000 0.0000 23.6242 0.0000 0.0000
# 5 0.0000 0.0000 0.0000 0.0000 33.3468 0.0000
# 6 0.0000 0.0000 0.0000 0.0000 0.0000 39.0028
#
#
#
# Elastic Compliance Matrix: (Units=1/GPa)
#
#
# Indices 1 2 3 4 5 6 
#
# 1 0.013503 -0.005878 -0.004342 0.000000 0.000000 0.000000
# 2 -0.005878 0.010449 -0.001629 0.000000 0.000000 0.000000
# 3 -0.004342 -0.001629 0.015246 0.000000 0.000000 0.000000
# 4 0.000000 0.000000 0.000000 0.042329 0.000000 0.000000
# 5 0.000000 0.000000 0.000000 0.000000 0.029988 0.000000
# 6 0.000000 0.000000 0.000000 0.000000 0.000000 0.025639
#
#
# Mechanical properties :
#
#
# Convention : Reuss Voigt Hill
#
# Bulk Modulus (GPa) = 64.51274 72.05381 68.28327
# Shear Modulus (GPa) = 30.11707 31.98696 31.05201
#
# Velocity S-wave (km/s) = 3.90364 4.02300 3.96377
# Velocity P-wave (km/s) = 7.27733 7.61818 7.44971
#
# Compressibility (1/GPa) = 0.01550082
#
# Stress axis : x y z
#
# Youngs Moduli (GPa) = 74.05593 95.70488 65.59087
#
# Poissons Ratio (x) = 0.56251 0.28477
# Poissons Ratio (y) = 0.43527 0.10687
# Poissons Ratio (z) = 0.32153 0.15594
#
# Static dielectric constant tensor:
#      x y z
#    x 3.794520 0.000000 0.000000 
#    y 0.000000 5.639430 0.000000 
#    z 0.000000 0.000000 3.516360 
# 
# 
# High freq. dielectric constant tensor:
#      x y z
#    x 1.780490 0.000000 0.000000 
#    y 0.000000 1.779590 0.000000 
#    z 0.000000 0.000000 1.766970 
# 
# From -- ./inp_files/16111.got.cif
#   From: 2010.03.12/outbox.cif.g09.slc.cpg/sg44_9_cif.got.tgz:16111.got - 2010.04.14 02:36:11.
