data_PCOD8190670
_publ_section_title
;
Structure prediction by ZEFSAII (Michael W. Deem and Ramdas Pophale) SiO2 
 PCOD8190670
Probable space group: I B A 2
;
_chemical_formula_sum "Si O2"
_cell_formula_units_Z 48
_cell_length_a 8.543973
_cell_length_b 12.972576
_cell_length_c 19.937882
_cell_angle_alpha 90.000000
_cell_angle_beta 90.000000
_cell_angle_gamma 90.000000
_cell_volume 2209.861788
_symmetry_space_group_name_H-M "I B A 2"
_symmetry_group_IT_number 45
_symmetry_cell_setting 'orthorhombic'
loop_
_space_group_symop_operation_xyz
x,y,z
-x,-y,z
-x,y,1/2+z
x,-y,1/2+z
1/2+x,1/2+y,1/2+z
1/2-x,1/2-y,1/2+z
1/2-x,1/2+y,z
1/2+x,1/2-y,z
loop_
_atom_site_type_symbol
_atom_site_label
_atom_site_fract_x
_atom_site_fract_y
_atom_site_fract_z
Si Si1 0.364469 0.629216 0.850250
Si Si2 0.334996 0.291101 0.781841
Si Si3 0.862232 0.655118 0.157879
Si Si4 0.327048 0.011524 0.258436
Si Si5 0.568035 0.612234 0.504269
Si Si6 0.138732 0.721041 0.070306
O O1 0.531079 0.645838 0.817498
O O2 0.254006 0.727858 0.839702
O O3 0.291380 0.531390 0.813454
O O4 0.384080 0.602945 0.927474
O O5 0.407901 0.219120 0.724511
O O6 0.214211 0.369446 0.746283
O O7 0.819301 0.541306 0.184727
O O8 0.707510 0.701152 0.125027
O O9 0.004586 0.652049 0.105199
O O10 0.500000 0.000000 0.289099
O O11 0.500000 0.500000 0.528136
O O12 0.728327 0.643434 0.542980
O O13 0.440364 0.703759 0.514358
#
# Coordination Sequence:
#
# PCOD8190670 Si02
#       6
#     8   8   8   8   8   8
#     4  11  23  40  62  91 122 156 206 256 310 377
#     4  11  21  38  64  91 122 158 194 256 324 372
#     4  10  21  39  59  90 124 156 202 253 308 373
#     4  11  22  36  61  94 122 156 198 251 315 379
#     4  11  24  44  65  90 125 172 216 260 314 372
#     4  10  23  41  63  90 126 168 214 260 305 371
#
# _framework density 21.720815000000002
#
# number of rings (size 3 to 8) (size 9 to 14) (size 15 to 20)
#    0.000    1.333    0.000    7.500    0.000    4.000 
#    0.000    4.167    0.000    0.000    0.000    0.000 
#    0.000    0.000    0.000    0.000    0.000    0.000 
#
# Total GULP energy -297568.757209 kJ/mol
# GULP energy per Si atom -12398.698217 kJ/mol
# Density = 2.167138 g / cm^3
# Si number density = 21.720815 Si / 1000 Ang^3
#
#
#
# Elastic Constant Matrix: (Units=GPa)
#
#
# Indices 1 2 3 4 5 6 
#
# 1 98.8417 21.7237 21.5244 0.0000 0.0000 0.0000
# 2 21.7237 72.4926 20.9618 0.0000 0.0000 0.0000
# 3 21.5244 20.9618 88.9636 0.0000 0.0000 0.0000
# 4 0.0000 0.0000 0.0000 31.5376 0.0000 0.0000
# 5 0.0000 0.0000 0.0000 0.0000 37.0422 0.0000
# 6 0.0000 0.0000 0.0000 0.0000 0.0000 40.8234
#
#
#
# Elastic Compliance Matrix: (Units=1/GPa)
#
#
# Indices 1 2 3 4 5 6 
#
# 1 0.011170 -0.002753 -0.002054 0.000000 0.000000 0.000000
# 2 -0.002753 0.015482 -0.002982 0.000000 0.000000 0.000000
# 3 -0.002054 -0.002982 0.012440 0.000000 0.000000 0.000000
# 4 0.000000 0.000000 0.000000 0.031708 0.000000 0.000000
# 5 0.000000 0.000000 0.000000 0.000000 0.026996 0.000000
# 6 0.000000 0.000000 0.000000 0.000000 0.000000 0.024496
#
#
# Mechanical properties :
#
#
# Convention : Reuss Voigt Hill
#
# Bulk Modulus (GPa) = 42.52801 43.19085 42.85943
# Shear Modulus (GPa) = 34.31547 34.95317 34.63432
#
# Velocity S-wave (km/s) = 3.97904 4.01584 3.99748
# Velocity P-wave (km/s) = 6.38218 6.43664 6.40947
#
# Compressibility (1/GPa) = 0.02351392
#
# Stress axis : x y z
#
# Youngs Moduli (GPa) = 89.52921 64.59207 80.38591
#
# Poissons Ratio (x) = 0.17784 0.16509
# Poissons Ratio (y) = 0.24650 0.23969
# Poissons Ratio (z) = 0.18386 0.19259
#
# Static dielectric constant tensor:
#      x y z
#    x 4.099510 0.000000 0.000000 
#    y 0.000000 4.129100 0.000000 
#    z 0.000000 0.000000 3.747130 
# 
# 
# High freq. dielectric constant tensor:
#      x y z
#    x 1.872600 0.000000 0.000000 
#    y 0.000000 1.861530 0.000000 
#    z 0.000000 0.000000 1.839210 
# 
# From -- ./inp_files/7554.got.cif
#   From: 2010.03.12/outbox.cif.g09.slc.cpg/sg45_4_cif.got.tgz:7554.got - 2010.04.14 02:50:11.
