data_PCOD8190996
_publ_section_title
;
Structure prediction by ZEFSAII (Michael W. Deem and Ramdas Pophale) SiO2 
 PCOD8190996
Probable space group: I B A 2
;
_chemical_formula_sum "Si O2"
_cell_formula_units_Z 64
_cell_length_a 27.808821
_cell_length_b 11.246530
_cell_length_c 8.129153
_cell_angle_alpha 90.000000
_cell_angle_beta 90.000000
_cell_angle_gamma 90.000000
_cell_volume 2542.414872
_symmetry_space_group_name_H-M "I B A 2"
_symmetry_group_IT_number 45
_symmetry_cell_setting 'orthorhombic'
loop_
_space_group_symop_operation_xyz
x,y,z
-x,-y,z
-x,y,1/2+z
x,-y,1/2+z
1/2+x,1/2+y,1/2+z
1/2-x,1/2-y,1/2+z
1/2-x,1/2+y,z
1/2+x,1/2-y,z
loop_
_atom_site_type_symbol
_atom_site_label
_atom_site_fract_x
_atom_site_fract_y
_atom_site_fract_z
Si Si1 0.110450 0.123293 0.923100
Si Si2 0.945797 0.045851 0.118206
Si Si3 0.902011 0.623806 0.928488
Si Si4 0.282347 0.619128 0.866976
Si Si5 0.256446 0.876434 0.702253
Si Si6 0.858190 0.399500 0.081362
Si Si7 0.066047 0.741043 0.924574
Si Si8 0.010105 0.627134 0.219408
O O1 0.068760 0.117481 0.782476
O O2 0.108219 0.250847 0.012009
O O3 0.161171 0.097044 0.831274
O O4 0.095307 0.051415 0.085904
O O5 0.939187 0.117798 0.942772
O O6 0.000000 0.000000 0.135366
O O7 0.869658 0.632926 0.766619
O O8 0.958422 0.606704 0.886180
O O9 0.883251 0.525127 0.051407
O O10 0.262605 0.746933 0.793092
O O11 0.253861 0.496312 0.811948
O O12 0.284592 0.634091 0.064889
O O13 0.300938 0.901993 0.576458
O O14 0.879131 0.306317 0.945524
O O15 0.040698 0.690577 0.761881
O O16 0.038524 0.703546 0.090591
O O17 0.000000 0.500000 0.139470
#
# Coordination Sequence:
#
# PCOD8190996 Si02
#       8
#     8   8   8   8   8   8   8   8
#     4  12  26  51  69 104 149 188 247 299 364 439
#     4  12  26  46  72  99 143 198 242 295 357 432
#     4  11  23  43  67  98 139 179 228 298 346 436
#     4  12  27  49  80 112 152 198 249 323 382 466
#     4  12  26  48  78 112 148 196 253 311 392 453
#     4  11  23  45  70  99 139 178 230 297 365 424
#     4  11  24  40  63  95 136 181 230 294 342 423
#     4  11  21  37  61  95 133 177 230 281 358 416
#
# _framework density 25.172919
#
# number of rings (size 3 to 8) (size 9 to 14) (size 15 to 20)
#    0.000    0.500    5.000    3.750    5.250    1.000 
#    2.250    0.000    0.000    0.000    0.000    0.000 
#    0.000    0.000    0.000    0.000    0.000    0.000 
#
# Total GULP energy -396430.480039 kJ/mol
# GULP energy per Si atom -12388.452501 kJ/mol
# Density = 2.511562 g / cm^3
# Si number density = 25.172919 Si / 1000 Ang^3
#
#
#
# Elastic Constant Matrix: (Units=GPa)
#
#
# Indices 1 2 3 4 5 6 
#
# 1 95.6744 20.0003 -5.8182 0.0000 0.0000 0.0000
# 2 20.0003 136.9720 8.0063 0.0000 0.0000 0.0000
# 3 -5.8182 8.0063 36.7680 0.0000 0.0000 0.0000
# 4 0.0000 0.0000 0.0000 28.6021 0.0000 0.0000
# 5 0.0000 0.0000 0.0000 0.0000 24.5387 0.0000
# 6 0.0000 0.0000 0.0000 0.0000 0.0000 20.1456
#
#
#
# Elastic Compliance Matrix: (Units=1/GPa)
#
#
# Indices 1 2 3 4 5 6 
#
# 1 0.010940 -0.001720 0.002106 0.000000 0.000000 0.000000
# 2 -0.001720 0.007665 -0.001941 0.000000 0.000000 0.000000
# 3 0.002106 -0.001941 0.027954 0.000000 0.000000 0.000000
# 4 0.000000 0.000000 0.000000 0.034962 0.000000 0.000000
# 5 0.000000 0.000000 0.000000 0.000000 0.040752 0.000000
# 6 0.000000 0.000000 0.000000 0.000000 0.000000 0.049639
#
#
# Mechanical properties :
#
#
# Convention : Reuss Voigt Hill
#
# Bulk Modulus (GPa) = 23.01678 34.86570 28.94124
# Shear Modulus (GPa) = 26.38436 31.13903 28.76169
#
# Velocity S-wave (km/s) = 3.24099 3.52092 3.38385
# Velocity P-wave (km/s) = 4.81338 5.51450 5.17583
#
# Compressibility (1/GPa) = 0.04344656
#
# Stress axis : x y z
#
# Youngs Moduli (GPa) = 91.40906 130.45524 35.77362
#
# Poissons Ratio (x) = 0.22445 -0.07533
# Poissons Ratio (y) = 0.15727 0.06945
# Poissons Ratio (z) = -0.19249 0.25327
#
# Static dielectric constant tensor:
#      x y z
#    x 4.746160 0.000000 0.000000 
#    y 0.000000 5.231210 0.000000 
#    z 0.000000 0.000000 4.211010 
# 
# 
# High freq. dielectric constant tensor:
#      x y z
#    x 2.003420 0.000000 0.000000 
#    y 0.000000 2.023660 0.000000 
#    z 0.000000 0.000000 1.998170 
# 
# From -- ./inp_files/2773.got.cif
#   From: 2010.03.12/outbox.cif.g09.slc.cpg/sg45_2_cif.got.tgz:2773.got - 2010.04.14 02:50:11.
