data_PCOD8190657
_publ_section_title
;
Structure prediction by ZEFSAII (Michael W. Deem and Ramdas Pophale) SiO2 
 PCOD8190657
Probable space group: I B A 2
;
_chemical_formula_sum "Si O2"
_cell_formula_units_Z 48
_cell_length_a 16.908946
_cell_length_b 9.260333
_cell_length_c 13.552172
_cell_angle_alpha 90.000000
_cell_angle_beta 90.000000
_cell_angle_gamma 90.000000
_cell_volume 2122.032574
_symmetry_space_group_name_H-M "I B A 2"
_symmetry_group_IT_number 45
_symmetry_cell_setting 'orthorhombic'
loop_
_space_group_symop_operation_xyz
x,y,z
-x,-y,z
-x,y,1/2+z
x,-y,1/2+z
1/2+x,1/2+y,1/2+z
1/2-x,1/2-y,1/2+z
1/2-x,1/2+y,z
1/2+x,1/2-y,z
loop_
_atom_site_type_symbol
_atom_site_label
_atom_site_fract_x
_atom_site_fract_y
_atom_site_fract_z
Si Si1 0.073332 0.406980 0.559600
Si Si2 0.135700 0.153954 0.215889
Si Si3 0.203684 0.640960 0.560843
Si Si4 0.073332 0.406980 0.332074
Si Si5 0.635700 0.653955 0.175785
Si Si6 0.796316 0.359040 0.330831
O O1 0.155000 0.492823 0.577762
O O2 0.060029 0.369328 0.445837
O O3 0.075012 0.257338 0.618617
O O4 0.000000 0.500000 0.599818
O O5 0.159608 0.225652 0.112241
O O6 0.075012 0.257338 0.273057
O O7 0.210873 0.118700 0.284485
O O8 0.093733 1.000000 0.195837
O O9 0.289127 0.618701 0.607188
O O10 0.210666 0.679426 0.445837
O O11 0.155000 0.492823 0.313912
O O12 0.000000 0.500000 0.291856
O O13 0.659608 0.725652 0.279433
#
# Coordination Sequence:
#
# PCOD8190657 Si02
#       6
#     8   8   8   8   8   8
#     4  10  22  42  66  89 121 167 211 252 306 373
#     4  11  22  36  60  93 126 160 205 259 311 365
#     4  10  21  38  60  89 128 170 208 248 301 369
#     4  10  22  42  66  89 121 167 211 252 306 373
#     4  11  22  36  60  93 126 160 205 259 311 365
#     4  10  21  38  60  89 128 170 208 248 301 369
#
# _framework density 22.619823
#
# number of rings (size 3 to 8) (size 9 to 14) (size 15 to 20)
#    0.000    1.667    0.000    6.000    0.000    8.000 
#    0.000    3.333    0.000    6.000    0.000    0.000 
#    0.000    0.000    0.000    0.000    0.000    0.000 
#
# Total GULP energy -297731.463603 kJ/mol
# GULP energy per Si atom -12405.477650 kJ/mol
# Density = 2.256834 g / cm^3
# Si number density = 22.619823 Si / 1000 Ang^3
#
#
#
# Elastic Constant Matrix: (Units=GPa)
#
#
# Indices 1 2 3 4 5 6 
#
# 1 81.7299 43.4270 30.6032 0.0000 0.0000 0.0000
# 2 43.4270 198.3216 78.4186 0.0000 0.0000 0.0000
# 3 30.6032 78.4186 139.7233 0.0000 0.0000 0.0000
# 4 0.0000 0.0000 0.0000 30.1556 0.0000 0.0000
# 5 0.0000 0.0000 0.0000 0.0000 -17.7191 0.0000
# 6 0.0000 0.0000 0.0000 0.0000 0.0000 12.0308
#
#
#
# Elastic Compliance Matrix: (Units=1/GPa)
#
#
# Indices 1 2 3 4 5 6 
#
# 1 0.014172 -0.002411 -0.001751 0.000000 0.000000 0.000000
# 2 -0.002411 0.006891 -0.003339 0.000000 0.000000 0.000000
# 3 -0.001751 -0.003339 0.009415 0.000000 0.000000 0.000000
# 4 0.000000 0.000000 0.000000 0.033161 0.000000 0.000000
# 5 0.000000 0.000000 0.000000 0.000000 -0.056436 0.000000
# 6 0.000000 0.000000 0.000000 0.000000 0.000000 0.083120
#
#
# Mechanical properties :
#
#
# Convention : Reuss Voigt Hill
#
# Bulk Modulus (GPa) = 64.62005 80.51916 72.56960
# Shear Modulus (GPa) = 45.25588 22.71520 33.98554
#
# Velocity S-wave (km/s) = 4.47779 3.17238 3.88037
# Velocity P-wave (km/s) = 7.44070 7.00661 7.22692
#
# Compressibility (1/GPa) = 0.01547507
#
# Stress axis : x y z
#
# Youngs Moduli (GPa) = 70.56107 145.12479 106.21766
#
# Poissons Ratio (x) = 0.34989 0.18598
# Poissons Ratio (y) = 0.17012 0.35469
# Poissons Ratio (z) = 0.12355 0.48461
#
# Static dielectric constant tensor:
#      x y z
#    x 3.934930 0.000000 0.000000 
#    y 0.000000 4.150170 0.000000 
#    z 0.000000 0.000000 4.247700 
# 
# 
# High freq. dielectric constant tensor:
#      x y z
#    x 1.873870 0.000000 0.000000 
#    y 0.000000 1.892050 0.000000 
#    z 0.000000 0.000000 1.910600 
# 
# From -- ./inp_files/6755.got.cif
#   From: 2010.03.12/outbox.cif.g09.slc.cpg/sg45_4_cif.got.tgz:6755.got - 2010.04.14 02:50:11.
