data_PCOD8190471
_publ_section_title
;
Structure prediction by ZEFSAII (Michael W. Deem and Ramdas Pophale) SiO2 
 PCOD8190471
Probable space group: I B A 2
;
_chemical_formula_sum "Si O2"
_cell_formula_units_Z 64
_cell_length_a 8.719209
_cell_length_b 14.444224
_cell_length_c 22.532369
_cell_angle_alpha 90.000000
_cell_angle_beta 90.000000
_cell_angle_gamma 90.000000
_cell_volume 2837.776301
_symmetry_space_group_name_H-M "I B A 2"
_symmetry_group_IT_number 45
_symmetry_cell_setting 'orthorhombic'
loop_
_space_group_symop_operation_xyz
x,y,z
-x,-y,z
-x,y,1/2+z
x,-y,1/2+z
1/2+x,1/2+y,1/2+z
1/2-x,1/2-y,1/2+z
1/2-x,1/2+y,z
1/2+x,1/2-y,z
loop_
_atom_site_type_symbol
_atom_site_label
_atom_site_fract_x
_atom_site_fract_y
_atom_site_fract_z
Si Si1 0.168147 0.538963 0.789770
Si Si2 0.063713 0.310785 0.206436
Si Si3 0.825165 0.001117 0.984502
Si Si4 0.689992 0.386703 0.091924
Si Si5 0.360366 0.823214 0.949490
Si Si6 0.501032 0.776822 0.075935
Si Si7 0.184860 0.352925 0.405605
Si Si8 0.772157 0.128448 0.723958
O O1 0.165615 0.606745 0.733043
O O2 0.235919 0.596722 0.844883
O O3 0.281391 0.452984 0.773351
O O4 0.000000 0.500000 0.805003
O O5 0.083524 0.316648 0.134979
O O6 0.106633 0.210495 0.233950
O O7 0.891107 0.322491 0.227054
O O8 0.736628 0.912860 0.960588
O O9 0.753613 0.091892 0.956943
O O10 0.804155 0.982833 0.055167
O O11 0.000000 0.000000 0.964228
O O12 0.525613 0.335086 0.079438
O O13 0.704512 0.418341 0.159629
O O14 0.822830 0.310313 0.075331
O O15 0.263549 0.745825 0.915301
O O16 0.500777 0.844935 0.905741
O O17 0.420676 0.804880 0.015179
#
# Coordination Sequence:
#
# PCOD8190471 Si02
#       8
#     8   8   8   8   8   8   8   8
#     4  10  22  42  68  94 133 176 234 275 329 408
#     4   9  20  37  64  96 126 172 215 274 335 394
#     4  12  26  41  63  98 135 179 230 280 339 407
#     4  10  21  38  65 100 137 175 217 275 342 403
#     4  12  24  42  68  95 136 177 224 285 344 404
#     4  10  19  37  65  93 136 166 221 268 340 404
#     4  12  26  46  67  98 133 182 227 281 344 406
#     4   9  20  41  65  97 130 172 219 273 333 398
#
# _framework density 22.552869999999999
#
# number of rings (size 3 to 8) (size 9 to 14) (size 15 to 20)
#    0.000    1.500    2.500    1.875    3.500    3.000 
#    0.000    1.875    0.000    1.500    0.000    0.000 
#    0.000    0.000    0.000    0.000    0.000    0.000 
#
# Total GULP energy -396602.580493 kJ/mol
# GULP energy per Si atom -12393.830640 kJ/mol
# Density = 2.250154 g / cm^3
# Si number density = 22.552870 Si / 1000 Ang^3
#
#
#
# Elastic Constant Matrix: (Units=GPa)
#
#
# Indices 1 2 3 4 5 6 
#
# 1 117.9723 49.6498 5.4316 0.0000 0.0000 0.0000
# 2 49.6498 141.3533 52.8905 0.0000 0.0000 0.0000
# 3 5.4316 52.8905 110.8378 0.0000 0.0000 0.0000
# 4 0.0000 0.0000 0.0000 52.5267 0.0000 0.0000
# 5 0.0000 0.0000 0.0000 0.0000 15.8645 0.0000
# 6 0.0000 0.0000 0.0000 0.0000 0.0000 30.6662
#
#
#
# Elastic Compliance Matrix: (Units=1/GPa)
#
#
# Indices 1 2 3 4 5 6 
#
# 1 0.010138 -0.004109 0.001464 0.000000 0.000000 0.000000
# 2 -0.004109 0.010277 -0.004703 0.000000 0.000000 0.000000
# 3 0.001464 -0.004703 0.011195 0.000000 0.000000 0.000000
# 4 0.000000 0.000000 0.000000 0.019038 0.000000 0.000000
# 5 0.000000 0.000000 0.000000 0.000000 0.063034 0.000000
# 6 0.000000 0.000000 0.000000 0.000000 0.000000 0.032609
#
#
# Mechanical properties :
#
#
# Convention : Reuss Voigt Hill
#
# Bulk Modulus (GPa) = 59.12020 65.12302 62.12161
# Shear Modulus (GPa) = 30.00742 37.29090 33.64916
#
# Velocity S-wave (km/s) = 3.65161 4.07072 3.86685
# Velocity P-wave (km/s) = 6.63701 7.14372 6.89502
#
# Compressibility (1/GPa) = 0.01691469
#
# Stress axis : x y z
#
# Youngs Moduli (GPa) = 98.63485 97.30114 89.32859
#
# Poissons Ratio (x) = 0.39979 -0.13076
# Poissons Ratio (y) = 0.40527 0.42010
# Poissons Ratio (z) = -0.14439 0.45760
#
# Static dielectric constant tensor:
#      x y z
#    x 4.315500 0.000000 0.000000 
#    y 0.000000 4.125180 0.000000 
#    z 0.000000 0.000000 4.078470 
# 
# 
# High freq. dielectric constant tensor:
#      x y z
#    x 1.876020 0.000000 0.000000 
#    y 0.000000 1.890610 0.000000 
#    z 0.000000 0.000000 1.891130 
# 
# From -- ./inp_files/9596.got.cif
#   From: 2010.03.12/outbox.cif.g09.slc.cpg/sg45_5_cif.got.tgz:9596.got - 2010.04.14 02:50:11.
