data_PCOD8190170
_publ_section_title
;
Structure prediction by ZEFSAII (Michael W. Deem and Ramdas Pophale) SiO2 
 PCOD8190170
Probable space group: I M M 2
;
_chemical_formula_sum "Si O2"
_cell_formula_units_Z 40
_cell_length_a 25.653688
_cell_length_b 8.833006
_cell_length_c 8.876028
_cell_angle_alpha 90.000000
_cell_angle_beta 90.000000
_cell_angle_gamma 90.000000
_cell_volume 2011.300667
_symmetry_space_group_name_H-M "I M M 2"
_symmetry_group_IT_number 44
_symmetry_cell_setting 'orthorhombic'
loop_
_space_group_symop_operation_xyz
x,y,z
-x,-y,z
-x,y,z
x,-y,z
1/2+x,1/2+y,1/2+z
1/2-x,1/2-y,1/2+z
1/2-x,1/2+y,1/2+z
1/2+x,1/2-y,1/2+z
loop_
_atom_site_type_symbol
_atom_site_label
_atom_site_fract_x
_atom_site_fract_y
_atom_site_fract_z
Si Si1 0.000000 0.679148 0.895411
Si Si2 0.304455 0.824908 0.396055
Si Si3 0.299196 0.674741 0.712024
Si Si4 0.597539 0.324117 0.893555
Si Si5 0.000000 0.678435 0.235655
Si Si6 0.598808 0.322798 0.240130
O O1 0.050793 0.735400 0.810713
O O2 0.000000 0.500000 0.894842
O O3 0.000000 0.743329 0.065730
O O4 0.297183 0.783561 0.569621
O O5 0.250706 0.790361 0.313019
O O6 0.348671 0.721365 0.324590
O O7 0.320607 0.000000 0.382616
O O8 0.300840 0.500000 0.660425
O O9 0.349411 0.717962 0.809639
O O10 0.583871 0.500000 0.878926
O O11 0.551059 0.231403 0.821410
O O12 0.604096 0.275908 0.066476
O O13 0.000000 0.500000 0.232244
O O14 0.589021 0.500000 0.260003
#
# Coordination Sequence:
#
# PCOD8190170 Si02
#       6
#     4   8   8   8   4   8
#     4  11  24  41  60  88 122 155 198 247 294 348
#     4  11  23  39  61  90 121 154 196 245 294 349
#     4  10  22  40  61  86 118 156 196 241 294 350
#     4  10  22  40  61  85 115 153 197 240 286 349
#     4  11  24  39  58  86 118 151 190 241 296 346
#     4  11  23  40  62  88 119 157 198 241 294 353
#
# _framework density 19.887626000000001
#
# number of rings (size 3 to 8) (size 9 to 14) (size 15 to 20)
#    0.000    1.400    0.000    4.800    0.000   12.800 
#    0.000    0.000    0.000    0.000    0.000    0.000 
#    0.000    0.000    0.000    0.000    0.000    0.000 
#
# Total GULP energy -248135.123256 kJ/mol
# GULP energy per Si atom -12406.756163 kJ/mol
# Density = 1.984236 g / cm^3
# Si number density = 19.887626 Si / 1000 Ang^3
#
#
#
# Elastic Constant Matrix: (Units=GPa)
#
#
# Indices 1 2 3 4 5 6 
#
# 1 143.3015 35.3758 53.7678 0.0000 0.0000 0.0000
# 2 35.3758 55.2750 44.2223 0.0000 0.0000 0.0000
# 3 53.7678 44.2223 149.8811 0.0000 0.0000 0.0000
# 4 0.0000 0.0000 0.0000 35.8485 0.0000 0.0000
# 5 0.0000 0.0000 0.0000 0.0000 43.3922 0.0000
# 6 0.0000 0.0000 0.0000 0.0000 0.0000 50.7612
#
#
#
# Elastic Compliance Matrix: (Units=1/GPa)
#
#
# Indices 1 2 3 4 5 6 
#
# 1 0.008696 -0.004018 -0.001934 0.000000 0.000000 0.000000
# 2 -0.004018 0.025538 -0.006094 0.000000 0.000000 0.000000
# 3 -0.001934 -0.006094 0.009164 0.000000 0.000000 0.000000
# 4 0.000000 0.000000 0.000000 0.027895 0.000000 0.000000
# 5 0.000000 0.000000 0.000000 0.000000 0.023046 0.000000
# 6 0.000000 0.000000 0.000000 0.000000 0.000000 0.019700
#
#
# Mechanical properties :
#
#
# Convention : Reuss Voigt Hill
#
# Bulk Modulus (GPa) = 51.79652 68.35438 60.07545
# Shear Modulus (GPa) = 34.58655 40.33985 37.46320
#
# Velocity S-wave (km/s) = 4.17477 4.50865 4.34492
# Velocity P-wave (km/s) = 7.02421 7.84531 7.44608
#
# Compressibility (1/GPa) = 0.01930632
#
# Stress axis : x y z
#
# Youngs Moduli (GPa) = 114.99742 39.15738 109.12692
#
# Poissons Ratio (x) = 0.15734 0.21105
# Poissons Ratio (y) = 0.46206 0.66497
# Poissons Ratio (z) = 0.22240 0.23861
#
# Static dielectric constant tensor:
#      x y z
#    x 3.763420 0.000000 0.000000 
#    y 0.000000 3.632100 0.000000 
#    z 0.000000 0.000000 3.865330 
# 
# 
# High freq. dielectric constant tensor:
#      x y z
#    x 1.795190 0.000000 0.000000 
#    y 0.000000 1.778160 0.000000 
#    z 0.000000 0.000000 1.794800 
# 
# From -- ./inp_files/9611.got.cif
#   From: 2010.03.12/outbox.cif.g09.slc.cpg/sg44_5_cif.got.tgz:9611.got - 2010.04.14 02:36:11.
