data_PCOD8190611
_publ_section_title
;
Structure prediction by ZEFSAII (Michael W. Deem and Ramdas Pophale) SiO2 
 PCOD8190611
Probable space group: I B A 2
;
_chemical_formula_sum "Si O2"
_cell_formula_units_Z 52
_cell_length_a 27.086691
_cell_length_b 10.683406
_cell_length_c 8.715317
_cell_angle_alpha 90.000000
_cell_angle_beta 90.000000
_cell_angle_gamma 90.000000
_cell_volume 2522.022024
_symmetry_space_group_name_H-M "I B A 2"
_symmetry_group_IT_number 45
_symmetry_cell_setting 'orthorhombic'
loop_
_space_group_symop_operation_xyz
x,y,z
-x,-y,z
-x,y,1/2+z
x,-y,1/2+z
1/2+x,1/2+y,1/2+z
1/2-x,1/2-y,1/2+z
1/2-x,1/2+y,z
1/2+x,1/2-y,z
loop_
_atom_site_type_symbol
_atom_site_label
_atom_site_fract_x
_atom_site_fract_y
_atom_site_fract_z
Si Si1 0.355593 0.038653 0.349630
Si Si2 0.337583 0.418916 0.771472
Si Si3 0.198421 0.854732 0.072334
Si Si4 0.388116 0.162492 0.068238
Si Si5 0.439553 0.382302 0.934168
Si Si6 0.690859 0.835960 0.627744
Si Si7 0.500000 0.500000 0.689315
O O1 0.393013 0.121560 0.245781
O O2 0.321473 0.130091 0.451522
O O3 0.389461 0.959320 0.462544
O O4 0.322812 0.949609 0.240691
O O5 0.329397 0.542691 0.674367
O O6 0.389044 0.433629 0.862449
O O7 0.337443 0.292504 0.669101
O O8 0.294673 0.409957 0.900602
O O9 0.164619 0.732043 0.054938
O O10 0.250535 0.814425 0.142618
O O11 0.433472 0.243972 0.004563
O O12 0.481765 0.387407 0.802173
O O13 0.453851 0.464666 0.082506
#
# Coordination Sequence:
#
# PCOD8190611 Si02
#       7
#     8   8   8   8   8   8   4
#     4  10  22  40  58  84 118 179 205 263 291 374
#     4  11  24  40  58  92 130 167 212 274 308 386
#     4  11  24  35  58  87 129 170 219 270 305 359
#     4  10  22  40  61  88 126 162 215 251 314 376
#     4  10  20  44  62 102 122 160 204 251 346 379
#     4  11  23  38  58  86 126 175 228 253 312 352
#     4  10  22  40  78  92 130 154 192 280 326 418
#
# _framework density 20.618376999999999
#
# number of rings (size 3 to 8) (size 9 to 14) (size 15 to 20)
#    0.000    1.538    3.077    2.769    8.615    0.000 
#    5.538    0.000    0.000    2.769    0.000    0.000 
#    0.000    0.000    0.000    0.000    0.000    0.000 
#
# Total GULP energy -322282.800570 kJ/mol
# GULP energy per Si atom -12395.492330 kJ/mol
# Density = 2.057145 g / cm^3
# Si number density = 20.618377 Si / 1000 Ang^3
#
#
#
# Elastic Constant Matrix: (Units=GPa)
#
#
# Indices 1 2 3 4 5 6 
#
# 1 80.0802 38.5589 43.0140 0.0000 0.0000 0.0000
# 2 38.5589 85.5024 50.8661 0.0000 0.0000 0.0000
# 3 43.0140 50.8661 142.7725 0.0000 0.0000 0.0000
# 4 0.0000 0.0000 0.0000 39.3209 0.0000 0.0000
# 5 0.0000 0.0000 0.0000 0.0000 31.0607 0.0000
# 6 0.0000 0.0000 0.0000 0.0000 0.0000 23.1747
#
#
#
# Elastic Compliance Matrix: (Units=1/GPa)
#
#
# Indices 1 2 3 4 5 6 
#
# 1 0.016918 -0.005834 -0.003019 0.000000 0.000000 0.000000
# 2 -0.005834 0.016853 -0.004247 0.000000 0.000000 0.000000
# 3 -0.003019 -0.004247 0.009427 0.000000 0.000000 0.000000
# 4 0.000000 0.000000 0.000000 0.025432 0.000000 0.000000
# 5 0.000000 0.000000 0.000000 0.000000 0.032195 0.000000
# 6 0.000000 0.000000 0.000000 0.000000 0.000000 0.043150
#
#
# Mechanical properties :
#
#
# Convention : Reuss Voigt Hill
#
# Bulk Modulus (GPa) = 58.82571 63.69259 61.25915
# Shear Modulus (GPa) = 28.43520 30.43900 29.43710
#
# Velocity S-wave (km/s) = 3.71768 3.84644 3.78261
# Velocity P-wave (km/s) = 6.85717 7.11934 6.98949
#
# Compressibility (1/GPa) = 0.01699937
#
# Stress axis : x y z
#
# Youngs Moduli (GPa) = 59.10947 59.33760 106.08341
#
# Poissons Ratio (x) = 0.34615 0.32022
# Poissons Ratio (y) = 0.34482 0.45050
# Poissons Ratio (z) = 0.17843 0.25199
#
# Static dielectric constant tensor:
#      x y z
#    x 3.455740 0.000000 0.000000 
#    y 0.000000 3.737010 0.000000 
#    z 0.000000 0.000000 4.240680 
# 
# 
# High freq. dielectric constant tensor:
#      x y z
#    x 1.770500 0.000000 0.000000 
#    y 0.000000 1.799450 0.000000 
#    z 0.000000 0.000000 1.836420 
# 
# From -- ./inp_files/2609.got.cif
#   From: 2010.03.12/outbox.cif.g09.slc.cpg/sg45_2_cif.got.tgz:2609.got - 2010.04.14 02:50:11.
