data_PCOD8190389
_publ_section_title
;
Structure prediction by ZEFSAII (Michael W. Deem and Ramdas Pophale) SiO2 
 PCOD8190389
Probable space group: I B A 2
;
_chemical_formula_sum "Si O2"
_cell_formula_units_Z 56
_cell_length_a 31.105803
_cell_length_b 5.135018
_cell_length_c 16.176602
_cell_angle_alpha 90.000000
_cell_angle_beta 90.000000
_cell_angle_gamma 90.000000
_cell_volume 2583.870169
_symmetry_space_group_name_H-M "I B A 2"
_symmetry_group_IT_number 45
_symmetry_cell_setting 'orthorhombic'
loop_
_space_group_symop_operation_xyz
x,y,z
-x,-y,z
-x,y,1/2+z
x,-y,1/2+z
1/2+x,1/2+y,1/2+z
1/2-x,1/2-y,1/2+z
1/2-x,1/2+y,z
1/2+x,1/2-y,z
loop_
_atom_site_type_symbol
_atom_site_label
_atom_site_fract_x
_atom_site_fract_y
_atom_site_fract_z
Si Si1 0.626432 0.100534 0.613190
Si Si2 0.272129 0.889133 0.591763
Si Si3 0.143026 0.890226 0.873240
Si Si4 0.406759 0.405505 0.525592
Si Si5 0.027833 0.244552 0.904197
Si Si6 0.264227 0.481730 0.409464
Si Si7 0.889568 0.633029 0.798094
O O1 0.677309 0.155408 0.606316
O O2 0.598534 0.355148 0.588505
O O3 0.609760 0.031782 0.704320
O O4 0.617773 0.851434 0.556054
O O5 0.245647 0.651874 0.634028
O O6 0.258778 0.887734 0.494964
O O7 0.133893 0.593205 0.850225
O O8 0.188292 0.907703 0.919440
O O9 0.138663 0.098677 0.798194
O O10 0.109296 0.993767 0.938084
O O11 0.454756 0.324245 0.497328
O O12 0.063150 0.314108 0.834073
O O13 0.000000 0.500000 0.916392
O O14 0.000000 0.000000 0.871035
O O15 0.236714 0.704913 0.360752
#
# Coordination Sequence:
#
# PCOD8190389 Si02
#       7
#     8   8   8   8   8   8   8
#     4  12  23  42  64  97 134 169 215 264 322 389
#     4  10  20  34  56  86 122 167 211 262 313 351
#     4  11  21  40  62  90 122 170 224 258 304 389
#     4  11  22  39  69  94 120 164 213 263 312 378
#     4  11  23  44  68  96 127 163 211 264 319 390
#     4  10  18  31  54  84 114 156 215 271 305 340
#     4  11  25  42  65  93 131 175 205 256 333 395
#
# _framework density 21.672913000000001
#
# number of rings (size 3 to 8) (size 9 to 14) (size 15 to 20)
#    0.000    1.143    0.000   10.286    0.000    0.000 
#    0.000    8.571    0.000    0.000    0.000    0.000 
#    0.000    0.000    0.000    0.000    0.000    0.000 
#
# Total GULP energy -346871.911932 kJ/mol
# GULP energy per Si atom -12388.282569 kJ/mol
# Density = 2.162358 g / cm^3
# Si number density = 21.672913 Si / 1000 Ang^3
#
#
#
# Elastic Constant Matrix: (Units=GPa)
#
#
# Indices 1 2 3 4 5 6 
#
# 1 117.1333 57.5826 41.2123 0.0000 0.0000 0.0000
# 2 57.5826 186.2454 24.6198 0.0000 0.0000 0.0000
# 3 41.2123 24.6198 76.1243 0.0000 0.0000 0.0000
# 4 0.0000 0.0000 0.0000 20.4719 0.0000 0.0000
# 5 0.0000 0.0000 0.0000 0.0000 -8.0326 0.0000
# 6 0.0000 0.0000 0.0000 0.0000 0.0000 48.5835
#
#
#
# Elastic Compliance Matrix: (Units=1/GPa)
#
#
# Indices 1 2 3 4 5 6 
#
# 1 0.011928 -0.002961 -0.005500 0.000000 0.000000 0.000000
# 2 -0.002961 0.006344 -0.000449 0.000000 0.000000 0.000000
# 3 -0.005500 -0.000449 0.016259 0.000000 0.000000 0.000000
# 4 0.000000 0.000000 0.000000 0.048847 0.000000 0.000000
# 5 0.000000 0.000000 0.000000 0.000000 -0.124493 0.000000
# 6 0.000000 0.000000 0.000000 0.000000 0.000000 0.020583
#
#
# Mechanical properties :
#
#
# Convention : Reuss Voigt Hill
#
# Bulk Modulus (GPa) = 59.83772 69.59246 64.71509
# Shear Modulus (GPa) = 1749.36567 29.27712 889.32140
#
# Velocity S-wave (km/s) = 28.44150 3.67940 20.27877
# Velocity P-wave (km/s) = 33.26001 7.08736 24.04640
#
# Compressibility (1/GPa) = 0.01671187
#
# Stress axis : x y z
#
# Youngs Moduli (GPa) = 83.83693 157.62946 61.50378
#
# Poissons Ratio (x) = 0.46671 0.33827
# Poissons Ratio (y) = 0.24822 0.02760
# Poissons Ratio (z) = 0.46110 0.07075
#
# Static dielectric constant tensor:
#      x y z
#    x 4.574210 0.000000 0.000000 
#    y 0.000000 5.040880 0.000000 
#    z 0.000000 0.000000 3.669740 
# 
# 
# High freq. dielectric constant tensor:
#      x y z
#    x 1.847060 0.000000 0.000000 
#    y 0.000000 1.895000 0.000000 
#    z 0.000000 0.000000 1.812510 
# 
# From -- ./inp_files/5285.got.cif
#   From: 2010.03.12/outbox.cif.g09.slc.cpg/sg45_3_cif.got.tgz:5285.got - 2010.04.14 02:50:11.
