data_PCOD8190992
_publ_section_title
;
Structure prediction by ZEFSAII (Michael W. Deem and Ramdas Pophale) SiO2 
 PCOD8190992
Probable space group: I B A 2
;
_chemical_formula_sum "Si O2"
_cell_formula_units_Z 64
_cell_length_a 14.513679
_cell_length_b 17.961636
_cell_length_c 11.429873
_cell_angle_alpha 90.000000
_cell_angle_beta 90.000000
_cell_angle_gamma 90.000000
_cell_volume 2979.646954
_symmetry_space_group_name_H-M "I B A 2"
_symmetry_group_IT_number 45
_symmetry_cell_setting 'orthorhombic'
loop_
_space_group_symop_operation_xyz
x,y,z
-x,-y,z
-x,y,1/2+z
x,-y,1/2+z
1/2+x,1/2+y,1/2+z
1/2-x,1/2-y,1/2+z
1/2-x,1/2+y,z
1/2+x,1/2-y,z
loop_
_atom_site_type_symbol
_atom_site_label
_atom_site_fract_x
_atom_site_fract_y
_atom_site_fract_z
Si Si1 0.429019 0.174523 0.573650
Si Si2 0.650327 0.781733 0.338817
Si Si3 0.069746 0.164513 0.204524
Si Si4 0.838315 0.199644 0.940240
Si Si5 0.870759 0.667082 0.591735
Si Si6 0.799355 0.080912 0.533021
Si Si7 0.248339 0.082988 0.599986
Si Si8 0.887630 0.881276 0.793920
O O1 0.413616 0.180072 0.435022
O O2 0.434544 0.256499 0.634533
O O3 0.526617 0.131779 0.588903
O O4 0.348570 0.120564 0.622614
O O5 0.748876 0.758917 0.389950
O O6 0.662792 0.834607 0.226230
O O7 0.602483 0.707072 0.299134
O O8 0.090374 0.184061 0.338545
O O9 0.147326 0.113629 0.144898
O O10 0.982309 0.107089 0.219465
O O11 0.883999 0.249352 0.041436
O O12 0.807431 0.122721 0.997316
O O13 0.793831 0.628353 0.510958
O O14 0.871715 0.083407 0.423757
O O15 0.753314 0.001936 0.560449
O O16 0.198955 0.088824 0.723772
#
# Coordination Sequence:
#
# PCOD8190992 Si02
#       8
#     8   8   8   8   8   8   8   8
#     4  11  24  41  72 102 133 174 229 294 342 406
#     4  11  20  40  67 101 133 169 223 290 348 388
#     4  12  24  42  70 104 128 171 236 286 343 401
#     4  11  22  40  67  96 133 172 218 293 334 398
#     4  12  23  42  72 100 131 177 234 286 341 409
#     4  12  28  45  65 100 140 187 225 275 349 432
#     4  11  27  45  62  97 143 180 224 273 351 412
#     4  12  24  43  70  97 134 178 230 287 338 410
#
# _framework density 21.479054000000001
#
# number of rings (size 3 to 8) (size 9 to 14) (size 15 to 20)
#    0.000    0.500    6.250    2.250    3.500    1.000 
#    0.000    0.000    0.000    3.000    0.000    0.000 
#    0.000    0.000    0.000    0.000    0.000    0.000 
#
# Total GULP energy -396495.516895 kJ/mol
# GULP energy per Si atom -12390.484903 kJ/mol
# Density = 2.143017 g / cm^3
# Si number density = 21.479054 Si / 1000 Ang^3
#
#
#
# Elastic Constant Matrix: (Units=GPa)
#
#
# Indices 1 2 3 4 5 6 
#
# 1 117.6861 47.9999 45.7958 0.0000 0.0000 0.0000
# 2 47.9999 88.3846 25.2369 0.0000 0.0000 0.0000
# 3 45.7958 25.2369 120.5523 0.0000 0.0000 0.0000
# 4 0.0000 0.0000 0.0000 8.6106 0.0000 0.0000
# 5 0.0000 0.0000 0.0000 0.0000 34.7368 0.0000
# 6 0.0000 0.0000 0.0000 0.0000 0.0000 15.2268
#
#
#
# Elastic Compliance Matrix: (Units=1/GPa)
#
#
# Indices 1 2 3 4 5 6 
#
# 1 0.012116 -0.005601 -0.003430 0.000000 0.000000 0.000000
# 2 -0.005601 0.014622 -0.000933 0.000000 0.000000 0.000000
# 3 -0.003430 -0.000933 0.009794 0.000000 0.000000 0.000000
# 4 0.000000 0.000000 0.000000 0.116136 0.000000 0.000000
# 5 0.000000 0.000000 0.000000 0.000000 0.028788 0.000000
# 6 0.000000 0.000000 0.000000 0.000000 0.000000 0.065674
#
#
# Mechanical properties :
#
#
# Convention : Reuss Voigt Hill
#
# Bulk Modulus (GPa) = 60.22861 62.74311 61.48586
# Shear Modulus (GPa) = 18.34235 25.55421 21.94828
#
# Velocity S-wave (km/s) = 2.92544 3.45298 3.20010
# Velocity P-wave (km/s) = 6.28589 6.72103 6.50710
#
# Compressibility (1/GPa) = 0.01660340
#
# Stress axis : x y z
#
# Youngs Moduli (GPa) = 82.53309 68.38851 102.10639
#
# Poissons Ratio (x) = 0.38302 0.35026
# Poissons Ratio (y) = 0.46224 0.09532
# Poissons Ratio (z) = 0.28312 0.06384
#
# Static dielectric constant tensor:
#      x y z
#    x 5.614920 0.000000 0.000000 
#    y 0.000000 3.648470 0.000000 
#    z 0.000000 0.000000 4.108200 
# 
# 
# High freq. dielectric constant tensor:
#      x y z
#    x 1.859130 0.000000 0.000000 
#    y 0.000000 1.805920 0.000000 
#    z 0.000000 0.000000 1.857260 
# 
# From -- ./inp_files/4290.got.cif
#   From: 2010.03.12/outbox.cif.g09.slc.cpg/sg45_3_cif.got.tgz:4290.got - 2010.04.14 02:50:11.
