data_PCOD8190719
_publ_section_title
;
Structure prediction by ZEFSAII (Michael W. Deem and Ramdas Pophale) SiO2 
 PCOD8190719
Probable space group: I B A 2
;
_chemical_formula_sum "Si O2"
_cell_formula_units_Z 56
_cell_length_a 13.720456
_cell_length_b 13.946978
_cell_length_c 13.562828
_cell_angle_alpha 90.000000
_cell_angle_beta 90.000000
_cell_angle_gamma 90.000000
_cell_volume 2595.367820
_symmetry_space_group_name_H-M "I B A 2"
_symmetry_group_IT_number 45
_symmetry_cell_setting 'orthorhombic'
loop_
_space_group_symop_operation_xyz
x,y,z
-x,-y,z
-x,y,1/2+z
x,-y,1/2+z
1/2+x,1/2+y,1/2+z
1/2-x,1/2-y,1/2+z
1/2-x,1/2+y,z
1/2+x,1/2-y,z
loop_
_atom_site_type_symbol
_atom_site_label
_atom_site_fract_x
_atom_site_fract_y
_atom_site_fract_z
Si Si1 0.860023 0.337526 0.411850
Si Si2 0.042365 0.153107 0.223459
Si Si3 0.829923 0.221996 0.224070
Si Si4 0.139977 0.337526 0.315209
Si Si5 0.500000 0.000000 0.863529
Si Si6 0.542365 0.346893 0.003599
Si Si7 0.000000 0.000000 0.363529
Si Si8 0.670077 0.278004 0.502988
O O1 0.840396 0.314289 0.296203
O O2 0.927488 0.431674 0.426771
O O3 0.757226 0.348305 0.467410
O O4 0.916839 0.250568 0.461138
O O5 0.083161 0.250568 0.265920
O O6 0.925501 0.157030 0.224296
O O7 0.070769 0.065067 0.294652
O O8 0.082728 0.134884 0.113529
O O9 0.742774 0.151695 0.259649
O O10 0.809311 0.261134 0.113529
O O11 0.159604 0.314289 0.430856
O O12 0.072512 0.431674 0.300287
O O13 0.570769 0.434933 0.932407
O O14 0.425501 0.342970 0.002763
#
# Coordination Sequence:
#
# PCOD8190719 Si02
#       8
#     8   8   8   8   4   8   4   8
#     4  11  22  43  65  94 135 169 223 276 337 401
#     4  11  22  41  64  91 127 170 215 269 333 395
#     4  10  21  41  65  88 125 175 214 265 332 397
#     4  11  22  43  65  94 135 169 223 276 337 401
#     4  12  22  42  70 102 130 182 218 282 342 382
#     4  11  22  41  64  91 127 170 215 269 333 395
#     4  12  20  38  60  92 116 162 212 274 308 388
#     4  10  21  41  65  88 125 175 214 265 332 397
#
# _framework density 21.576903000000001
#
# number of rings (size 3 to 8) (size 9 to 14) (size 15 to 20)
#    0.000    1.143    5.714    1.286    0.000    1.143 
#    0.000    6.429    0.000    0.000    0.000    0.000 
#    0.000    0.000    0.000    0.000    0.000    0.000 
#
# Total GULP energy -347068.871618 kJ/mol
# GULP energy per Si atom -12395.316843 kJ/mol
# Density = 2.152779 g / cm^3
# Si number density = 21.576903 Si / 1000 Ang^3
#
#
#
# Elastic Constant Matrix: (Units=GPa)
#
#
# Indices 1 2 3 4 5 6 
#
# 1 110.9903 28.4632 27.3852 0.0000 0.0000 0.0000
# 2 28.4632 125.0663 53.5964 0.0000 0.0000 0.0000
# 3 27.3852 53.5964 191.8699 0.0000 0.0000 0.0000
# 4 0.0000 0.0000 0.0000 11.5428 0.0000 0.0000
# 5 0.0000 0.0000 0.0000 0.0000 28.3759 0.0000
# 6 0.0000 0.0000 0.0000 0.0000 0.0000 27.8029
#
#
#
# Elastic Compliance Matrix: (Units=1/GPa)
#
#
# Indices 1 2 3 4 5 6 
#
# 1 0.009695 -0.001833 -0.000872 0.000000 0.000000 0.000000
# 2 -0.001833 0.009430 -0.002372 0.000000 0.000000 0.000000
# 3 -0.000872 -0.002372 0.005999 0.000000 0.000000 0.000000
# 4 0.000000 0.000000 0.000000 0.086634 0.000000 0.000000
# 5 0.000000 0.000000 0.000000 0.000000 0.035241 0.000000
# 6 0.000000 0.000000 0.000000 0.000000 0.000000 0.035967
#
#
# Mechanical properties :
#
#
# Convention : Reuss Voigt Hill
#
# Bulk Modulus (GPa) = 66.80274 71.86846 69.33560
# Shear Modulus (GPa) = 25.23851 34.77644 30.00747
#
# Velocity S-wave (km/s) = 3.42380 4.01901 3.73328
# Velocity P-wave (km/s) = 6.83062 7.41060 7.12651
#
# Compressibility (1/GPa) = 0.01496945
#
# Stress axis : x y z
#
# Youngs Moduli (GPa) = 103.14684 106.04932 166.69448
#
# Poissons Ratio (x) = 0.19437 0.14532
# Poissons Ratio (y) = 0.18905 0.39547
# Poissons Ratio (z) = 0.08992 0.25160
#
# Static dielectric constant tensor:
#      x y z
#    x 4.234740 0.000000 0.000000 
#    y 0.000000 3.683010 0.000000 
#    z 0.000000 0.000000 4.368350 
# 
# 
# High freq. dielectric constant tensor:
#      x y z
#    x 1.851190 0.000000 0.000000 
#    y 0.000000 1.815700 0.000000 
#    z 0.000000 0.000000 1.857190 
# 
# From -- ./inp_files/6595.got.cif
#   From: 2010.03.12/outbox.cif.g09.slc.cpg/sg45_4_cif.got.tgz:6595.got - 2010.04.14 02:50:11.
