data_PCOD8190082
_publ_section_title
;
Structure prediction by ZEFSAII (Michael W. Deem and Ramdas Pophale) SiO2 
 PCOD8190082
Probable space group: I M M 2
;
_chemical_formula_sum "Si O2"
_cell_formula_units_Z 64
_cell_length_a 15.305897
_cell_length_b 8.896614
_cell_length_c 23.740590
_cell_angle_alpha 90.000000
_cell_angle_beta 90.000000
_cell_angle_gamma 90.000000
_cell_volume 3232.771751
_symmetry_space_group_name_H-M "I M M 2"
_symmetry_group_IT_number 44
_symmetry_cell_setting 'orthorhombic'
loop_
_space_group_symop_operation_xyz
x,y,z
-x,-y,z
-x,y,z
x,-y,z
1/2+x,1/2+y,1/2+z
1/2-x,1/2-y,1/2+z
1/2-x,1/2+y,1/2+z
1/2+x,1/2-y,1/2+z
loop_
_atom_site_type_symbol
_atom_site_label
_atom_site_fract_x
_atom_site_fract_y
_atom_site_fract_z
Si Si1 0.756391 0.675915 0.313960
Si Si2 0.252380 0.824050 0.684709
Si Si3 0.097273 0.172059 0.891863
Si Si4 0.901099 0.172630 0.387179
Si Si5 0.598322 0.328025 0.615050
Si Si6 0.152661 0.677108 0.003122
Si Si7 0.098518 0.671852 0.620002
Si Si8 0.661247 0.173619 0.997050
O O1 0.775550 0.500000 0.320471
O O2 0.743783 0.723152 0.249508
O O3 0.667484 0.723353 0.345547
O O4 0.837807 0.765268 0.339091
O O5 0.336733 0.742965 0.660000
O O6 0.164211 0.779092 0.652824
O O7 0.266153 0.000000 0.676972
O O8 0.000000 0.191070 0.866094
O O9 0.114427 0.000000 0.909989
O O10 0.104258 0.275797 0.946349
O O11 0.893349 0.266177 0.444507
O O12 0.000000 0.188342 0.364805
O O13 0.876837 0.000000 0.399603
O O14 0.500000 0.315121 0.639053
O O15 0.626234 0.500000 0.605426
O O16 0.601402 0.245299 0.555549
O O17 0.151418 0.500000 0.008936
O O18 0.251110 0.732971 0.003078
O O19 0.121532 0.500000 0.635116
O O20 0.104721 0.696448 0.553058
O O21 0.000000 0.712219 0.638533
O O22 0.684793 0.000000 0.986403
#
# Coordination Sequence:
#
# PCOD8190082 Si02
#       8
#     8   8   8   8   8   8   8   8
#     4  10  23  42  63  87 118 161 208 252 301 360
#     4  11  24  41  63  91 121 158 206 259 309 355
#     4  10  21  39  63  89 120 161 204 244 294 361
#     4  11  24  40  61  92 126 159 199 250 306 359
#     4  11  24  42  64  89 120 163 207 246 301 369
#     4  12  23  36  60  94 127 157 195 247 305 360
#     4  10  22  40  63  91 123 162 204 245 296 362
#     4  11  21  37  63  91 123 163 202 240 295 364
#
# _framework density 19.797252
#
# number of rings (size 3 to 8) (size 9 to 14) (size 15 to 20)
#    0.000    1.250    2.500    3.375    0.000    7.000 
#    0.000    3.750    0.000    0.000    0.000    0.000 
#    0.000    0.000    0.000    0.000    0.000    0.000 
#
# Total GULP energy -396957.474139 kJ/mol
# GULP energy per Si atom -12404.921067 kJ/mol
# Density = 1.975219 g / cm^3
# Si number density = 19.797252 Si / 1000 Ang^3
#
#
#
# Elastic Constant Matrix: (Units=GPa)
#
#
# Indices 1 2 3 4 5 6 
#
# 1 134.0303 53.8573 51.8361 0.0000 0.0000 0.0000
# 2 53.8573 118.1979 63.7365 0.0000 0.0000 0.0000
# 3 51.8361 63.7365 123.2141 0.0000 0.0000 0.0000
# 4 0.0000 0.0000 0.0000 31.4337 0.0000 0.0000
# 5 0.0000 0.0000 0.0000 0.0000 5.9734 0.0000
# 6 0.0000 0.0000 0.0000 0.0000 0.0000 29.5168
#
#
#
# Elastic Compliance Matrix: (Units=1/GPa)
#
#
# Indices 1 2 3 4 5 6 
#
# 1 0.009649 -0.003062 -0.002475 0.000000 0.000000 0.000000
# 2 -0.003062 0.012705 -0.005284 0.000000 0.000000 0.000000
# 3 -0.002475 -0.005284 0.011891 0.000000 0.000000 0.000000
# 4 0.000000 0.000000 0.000000 0.031813 0.000000 0.000000
# 5 0.000000 0.000000 0.000000 0.000000 0.167409 0.000000
# 6 0.000000 0.000000 0.000000 0.000000 0.000000 0.033879
#
#
# Mechanical properties :
#
#
# Convention : Reuss Voigt Hill
#
# Bulk Modulus (GPa) = 79.35215 79.36692 79.35954
# Shear Modulus (GPa) = 17.05393 27.11892 22.08643
#
# Velocity S-wave (km/s) = 2.93820 3.70514 3.34373
# Velocity P-wave (km/s) = 7.18889 7.64729 7.42163
#
# Compressibility (1/GPa) = 0.01260205
#
# Stress axis : x y z
#
# Youngs Moduli (GPa) = 103.64183 78.71118 84.09963
#
# Poissons Ratio (x) = 0.24098 0.20819
# Poissons Ratio (y) = 0.31731 0.44437
# Poissons Ratio (z) = 0.25656 0.41590
#
# Static dielectric constant tensor:
#      x y z
#    x 3.731950 0.000000 0.000000 
#    y 0.000000 3.688540 0.000000 
#    z 0.000000 0.000000 3.622300 
# 
# 
# High freq. dielectric constant tensor:
#      x y z
#    x 1.786680 0.000000 0.000000 
#    y 0.000000 1.777590 0.000000 
#    z 0.000000 0.000000 1.766060 
# 
# From -- ./inp_files/25124.got.cif
#   From: 2010.03.12/outbox.cif.g09.slc.cpg/sg44_13_cif.got.tgz:25124.got - 2010.04.14 02:36:11.
