data_PCOD8190700
_publ_section_title
;
Structure prediction by ZEFSAII (Michael W. Deem and Ramdas Pophale) SiO2 
 PCOD8190700
Probable space group: I B A 2
;
_chemical_formula_sum "Si O2"
_cell_formula_units_Z 64
_cell_length_a 9.067356
_cell_length_b 25.398330
_cell_length_c 13.221155
_cell_angle_alpha 90.000000
_cell_angle_beta 90.000000
_cell_angle_gamma 90.000000
_cell_volume 3044.775144
_symmetry_space_group_name_H-M "I B A 2"
_symmetry_group_IT_number 45
_symmetry_cell_setting 'orthorhombic'
loop_
_space_group_symop_operation_xyz
x,y,z
-x,-y,z
-x,y,1/2+z
x,-y,1/2+z
1/2+x,1/2+y,1/2+z
1/2-x,1/2-y,1/2+z
1/2-x,1/2+y,z
1/2+x,1/2-y,z
loop_
_atom_site_type_symbol
_atom_site_label
_atom_site_fract_x
_atom_site_fract_y
_atom_site_fract_z
Si Si1 0.364272 0.187215 0.034620
Si Si2 0.402218 0.726407 0.694143
Si Si3 0.355579 0.029888 0.167737
Si Si4 0.163707 0.087785 0.009891
Si Si5 0.634685 0.465155 0.803826
Si Si6 0.887950 0.891685 0.628976
Si Si7 0.562648 0.121031 0.165897
Si Si8 0.367673 0.210829 0.809742
O O1 0.328047 0.234368 0.111968
O O2 0.228664 0.146426 0.025829
O O3 0.508693 0.157197 0.073888
O O4 0.407083 0.213132 0.927429
O O5 0.418340 0.669873 0.642643
O O6 0.554654 0.745997 0.739314
O O7 0.303336 0.723473 0.794762
O O8 0.239760 0.043641 0.080167
O O9 0.431619 0.083742 0.206444
O O10 0.500000 0.000000 0.123648
O O11 0.271867 0.998648 0.257492
O O12 0.987701 0.089738 0.033968
O O13 0.195487 0.069576 0.896101
O O14 0.500000 0.500000 0.844657
O O15 0.557973 0.425550 0.724556
O O16 0.712452 0.905744 0.620326
O O17 0.601423 0.152838 0.266695
#
# Coordination Sequence:
#
# PCOD8190700 Si02
#       8
#     8   8   8   8   8   8   8   8
#     4  10  22  42  63  96 130 171 223 268 331 404
#     4  10  22  38  67  94 130 177 211 272 338 393
#     4  11  23  43  68  90 133 172 213 270 333 387
#     4  11  25  43  67  97 132 170 222 275 330 400
#     4  12  26  43  66  97 132 175 221 274 329 397
#     4  11  22  43  65  95 136 167 217 274 335 387
#     4   9  21  41  64  93 124 174 210 275 328 400
#     4  10  21  40  63  92 134 163 222 271 325 392
#
# _framework density 21.019615999999999
#
# number of rings (size 3 to 8) (size 9 to 14) (size 15 to 20)
#    0.000    1.500    2.500    2.250    1.750    5.500 
#    4.500    0.000    0.000    0.000    0.000    0.000 
#    0.000    0.000    0.000    0.000    0.000    0.000 
#
# Total GULP energy -396586.816003 kJ/mol
# GULP energy per Si atom -12393.338000 kJ/mol
# Density = 2.097177 g / cm^3
# Si number density = 21.019616 Si / 1000 Ang^3
#
#
#
# Elastic Constant Matrix: (Units=GPa)
#
#
# Indices 1 2 3 4 5 6 
#
# 1 93.9321 34.6700 30.2385 0.0000 0.0000 0.0000
# 2 34.6700 92.4158 37.3565 0.0001 0.0000 -0.0001
# 3 30.2385 37.3565 110.2184 0.0009 -0.0002 0.0000
# 4 0.0000 0.0001 0.0009 25.3960 -0.0001 0.0000
# 5 0.0000 0.0000 -0.0002 -0.0001 24.0823 0.0001
# 6 0.0000 -0.0001 0.0000 0.0000 0.0001 31.6932
#
#
#
# Elastic Compliance Matrix: (Units=1/GPa)
#
#
# Indices 1 2 3 4 5 6 
#
# 1 0.012795 -0.003918 -0.002182 0.000000 0.000000 0.000000
# 2 -0.003918 0.013738 -0.003581 0.000000 0.000000 0.000000
# 3 -0.002182 -0.003581 0.010885 0.000000 0.000000 0.000000
# 4 0.000000 0.000000 0.000000 0.039376 0.000000 0.000000
# 5 0.000000 0.000000 0.000000 0.000000 0.041524 0.000000
# 6 0.000000 0.000000 0.000000 0.000000 0.000000 0.031553
#
#
# Mechanical properties :
#
#
# Convention : Reuss Voigt Hill
#
# Bulk Modulus (GPa) = 55.38610 55.67737 55.53174
# Shear Modulus (GPa) = 28.53023 29.18771 28.85897
#
# Velocity S-wave (km/s) = 3.68817 3.73043 3.70936
# Velocity P-wave (km/s) = 6.67411 6.71570 6.69494
#
# Compressibility (1/GPa) = 0.01805507
#
# Stress axis : x y z
#
# Youngs Moduli (GPa) = 78.15825 72.79018 91.86535
#
# Poissons Ratio (x) = 0.28517 0.20048
# Poissons Ratio (y) = 0.30620 0.32901
# Poissons Ratio (z) = 0.17057 0.26069
#
# Static dielectric constant tensor:
#      x y z
#    x 3.916800 0.000000 0.000000 
#    y 0.000000 4.078550 0.000000 
#    z 0.000000 0.000000 3.528040 
# 
# 
# High freq. dielectric constant tensor:
#      x y z
#    x 1.830660 0.000000 0.000000 
#    y 0.000000 1.839860 0.000000 
#    z 0.000000 0.000000 1.801240 
# 
# From -- ./inp_files/3420.got.cif
#   From: 2010.03.12/outbox.cif.g09.slc.cpg/sg45_2_cif.got.tgz:3420.got - 2010.04.14 02:50:11.
