data_PCOD8190718
_publ_section_title
;
Structure prediction by ZEFSAII (Michael W. Deem and Ramdas Pophale) SiO2 
 PCOD8190718
Probable space group: I B A 2
;
_chemical_formula_sum "Si O2"
_cell_formula_units_Z 48
_cell_length_a 8.319241
_cell_length_b 16.601569
_cell_length_c 16.457455
_cell_angle_alpha 90.000000
_cell_angle_beta 90.000000
_cell_angle_gamma 90.000000
_cell_volume 2272.979488
_symmetry_space_group_name_H-M "I B A 2"
_symmetry_group_IT_number 45
_symmetry_cell_setting 'orthorhombic'
loop_
_space_group_symop_operation_xyz
x,y,z
-x,-y,z
-x,y,1/2+z
x,-y,1/2+z
1/2+x,1/2+y,1/2+z
1/2-x,1/2-y,1/2+z
1/2-x,1/2+y,z
1/2+x,1/2-y,z
loop_
_atom_site_type_symbol
_atom_site_label
_atom_site_fract_x
_atom_site_fract_y
_atom_site_fract_z
Si Si1 0.099019 0.145655 0.312550
Si Si2 0.529080 0.686396 0.988715
Si Si3 0.253776 0.300117 0.275764
Si Si4 0.330994 0.851228 0.451749
Si Si5 0.500000 0.500000 0.719678
Si Si6 0.500000 0.000000 0.527077
Si Si7 0.255357 0.604901 0.622990
O O1 0.103080 0.142662 0.409792
O O2 0.239354 0.203316 0.279529
O O3 0.942175 0.187140 0.276012
O O4 0.109395 0.056127 0.277711
O O5 0.543575 0.783566 0.983213
O O6 0.341121 0.663724 0.995564
O O7 0.635128 0.656915 0.063046
O O8 0.177320 0.344144 0.354226
O O9 0.180391 0.336809 0.192538
O O10 0.392199 0.940951 0.471581
O O11 0.372769 0.541647 0.663195
O O12 0.611330 0.942928 0.581345
#
# Coordination Sequence:
#
# PCOD8190718 Si02
#       7
#     8   8   8   8   4   4   8
#     4   9  20  39  62  86 114 156 198 235 293 360
#     4  10  21  41  65  87 119 160 200 242 295 362
#     4   9  21  40  61  85 115 156 199 237 293 359
#     4  10  22  42  64  87 119 161 202 240 295 364
#     4  10  22  38  58  86 120 156 196 246 298 344
#     4  12  26  38  58  92 122 156 202 252 302 344
#     4  11  24  38  58  91 122 155 198 249 300 342
#
# _framework density 21.117657000000001
#
# number of rings (size 3 to 8) (size 9 to 14) (size 15 to 20)
#    0.000    2.000    0.000    2.000    0.000   14.667 
#    0.000    0.000    0.000    0.000    0.000    0.000 
#    0.000    0.000    0.000    0.000    0.000    0.000 
#
# Total GULP energy -297553.713998 kJ/mol
# GULP energy per Si atom -12398.071417 kJ/mol
# Density = 2.106959 g / cm^3
# Si number density = 21.117657 Si / 1000 Ang^3
#
#
#
# Elastic Constant Matrix: (Units=GPa)
#
#
# Indices 1 2 3 4 5 6 
#
# 1 70.5953 33.8890 36.5219 0.0000 0.0000 0.0000
# 2 33.8890 93.7456 56.5663 0.0000 0.0000 0.0000
# 3 36.5219 56.5663 120.6943 0.0000 0.0000 0.0000
# 4 0.0000 0.0000 0.0000 43.5920 0.0000 0.0000
# 5 0.0000 0.0000 0.0000 0.0000 25.2010 0.0000
# 6 0.0000 0.0000 0.0000 0.0000 0.0000 36.3851
#
#
#
# Elastic Compliance Matrix: (Units=1/GPa)
#
#
# Indices 1 2 3 4 5 6 
#
# 1 0.018064 -0.004506 -0.003354 0.000000 0.000000 0.000000
# 2 -0.004506 0.015997 -0.006134 0.000000 0.000000 0.000000
# 3 -0.003354 -0.006134 0.012175 0.000000 0.000000 0.000000
# 4 0.000000 0.000000 0.000000 0.022940 0.000000 0.000000
# 5 0.000000 0.000000 0.000000 0.000000 0.039681 0.000000
# 6 0.000000 0.000000 0.000000 0.000000 0.000000 0.027484
#
#
# Mechanical properties :
#
#
# Convention : Reuss Voigt Hill
#
# Bulk Modulus (GPa) = 54.80140 59.88774 57.34457
# Shear Modulus (GPa) = 29.34064 31.57281 30.45673
#
# Velocity S-wave (km/s) = 3.73149 3.87084 3.80180
# Velocity P-wave (km/s) = 6.67625 6.95690 6.81802
#
# Compressibility (1/GPa) = 0.01824771
#
# Stress axis : x y z
#
# Youngs Moduli (GPa) = 55.35990 62.51020 82.13412
#
# Poissons Ratio (x) = 0.28168 0.27549
# Poissons Ratio (y) = 0.24946 0.50381
# Poissons Ratio (z) = 0.18568 0.38344
#
# Static dielectric constant tensor:
#      x y z
#    x 3.771010 0.000000 0.000000 
#    y 0.000000 4.047510 0.000000 
#    z 0.000000 0.000000 4.084580 
# 
# 
# High freq. dielectric constant tensor:
#      x y z
#    x 1.821050 0.000000 0.000000 
#    y 0.000000 1.833300 0.000000 
#    z 0.000000 0.000000 1.835990 
# 
# From -- ./inp_files/6759.got.cif
#   From: 2010.03.12/outbox.cif.g09.slc.cpg/sg45_4_cif.got.tgz:6759.got - 2010.04.14 02:50:11.
