data_PCOD8190470
_publ_section_title
;
Structure prediction by ZEFSAII (Michael W. Deem and Ramdas Pophale) SiO2 
 PCOD8190470
Probable space group: I B A 2
;
_chemical_formula_sum "Si O2"
_cell_formula_units_Z 48
_cell_length_a 5.239082
_cell_length_b 14.259508
_cell_length_c 28.653053
_cell_angle_alpha 90.000000
_cell_angle_beta 90.000000
_cell_angle_gamma 90.000000
_cell_volume 2140.575943
_symmetry_space_group_name_H-M "I B A 2"
_symmetry_group_IT_number 45
_symmetry_cell_setting 'orthorhombic'
loop_
_space_group_symop_operation_xyz
x,y,z
-x,-y,z
-x,y,1/2+z
x,-y,1/2+z
1/2+x,1/2+y,1/2+z
1/2-x,1/2-y,1/2+z
1/2-x,1/2+y,z
1/2+x,1/2-y,z
loop_
_atom_site_type_symbol
_atom_site_label
_atom_site_fract_x
_atom_site_fract_y
_atom_site_fract_z
Si Si1 0.218525 0.309774 0.212320
Si Si2 0.320141 0.852399 0.105297
Si Si3 0.250005 0.061453 0.970076
Si Si4 0.251375 0.939212 0.296937
Si Si5 0.320021 0.644869 0.065781
Si Si6 0.780924 0.309541 0.882717
O O1 0.449091 0.238967 0.223066
O O2 0.238226 0.344919 0.159668
O O3 0.243692 0.401391 0.244264
O O4 0.372076 0.751272 0.081644
O O5 0.589881 0.904280 0.095249
O O6 0.086977 0.906736 0.079763
O O7 0.253435 0.107952 0.919719
O O8 0.500000 0.000000 0.977725
O O9 0.236563 0.139824 0.010687
O O10 0.000000 0.000000 0.973996
O O11 0.250149 0.850409 0.331074
O O12 0.500000 0.000000 0.307773
O O13 0.000000 0.000000 0.305573
O O14 0.560018 0.233688 0.890251
#
# Coordination Sequence:
#
# PCOD8190470 Si02
#       6
#     8   8   8   8   8   8
#     4  12  21  41  69  98 126 175 232 272 323 384
#     4  10  19  37  64  91 121 172 221 285 298 363
#     4  12  26  44  65 100 142 176 210 277 343 396
#     4  12  26  46  68  99 142 174 205 276 350 399
#     4  10  20  36  62  90 125 175 216 259 331 365
#     4  12  26  46  74 104 124 174 230 271 319 403
#
# _framework density 22.423870999999998
#
# number of rings (size 3 to 8) (size 9 to 14) (size 15 to 20)
#    0.000    0.667    3.333    6.000    4.667    0.000 
#    0.000    5.000    0.000    0.000    0.000    0.000 
#    0.000    0.000    0.000    0.000    0.000    0.000 
#
# Total GULP energy -297668.121610 kJ/mol
# GULP energy per Si atom -12402.838400 kJ/mol
# Density = 2.237283 g / cm^3
# Si number density = 22.423871 Si / 1000 Ang^3
#
#
#
# Elastic Constant Matrix: (Units=GPa)
#
#
# Indices 1 2 3 4 5 6 
#
# 1 184.0178 14.3941 21.6512 0.0000 0.0000 0.0000
# 2 14.3941 32.2281 29.3470 0.0000 0.0000 0.0000
# 3 21.6512 29.3470 118.3989 0.0000 0.0000 0.0000
# 4 0.0000 0.0000 0.0000 29.2868 0.0000 0.0000
# 5 0.0000 0.0000 0.0000 0.0000 35.2629 0.0000
# 6 0.0000 0.0000 0.0000 0.0000 0.0000 -1.3078
#
#
#
# Elastic Compliance Matrix: (Units=1/GPa)
#
#
# Indices 1 2 3 4 5 6 
#
# 1 0.005656 -0.002046 -0.000527 0.000000 0.000000 0.000000
# 2 -0.002046 0.040814 -0.009742 0.000000 0.000000 0.000000
# 3 -0.000527 -0.009742 0.010957 0.000000 0.000000 0.000000
# 4 0.000000 0.000000 0.000000 0.034145 0.000000 0.000000
# 5 0.000000 0.000000 0.000000 0.000000 0.028358 0.000000
# 6 0.000000 0.000000 0.000000 0.000000 0.000000 -0.764650
#
#
# Mechanical properties :
#
#
# Convention : Reuss Voigt Hill
#
# Bulk Modulus (GPa) = 30.49124 51.71437 41.10280
# Shear Modulus (GPa) = -8.20808 30.59854 11.19523
#
# Velocity S-wave (km/s) = -1.91530 3.69799 2.23683
# Velocity P-wave (km/s) = 2.95568 6.43007 5.00409
#
# Compressibility (1/GPa) = 0.03279631
#
# Stress axis : x y z
#
# Youngs Moduli (GPa) = 176.79261 24.50136 91.26442
#
# Poissons Ratio (x) = 0.05014 0.04811
# Poissons Ratio (y) = 0.36177 0.88912
# Poissons Ratio (z) = 0.09320 0.23870
#
# Static dielectric constant tensor:
#      x y z
#    x 4.964990 0.000000 0.000000 
#    y 0.000000 3.744010 0.000000 
#    z 0.000000 0.000000 4.119330 
# 
# 
# High freq. dielectric constant tensor:
#      x y z
#    x 1.923140 0.000000 0.000000 
#    y 0.000000 1.863500 0.000000 
#    z 0.000000 0.000000 1.893630 
# 
# From -- ./inp_files/9889.got.cif
#   From: 2010.03.12/outbox.cif.g09.slc.cpg/sg45_5_cif.got.tgz:9889.got - 2010.04.14 02:50:11.
