data_PCOD8190321
_publ_section_title
;
Structure prediction by ZEFSAII (Michael W. Deem and Ramdas Pophale) SiO2 
 PCOD8190321
Probable space group: I M M 2
;
_chemical_formula_sum "Si O2"
_cell_formula_units_Z 56
_cell_length_a 22.475635
_cell_length_b 9.864573
_cell_length_c 17.660368
_cell_angle_alpha 90.000000
_cell_angle_beta 90.000000
_cell_angle_gamma 90.000000
_cell_volume 3915.525085
_symmetry_space_group_name_H-M "I M M 2"
_symmetry_group_IT_number 44
_symmetry_cell_setting 'orthorhombic'
loop_
_space_group_symop_operation_xyz
x,y,z
-x,-y,z
-x,y,z
x,-y,z
1/2+x,1/2+y,1/2+z
1/2-x,1/2-y,1/2+z
1/2-x,1/2+y,1/2+z
1/2+x,1/2-y,1/2+z
loop_
_atom_site_type_symbol
_atom_site_label
_atom_site_fract_x
_atom_site_fract_y
_atom_site_fract_z
Si Si1 0.818441 0.151728 0.657880
Si Si2 0.349402 0.161166 0.546853
Si Si3 0.433496 0.838667 0.417845
Si Si4 0.681980 0.151525 0.707563
Si Si5 0.222575 0.839462 0.500751
Si Si6 0.653144 0.155793 0.285658
Si Si7 0.788355 0.155638 0.334309
O O1 0.749785 0.151189 0.680848
O O2 0.821877 0.200343 0.569762
O O3 0.855278 0.255155 0.709923
O O4 0.844882 0.000000 0.667340
O O5 0.403845 0.216240 0.495799
O O6 0.357687 0.200812 0.635556
O O7 0.288006 0.224544 0.514391
O O8 0.345656 0.000000 0.540875
O O9 0.500000 0.778414 0.411632
O O10 0.394810 0.790329 0.346175
O O11 0.434988 0.000000 0.419252
O O12 0.672606 0.254009 0.777135
O O13 0.663403 0.000000 0.733406
O O14 0.197050 0.792221 0.419443
O O15 0.230297 0.000000 0.498988
O O16 0.718166 0.174302 0.321226
O O17 0.641519 0.000000 0.263597
O O18 0.807223 0.000000 0.322072
#
# Coordination Sequence:
#
# PCOD8190321 Si02
#       7
#     8   8   8   8   8   8   8
#     4   8  14  23  35  49  66  92 123 146 169 211
#     4   8  12  21  34  47  67  96 123 146 174 206
#     4   9  15  22  35  55  74  94 125 157 178 203
#     4   8  14  22  33  49  69  93 119 144 174 212
#     4   8  12  20  34  50  68  94 123 144 168 208
#     4   9  15  23  35  51  72  94 116 147 183 208
#     4   9  14  21  35  52  71  94 119 144 173 210
#
# _framework density 14.302042
#
# number of rings (size 3 to 8) (size 9 to 14) (size 15 to 20)
#    0.000    3.571    1.429    1.714    0.000    0.000 
#    0.000    0.714    0.000    2.143    0.000    0.000 
#    0.000    1.143    0.000   11.714    0.000    1.429 
#
# Total GULP energy -346907.701155 kJ/mol
# GULP energy per Si atom -12389.560756 kJ/mol
# Density = 1.426949 g / cm^3
# Si number density = 14.302042 Si / 1000 Ang^3
#
#
#
# Elastic Constant Matrix: (Units=GPa)
#
#
# Indices 1 2 3 4 5 6 
#
# 1 39.9689 15.3707 39.0272 0.0000 0.0000 0.0000
# 2 15.3707 43.1503 52.4563 0.0000 0.0000 0.0000
# 3 39.0272 52.4563 154.7735 0.0000 0.0000 0.0000
# 4 0.0000 0.0000 0.0000 24.0740 0.0000 0.0000
# 5 0.0000 0.0000 0.0000 0.0000 14.4897 0.0000
# 6 0.0000 0.0000 0.0000 0.0000 0.0000 6.6808
#
#
#
# Elastic Compliance Matrix: (Units=1/GPa)
#
#
# Indices 1 2 3 4 5 6 
#
# 1 0.033392 -0.002821 -0.007464 0.000000 0.000000 0.000000
# 2 -0.002821 0.039652 -0.012728 0.000000 0.000000 0.000000
# 3 -0.007464 -0.012728 0.012657 0.000000 0.000000 0.000000
# 4 0.000000 0.000000 0.000000 0.041539 0.000000 0.000000
# 5 0.000000 0.000000 0.000000 0.000000 0.069015 0.000000
# 6 0.000000 0.000000 0.000000 0.000000 0.000000 0.149683
#
#
# Mechanical properties :
#
#
# Convention : Reuss Voigt Hill
#
# Bulk Modulus (GPa) = 25.20416 50.17792 37.69104
# Shear Modulus (GPa) = 12.33992 17.78480 15.06236
#
# Velocity S-wave (km/s) = 2.94055 3.53018 3.24877
# Velocity P-wave (km/s) = 5.40279 7.19561 6.36266
#
# Compressibility (1/GPa) = 0.03967599
#
# Stress axis : x y z
#
# Youngs Moduli (GPa) = 29.94688 25.21917 79.00839
#
# Poissons Ratio (x) = 0.07115 0.58972
# Poissons Ratio (y) = 0.08448 1.00560
# Poissons Ratio (z) = 0.22352 0.32098
#
# Static dielectric constant tensor:
#      x y z
#    x 2.504310 0.000000 0.000000 
#    y 0.000000 2.561730 0.000000 
#    z 0.000000 0.000000 3.230070 
# 
# 
# High freq. dielectric constant tensor:
#      x y z
#    x 1.485130 0.000000 0.000000 
#    y 0.000000 1.508110 0.000000 
#    z 0.000000 0.000000 1.561450 
# 
# From -- ./inp_files/20812.got.cif
#   From: 2010.03.12/outbox.cif.g09.slc.cpg/sg44_11_cif.got.tgz:20812.got - 2010.04.14 02:36:11.
