data_PCOD8190956
_publ_section_title
;
Structure prediction by ZEFSAII (Michael W. Deem and Ramdas Pophale) SiO2 
 PCOD8190956
Probable space group: I B A 2
;
_chemical_formula_sum "Si O2"
_cell_formula_units_Z 40
_cell_length_a 21.661358
_cell_length_b 8.713996
_cell_length_c 8.593285
_cell_angle_alpha 90.000000
_cell_angle_beta 90.000000
_cell_angle_gamma 90.000000
_cell_volume 1622.042585
_symmetry_space_group_name_H-M "I B A 2"
_symmetry_group_IT_number 45
_symmetry_cell_setting 'orthorhombic'
loop_
_space_group_symop_operation_xyz
x,y,z
-x,-y,z
-x,y,1/2+z
x,-y,1/2+z
1/2+x,1/2+y,1/2+z
1/2-x,1/2-y,1/2+z
1/2-x,1/2+y,z
1/2+x,1/2-y,z
loop_
_atom_site_type_symbol
_atom_site_label
_atom_site_fract_x
_atom_site_fract_y
_atom_site_fract_z
Si Si1 0.623375 0.377799 0.567050
Si Si2 0.500000 0.000000 0.522100
Si Si3 0.749600 0.458847 0.152973
Si Si4 0.699729 0.793029 0.853643
Si Si5 0.500000 0.500000 0.441159
Si Si6 0.950562 0.291387 0.282608
O O1 0.683361 0.476932 0.602028
O O2 0.633209 0.274005 0.409635
O O3 0.562247 0.482543 0.545276
O O4 0.615333 0.275055 0.725478
O O5 0.522361 0.142935 0.621366
O O6 0.446172 0.071828 0.409690
O O7 0.741717 0.350127 0.302548
O O8 0.799999 0.586340 0.209996
O O9 0.773001 0.363346 0.009342
O O10 0.505711 0.652953 0.337886
#
# Coordination Sequence:
#
# PCOD8190956 Si02
#       6
#     8   4   8   8   4   8
#     4  12  26  47  82 113 156 205 265 334 392 490
#     4  10  24  48  70 102 162 194 260 318 386 472
#     4  12  25  50  77 112 155 201 272 327 402 469
#     4  12  25  49  77 112 152 205 263 334 395 464
#     4  12  26  50  80 116 154 214 266 314 408 500
#     4  11  24  47  72 111 151 204 258 318 397 481
#
# _framework density 24.660266
#
# number of rings (size 3 to 8) (size 9 to 14) (size 15 to 20)
#    0.000    0.400    6.000    1.800    0.000    1.600 
#    0.000    0.000    0.000    0.000    0.000    0.000 
#    0.000    0.000    0.000    0.000    0.000    0.000 
#
# Total GULP energy -247788.811237 kJ/mol
# GULP energy per Si atom -12389.440562 kJ/mol
# Density = 2.460414 g / cm^3
# Si number density = 24.660266 Si / 1000 Ang^3
#
#
#
# Elastic Constant Matrix: (Units=GPa)
#
#
# Indices 1 2 3 4 5 6 
#
# 1 88.6125 34.2183 41.5096 0.0000 0.0000 0.0000
# 2 34.2183 123.9741 58.7130 0.0000 0.0000 0.0000
# 3 41.5096 58.7130 126.6925 0.0000 0.0000 0.0000
# 4 0.0000 0.0000 0.0000 60.6404 0.0000 0.0000
# 5 0.0000 0.0000 0.0000 0.0000 42.2246 0.0000
# 6 0.0000 0.0000 0.0000 0.0000 0.0000 31.1007
#
#
#
# Elastic Compliance Matrix: (Units=1/GPa)
#
#
# Indices 1 2 3 4 5 6 
#
# 1 0.013757 -0.002130 -0.003520 0.000000 0.000000 0.000000
# 2 -0.002130 0.010664 -0.004244 0.000000 0.000000 0.000000
# 3 -0.003520 -0.004244 0.011013 0.000000 0.000000 0.000000
# 4 0.000000 0.000000 0.000000 0.016491 0.000000 0.000000
# 5 0.000000 0.000000 0.000000 0.000000 0.023683 0.000000
# 6 0.000000 0.000000 0.000000 0.000000 0.000000 0.032154
#
#
# Mechanical properties :
#
#
# Convention : Reuss Voigt Hill
#
# Bulk Modulus (GPa) = 63.91607 67.57345 65.74476
# Shear Modulus (GPa) = 37.66059 40.44901 39.05480
#
# Velocity S-wave (km/s) = 3.91215 4.05439 3.98391
# Velocity P-wave (km/s) = 6.81039 7.02700 6.91954
#
# Compressibility (1/GPa) = 0.01564552
#
# Stress axis : x y z
#
# Youngs Moduli (GPa) = 72.69277 93.77262 90.79870
#
# Poissons Ratio (x) = 0.19972 0.31963
# Poissons Ratio (y) = 0.15482 0.38537
# Poissons Ratio (z) = 0.25589 0.39799
#
# Static dielectric constant tensor:
#      x y z
#    x 4.539630 0.000000 0.000000 
#    y 0.000000 5.017250 0.000000 
#    z 0.000000 0.000000 4.725260 
# 
# 
# High freq. dielectric constant tensor:
#      x y z
#    x 1.945080 0.000000 0.000000 
#    y 0.000000 2.006810 0.000000 
#    z 0.000000 0.000000 2.000100 
# 
# From -- ./inp_files/973.got.cif
#   From: 2010.03.12/outbox.cif.g09.slc.cpg/sg45_1_cif.got.tgz:973.got - 2010.04.14 02:50:11.
