data_PCOD8190937
_publ_section_title
;
Structure prediction by ZEFSAII (Michael W. Deem and Ramdas Pophale) SiO2 
 PCOD8190937
Probable space group: I B A 2
;
_chemical_formula_sum "Si O2"
_cell_formula_units_Z 56
_cell_length_a 12.544838
_cell_length_b 15.234508
_cell_length_c 12.983282
_cell_angle_alpha 90.000000
_cell_angle_beta 90.000000
_cell_angle_gamma 90.000000
_cell_volume 2481.292602
_symmetry_space_group_name_H-M "I B A 2"
_symmetry_group_IT_number 45
_symmetry_cell_setting 'orthorhombic'
loop_
_space_group_symop_operation_xyz
x,y,z
-x,-y,z
-x,y,1/2+z
x,-y,1/2+z
1/2+x,1/2+y,1/2+z
1/2-x,1/2-y,1/2+z
1/2-x,1/2+y,z
1/2+x,1/2-y,z
loop_
_atom_site_type_symbol
_atom_site_label
_atom_site_fract_x
_atom_site_fract_y
_atom_site_fract_z
Si Si1 0.103138 0.104706 0.959350
Si Si2 0.681976 0.207482 0.977269
Si Si3 0.000000 0.500000 0.485521
Si Si4 0.511435 0.847427 0.839110
Si Si5 0.180444 0.992479 0.271591
Si Si6 0.622292 0.088963 0.153275
Si Si7 0.884389 0.164744 0.862625
Si Si8 0.500000 0.500000 0.133300
O O1 0.176553 0.188161 0.978993
O O2 0.991006 0.122899 0.905901
O O3 0.172165 0.038782 0.889720
O O4 0.075646 0.063620 0.068845
O O5 0.605634 0.176576 0.881730
O O6 0.799564 0.172952 0.954417
O O7 0.656494 0.177814 0.094025
O O8 0.948415 0.578379 0.418688
O O9 0.902389 0.474215 0.558291
O O10 0.517784 0.890265 0.724395
O O11 0.590525 0.764162 0.826797
O O12 0.164421 0.099497 0.274340
O O13 0.084170 0.948205 0.206005
O O14 0.290750 0.958732 0.224529
#
# Coordination Sequence:
#
# PCOD8190937 Si02
#       8
#     8   8   4   8   8   8   8   4
#     4  11  23  45  69  95 146 179 228 295 347 412
#     4  10  25  43  69 100 135 186 230 290 353 412
#     4  10  24  46  66  98 128 194 226 292 350 404
#     4  10  24  45  68  95 145 173 235 294 349 420
#     4  12  25  40  70 102 138 183 231 288 354 417
#     4  11  25  41  69 102 129 184 238 278 354 425
#     4  11  22  45  65 101 138 182 225 290 356 409
#     4  12  22  42  68  98 128 186 236 282 350 424
#
# _framework density 22.568881999999999
#
# number of rings (size 3 to 8) (size 9 to 14) (size 15 to 20)
#    0.000    1.143    2.857    2.143    8.000    1.143 
#    0.000    2.857    0.000    0.000    0.000    0.000 
#    0.000    0.000    0.000    0.000    0.000    0.000 
#
# Total GULP energy -346929.422015 kJ/mol
# GULP energy per Si atom -12390.336501 kJ/mol
# Density = 2.251751 g / cm^3
# Si number density = 22.568882 Si / 1000 Ang^3
#
#
#
# Elastic Constant Matrix: (Units=GPa)
#
#
# Indices 1 2 3 4 5 6 
#
# 1 64.7639 25.5457 25.5937 0.0000 0.0000 0.0000
# 2 25.5457 129.7754 44.3907 -0.0001 0.0000 0.0000
# 3 25.5937 44.3907 104.8436 -0.0002 0.0000 0.0000
# 4 0.0000 -0.0001 -0.0002 24.1414 0.0000 0.0000
# 5 0.0000 0.0000 0.0000 0.0000 45.9321 0.0000
# 6 0.0000 0.0000 0.0000 0.0000 0.0000 23.5769
#
#
#
# Elastic Compliance Matrix: (Units=1/GPa)
#
#
# Indices 1 2 3 4 5 6 
#
# 1 0.017678 -0.002343 -0.003323 0.000000 0.000000 0.000000
# 2 -0.002343 0.009321 -0.003375 0.000000 0.000000 0.000000
# 3 -0.003323 -0.003375 0.011778 0.000000 0.000000 0.000000
# 4 0.000000 0.000000 0.000000 0.041423 0.000000 0.000000
# 5 0.000000 0.000000 0.000000 0.000000 0.021771 0.000000
# 6 0.000000 0.000000 0.000000 0.000000 0.000000 0.042414
#
#
# Mechanical properties :
#
#
# Convention : Reuss Voigt Hill
#
# Bulk Modulus (GPa) = 48.32012 54.49369 51.40691
# Shear Modulus (GPa) = 29.52176 32.32026 30.92101
#
# Velocity S-wave (km/s) = 3.62065 3.78838 3.70547
# Velocity P-wave (km/s) = 6.23982 6.58283 6.41362
#
# Compressibility (1/GPa) = 0.02069531
#
# Stress axis : x y z
#
# Youngs Moduli (GPa) = 56.56657 107.28285 84.90326
#
# Poissons Ratio (x) = 0.25137 0.28217
# Poissons Ratio (y) = 0.13254 0.28651
# Poissons Ratio (z) = 0.18800 0.36204
#
# Static dielectric constant tensor:
#      x y z
#    x 3.815440 0.000000 0.000000 
#    y 0.000000 4.457760 0.000000 
#    z 0.000000 0.000000 4.252510 
# 
# 
# High freq. dielectric constant tensor:
#      x y z
#    x 1.878620 0.000000 0.000000 
#    y 0.000000 1.896450 0.000000 
#    z 0.000000 0.000000 1.894730 
# 
# From -- ./inp_files/4169.got.cif
#   From: 2010.03.12/outbox.cif.g09.slc.cpg/sg45_3_cif.got.tgz:4169.got - 2010.04.14 02:50:11.
