data_PCOD8190074
_publ_section_title
;
Structure prediction by ZEFSAII (Michael W. Deem and Ramdas Pophale) SiO2 
 PCOD8190074
Probable space group: I M M 2
;
_chemical_formula_sum "Si O2"
_cell_formula_units_Z 64
_cell_length_a 9.011036
_cell_length_b 30.597488
_cell_length_c 11.948900
_cell_angle_alpha 90.000000
_cell_angle_beta 90.000000
_cell_angle_gamma 90.000000
_cell_volume 3294.491751
_symmetry_space_group_name_H-M "I M M 2"
_symmetry_group_IT_number 44
_symmetry_cell_setting 'orthorhombic'
loop_
_space_group_symop_operation_xyz
x,y,z
-x,-y,z
-x,y,z
x,-y,z
1/2+x,1/2+y,1/2+z
1/2-x,1/2-y,1/2+z
1/2-x,1/2+y,1/2+z
1/2+x,1/2-y,1/2+z
loop_
_atom_site_type_symbol
_atom_site_label
_atom_site_fract_x
_atom_site_fract_y
_atom_site_fract_z
Si Si1 0.823546 0.128499 0.009530
Si Si2 0.672835 0.200559 0.862525
Si Si3 0.831576 0.289264 0.895509
Si Si4 0.669025 0.048263 0.401838
Si Si5 0.331786 0.836034 0.621793
Si Si6 0.325988 0.873370 0.247684
Si Si7 0.825329 0.075478 0.616210
Si Si8 0.823736 0.951386 0.859534
O O1 0.766687 0.128070 0.135047
O O2 0.000000 0.130192 0.008642
O O3 0.764124 0.171802 0.949920
O O4 0.763285 0.085025 0.945957
O O5 0.500000 0.195925 0.890645
O O6 0.718603 0.250808 0.869232
O O7 0.712185 0.185589 0.738206
O O8 0.788431 0.330914 0.820710
O O9 0.000000 0.274585 0.869063
O O10 0.813954 0.300006 0.026067
O O11 0.500000 0.060597 0.431205
O O12 0.730847 0.084031 0.315202
O O13 0.759050 0.046654 0.517086
O O14 0.681265 0.000000 0.346952
O O15 0.500000 0.854363 0.623278
O O16 0.218904 0.874641 0.596063
O O17 0.500000 0.876601 0.219731
O O18 0.762001 0.059031 0.735511
O O19 0.000000 0.070445 0.612823
O O20 0.000000 0.949481 0.857244
O O21 0.769435 0.000000 0.895786
#
# Coordination Sequence:
#
# PCOD8190074 Si02
#       8
#     8   8   8   8   8   8   8   8
#     4  11  23  40  61  85 118 159 200 242 294 353
#     4  11  24  40  62  91 121 152 195 247 294 349
#     4  10  22  41  63  86 118 157 194 241 297 352
#     4  10  21  39  62  87 120 160 198 240 297 357
#     4  10  21  40  63  87 119 156 193 241 295 351
#     4  10  22  41  61  85 118 156 198 246 297 346
#     4  11  20  34  60  91 123 154 193 245 293 348
#     4   9  19  36  57  84 118 154 191 237 293 345
#
# _framework density 19.426365000000001
#
# number of rings (size 3 to 8) (size 9 to 14) (size 15 to 20)
#    0.000    1.750    2.500    1.500    1.750    3.250 
#    0.000    0.000    0.000    3.375    0.000    0.000 
#    0.000    0.000    0.000    0.000    0.000    0.000 
#
# Total GULP energy -396884.655230 kJ/mol
# GULP energy per Si atom -12402.645476 kJ/mol
# Density = 1.938215 g / cm^3
# Si number density = 19.426365 Si / 1000 Ang^3
#
#
#
# Elastic Constant Matrix: (Units=GPa)
#
#
# Indices 1 2 3 4 5 6 
#
# 1 58.3364 34.6577 43.1800 0.0006 -0.0002 -0.0001
# 2 34.6577 130.0059 52.0466 0.0030 -0.0001 0.0000
# 3 43.1800 52.0466 133.7082 0.0084 0.0002 -0.0004
# 4 0.0006 0.0030 0.0084 22.1900 0.0001 -0.0003
# 5 -0.0002 -0.0001 0.0002 0.0001 30.1783 0.0005
# 6 -0.0001 0.0000 -0.0004 -0.0003 0.0005 21.8158
#
#
#
# Elastic Compliance Matrix: (Units=1/GPa)
#
#
# Indices 1 2 3 4 5 6 
#
# 1 0.024103 -0.003920 -0.006258 0.000002 0.000000 0.000000
# 2 -0.003920 0.009750 -0.002529 0.000000 0.000000 0.000000
# 3 -0.006258 -0.002529 0.010484 -0.000003 0.000000 0.000000
# 4 0.000002 0.000000 -0.000003 0.045065 0.000000 0.000001
# 5 0.000000 0.000000 0.000000 0.000000 0.033136 -0.000001
# 6 0.000000 0.000000 0.000000 0.000001 -0.000001 0.045838
#
#
# Mechanical properties :
#
#
# Convention : Reuss Voigt Hill
#
# Bulk Modulus (GPa) = 52.84705 64.64657 58.74681
# Shear Modulus (GPa) = 24.98765 27.64789 26.31777
#
# Velocity S-wave (km/s) = 3.59036 3.77664 3.68468
# Velocity P-wave (km/s) = 6.66711 7.23653 6.95765
#
# Compressibility (1/GPa) = 0.01892253
#
# Stress axis : x y z
#
# Youngs Moduli (GPa) = 41.48855 102.56922 95.38013
#
# Poissons Ratio (x) = 0.40209 0.59688
# Poissons Ratio (y) = 0.16264 0.24122
# Poissons Ratio (z) = 0.25963 0.25940
#
# Static dielectric constant tensor:
#      x y z
#    x 3.410250 0.000000 0.000000 
#    y 0.000000 3.707440 0.000000 
#    z 0.000000 0.000000 3.628760 
# 
# 
# High freq. dielectric constant tensor:
#      x y z
#    x 1.741550 0.000000 0.000000 
#    y 0.000000 1.767540 0.000000 
#    z 0.000000 0.000000 1.761490 
# 
# From -- ./inp_files/11463.got.cif
#   From: 2010.03.12/outbox.cif.g09.slc.cpg/sg44_6_cif.got.tgz:11463.got - 2010.04.14 02:36:11.
