data_PCOD8190301
_publ_section_title
;
Structure prediction by ZEFSAII (Michael W. Deem and Ramdas Pophale) SiO2 
 PCOD8190301
Probable space group: I M M 2
;
_chemical_formula_sum "Si O2"
_cell_formula_units_Z 32
_cell_length_a 8.536064
_cell_length_b 15.114232
_cell_length_c 11.807339
_cell_angle_alpha 90.000000
_cell_angle_beta 90.000000
_cell_angle_gamma 90.000000
_cell_volume 1523.336258
_symmetry_space_group_name_H-M "I M M 2"
_symmetry_group_IT_number 44
_symmetry_cell_setting 'orthorhombic'
loop_
_space_group_symop_operation_xyz
x,y,z
-x,-y,z
-x,y,z
x,-y,z
1/2+x,1/2+y,1/2+z
1/2-x,1/2-y,1/2+z
1/2-x,1/2+y,1/2+z
1/2+x,1/2-y,1/2+z
loop_
_atom_site_type_symbol
_atom_site_label
_atom_site_fract_x
_atom_site_fract_y
_atom_site_fract_z
Si Si1 0.823096 0.400380 0.378770
Si Si2 0.681705 0.000000 0.233856
Si Si3 0.682820 0.663641 0.600691
Si Si4 0.682202 0.348411 0.150676
Si Si5 0.682216 0.000000 0.500902
O O1 0.815158 0.500000 0.426559
O O2 0.765892 0.337206 0.478731
O O3 0.710736 0.394749 0.270788
O O4 0.000000 0.374696 0.343707
O O5 0.758100 0.912046 0.184324
O O6 0.709453 0.000000 0.367541
O O7 0.500000 0.000000 0.201725
O O8 0.500000 0.651214 0.581944
O O9 0.720438 0.758078 0.654375
O O10 0.500000 0.327916 0.134040
O O11 0.738950 0.412027 0.050374
O O12 0.500000 0.000000 0.534178
#
# Coordination Sequence:
#
# PCOD8190301 Si02
#       5
#     8   4   8   8   4
#     4  11  23  43  71  98 132 171 220 276 332 389
#     4  11  25  46  69  96 135 175 221 275 331 392
#     4  12  26  44  69  99 135 175 223 272 330 394
#     4  12  26  44  69  99 135 175 223 272 330 394
#     4  11  25  46  69  96 135 175 221 275 331 392
#
# _framework density 21.006525
#
# number of rings (size 3 to 8) (size 9 to 14) (size 15 to 20)
#    0.000    0.500    2.500    6.000    3.500    3.000 
#    0.000    0.000    0.000    0.000    0.000    0.000 
#    0.000    0.000    0.000    0.000    0.000    0.000 
#
# Total GULP energy -198536.803626 kJ/mol
# GULP energy per Si atom -12408.550227 kJ/mol
# Density = 2.095871 g / cm^3
# Si number density = 21.006525 Si / 1000 Ang^3
#
#
#
# Elastic Constant Matrix: (Units=GPa)
#
#
# Indices 1 2 3 4 5 6 
#
# 1 105.4604 36.1888 38.0186 0.0000 0.0000 0.0000
# 2 36.1888 130.4228 28.2524 0.0000 0.0000 0.0000
# 3 38.0186 28.2524 92.4524 0.0001 0.0000 0.0000
# 4 0.0000 0.0000 0.0001 23.9619 0.0000 0.0000
# 5 0.0000 0.0000 0.0000 0.0000 37.5621 0.0000
# 6 0.0000 0.0000 0.0000 0.0000 0.0000 36.0665
#
#
#
# Elastic Compliance Matrix: (Units=1/GPa)
#
#
# Indices 1 2 3 4 5 6 
#
# 1 0.011783 -0.002377 -0.004119 0.000000 0.000000 0.000000
# 2 -0.002377 0.008690 -0.001678 0.000000 0.000000 0.000000
# 3 -0.004119 -0.001678 0.013023 0.000000 0.000000 0.000000
# 4 0.000000 0.000000 0.000000 0.041733 0.000000 0.000000
# 5 0.000000 0.000000 0.000000 0.000000 0.026623 0.000000
# 6 0.000000 0.000000 0.000000 0.000000 0.000000 0.027727
#
#
# Mechanical properties :
#
#
# Convention : Reuss Voigt Hill
#
# Bulk Modulus (GPa) = 58.31657 59.25058 58.78358
# Shear Modulus (GPa) = 32.97219 34.57648 33.77434
#
# Velocity S-wave (km/s) = 3.96614 4.06148 4.01409
# Velocity P-wave (km/s) = 6.98535 7.08951 7.03762
#
# Compressibility (1/GPa) = 0.01714778
#
# Stress axis : x y z
#
# Youngs Moduli (GPa) = 84.86913 115.06818 76.78710
#
# Poissons Ratio (x) = 0.27354 0.31628
# Poissons Ratio (y) = 0.20175 0.12886
# Poissons Ratio (z) = 0.34957 0.19310
#
# Static dielectric constant tensor:
#      x y z
#    x 3.925820 0.000000 0.000000 
#    y 0.000000 3.806450 0.000000 
#    z 0.000000 0.000000 3.735400 
# 
# 
# High freq. dielectric constant tensor:
#      x y z
#    x 1.839410 0.000000 0.000000 
#    y 0.000000 1.831100 0.000000 
#    z 0.000000 0.000000 1.832630 
# 
# From -- ./inp_files/10632.got.cif
#   From: 2010.03.12/outbox.cif.g09.slc.cpg/sg44_6_cif.got.tgz:10632.got - 2010.04.14 02:36:11.
