data_PCOD8190216
_publ_section_title
;
Structure prediction by ZEFSAII (Michael W. Deem and Ramdas Pophale) SiO2 
 PCOD8190216
Probable space group: I M M 2
;
_chemical_formula_sum "Si O2"
_cell_formula_units_Z 40
_cell_length_a 8.353602
_cell_length_b 25.551545
_cell_length_c 8.814661
_cell_angle_alpha 90.000000
_cell_angle_beta 90.000000
_cell_angle_gamma 90.000000
_cell_volume 1881.466802
_symmetry_space_group_name_H-M "I M M 2"
_symmetry_group_IT_number 44
_symmetry_cell_setting 'orthorhombic'
loop_
_space_group_symop_operation_xyz
x,y,z
-x,-y,z
-x,y,z
x,-y,z
1/2+x,1/2+y,1/2+z
1/2-x,1/2-y,1/2+z
1/2-x,1/2+y,1/2+z
1/2+x,1/2-y,1/2+z
loop_
_atom_site_type_symbol
_atom_site_label
_atom_site_fract_x
_atom_site_fract_y
_atom_site_fract_z
Si Si1 0.184058 0.595479 0.157830
Si Si2 0.818495 0.000000 0.483034
Si Si3 0.812810 0.703500 0.002847
Si Si4 0.183697 0.098029 0.985581
Si Si5 0.315642 0.804900 0.153638
Si Si6 0.814927 0.500000 0.659617
O O1 0.206299 0.596540 0.337728
O O2 0.000000 0.583318 0.120047
O O3 0.292115 0.550745 0.085646
O O4 0.236731 0.650702 0.088319
O O5 0.699586 0.000000 0.340885
O O6 0.000000 0.000000 0.423325
O O7 0.763772 0.698359 0.828123
O O8 0.000000 0.716196 0.022639
O O9 0.708684 0.749178 0.075688
O O10 0.000000 0.092705 0.935988
O O11 0.206395 0.152360 0.072628
O O12 0.230169 0.051266 0.096345
O O13 0.500000 0.822055 0.139013
O O14 0.000000 0.500000 0.613328
#
# Coordination Sequence:
#
# PCOD8190216 Si02
#       6
#     8   4   8   8   8   4
#     4  11  23  42  66  92 126 168 211 255 309 371
#     4  12  25  42  65  96 130 164 206 256 311 366
#     4  10  23  41  62  90 123 161 207 257 308 368
#     4  12  25  42  64  93 127 162 207 261 315 370
#     4  11  23  40  63  91 124 163 207 255 311 375
#     4  12  25  44  67  92 124 164 210 256 311 374
#
# _framework density 21.260009
#
# number of rings (size 3 to 8) (size 9 to 14) (size 15 to 20)
#    0.000    0.800    0.000    7.800    0.000    8.000 
#    0.000    0.000    0.000    0.000    0.000    0.000 
#    0.000    0.000    0.000    0.000    0.000    0.000 
#
# Total GULP energy -248205.786588 kJ/mol
# GULP energy per Si atom -12410.289329 kJ/mol
# Density = 2.121162 g / cm^3
# Si number density = 21.260009 Si / 1000 Ang^3
#
#
#
# Elastic Constant Matrix: (Units=GPa)
#
#
# Indices 1 2 3 4 5 6 
#
# 1 72.8447 25.6022 6.2564 -0.0003 -0.0004 0.0001
# 2 25.6022 143.6446 50.3312 0.0001 -0.0003 0.0000
# 3 6.2564 50.3312 134.8052 -0.0006 -0.0037 0.0004
# 4 -0.0003 0.0001 -0.0006 37.3945 -0.0002 0.0001
# 5 -0.0004 -0.0003 -0.0037 -0.0002 27.3411 -0.0001
# 6 0.0001 0.0000 0.0004 0.0001 -0.0001 30.8914
#
#
#
# Elastic Compliance Matrix: (Units=1/GPa)
#
#
# Indices 1 2 3 4 5 6 
#
# 1 0.014659 -0.002732 0.000340 0.000000 0.000000 0.000000
# 2 -0.002732 0.008518 -0.003054 0.000000 0.000000 0.000000
# 3 0.000340 -0.003054 0.008542 0.000000 0.000001 0.000000
# 4 0.000000 0.000000 0.000000 0.026742 0.000000 0.000000
# 5 0.000000 0.000000 0.000001 0.000000 0.036575 0.000000
# 6 0.000000 0.000000 0.000000 0.000000 0.000000 0.032371
#
#
# Mechanical properties :
#
#
# Convention : Reuss Voigt Hill
#
# Bulk Modulus (GPa) = 48.01195 57.29712 52.65453
# Shear Modulus (GPa) = 34.42523 37.06572 35.74547
#
# Velocity S-wave (km/s) = 4.02835 4.17999 4.10487
# Velocity P-wave (km/s) = 6.65350 7.09264 6.87658
#
# Compressibility (1/GPa) = 0.02082815
#
# Stress axis : x y z
#
# Youngs Moduli (GPa) = 68.21872 117.39190 117.06185
#
# Poissons Ratio (x) = 0.32067 -0.03975
# Poissons Ratio (y) = 0.18635 0.35747
# Poissons Ratio (z) = -0.02317 0.35848
#
# Static dielectric constant tensor:
#      x y z
#    x 3.728050 0.000000 0.000000 
#    y 0.000000 3.905270 0.000000 
#    z 0.000000 0.000000 3.871940 
# 
# 
# High freq. dielectric constant tensor:
#      x y z
#    x 1.837330 0.000000 0.000000 
#    y 0.000000 1.849620 0.000000 
#    z 0.000000 0.000000 1.848750 
# 
# From -- ./inp_files/4685.got.cif
#   From: 2010.03.12/outbox.cif.g09.slc.cpg/sg44_3_cif.got.tgz:4685.got - 2010.04.14 02:36:11.
