data_PCOD8190835
_publ_section_title
;
Structure prediction by ZEFSAII (Michael W. Deem and Ramdas Pophale) SiO2 
 PCOD8190835
Probable space group: I B A 2
;
_chemical_formula_sum "Si O2"
_cell_formula_units_Z 60
_cell_length_a 8.335443
_cell_length_b 22.987817
_cell_length_c 13.905107
_cell_angle_alpha 90.000000
_cell_angle_beta 90.000000
_cell_angle_gamma 90.000000
_cell_volume 2664.408143
_symmetry_space_group_name_H-M "I B A 2"
_symmetry_group_IT_number 45
_symmetry_cell_setting 'orthorhombic'
loop_
_space_group_symop_operation_xyz
x,y,z
-x,-y,z
-x,y,1/2+z
x,-y,1/2+z
1/2+x,1/2+y,1/2+z
1/2-x,1/2-y,1/2+z
1/2-x,1/2+y,z
1/2+x,1/2-y,z
loop_
_atom_site_type_symbol
_atom_site_label
_atom_site_fract_x
_atom_site_fract_y
_atom_site_fract_z
Si Si1 0.779120 0.906937 0.644860
Si Si2 0.951637 0.858856 0.034095
Si Si3 0.270342 0.039739 0.111482
Si Si4 0.830174 0.420097 0.317989
Si Si5 0.014624 0.666851 0.716449
Si Si6 0.000000 0.500000 0.963012
Si Si7 0.003457 0.869742 0.317354
Si Si8 0.675579 0.718371 0.686449
O O1 0.594378 0.884915 0.652543
O O2 0.861480 0.869450 0.559515
O O3 0.862047 0.898098 0.749589
O O4 0.795126 0.974123 0.615627
O O5 0.865330 0.912642 0.089089
O O6 0.900042 0.797611 0.082498
O O7 0.916983 0.854784 0.920607
O O8 0.354662 0.054013 0.211830
O O9 0.401409 0.045130 0.027649
O O10 0.879151 0.464004 0.399172
O O11 0.641782 0.413652 0.337465
O O12 0.945031 0.361888 0.316069
O O13 0.158812 0.714424 0.720210
O O14 0.860793 0.699801 0.672120
O O15 0.922042 0.813872 0.270002
#
# Coordination Sequence:
#
# PCOD8190835 Si02
#       8
#     8   8   8   8   8   4   8   8
#     4  11  23  42  68  96 139 182 224 286 348 411
#     4  11  23  43  65 104 135 181 233 289 347 425
#     4  12  24  43  66 102 145 182 239 277 354 420
#     4  11  24  45  65  99 143 178 234 283 347 410
#     4  11  22  45  73  93 132 185 224 291 361 418
#     4  12  26  40  68 106 140 192 224 290 336 426
#     4  10  23  43  66  99 135 176 231 287 347 416
#     4  10  22  45  67  97 133 174 235 291 352 419
#
# _framework density 22.519072999999999
#
# number of rings (size 3 to 8) (size 9 to 14) (size 15 to 20)
#    0.000    1.067    4.000    4.800    3.733    0.000 
#    0.000   10.667    0.000    0.000    0.000    0.000 
#    0.000    0.000    0.000    0.000    0.000    0.000 
#
# Total GULP energy -371736.201943 kJ/mol
# GULP energy per Si atom -12391.206731 kJ/mol
# Density = 2.246782 g / cm^3
# Si number density = 22.519073 Si / 1000 Ang^3
#
#
#
# Elastic Constant Matrix: (Units=GPa)
#
#
# Indices 1 2 3 4 5 6 
#
# 1 79.6002 16.9531 14.5372 0.0000 0.0001 0.0000
# 2 16.9531 72.3936 13.0647 0.0001 0.0001 0.0000
# 3 14.5372 13.0647 136.8022 0.0002 0.0001 0.0001
# 4 0.0000 0.0001 0.0002 16.8178 -0.0001 0.0000
# 5 0.0001 0.0001 0.0001 -0.0001 20.7352 0.0000
# 6 0.0000 0.0000 0.0001 0.0000 0.0000 39.3620
#
#
#
# Elastic Compliance Matrix: (Units=1/GPa)
#
#
# Indices 1 2 3 4 5 6 
#
# 1 0.013396 -0.002931 -0.001144 0.000000 0.000000 0.000000
# 2 -0.002931 0.014697 -0.001092 0.000000 0.000000 0.000000
# 3 -0.001144 -0.001092 0.007536 0.000000 0.000000 0.000000
# 4 0.000000 0.000000 0.000000 0.059461 0.000000 0.000000
# 5 0.000000 0.000000 0.000000 0.000000 0.048227 0.000000
# 6 0.000000 0.000000 0.000000 0.000000 0.000000 0.025405
#
#
# Mechanical properties :
#
#
# Convention : Reuss Voigt Hill
#
# Bulk Modulus (GPa) = 39.53279 41.98954 40.76117
# Shear Modulus (GPa) = 26.66867 31.66573 29.16720
#
# Velocity S-wave (km/s) = 3.44506 3.75397 3.60282
# Velocity P-wave (km/s) = 5.78082 6.12180 5.95375
#
# Compressibility (1/GPa) = 0.02529546
#
# Stress axis : x y z
#
# Youngs Moduli (GPa) = 74.65029 68.04216 132.70252
#
# Poissons Ratio (x) = 0.19941 0.15176
# Poissons Ratio (y) = 0.21877 0.14493
# Poissons Ratio (z) = 0.08537 0.07431
#
# Static dielectric constant tensor:
#      x y z
#    x 4.251770 0.000000 0.000000 
#    y 0.000000 4.210620 0.000000 
#    z 0.000000 0.000000 3.953570 
# 
# 
# High freq. dielectric constant tensor:
#      x y z
#    x 1.904910 0.000000 0.000000 
#    y 0.000000 1.883660 0.000000 
#    z 0.000000 0.000000 1.870090 
# 
# From -- ./inp_files/5834.got.cif
#   From: 2010.03.12/outbox.cif.g09.slc.cpg/sg45_3_cif.got.tgz:5834.got - 2010.04.14 02:50:11.
