data_PCOD8190901
_publ_section_title
;
Structure prediction by ZEFSAII (Michael W. Deem and Ramdas Pophale) SiO2 
 PCOD8190901
Probable space group: I B A 2
;
_chemical_formula_sum "Si O2"
_cell_formula_units_Z 40
_cell_length_a 10.070023
_cell_length_b 8.975282
_cell_length_c 19.759689
_cell_angle_alpha 90.000000
_cell_angle_beta 90.000000
_cell_angle_gamma 90.000000
_cell_volume 1785.906304
_symmetry_space_group_name_H-M "I B A 2"
_symmetry_group_IT_number 45
_symmetry_cell_setting 'orthorhombic'
loop_
_space_group_symop_operation_xyz
x,y,z
-x,-y,z
-x,y,1/2+z
x,-y,1/2+z
1/2+x,1/2+y,1/2+z
1/2-x,1/2-y,1/2+z
1/2-x,1/2+y,z
1/2+x,1/2-y,z
loop_
_atom_site_type_symbol
_atom_site_label
_atom_site_fract_x
_atom_site_fract_y
_atom_site_fract_z
Si Si1 0.260427 0.000000 0.551020
Si Si2 0.552619 0.667082 0.377657
Si Si3 0.317466 0.754363 0.144495
Si Si4 0.947381 0.167082 0.224383
Si Si5 0.182533 0.254364 0.457545
O O1 0.352076 0.118649 0.589778
O O2 0.174158 0.093950 0.495732
O O3 0.174158 0.906051 0.606308
O O4 0.352076 0.881351 0.512262
O O5 0.500000 0.500000 0.383905
O O6 0.593573 0.706245 0.301020
O O7 0.673988 0.708874 0.426128
O O8 0.427636 0.767676 0.399532
O O9 0.173987 0.791125 0.175912
O O10 0.427636 0.767675 0.202508
O O11 0.000000 0.000000 0.218135
#
# Coordination Sequence:
#
# PCOD8190901 Si02
#       5
#     8   8   8   8   8
#     4  10  24  40  68  98 132 166 218 262 326 382
#     4  11  24  44  67  95 133 171 214 267 322 380
#     4  11  23  44  68  98 127 175 210 270 320 385
#     4  11  24  44  67  95 133 171 214 267 322 380
#     4  11  23  44  68  98 127 175 210 270 320 385
#
# _framework density 22.397592
#
# number of rings (size 3 to 8) (size 9 to 14) (size 15 to 20)
#    0.000    1.200    4.000    1.200    0.000   11.200 
#    0.000    2.000    0.000    0.000    0.000    0.000 
#    0.000    0.000    0.000    0.000    0.000    0.000 
#
# Total GULP energy -247887.272262 kJ/mol
# GULP energy per Si atom -12394.363613 kJ/mol
# Density = 2.234661 g / cm^3
# Si number density = 22.397592 Si / 1000 Ang^3
#
#
#
# Elastic Constant Matrix: (Units=GPa)
#
#
# Indices 1 2 3 4 5 6 
#
# 1 118.6761 33.4729 48.1498 0.0000 0.0000 0.0000
# 2 33.4729 96.3300 50.6670 0.0000 0.0000 0.0000
# 3 48.1498 50.6670 138.8614 0.0000 0.0000 0.0000
# 4 0.0000 0.0000 0.0000 35.4492 0.0000 0.0000
# 5 0.0000 0.0000 0.0000 0.0000 16.2002 0.0000
# 6 0.0000 0.0000 0.0000 0.0000 0.0000 19.3813
#
#
#
# Elastic Compliance Matrix: (Units=1/GPa)
#
#
# Indices 1 2 3 4 5 6 
#
# 1 0.010129 -0.002069 -0.002757 0.000000 0.000000 0.000000
# 2 -0.002069 0.013269 -0.004124 0.000000 0.000000 0.000000
# 3 -0.002757 -0.004124 0.009662 0.000000 0.000000 0.000000
# 4 0.000000 0.000000 0.000000 0.028209 0.000000 0.000000
# 5 0.000000 0.000000 0.000000 0.000000 0.061728 0.000000
# 6 0.000000 0.000000 0.000000 0.000000 0.000000 0.051596
#
#
# Mechanical properties :
#
#
# Convention : Reuss Voigt Hill
#
# Bulk Modulus (GPa) = 65.96702 68.71632 67.34167
# Shear Modulus (GPa) = 25.31043 28.97799 27.14421
#
# Velocity S-wave (km/s) = 3.36527 3.60084 3.48505
# Velocity P-wave (km/s) = 6.67958 6.93072 6.80631
#
# Compressibility (1/GPa) = 0.01515909
#
# Stress axis : x y z
#
# Youngs Moduli (GPa) = 98.73089 75.36256 103.49667
#
# Poissons Ratio (x) = 0.15595 0.28534
# Poissons Ratio (y) = 0.20431 0.42682
# Poissons Ratio (z) = 0.27220 0.31080
#
# Static dielectric constant tensor:
#      x y z
#    x 3.599600 0.000000 0.000000 
#    y 0.000000 4.184290 0.000000 
#    z 0.000000 0.000000 4.326850 
# 
# 
# High freq. dielectric constant tensor:
#      x y z
#    x 1.859800 0.000000 0.000000 
#    y 0.000000 1.886630 0.000000 
#    z 0.000000 0.000000 1.903160 
# 
# From -- ./inp_files/7426.got.cif
#   From: 2010.03.12/outbox.cif.g09.slc.cpg/sg45_4_cif.got.tgz:7426.got - 2010.04.14 02:50:11.
