data_PCOD8190147
_publ_section_title
;
Structure prediction by ZEFSAII (Michael W. Deem and Ramdas Pophale) SiO2 
 PCOD8190147
Probable space group: I M M 2
;
_chemical_formula_sum "Si O2"
_cell_formula_units_Z 40
_cell_length_a 19.442829
_cell_length_b 9.764537
_cell_length_c 10.381850
_cell_angle_alpha 90.000000
_cell_angle_beta 90.000000
_cell_angle_gamma 90.000000
_cell_volume 1970.996539
_symmetry_space_group_name_H-M "I M M 2"
_symmetry_group_IT_number 44
_symmetry_cell_setting 'orthorhombic'
loop_
_space_group_symop_operation_xyz
x,y,z
-x,-y,z
-x,y,z
x,-y,z
1/2+x,1/2+y,1/2+z
1/2-x,1/2-y,1/2+z
1/2-x,1/2+y,1/2+z
1/2+x,1/2-y,1/2+z
loop_
_atom_site_type_symbol
_atom_site_label
_atom_site_fract_x
_atom_site_fract_y
_atom_site_fract_z
Si Si1 0.575525 0.837972 0.907580
Si Si2 0.422470 0.656323 0.398632
Si Si3 0.286836 0.839763 0.031063
Si Si4 0.287633 0.656492 0.266475
Si Si5 0.918605 0.348637 0.125175
O O1 0.500000 0.775648 0.943659
O O2 0.601505 0.789330 0.765976
O O3 0.568540 0.000000 0.897976
O O4 0.632890 0.797681 0.011849
O O5 0.500000 0.699961 0.356743
O O6 0.421448 0.500000 0.446806
O O7 0.370390 0.675698 0.279283
O O8 0.392406 0.745445 0.516143
O O9 0.259033 0.751581 0.151571
O O10 0.278511 0.000000 0.063539
O O11 0.246085 0.800811 0.902000
O O12 0.268328 0.500000 0.233098
O O13 0.886471 0.500000 0.101322
O O14 0.000000 0.359062 0.118467
#
# Coordination Sequence:
#
# PCOD8190147 Si02
#       5
#     8   8   8   8   8
#     4   8  15  30  53  80 108 136 172 223 274 315
#     4   9  18  33  52  75 108 145 177 216 266 317
#     4  10  22  39  58  81 109 144 183 223 271 325
#     4  10  23  40  56  80 112 145 182 224 271 323
#     4   8  14  26  48  79 108 135 172 217 264 314
#
# _framework density 20.294301000000001
#
# number of rings (size 3 to 8) (size 9 to 14) (size 15 to 20)
#    0.000    3.000    0.000    1.200    2.800    2.400 
#    0.000    1.000    0.000    1.200    0.000    0.000 
#    0.000    0.000    0.000    0.000    0.000    0.000 
#
# Total GULP energy -247857.572152 kJ/mol
# GULP energy per Si atom -12392.878608 kJ/mol
# Density = 2.024811 g / cm^3
# Si number density = 20.294301 Si / 1000 Ang^3
#
#
#
# Elastic Constant Matrix: (Units=GPa)
#
#
# Indices 1 2 3 4 5 6 
#
# 1 66.7133 25.4131 36.4099 0.0000 0.0000 0.0000
# 2 25.4131 70.3057 64.3931 0.0000 0.0000 0.0000
# 3 36.4099 64.3931 121.6653 0.0000 0.0000 0.0000
# 4 0.0000 0.0000 0.0000 35.0940 0.0000 0.0000
# 5 0.0000 0.0000 0.0000 0.0000 26.4443 0.0000
# 6 0.0000 0.0000 0.0000 0.0000 0.0000 16.4266
#
#
#
# Elastic Compliance Matrix: (Units=1/GPa)
#
#
# Indices 1 2 3 4 5 6 
#
# 1 0.018256 -0.003096 -0.003825 0.000000 0.000000 0.000000
# 2 -0.003096 0.028130 -0.013962 0.000000 0.000000 0.000000
# 3 -0.003825 -0.013962 0.016753 0.000000 0.000000 0.000000
# 4 0.000000 0.000000 0.000000 0.028495 0.000000 0.000000
# 5 0.000000 0.000000 0.000000 0.000000 0.037815 0.000000
# 6 0.000000 0.000000 0.000000 0.000000 0.000000 0.060877
#
#
# Mechanical properties :
#
#
# Convention : Reuss Voigt Hill
#
# Bulk Modulus (GPa) = 46.78393 56.79072 51.78733
# Shear Modulus (GPa) = 20.90149 24.42421 22.66285
#
# Velocity S-wave (km/s) = 3.21272 3.47291 3.34535
# Velocity P-wave (km/s) = 6.07164 6.64273 6.36360
#
# Compressibility (1/GPa) = 0.02137486
#
# Stress axis : x y z
#
# Youngs Moduli (GPa) = 54.77556 35.54880 59.68903
#
# Poissons Ratio (x) = 0.11005 0.22831
# Poissons Ratio (y) = 0.16957 0.83337
# Poissons Ratio (z) = 0.20952 0.49633
#
# Static dielectric constant tensor:
#      x y z
#    x 4.020330 0.000000 0.000000 
#    y 0.000000 3.571790 0.000000 
#    z 0.000000 0.000000 3.580550 
# 
# 
# High freq. dielectric constant tensor:
#      x y z
#    x 1.806400 0.000000 0.000000 
#    y 0.000000 1.758870 0.000000 
#    z 0.000000 0.000000 1.773830 
# 
# From -- ./inp_files/5833.got.cif
#   From: 2010.03.12/outbox.cif.g09.slc.cpg/sg44_3_cif.got.tgz:5833.got - 2010.04.14 02:36:11.
