data_PCOD8190257
_publ_section_title
;
Structure prediction by ZEFSAII (Michael W. Deem and Ramdas Pophale) SiO2 
 PCOD8190257
Probable space group: I M M 2
;
_chemical_formula_sum "Si O2"
_cell_formula_units_Z 48
_cell_length_a 13.204727
_cell_length_b 20.195631
_cell_length_c 11.497685
_cell_angle_alpha 90.000000
_cell_angle_beta 90.000000
_cell_angle_gamma 90.000000
_cell_volume 3066.177271
_symmetry_space_group_name_H-M "I M M 2"
_symmetry_group_IT_number 44
_symmetry_cell_setting 'orthorhombic'
loop_
_space_group_symop_operation_xyz
x,y,z
-x,-y,z
-x,y,z
x,-y,z
1/2+x,1/2+y,1/2+z
1/2-x,1/2-y,1/2+z
1/2-x,1/2+y,1/2+z
1/2+x,1/2-y,1/2+z
loop_
_atom_site_type_symbol
_atom_site_label
_atom_site_fract_x
_atom_site_fract_y
_atom_site_fract_z
Si Si1 0.250347 0.698310 0.397930
Si Si2 0.387057 0.238684 0.714161
Si Si3 0.382761 0.311140 0.184539
Si Si4 0.289311 0.827410 0.149338
Si Si5 0.288071 0.165999 0.515716
Si Si6 0.382303 0.922328 0.329334
O O1 0.144674 0.696815 0.327705
O O2 0.340875 0.671371 0.314220
O O3 0.234181 0.654752 0.513980
O O4 0.274107 0.774873 0.424619
O O5 0.500000 0.264766 0.725539
O O6 0.316719 0.303539 0.703971
O O7 0.374863 0.189771 0.604713
O O8 0.500000 0.331946 0.175094
O O9 0.369484 0.232867 0.158935
O O10 0.316127 0.349733 0.086696
O O11 0.332314 0.891338 0.213848
O O12 0.325753 0.101963 0.445980
O O13 0.500000 0.902495 0.335612
O O14 0.366732 0.000000 0.320033
#
# Coordination Sequence:
#
# PCOD8190257 Si02
#       6
#     8   8   8   8   8   8
#     4   8  16  27  44  68  99 120 148 191 247 277
#     4   9  16  26  46  70  93 121 148 191 246 283
#     4   9  16  27  50  74  96 124 151 195 249 288
#     4   9  18  30  41  70 100 124 155 195 228 280
#     4   9  17  31  42  70  99 121 155 198 231 278
#     4  11  21  33  50  67  93 134 164 188 230 285
#
# _framework density 15.654672
#
# number of rings (size 3 to 8) (size 9 to 14) (size 15 to 20)
#    0.000    3.500    3.333    1.000    0.000    6.000 
#    0.000    0.000    0.000    6.000    0.000    9.333 
#    0.000    0.000    0.000    0.000    0.000    0.000 
#
# Total GULP energy -297364.048240 kJ/mol
# GULP energy per Si atom -12390.168677 kJ/mol
# Density = 1.561904 g / cm^3
# Si number density = 15.654672 Si / 1000 Ang^3
#
#
#
# Elastic Constant Matrix: (Units=GPa)
#
#
# Indices 1 2 3 4 5 6 
#
# 1 136.2058 33.7881 61.4294 0.0000 0.0000 0.0000
# 2 33.7881 54.6322 35.2876 0.0001 0.0000 0.0000
# 3 61.4294 35.2876 110.6417 0.0003 0.0000 0.0000
# 4 0.0000 0.0001 0.0003 18.4797 0.0000 0.0000
# 5 0.0000 0.0000 0.0000 0.0000 14.3327 0.0000
# 6 0.0000 0.0000 0.0000 0.0000 0.0000 16.2741
#
#
#
# Elastic Compliance Matrix: (Units=1/GPa)
#
#
# Indices 1 2 3 4 5 6 
#
# 1 0.010261 -0.003358 -0.004626 0.000000 0.000000 0.000000
# 2 -0.003358 0.024152 -0.005839 0.000000 0.000000 0.000000
# 3 -0.004626 -0.005839 0.013469 0.000000 0.000000 0.000000
# 4 0.000000 0.000000 0.000000 0.054113 0.000000 0.000000
# 5 0.000000 0.000000 0.000000 0.000000 0.069771 0.000000
# 6 0.000000 0.000000 0.000000 0.000000 0.000000 0.061447
#
#
# Mechanical properties :
#
#
# Convention : Reuss Voigt Hill
#
# Bulk Modulus (GPa) = 49.41520 62.49888 55.95704
# Shear Modulus (GPa) = 18.68424 21.21559 19.94992
#
# Velocity S-wave (km/s) = 3.45849 3.68533 3.57371
# Velocity P-wave (km/s) = 6.89801 7.62358 7.26985
#
# Compressibility (1/GPa) = 0.02023669
#
# Stress axis : x y z
#
# Youngs Moduli (GPa) = 97.45372 41.40384 74.24581
#
# Poissons Ratio (x) = 0.13904 0.34347
# Poissons Ratio (y) = 0.32727 0.43349
# Poissons Ratio (z) = 0.45083 0.24174
#
# Static dielectric constant tensor:
#      x y z
#    x 2.920060 0.000000 0.000000 
#    y 0.000000 2.435190 0.000000 
#    z 0.000000 0.000000 3.327620 
# 
# 
# High freq. dielectric constant tensor:
#      x y z
#    x 1.599470 0.000000 0.000000 
#    y 0.000000 1.532820 0.000000 
#    z 0.000000 0.000000 1.624590 
# 
# From -- ./inp_files/13484.got.cif
#   From: 2010.03.12/outbox.cif.g09.slc.cpg/sg44_7_cif.got.tgz:13484.got - 2010.04.14 02:36:11.
