data_PCOD8190456
_publ_section_title
;
Structure prediction by ZEFSAII (Michael W. Deem and Ramdas Pophale) SiO2 
 PCOD8190456
Probable space group: I B A 2
;
_chemical_formula_sum "Si O2"
_cell_formula_units_Z 56
_cell_length_a 7.636023
_cell_length_b 21.814761
_cell_length_c 16.412184
_cell_angle_alpha 90.000000
_cell_angle_beta 90.000000
_cell_angle_gamma 90.000000
_cell_volume 2733.909061
_symmetry_space_group_name_H-M "I B A 2"
_symmetry_group_IT_number 45
_symmetry_cell_setting 'orthorhombic'
loop_
_space_group_symop_operation_xyz
x,y,z
-x,-y,z
-x,y,1/2+z
x,-y,1/2+z
1/2+x,1/2+y,1/2+z
1/2-x,1/2-y,1/2+z
1/2-x,1/2+y,z
1/2+x,1/2-y,z
loop_
_atom_site_type_symbol
_atom_site_label
_atom_site_fract_x
_atom_site_fract_y
_atom_site_fract_z
Si Si1 0.861823 0.672744 0.165090
Si Si2 0.573018 0.194443 0.347167
Si Si3 0.811259 0.184978 0.904612
Si Si4 0.763365 0.365168 0.992464
Si Si5 0.934321 0.064063 0.954514
Si Si6 0.133918 0.750803 0.074107
Si Si7 0.413651 0.062729 0.558889
O O1 0.938301 0.670534 0.255406
O O2 0.675460 0.706991 0.154342
O O3 0.862825 0.602302 0.138059
O O4 0.956979 0.715766 0.097564
O O5 0.396784 0.182679 0.397147
O O6 0.610187 0.267292 0.339865
O O7 0.726390 0.161147 0.399106
O O8 0.884203 0.116142 0.887780
O O9 0.875997 0.204973 0.995034
O O10 0.598159 0.409610 0.006308
O O11 0.737258 0.307032 0.052908
O O12 0.942969 0.402201 0.005288
O O13 0.764220 0.050729 0.009176
O O14 0.000000 0.000000 0.913860
O O15 0.500000 0.000000 0.590130
#
# Coordination Sequence:
#
# PCOD8190456 Si02
#       7
#     8   8   8   8   8   8   8
#     4  11  22  37  62  93 128 173 202 267 340 381
#     4  11  22  38  62  93 136 167 202 271 344 380
#     4  11  20  38  60  94 128 165 213 268 311 384
#     4  10  21  38  63  94 122 163 216 270 315 382
#     4  12  22  36  67  93 117 165 219 269 312 361
#     4  10  19  35  60  90 120 160 217 265 318 376
#     4  11  22  42  62  91 127 165 225 270 308 379
#
# _framework density 20.483491999999998
#
# number of rings (size 3 to 8) (size 9 to 14) (size 15 to 20)
#    0.000    1.143    4.286    5.143    0.000    0.000 
#    0.000    2.143    0.000    0.857    0.000    0.000 
#    0.000    0.000    0.000    0.000    0.000    0.000 
#
# Total GULP energy -346884.745268 kJ/mol
# GULP energy per Si atom -12388.740902 kJ/mol
# Density = 2.043687 g / cm^3
# Si number density = 20.483492 Si / 1000 Ang^3
#
#
#
# Elastic Constant Matrix: (Units=GPa)
#
#
# Indices 1 2 3 4 5 6 
#
# 1 75.4311 37.0294 4.6745 0.0000 0.0000 0.0000
# 2 37.0294 164.3715 23.3261 0.0000 0.0000 0.0000
# 3 4.6745 23.3261 68.4435 0.0000 0.0000 0.0000
# 4 0.0000 0.0000 0.0000 20.0605 0.0000 0.0000
# 5 0.0000 0.0000 0.0000 0.0000 17.1575 0.0000
# 6 0.0000 0.0000 0.0000 0.0000 0.0000 36.8146
#
#
#
# Elastic Compliance Matrix: (Units=1/GPa)
#
#
# Indices 1 2 3 4 5 6 
#
# 1 0.014907 -0.003377 0.000133 0.000000 0.000000 0.000000
# 2 -0.003377 0.007158 -0.002209 0.000000 0.000000 0.000000
# 3 0.000133 -0.002209 0.015354 0.000000 0.000000 0.000000
# 4 0.000000 0.000000 0.000000 0.049849 0.000000 0.000000
# 5 0.000000 0.000000 0.000000 0.000000 0.058284 0.000000
# 6 0.000000 0.000000 0.000000 0.000000 0.000000 0.027163
#
#
# Mechanical properties :
#
#
# Convention : Reuss Voigt Hill
#
# Bulk Modulus (GPa) = 37.71745 48.70067 43.20906
# Shear Modulus (GPa) = 25.97958 31.02092 28.50025
#
# Velocity S-wave (km/s) = 3.56521 3.89580 3.73416
# Velocity P-wave (km/s) = 5.94989 6.63803 6.30336
#
# Compressibility (1/GPa) = 0.02651293
#
# Stress axis : x y z
#
# Youngs Moduli (GPa) = 67.08403 139.70358 65.12824
#
# Poissons Ratio (x) = 0.47178 -0.00865
# Poissons Ratio (y) = 0.22654 0.14386
# Poissons Ratio (z) = -0.00891 0.30859
#
# Static dielectric constant tensor:
#      x y z
#    x 3.865180 0.000000 0.000000 
#    y 0.000000 4.093440 0.000000 
#    z 0.000000 0.000000 3.149060 
# 
# 
# High freq. dielectric constant tensor:
#      x y z
#    x 1.819100 0.000000 0.000000 
#    y 0.000000 1.812510 0.000000 
#    z 0.000000 0.000000 1.745280 
# 
# From -- ./inp_files/7733.got.cif
#   From: 2010.03.12/outbox.cif.g09.slc.cpg/sg45_4_cif.got.tgz:7733.got - 2010.04.14 02:50:11.
