data_PCOD8190229
_publ_section_title
;
Structure prediction by ZEFSAII (Michael W. Deem and Ramdas Pophale) SiO2 
 PCOD8190229
Probable space group: I M M 2
;
_chemical_formula_sum "Si O2"
_cell_formula_units_Z 64
_cell_length_a 8.884544
_cell_length_b 18.527905
_cell_length_c 18.700443
_cell_angle_alpha 90.000000
_cell_angle_beta 90.000000
_cell_angle_gamma 90.000000
_cell_volume 3078.317084
_symmetry_space_group_name_H-M "I M M 2"
_symmetry_group_IT_number 44
_symmetry_cell_setting 'orthorhombic'
loop_
_space_group_symop_operation_xyz
x,y,z
-x,-y,z
-x,y,z
x,-y,z
1/2+x,1/2+y,1/2+z
1/2-x,1/2-y,1/2+z
1/2-x,1/2+y,1/2+z
1/2+x,1/2-y,1/2+z
loop_
_atom_site_type_symbol
_atom_site_label
_atom_site_fract_x
_atom_site_fract_y
_atom_site_fract_z
Si Si1 0.326827 0.580890 0.012930
Si Si2 0.674445 0.207202 0.059251
Si Si3 0.821398 0.915530 0.774754
Si Si4 0.837036 0.920850 0.289710
Si Si5 0.834232 0.664807 0.893299
Si Si6 0.669287 0.325374 0.410669
Si Si7 0.332483 0.420677 0.622485
Si Si8 0.178509 0.345512 0.136369
O O1 0.500000 0.593830 0.033778
O O2 0.300577 0.500000 0.983437
O O3 0.226423 0.589911 0.083759
O O4 0.282935 0.640526 0.954125
O O5 0.500000 0.227627 0.057313
O O6 0.701689 0.133850 0.101904
O O7 0.760486 0.271613 0.100282
O O8 0.729041 0.186098 0.980094
O O9 0.771601 0.884525 0.853025
O O10 0.743981 0.865574 0.714339
O O11 0.000000 0.907747 0.765596
O O12 0.772214 0.000000 0.769372
O O13 0.702291 0.872844 0.318712
O O14 0.824973 0.927563 0.206316
O O15 0.000000 0.887625 0.311707
O O16 0.823704 0.000000 0.324551
O O17 0.828141 0.748184 0.872346
O O18 0.000000 0.642438 0.920409
O O19 0.500000 0.346497 0.434878
O O20 0.500000 0.394115 0.598655
O O21 0.301448 0.500000 0.588730
O O22 0.000000 0.338864 0.142952
#
# Coordination Sequence:
#
# PCOD8190229 Si02
#       8
#     8   8   8   8   8   8   8   8
#     4  11  23  39  61  89 123 164 209 257 315 384
#     4  12  25  41  65  95 129 168 214 268 324 383
#     4  10  23  45  71  98 131 172 217 267 328 396
#     4   9  19  36  57  83 118 159 202 245 293 361
#     4  11  22  35  55  86 123 163 207 257 308 369
#     4  10  23  43  64  91 127 166 213 261 314 379
#     4   9  20  40  64  90 123 164 208 254 310 376
#     4  12  25  42  65  95 130 167 213 268 324 387
#
# _framework density 20.790581
#
# number of rings (size 3 to 8) (size 9 to 14) (size 15 to 20)
#    0.000    1.500    1.250    4.500    1.750    6.750 
#    0.000    2.500    0.000    0.000    0.000    0.000 
#    0.000    0.000    0.000    0.000    0.000    0.000 
#
# Total GULP energy -396592.310357 kJ/mol
# GULP energy per Si atom -12393.509699 kJ/mol
# Density = 2.074326 g / cm^3
# Si number density = 20.790581 Si / 1000 Ang^3
#
#
#
# Elastic Constant Matrix: (Units=GPa)
#
#
# Indices 1 2 3 4 5 6 
#
# 1 110.0333 50.3122 47.1845 0.0000 0.0000 0.0000
# 2 50.3122 102.8499 56.5476 0.0000 0.0000 0.0000
# 3 47.1845 56.5476 95.6182 0.0000 0.0000 0.0000
# 4 0.0000 0.0000 0.0000 40.5351 0.0000 0.0000
# 5 0.0000 0.0000 0.0000 0.0000 36.2547 0.0000
# 6 0.0000 0.0000 0.0000 0.0000 0.0000 27.6498
#
#
#
# Elastic Compliance Matrix: (Units=1/GPa)
#
#
# Indices 1 2 3 4 5 6 
#
# 1 0.012576 -0.004060 -0.003805 0.000000 0.000000 0.000000
# 2 -0.004060 0.015718 -0.007292 0.000000 0.000000 0.000000
# 3 -0.003805 -0.007292 0.016648 0.000000 0.000000 0.000000
# 4 0.000000 0.000000 0.000000 0.024670 0.000000 0.000000
# 5 0.000000 0.000000 0.000000 0.000000 0.027583 0.000000
# 6 0.000000 0.000000 0.000000 0.000000 0.000000 0.036167
#
#
# Mechanical properties :
#
#
# Convention : Reuss Voigt Hill
#
# Bulk Modulus (GPa) = 68.35884 68.51001 68.43443
# Shear Modulus (GPa) = 29.66437 31.18505 30.42471
#
# Velocity S-wave (km/s) = 3.78142 3.87713 3.82958
# Velocity P-wave (km/s) = 7.21226 7.28470 7.24857
#
# Compressibility (1/GPa) = 0.01462869
#
# Stress axis : x y z
#
# Youngs Moduli (GPa) = 79.51517 63.62027 60.06622
#
# Poissons Ratio (x) = 0.25830 0.22854
# Poissons Ratio (y) = 0.32284 0.43801
# Poissons Ratio (z) = 0.30254 0.46392
#
# Static dielectric constant tensor:
#      x y z
#    x 3.867050 0.000000 0.000000 
#    y 0.000000 3.905670 0.000000 
#    z 0.000000 0.000000 3.714360 
# 
# 
# High freq. dielectric constant tensor:
#      x y z
#    x 1.806020 0.000000 0.000000 
#    y 0.000000 1.821250 0.000000 
#    z 0.000000 0.000000 1.813770 
# 
# From -- ./inp_files/20737.got.cif
#   From: 2010.03.12/outbox.cif.g09.slc.cpg/sg44_11_cif.got.tgz:20737.got - 2010.04.14 02:36:11.
