data_PCOD8190898
_publ_section_title
;
Structure prediction by ZEFSAII (Michael W. Deem and Ramdas Pophale) SiO2 
 PCOD8190898
Probable space group: I B A 2
;
_chemical_formula_sum "Si O2"
_cell_formula_units_Z 40
_cell_length_a 13.777359
_cell_length_b 8.784034
_cell_length_c 13.137418
_cell_angle_alpha 90.000000
_cell_angle_beta 90.000000
_cell_angle_gamma 90.000000
_cell_volume 1589.900703
_symmetry_space_group_name_H-M "I B A 2"
_symmetry_group_IT_number 45
_symmetry_cell_setting 'orthorhombic'
loop_
_space_group_symop_operation_xyz
x,y,z
-x,-y,z
-x,y,1/2+z
x,-y,1/2+z
1/2+x,1/2+y,1/2+z
1/2-x,1/2-y,1/2+z
1/2-x,1/2+y,z
1/2+x,1/2-y,z
loop_
_atom_site_type_symbol
_atom_site_label
_atom_site_fract_x
_atom_site_fract_y
_atom_site_fract_z
Si Si1 0.209391 0.330122 0.414710
Si Si2 0.840880 0.631326 0.028766
Si Si3 0.989615 0.329884 0.176318
Si Si4 0.193436 0.133408 0.704177
Si Si5 0.579705 0.393444 0.330227
O O1 0.158571 0.487452 0.449946
O O2 0.306606 0.289391 0.477154
O O3 0.237011 0.318652 0.296202
O O4 0.139973 0.180335 0.423567
O O5 0.948015 0.672528 0.071010
O O6 0.766122 0.582770 0.116152
O O7 0.029684 0.241371 0.271284
O O8 0.000000 0.500000 0.216838
O O9 0.878601 0.268301 0.160997
O O10 0.135933 0.986436 0.742888
O O11 0.500000 0.500000 0.384113
#
# Coordination Sequence:
#
# PCOD8190898 Si02
#       5
#     8   8   8   8   8
#     4  12  25  46  79 113 155 204 260 325 398 476
#     4  12  26  46  76 116 151 202 265 319 389 479
#     4  11  25  46  75 109 152 201 251 322 389 465
#     4  11  25  50  76 106 163 203 253 328 401 470
#     4  10  23  48  74 107 148 207 250 315 397 467
#
# _framework density 25.158804
#
# number of rings (size 3 to 8) (size 9 to 14) (size 15 to 20)
#    0.000    0.800    4.000    2.400    5.600    0.000 
#   14.400    1.000    0.000    0.000    0.000    0.000 
#    0.000    0.000    0.000    0.000    0.000    0.000 
#
# Total GULP energy -247822.590113 kJ/mol
# GULP energy per Si atom -12391.129506 kJ/mol
# Density = 2.510154 g / cm^3
# Si number density = 25.158804 Si / 1000 Ang^3
#
#
#
# Elastic Constant Matrix: (Units=GPa)
#
#
# Indices 1 2 3 4 5 6 
#
# 1 102.1721 22.6240 33.1354 0.0000 0.0000 0.0000
# 2 22.6240 95.6404 14.2513 0.0000 0.0000 0.0000
# 3 33.1354 14.2513 73.6499 0.0000 0.0000 0.0000
# 4 0.0000 0.0000 0.0000 15.8179 0.0000 0.0000
# 5 0.0000 0.0000 0.0000 0.0000 19.6524 0.0000
# 6 0.0000 0.0000 0.0000 0.0000 0.0000 50.2349
#
#
#
# Elastic Compliance Matrix: (Units=1/GPa)
#
#
# Indices 1 2 3 4 5 6 
#
# 1 0.011843 -0.002067 -0.004928 0.000000 0.000000 0.000000
# 2 -0.002067 0.011127 -0.001223 0.000000 0.000000 0.000000
# 3 -0.004928 -0.001223 0.016032 0.000000 0.000000 0.000000
# 4 0.000000 0.000000 0.000000 0.063219 0.000000 0.000000
# 5 0.000000 0.000000 0.000000 0.000000 0.050884 0.000000
# 6 0.000000 0.000000 0.000000 0.000000 0.000000 0.019906
#
#
# Mechanical properties :
#
#
# Convention : Reuss Voigt Hill
#
# Bulk Modulus (GPa) = 44.31659 45.72041 45.01850
# Shear Modulus (GPa) = 25.38438 30.57117 27.97778
#
# Velocity S-wave (km/s) = 3.17987 3.48965 3.33835
# Velocity P-wave (km/s) = 5.57988 5.86933 5.72644
#
# Compressibility (1/GPa) = 0.02256491
#
# Stress axis : x y z
#
# Youngs Moduli (GPa) = 84.43452 89.87080 62.37631
#
# Poissons Ratio (x) = 0.18578 0.30742
# Poissons Ratio (y) = 0.17455 0.07629
# Poissons Ratio (z) = 0.41613 0.10992
#
# Static dielectric constant tensor:
#      x y z
#    x 5.399280 0.000000 0.000000 
#    y 0.000000 4.937170 0.000000 
#    z 0.000000 0.000000 4.292850 
# 
# 
# High freq. dielectric constant tensor:
#      x y z
#    x 2.013320 0.000000 0.000000 
#    y 0.000000 2.017700 0.000000 
#    z 0.000000 0.000000 1.991130 
# 
# From -- ./inp_files/3138.got.cif
#   From: 2010.03.12/outbox.cif.g09.slc.cpg/sg45_2_cif.got.tgz:3138.got - 2010.04.14 02:50:11.
