data_PCOD8190983
_publ_section_title
;
Structure prediction by ZEFSAII (Michael W. Deem and Ramdas Pophale) SiO2 
 PCOD8190983
Probable space group: I B A 2
;
_chemical_formula_sum "Si O2"
_cell_formula_units_Z 32
_cell_length_a 4.705108
_cell_length_b 27.065928
_cell_length_c 8.005169
_cell_angle_alpha 90.000000
_cell_angle_beta 90.000000
_cell_angle_gamma 90.000000
_cell_volume 1019.443177
_symmetry_space_group_name_H-M "I B A 2"
_symmetry_group_IT_number 45
_symmetry_cell_setting 'orthorhombic'
loop_
_space_group_symop_operation_xyz
x,y,z
-x,-y,z
-x,y,1/2+z
x,-y,1/2+z
1/2+x,1/2+y,1/2+z
1/2-x,1/2-y,1/2+z
1/2-x,1/2+y,z
1/2+x,1/2-y,z
loop_
_atom_site_type_symbol
_atom_site_label
_atom_site_fract_x
_atom_site_fract_y
_atom_site_fract_z
Si Si1 0.108873 0.899145 0.115700
Si Si2 0.188657 0.660577 0.907217
Si Si3 0.272616 0.283151 0.090697
Si Si4 0.755687 0.035156 0.832426
O O1 0.858318 0.936482 0.166663
O O2 0.299996 0.887031 0.280932
O O3 0.939846 0.849167 0.047672
O O4 0.313264 0.924780 0.978767
O O5 0.255376 0.707574 0.789009
O O6 0.879129 0.669310 0.993764
O O7 0.597040 0.267338 0.046625
O O8 0.500000 0.000000 0.776817
O O9 0.000000 0.000000 0.904463
#
# Coordination Sequence:
#
# PCOD8190983 Si02
#       4
#     8   8   8   8
#     4  10  26  50  82 119 160 216 276 337 408 482
#     4  11  26  50  80 118 162 208 270 336 404 488
#     4  12  27  50  78 113 153 202 255 321 400 478
#     4  11  26  50  77 114 160 212 270 334 403 482
#
# _framework density 31.389683999999999
#
# number of rings (size 3 to 8) (size 9 to 14) (size 15 to 20)
#    0.000    1.000    0.000    3.750    0.000   20.000 
#    0.000    3.750    0.000    0.000    0.000    0.000 
#    0.000    0.000    0.000    0.000    0.000    0.000 
#
# Total GULP energy -198421.455706 kJ/mol
# GULP energy per Si atom -12401.340982 kJ/mol
# Density = 3.131824 g / cm^3
# Si number density = 31.389684 Si / 1000 Ang^3
#
#
#
# Elastic Constant Matrix: (Units=GPa)
#
#
# Indices 1 2 3 4 5 6 
#
# 1 161.1879 55.4002 53.7623 -0.0002 0.0000 0.0000
# 2 55.4002 189.5516 49.2201 -0.0005 0.0000 0.0000
# 3 53.7623 49.2201 182.3807 -0.0029 0.0000 0.0001
# 4 -0.0002 -0.0005 -0.0029 842.5609 0.0001 -0.0006
# 5 0.0000 0.0000 0.0000 0.0001 50.8728 0.0000
# 6 0.0000 0.0000 0.0001 -0.0006 0.0000 49.7935
#
#
#
# Elastic Compliance Matrix: (Units=1/GPa)
#
#
# Indices 1 2 3 4 5 6 
#
# 1 0.007361 -0.001708 -0.001709 0.000000 0.000000 0.000000
# 2 -0.001708 0.006069 -0.001135 0.000000 0.000000 0.000000
# 3 -0.001709 -0.001135 0.006293 0.000000 0.000000 0.000000
# 4 0.000000 0.000000 0.000000 0.001187 0.000000 0.000000
# 5 0.000000 0.000000 0.000000 0.000000 0.019657 0.000000
# 6 0.000000 0.000000 0.000000 0.000000 0.000000 0.020083
#
#
# Mechanical properties :
#
#
# Convention : Reuss Voigt Hill
#
# Bulk Modulus (GPa) = 94.15476 94.43169 94.29323
# Shear Modulus (GPa) = 68.21985 213.62795 140.92390
#
# Velocity S-wave (km/s) = 4.66695 8.25860 6.70764
# Velocity P-wave (km/s) = 7.68772 11.00401 9.49182
#
# Compressibility (1/GPa) = 0.01062081
#
# Stress axis : x y z
#
# Youngs Moduli (GPa) = 135.85380 164.76372 158.90631
#
# Poissons Ratio (x) = 0.28135 0.27157
# Poissons Ratio (y) = 0.23198 0.18029
# Poissons Ratio (z) = 0.23217 0.18694
#
# Static dielectric constant tensor:
#      x y z
#    x 5.895390 0.000000 0.000000 
#    y 0.000000 6.422260 0.000000 
#    z 0.000000 0.000000 5.635230 
# 
# 
# High freq. dielectric constant tensor:
#      x y z
#    x 2.299020 0.000000 0.000000 
#    y 0.000000 2.352140 0.000000 
#    z 0.000000 0.000000 2.295740 
# 
# From -- ./inp_files/760.got.cif
#   From: 2010.03.12/outbox.cif.g09.slc.cpg/sg45_1_cif.got.tgz:760.got - 2010.04.14 02:50:11.
