data_PCOD8190028
_publ_section_title
;
Structure prediction by ZEFSAII (Michael W. Deem and Ramdas Pophale) SiO2 
 PCOD8190028
Probable space group: I M M 2
;
_chemical_formula_sum "Si O2"
_cell_formula_units_Z 64
_cell_length_a 9.023521
_cell_length_b 14.223376
_cell_length_c 24.146794
_cell_angle_alpha 90.000000
_cell_angle_beta 90.000000
_cell_angle_gamma 90.000000
_cell_volume 3099.118635
_symmetry_space_group_name_H-M "I M M 2"
_symmetry_group_IT_number 44
_symmetry_cell_setting 'orthorhombic'
loop_
_space_group_symop_operation_xyz
x,y,z
-x,-y,z
-x,y,z
x,-y,z
1/2+x,1/2+y,1/2+z
1/2-x,1/2-y,1/2+z
1/2-x,1/2+y,1/2+z
1/2+x,1/2-y,1/2+z
loop_
_atom_site_type_symbol
_atom_site_label
_atom_site_fract_x
_atom_site_fract_y
_atom_site_fract_z
Si Si1 0.667714 0.888177 0.668850
Si Si2 0.833005 0.388080 0.695805
Si Si3 0.327259 0.219840 0.874910
Si Si4 0.327326 0.393208 0.587924
Si Si5 0.329665 0.394480 0.803831
Si Si6 0.825195 0.757983 0.988479
Si Si7 0.672139 0.389854 0.057580
Si Si8 0.169271 0.111871 0.778408
O O1 0.500000 0.848718 0.670172
O O2 0.746617 0.853184 0.612918
O O3 0.758536 0.849145 0.721501
O O4 0.667280 0.000000 0.670366
O O5 0.819346 0.500000 0.695556
O O6 0.751373 0.347619 0.641600
O O7 0.759480 0.350656 0.752206
O O8 0.000000 0.352035 0.694420
O O9 0.500000 0.197432 0.883908
O O10 0.302769 0.327877 0.856378
O O11 0.237952 0.203600 0.931053
O O12 0.263626 0.148818 0.829718
O O13 0.500000 0.388723 0.600002
O O14 0.273887 0.500000 0.577955
O O15 0.282782 0.335666 0.533816
O O16 0.500000 0.395543 0.785771
O O17 0.275944 0.500000 0.819472
O O18 0.000000 0.741497 0.983587
O O19 0.745516 0.660709 0.004820
O O20 0.500000 0.363837 0.061978
O O21 0.695831 0.500000 0.048640
O O22 0.000000 0.147612 0.781757
O O23 0.175823 0.000000 0.779738
#
# Coordination Sequence:
#
# PCOD8190028 Si02
#       8
#     8   8   8   8   8   8   8   8
#     4   9  17  32  57  88 118 146 182 230 283 341
#     4   9  17  30  53  86 116 140 174 222 273 325
#     4  11  24  40  58  82 112 148 193 239 282 334
#     4   9  19  37  59  81 109 146 183 221 271 331
#     4   9  19  37  59  81 109 146 183 221 271 331
#     4  11  24  40  58  82 112 148 193 239 282 334
#     4  10  21  38  60  85 115 151 189 232 284 340
#     4  10  21  38  60  85 115 151 189 232 284 340
#
# _framework density 20.651033000000002
#
# number of rings (size 3 to 8) (size 9 to 14) (size 15 to 20)
#    0.000    2.250    0.000    2.250    0.000    8.500 
#    0.000    3.750    0.000    0.000    0.000    0.000 
#    0.000    0.000    0.000    0.000    0.000    0.000 
#
# Total GULP energy -396920.832226 kJ/mol
# GULP energy per Si atom -12403.776007 kJ/mol
# Density = 2.060403 g / cm^3
# Si number density = 20.651033 Si / 1000 Ang^3
#
#
#
# Elastic Constant Matrix: (Units=GPa)
#
#
# Indices 1 2 3 4 5 6 
#
# 1 103.6912 14.9083 33.5569 0.0000 0.0000 0.0000
# 2 14.9083 24.3467 1.9432 0.0000 0.0000 0.0000
# 3 33.5569 1.9432 97.8689 0.0000 0.0000 0.0000
# 4 0.0000 0.0000 0.0000 29.2700 0.0000 0.0000
# 5 0.0000 0.0000 0.0000 0.0000 44.5158 0.0000
# 6 0.0000 0.0000 0.0000 0.0000 0.0000 25.8627
#
#
#
# Elastic Compliance Matrix: (Units=1/GPa)
#
#
# Indices 1 2 3 4 5 6 
#
# 1 0.011927 -0.006988 -0.003951 0.000000 0.000000 0.000000
# 2 -0.006988 0.045233 0.001498 0.000000 0.000000 0.000000
# 3 -0.003951 0.001498 0.011543 0.000000 0.000000 0.000000
# 4 0.000000 0.000000 0.000000 0.034165 0.000000 0.000000
# 5 0.000000 0.000000 0.000000 0.000000 0.022464 0.000000
# 6 0.000000 0.000000 0.000000 0.000000 0.000000 0.038666
#
#
# Mechanical properties :
#
#
# Convention : Reuss Voigt Hill
#
# Bulk Modulus (GPa) = 20.07193 36.30263 28.18728
# Shear Modulus (GPa) = 25.06437 31.62958 28.34698
#
# Velocity S-wave (km/s) = 3.48761 3.91784 3.70897
# Velocity P-wave (km/s) = 5.09496 6.17116 5.65870
#
# Compressibility (1/GPa) = 0.04982082
#
# Stress axis : x y z
#
# Youngs Moduli (GPa) = 83.84099 22.10778 86.63517
#
# Poissons Ratio (x) = 0.15449 0.34228
# Poissons Ratio (y) = 0.58590 -0.12978
# Poissons Ratio (z) = 0.33124 -0.03312
#
# Static dielectric constant tensor:
#      x y z
#    x 3.832770 0.000000 0.000000 
#    y 0.000000 3.661790 0.000000 
#    z 0.000000 0.000000 3.686930 
# 
# 
# High freq. dielectric constant tensor:
#      x y z
#    x 1.815320 0.000000 0.000000 
#    y 0.000000 1.805430 0.000000 
#    z 0.000000 0.000000 1.804570 
# 
# From -- ./inp_files/25126.got.cif
#   From: 2010.03.12/outbox.cif.g09.slc.cpg/sg44_13_cif.got.tgz:25126.got - 2010.04.14 02:36:11.
