data_PCOD8190212
_publ_section_title
;
Structure prediction by ZEFSAII (Michael W. Deem and Ramdas Pophale) SiO2 
 PCOD8190212
Probable space group: I M M 2
;
_chemical_formula_sum "Si O2"
_cell_formula_units_Z 48
_cell_length_a 28.311528
_cell_length_b 7.891803
_cell_length_c 9.559201
_cell_angle_alpha 90.000000
_cell_angle_beta 90.000000
_cell_angle_gamma 90.000000
_cell_volume 2135.802736
_symmetry_space_group_name_H-M "I M M 2"
_symmetry_group_IT_number 44
_symmetry_cell_setting 'orthorhombic'
loop_
_space_group_symop_operation_xyz
x,y,z
-x,-y,z
-x,y,z
x,-y,z
1/2+x,1/2+y,1/2+z
1/2-x,1/2-y,1/2+z
1/2-x,1/2+y,1/2+z
1/2+x,1/2-y,1/2+z
loop_
_atom_site_type_symbol
_atom_site_label
_atom_site_fract_x
_atom_site_fract_y
_atom_site_fract_z
Si Si1 0.303124 0.306573 0.271260
Si Si2 0.619497 0.192044 0.072398
Si Si3 0.055499 0.000000 0.935362
Si Si4 0.946430 0.690304 0.120284
Si Si5 0.778515 0.191463 0.078639
Si Si6 0.145176 0.310828 0.273712
Si Si7 0.056167 0.000000 0.623078
O O1 0.318317 0.500000 0.292322
O O2 0.348604 0.209125 0.210964
O O3 0.260316 0.298614 0.161419
O O4 0.288438 0.230881 0.423588
O O5 0.577012 0.326906 0.059055
O O6 0.598844 0.000000 0.067311
O O7 0.653512 0.226434 0.937843
O O8 0.072452 0.826680 0.008327
O O9 0.000000 0.000000 0.929338
O O10 0.075320 0.000000 0.780722
O O11 0.944000 0.500000 0.055106
O O12 0.911447 0.706637 0.251524
O O13 0.000000 0.731637 0.169699
O O14 0.826123 0.187249 0.172012
O O15 0.759830 0.000000 0.062396
O O16 0.162418 0.500000 0.236152
O O17 0.000000 0.000000 0.603811
#
# Coordination Sequence:
#
# PCOD8190212 Si02
#       7
#     8   8   4   8   8   8   4
#     4  11  24  44  66  96 137 176 225 278 337 404
#     4  11  25  44  68  97 135 180 226 280 337 407
#     4   9  20  37  59  89 127 163 211 271 323 394
#     4   9  19  36  60  89 124 166 213 271 333 393
#     4  11  25  40  66  99 133 178 224 278 337 406
#     4  10  23  40  61  94 130 169 221 277 334 396
#     4  11  26  45  67  99 137 181 229 285 346 400
#
# _framework density 22.473987000000001
#
# number of rings (size 3 to 8) (size 9 to 14) (size 15 to 20)
#    0.000    1.667    0.833    2.000    4.667    8.333 
#    0.000    4.167    0.000    0.000    0.000    0.000 
#    0.000    0.000    0.000    0.000    0.000    0.000 
#
# Total GULP energy -297529.078471 kJ/mol
# GULP energy per Si atom -12397.044936 kJ/mol
# Density = 2.242284 g / cm^3
# Si number density = 22.473987 Si / 1000 Ang^3
#
#
#
# Elastic Constant Matrix: (Units=GPa)
#
#
# Indices 1 2 3 4 5 6 
#
# 1 89.9180 28.0180 26.1526 0.0000 0.0000 0.0000
# 2 28.0180 113.9712 37.0792 0.0000 0.0000 0.0000
# 3 26.1526 37.0792 124.1497 0.0000 0.0000 0.0000
# 4 0.0000 0.0000 0.0000 29.0870 0.0000 0.0000
# 5 0.0000 0.0000 0.0000 0.0000 31.1748 0.0000
# 6 0.0000 0.0000 0.0000 0.0000 0.0000 16.7373
#
#
#
# Elastic Compliance Matrix: (Units=1/GPa)
#
#
# Indices 1 2 3 4 5 6 
#
# 1 0.012432 -0.002441 -0.001890 0.000000 0.000000 0.000000
# 2 -0.002441 0.010198 -0.002531 0.000000 0.000000 0.000000
# 3 -0.001890 -0.002531 0.009209 0.000000 0.000000 0.000000
# 4 0.000000 0.000000 0.000000 0.034380 0.000000 0.000000
# 5 0.000000 0.000000 0.000000 0.000000 0.032077 0.000000
# 6 0.000000 0.000000 0.000000 0.000000 0.000000 0.059747
#
#
# Mechanical properties :
#
#
# Convention : Reuss Voigt Hill
#
# Bulk Modulus (GPa) = 55.20744 56.72650 55.96697
# Shear Modulus (GPa) = 28.12076 31.18576 29.65326
#
# Velocity S-wave (km/s) = 3.54115 3.72914 3.63636
# Velocity P-wave (km/s) = 6.42947 6.62101 6.52594
#
# Compressibility (1/GPa) = 0.01811350
#
# Stress axis : x y z
#
# Youngs Moduli (GPa) = 80.44049 98.05945 108.59045
#
# Poissons Ratio (x) = 0.23940 0.20519
# Poissons Ratio (y) = 0.19638 0.27489
# Poissons Ratio (z) = 0.15200 0.24824
#
# Static dielectric constant tensor:
#      x y z
#    x 3.836940 0.000000 0.000000 
#    y 0.000000 4.228500 0.000000 
#    z 0.000000 0.000000 4.159850 
# 
# 
# High freq. dielectric constant tensor:
#      x y z
#    x 1.880560 0.000000 0.000000 
#    y 0.000000 1.886660 0.000000 
#    z 0.000000 0.000000 1.882650 
# 
# From -- ./inp_files/10006.got.cif
#   From: 2010.03.12/outbox.cif.g09.slc.cpg/sg44_6_cif.got.tgz:10006.got - 2010.04.14 02:36:11.
