data_PCOD8190938
_publ_section_title
;
Structure prediction by ZEFSAII (Michael W. Deem and Ramdas Pophale) SiO2 
 PCOD8190938
Probable space group: I B A 2
;
_chemical_formula_sum "Si O2"
_cell_formula_units_Z 48
_cell_length_a 8.592117
_cell_length_b 13.649366
_cell_length_c 17.732608
_cell_angle_alpha 90.000000
_cell_angle_beta 90.000000
_cell_angle_gamma 90.000000
_cell_volume 2079.626176
_symmetry_space_group_name_H-M "I B A 2"
_symmetry_group_IT_number 45
_symmetry_cell_setting 'orthorhombic'
loop_
_space_group_symop_operation_xyz
x,y,z
-x,-y,z
-x,y,1/2+z
x,-y,1/2+z
1/2+x,1/2+y,1/2+z
1/2-x,1/2-y,1/2+z
1/2-x,1/2+y,z
1/2+x,1/2-y,z
loop_
_atom_site_type_symbol
_atom_site_label
_atom_site_fract_x
_atom_site_fract_y
_atom_site_fract_z
Si Si1 0.345048 0.057744 0.712060
Si Si2 0.516628 0.213404 0.106654
Si Si3 0.855994 0.694506 0.945170
Si Si4 0.839678 0.634600 0.371583
Si Si5 0.696232 0.393497 0.126336
Si Si6 0.173118 0.008512 0.470874
O O1 0.372790 0.128739 0.640765
O O2 0.297129 0.123148 0.783468
O O3 0.500000 0.000000 0.733979
O O4 0.215948 0.974608 0.691911
O O5 0.549394 0.321616 0.143358
O O6 0.339565 0.182399 0.119657
O O7 0.546684 0.228014 0.018008
O O8 0.769497 0.782595 0.905414
O O9 0.724231 0.620885 0.975614
O O10 0.977251 0.653784 0.883351
O O11 0.799037 0.534887 0.413862
O O12 0.677426 0.453993 0.050249
O O13 0.000000 0.000000 0.436927
#
# Coordination Sequence:
#
# PCOD8190938 Si02
#       6
#     8   8   8   8   8   8
#     4  10  24  45  69 103 145 192 235 293 367 422
#     4  11  22  41  71 101 135 189 234 294 351 425
#     4  12  23  43  71 105 139 188 241 294 357 428
#     4  12  26  45  72 104 146 186 237 300 363 426
#     4  11  24  43  72 103 140 181 242 289 355 422
#     4  12  25  41  69 104 142 188 245 292 353 429
#
# _framework density 23.081071999999999
#
# number of rings (size 3 to 8) (size 9 to 14) (size 15 to 20)
#    0.000    0.667    5.000    2.500    2.333    4.000 
#    0.000    2.500    0.000    2.000    0.000    0.000 
#    0.000    0.000    0.000    0.000    0.000    0.000 
#
# Total GULP energy -297615.519163 kJ/mol
# GULP energy per Si atom -12400.646632 kJ/mol
# Density = 2.302854 g / cm^3
# Si number density = 23.081072 Si / 1000 Ang^3
#
#
#
# Elastic Constant Matrix: (Units=GPa)
#
#
# Indices 1 2 3 4 5 6 
#
# 1 59.9132 16.0250 24.6881 0.0000 0.0000 0.0000
# 2 16.0250 99.4593 46.8175 0.0000 0.0000 0.0000
# 3 24.6881 46.8175 103.3624 0.0000 0.0000 0.0000
# 4 0.0000 0.0000 0.0000 36.7936 0.0000 0.0000
# 5 0.0000 0.0000 0.0000 0.0000 11.5597 0.0000
# 6 0.0000 0.0000 0.0000 0.0000 0.0000 36.3819
#
#
#
# Elastic Compliance Matrix: (Units=1/GPa)
#
#
# Indices 1 2 3 4 5 6 
#
# 1 0.018616 -0.001152 -0.003925 0.000000 0.000000 0.000000
# 2 -0.001152 0.012850 -0.005545 0.000000 0.000000 0.000000
# 3 -0.003925 -0.005545 0.013124 0.000000 0.000000 0.000000
# 4 0.000000 0.000000 0.000000 0.027179 0.000000 0.000000
# 5 0.000000 0.000000 0.000000 0.000000 0.086507 0.000000
# 6 0.000000 0.000000 0.000000 0.000000 0.000000 0.027486
#
#
# Mechanical properties :
#
#
# Convention : Reuss Voigt Hill
#
# Bulk Modulus (GPa) = 42.83341 48.64400 45.73871
# Shear Modulus (GPa) = 23.27873 28.62734 25.95303
#
# Velocity S-wave (km/s) = 3.17923 3.52560 3.35689
# Velocity P-wave (km/s) = 5.66346 6.13956 5.90631
#
# Compressibility (1/GPa) = 0.02334626
#
# Stress axis : x y z
#
# Youngs Moduli (GPa) = 53.71672 77.81944 76.19739
#
# Poissons Ratio (x) = 0.08965 0.29905
# Poissons Ratio (y) = 0.06188 0.42254
# Poissons Ratio (z) = 0.21082 0.43153
#
# Static dielectric constant tensor:
#      x y z
#    x 4.287140 0.000000 0.000000 
#    y 0.000000 4.477310 0.000000 
#    z 0.000000 0.000000 3.972910 
# 
# 
# High freq. dielectric constant tensor:
#      x y z
#    x 1.909110 0.000000 0.000000 
#    y 0.000000 1.933640 0.000000 
#    z 0.000000 0.000000 1.892800 
# 
# From -- ./inp_files/7546.got.cif
#   From: 2010.03.12/outbox.cif.g09.slc.cpg/sg45_4_cif.got.tgz:7546.got - 2010.04.14 02:50:11.
