data_PCOD8190313
_publ_section_title
;
Structure prediction by ZEFSAII (Michael W. Deem and Ramdas Pophale) SiO2 
 PCOD8190313
Probable space group: I M M 2
;
_chemical_formula_sum "Si O2"
_cell_formula_units_Z 32
_cell_length_a 25.250987
_cell_length_b 11.811426
_cell_length_c 4.968715
_cell_angle_alpha 90.000000
_cell_angle_beta 90.000000
_cell_angle_gamma 90.000000
_cell_volume 1481.920065
_symmetry_space_group_name_H-M "I M M 2"
_symmetry_group_IT_number 44
_symmetry_cell_setting 'orthorhombic'
loop_
_space_group_symop_operation_xyz
x,y,z
-x,-y,z
-x,y,z
x,-y,z
1/2+x,1/2+y,1/2+z
1/2-x,1/2-y,1/2+z
1/2-x,1/2+y,1/2+z
1/2+x,1/2-y,1/2+z
loop_
_atom_site_type_symbol
_atom_site_label
_atom_site_fract_x
_atom_site_fract_y
_atom_site_fract_z
Si Si1 0.393254 0.749257 0.914550
Si Si2 0.060654 0.130980 0.908060
Si Si3 0.363742 0.000000 0.908513
Si Si4 0.772949 0.792297 0.517876
Si Si5 0.790157 0.500000 0.905479
O O1 0.402463 0.691293 0.627338
O O2 0.399221 0.885611 0.882040
O O3 0.335849 0.713819 0.025146
O O4 0.434588 0.698743 0.127953
O O5 0.000000 0.137765 0.003553
O O6 0.078082 0.000000 0.870032
O O7 0.316556 0.000000 0.697055
O O8 0.338910 0.000000 0.203065
O O9 0.750051 0.805473 0.820475
O O10 0.749092 0.896919 0.352261
#
# Coordination Sequence:
#
# PCOD8190313 Si02
#       5
#     8   8   4   8   4
#     4  12  24  44  68 100 131 176 220 266 327 399
#     4  11  26  48  71  96 127 165 219 286 341 384
#     4  12  24  42  65  96 140 180 215 258 332 384
#     4  12  23  40  60  96 134 173 220 253 311 385
#     4  12  22  40  60  92 142 180 212 270 308 378
#
# _framework density 21.593606000000001
#
# number of rings (size 3 to 8) (size 9 to 14) (size 15 to 20)
#    0.000    0.250    5.000    4.500    3.500    2.000 
#    0.000    3.750    0.000    0.000    0.000    0.000 
#    0.000    0.000    0.000    0.000    0.000    0.000 
#
# Total GULP energy -198359.346575 kJ/mol
# GULP energy per Si atom -12397.459161 kJ/mol
# Density = 2.154446 g / cm^3
# Si number density = 21.593606 Si / 1000 Ang^3
#
#
#
# Elastic Constant Matrix: (Units=GPa)
#
#
# Indices 1 2 3 4 5 6 
#
# 1 68.4675 29.0897 11.9043 -0.0001 -0.0001 0.0000
# 2 29.0897 160.6567 32.5435 -0.0001 -0.0001 0.0000
# 3 11.9043 32.5435 103.0713 -0.0001 0.0000 0.0000
# 4 -0.0001 -0.0001 -0.0001 37.4086 -0.0001 0.0000
# 5 -0.0001 -0.0001 0.0000 -0.0001 24.1882 0.0000
# 6 0.0000 0.0000 0.0000 0.0000 0.0000 33.8717
#
#
#
# Elastic Compliance Matrix: (Units=1/GPa)
#
#
# Indices 1 2 3 4 5 6 
#
# 1 0.015917 -0.002681 -0.000992 0.000000 0.000000 0.000000
# 2 -0.002681 0.007101 -0.001933 0.000000 0.000000 0.000000
# 3 -0.000992 -0.001933 0.010427 0.000000 0.000000 0.000000
# 4 0.000000 0.000000 0.000000 0.026732 0.000000 0.000000
# 5 0.000000 0.000000 0.000000 0.000000 0.041342 0.000000
# 6 0.000000 0.000000 0.000000 0.000000 0.000000 0.029523
#
#
# Mechanical properties :
#
#
# Convention : Reuss Voigt Hill
#
# Bulk Modulus (GPa) = 44.97573 53.25228 49.11401
# Shear Modulus (GPa) = 33.40796 36.33757 34.87276
#
# Velocity S-wave (km/s) = 3.93762 4.10664 4.02301
# Velocity P-wave (km/s) = 6.44566 6.87027 6.66135
#
# Compressibility (1/GPa) = 0.02223421
#
# Stress axis : x y z
#
# Youngs Moduli (GPa) = 62.82568 140.81766 95.90731
#
# Poissons Ratio (x) = 0.37755 0.09512
# Poissons Ratio (y) = 0.16845 0.18534
# Poissons Ratio (z) = 0.06231 0.27213
#
# Static dielectric constant tensor:
#      x y z
#    x 3.569050 0.000000 0.000000 
#    y 0.000000 4.243680 0.000000 
#    z 0.000000 0.000000 3.815570 
# 
# 
# High freq. dielectric constant tensor:
#      x y z
#    x 1.829140 0.000000 0.000000 
#    y 0.000000 1.860360 0.000000 
#    z 0.000000 0.000000 1.867170 
# 
# From -- ./inp_files/949.got.cif
#   From: 2010.03.12/outbox.cif.g09.slc.cpg/sg44_1_cif.got.tgz:949.got - 2010.04.14 02:36:11.
