data_PCOD8190834
_publ_section_title
;
Structure prediction by ZEFSAII (Michael W. Deem and Ramdas Pophale) SiO2 
 PCOD8190834
Probable space group: I B A 2
;
_chemical_formula_sum "Si O2"
_cell_formula_units_Z 64
_cell_length_a 9.248637
_cell_length_b 26.001309
_cell_length_c 13.005686
_cell_angle_alpha 90.000000
_cell_angle_beta 90.000000
_cell_angle_gamma 90.000000
_cell_volume 3127.564040
_symmetry_space_group_name_H-M "I B A 2"
_symmetry_group_IT_number 45
_symmetry_cell_setting 'orthorhombic'
loop_
_space_group_symop_operation_xyz
x,y,z
-x,-y,z
-x,y,1/2+z
x,-y,1/2+z
1/2+x,1/2+y,1/2+z
1/2-x,1/2-y,1/2+z
1/2-x,1/2+y,z
1/2+x,1/2-y,z
loop_
_atom_site_type_symbol
_atom_site_label
_atom_site_fract_x
_atom_site_fract_y
_atom_site_fract_z
Si Si1 0.708546 0.940179 0.137030
Si Si2 0.397742 0.952362 0.861524
Si Si3 0.488717 0.380679 0.602469
Si Si4 0.851400 0.972254 0.512045
Si Si5 0.163385 0.809170 0.452515
Si Si6 0.096217 0.278679 0.107680
Si Si7 0.951893 0.367151 0.984896
Si Si8 0.379586 0.290270 0.222814
O O1 0.622502 0.951373 0.240163
O O2 0.851414 0.906699 0.156632
O O3 0.753400 0.993872 0.086837
O O4 0.600511 0.910052 0.063672
O O5 0.465946 0.897608 0.894575
O O6 0.500000 0.000000 0.892475
O O7 0.239734 0.959497 0.910963
O O8 0.613310 0.420840 0.574816
O O9 0.445167 0.352300 0.496413
O O10 0.546920 0.342741 0.688217
O O11 0.000000 0.000000 0.477348
O O12 0.169877 0.762492 0.532227
O O13 0.321425 0.833883 0.437076
O O14 0.103470 0.786951 0.345512
O O15 0.211622 0.291682 0.195083
O O16 0.955009 0.258068 0.167032
O O17 0.061467 0.329423 0.043112
#
# Coordination Sequence:
#
# PCOD8190834 Si02
#       8
#     8   8   8   8   8   8   8   8
#     4  10  24  43  65  96 138 170 220 275 323 395
#     4  12  26  40  70 102 130 182 221 268 339 396
#     4   9  22  44  65  98 131 174 218 277 322 397
#     4  10  22  45  67  94 136 173 219 274 324 393
#     4  10  24  43  66  97 134 166 223 278 328 400
#     4  11  24  45  65  98 131 172 223 275 332 400
#     4  11  24  46  64  95 138 170 218 278 330 388
#     4  11  24  40  70  97 129 173 220 269 341 396
#
# _framework density 20.463211000000001
#
# number of rings (size 3 to 8) (size 9 to 14) (size 15 to 20)
#    0.000    1.500    2.500    0.750    7.000    2.500 
#    0.000    0.000    0.000    0.000    0.000    0.000 
#    0.000    0.000    0.000    0.000    0.000    0.000 
#
# Total GULP energy -396954.034114 kJ/mol
# GULP energy per Si atom -12404.813566 kJ/mol
# Density = 2.041664 g / cm^3
# Si number density = 20.463211 Si / 1000 Ang^3
#
#
#
# Elastic Constant Matrix: (Units=GPa)
#
#
# Indices 1 2 3 4 5 6 
#
# 1 85.9150 30.6880 33.0041 -0.0001 0.0001 0.0001
# 2 30.6880 97.6939 28.4379 -0.0002 0.0003 0.0001
# 3 33.0041 28.4379 102.8972 0.0001 0.0010 0.0004
# 4 -0.0001 -0.0002 0.0001 23.5766 0.0001 0.0001
# 5 0.0001 0.0003 0.0010 0.0001 28.3005 0.0000
# 6 0.0001 0.0001 0.0004 0.0001 0.0000 34.5683
#
#
#
# Elastic Compliance Matrix: (Units=1/GPa)
#
#
# Indices 1 2 3 4 5 6 
#
# 1 0.014255 -0.003422 -0.003626 0.000000 0.000000 0.000000
# 2 -0.003422 0.011953 -0.002206 0.000000 0.000000 0.000000
# 3 -0.003626 -0.002206 0.011491 0.000000 0.000000 0.000000
# 4 0.000000 0.000000 0.000000 0.042415 0.000000 0.000000
# 5 0.000000 0.000000 0.000000 0.000000 0.035335 0.000000
# 6 0.000000 0.000000 0.000000 0.000000 0.000000 0.028928
#
#
# Mechanical properties :
#
#
# Convention : Reuss Voigt Hill
#
# Bulk Modulus (GPa) = 52.10956 52.30734 52.20845
# Shear Modulus (GPa) = 29.53629 30.24748 29.89189
#
# Velocity S-wave (km/s) = 3.80331 3.84883 3.82614
# Velocity P-wave (km/s) = 6.69382 6.73561 6.71475
#
# Compressibility (1/GPa) = 0.01919034
#
# Stress axis : x y z
#
# Youngs Moduli (GPa) = 70.15148 83.66005 87.02278
#
# Poissons Ratio (x) = 0.28630 0.31558
# Poissons Ratio (y) = 0.24007 0.19196
# Poissons Ratio (z) = 0.25440 0.18454
#
# Static dielectric constant tensor:
#      x y z
#    x 3.817370 0.000000 0.000000 
#    y 0.000000 3.884870 0.000000 
#    z 0.000000 0.000000 3.431450 
# 
# 
# High freq. dielectric constant tensor:
#      x y z
#    x 1.809040 0.000000 0.000000 
#    y 0.000000 1.813210 0.000000 
#    z 0.000000 0.000000 1.790980 
# 
# From -- ./inp_files/3414.got.cif
#   From: 2010.03.12/outbox.cif.g09.slc.cpg/sg45_2_cif.got.tgz:3414.got - 2010.04.14 02:50:11.
