data_PCOD8190049
_publ_section_title
;
Structure prediction by ZEFSAII (Michael W. Deem and Ramdas Pophale) SiO2 
 PCOD8190049
Probable space group: I M M 2
;
_chemical_formula_sum "Si O2"
_cell_formula_units_Z 48
_cell_length_a 18.268522
_cell_length_b 8.647567
_cell_length_c 14.910546
_cell_angle_alpha 90.000000
_cell_angle_beta 90.000000
_cell_angle_gamma 90.000000
_cell_volume 2355.542232
_symmetry_space_group_name_H-M "I M M 2"
_symmetry_group_IT_number 44
_symmetry_cell_setting 'orthorhombic'
loop_
_space_group_symop_operation_xyz
x,y,z
-x,-y,z
-x,y,z
x,-y,z
1/2+x,1/2+y,1/2+z
1/2-x,1/2-y,1/2+z
1/2-x,1/2+y,1/2+z
1/2+x,1/2-y,1/2+z
loop_
_atom_site_type_symbol
_atom_site_label
_atom_site_fract_x
_atom_site_fract_y
_atom_site_fract_z
Si Si1 0.379249 0.676737 0.371810
Si Si2 0.579171 0.822882 0.546508
Si Si3 0.236866 0.820572 0.318075
Si Si4 0.500000 0.179365 0.041433
Si Si5 0.500000 0.675201 0.227573
Si Si6 0.767642 0.318562 0.124009
Si Si7 0.343904 0.815987 0.977949
O O1 0.351446 0.500000 0.374851
O O2 0.425554 0.713892 0.459890
O O3 0.311322 0.793942 0.373010
O O4 0.427862 0.706554 0.284850
O O5 0.500000 0.802528 0.596573
O O6 0.647369 0.772911 0.608059
O O7 0.589445 0.000000 0.515920
O O8 0.248822 0.736318 0.223906
O O9 0.172636 0.747873 0.378503
O O10 0.221088 0.000000 0.302774
O O11 0.500000 0.204945 0.147365
O O12 0.574890 0.249793 0.000489
O O13 0.500000 0.000000 0.020829
O O14 0.500000 0.500000 0.190690
O O15 0.753500 0.500000 0.117093
O O16 0.714482 0.238989 0.052176
O O17 0.341956 0.000000 0.976908
#
# Coordination Sequence:
#
# PCOD8190049 Si02
#       7
#     8   8   8   4   4   8   8
#     4  11  21  36  59  89 124 160 201 252 308 368
#     4  10  21  38  61  90 125 163 201 247 306 372
#     4  12  25  41  62  91 123 165 212 257 311 370
#     4  10  24  42  62  89 120 161 206 253 309 369
#     4  10  22  36  56  91 126 159 198 249 309 367
#     4  11  23  41  65  94 126 164 209 256 309 371
#     4  11  23  43  67  92 125 164 207 259 313 370
#
# _framework density 20.377473999999999
#
# number of rings (size 3 to 8) (size 9 to 14) (size 15 to 20)
#    0.000    1.167    2.500    4.000    0.000    6.000 
#    1.500    0.000    0.000    0.000    0.000    0.000 
#    0.000    0.000    0.000    0.000    0.000    0.000 
#
# Total GULP energy -297593.830596 kJ/mol
# GULP energy per Si atom -12399.742941 kJ/mol
# Density = 2.033109 g / cm^3
# Si number density = 20.377474 Si / 1000 Ang^3
#
#
#
# Elastic Constant Matrix: (Units=GPa)
#
#
# Indices 1 2 3 4 5 6 
#
# 1 135.7497 31.4522 19.3624 0.0000 0.0000 0.0000
# 2 31.4522 64.1314 17.2923 0.0000 0.0000 0.0000
# 3 19.3624 17.2923 68.6401 0.0000 0.0000 0.0000
# 4 0.0000 0.0000 0.0000 34.4412 0.0000 0.0000
# 5 0.0000 0.0000 0.0000 0.0000 23.9114 0.0000
# 6 0.0000 0.0000 0.0000 0.0000 0.0000 26.4330
#
#
#
# Elastic Compliance Matrix: (Units=1/GPa)
#
#
# Indices 1 2 3 4 5 6 
#
# 1 0.008441 -0.003752 -0.001436 0.000000 0.000000 0.000000
# 2 -0.003752 0.018398 -0.003576 0.000000 0.000000 0.000000
# 3 -0.001436 -0.003576 0.015875 0.000000 0.000000 0.000000
# 4 0.000000 0.000000 0.000000 0.029035 0.000000 0.000000
# 5 0.000000 0.000000 0.000000 0.000000 0.041821 0.000000
# 6 0.000000 0.000000 0.000000 0.000000 0.000000 0.037831
#
#
# Mechanical properties :
#
#
# Convention : Reuss Voigt Hill
#
# Bulk Modulus (GPa) = 39.70762 44.97055 42.33909
# Shear Modulus (GPa) = 28.19693 30.31807 29.25750
#
# Velocity S-wave (km/s) = 3.72389 3.86142 3.79328
# Velocity P-wave (km/s) = 6.16588 6.48054 6.32517
#
# Compressibility (1/GPa) = 0.02518408
#
# Stress axis : x y z
#
# Youngs Moduli (GPa) = 118.47364 54.35476 62.99334
#
# Poissons Ratio (x) = 0.20397 0.09044
# Poissons Ratio (y) = 0.44457 0.22529
# Poissons Ratio (z) = 0.17009 0.19439
#
# Static dielectric constant tensor:
#      x y z
#    x 4.039990 0.000000 0.000000 
#    y 0.000000 3.622590 0.000000 
#    z 0.000000 0.000000 3.568250 
# 
# 
# High freq. dielectric constant tensor:
#      x y z
#    x 1.812150 0.000000 0.000000 
#    y 0.000000 1.796390 0.000000 
#    z 0.000000 0.000000 1.785420 
# 
# From -- ./inp_files/16191.got.cif
#   From: 2010.03.12/outbox.cif.g09.slc.cpg/sg44_9_cif.got.tgz:16191.got - 2010.04.14 02:36:11.
