data_PCOD8190783
_publ_section_title
;
Structure prediction by ZEFSAII (Michael W. Deem and Ramdas Pophale) SiO2 
 PCOD8190783
Probable space group: I B A 2
;
_chemical_formula_sum "Si O2"
_cell_formula_units_Z 48
_cell_length_a 17.510924
_cell_length_b 13.694934
_cell_length_c 9.083570
_cell_angle_alpha 90.000000
_cell_angle_beta 90.000000
_cell_angle_gamma 90.000000
_cell_volume 2178.339537
_symmetry_space_group_name_H-M "I B A 2"
_symmetry_group_IT_number 45
_symmetry_cell_setting 'orthorhombic'
loop_
_space_group_symop_operation_xyz
x,y,z
-x,-y,z
-x,y,1/2+z
x,-y,1/2+z
1/2+x,1/2+y,1/2+z
1/2-x,1/2-y,1/2+z
1/2-x,1/2+y,z
1/2+x,1/2-y,z
loop_
_atom_site_type_symbol
_atom_site_label
_atom_site_fract_x
_atom_site_fract_y
_atom_site_fract_z
Si Si1 0.254637 0.188224 0.174170
Si Si2 0.500000 0.500000 0.866498
Si Si3 0.577793 0.831892 0.633005
Si Si4 0.917221 0.881059 0.114079
Si Si5 0.690967 0.159259 0.373766
Si Si6 0.843613 0.553690 0.890614
Si Si7 0.000000 0.500000 0.248187
O O1 0.173271 0.136874 0.136053
O O2 0.250554 0.290726 0.260653
O O3 0.305102 0.112113 0.261357
O O4 0.300435 0.216490 0.026793
O O5 0.453505 0.425076 0.763189
O O6 0.562191 0.446178 0.971356
O O7 0.547949 0.726811 0.579336
O O8 0.608392 0.821941 0.801191
O O9 0.647464 0.878400 0.535558
O O10 0.507843 0.906956 0.639300
O O11 0.706863 0.044726 0.411187
O O12 0.927426 0.518400 0.848051
#
# Coordination Sequence:
#
# PCOD8190783 Si02
#       7
#     8   4   8   8   8   8   4
#     4  11  23  42  66  98 131 180 224 281 338 417
#     4  10  24  50  64  98 130 176 226 296 342 408
#     4  10  22  43  66 102 134 181 226 278 347 423
#     4  10  24  45  69  95 132 174 231 281 351 414
#     4  10  22  41  62  95 138 169 224 279 335 396
#     4  11  23  42  68  99 142 179 229 284 344 415
#     4  10  22  40  66 102 142 182 222 280 350 414
#
# _framework density 22.035132000000001
#
# number of rings (size 3 to 8) (size 9 to 14) (size 15 to 20)
#    0.000    1.667    0.000    4.500    4.667    1.333 
#    9.000    0.000    0.000    0.000    0.000    0.000 
#    0.000    0.000    0.000    0.000    0.000    0.000 
#
# Total GULP energy -297350.506757 kJ/mol
# GULP energy per Si atom -12389.604448 kJ/mol
# Density = 2.198498 g / cm^3
# Si number density = 22.035132 Si / 1000 Ang^3
#
#
#
# Elastic Constant Matrix: (Units=GPa)
#
#
# Indices 1 2 3 4 5 6 
#
# 1 73.1950 35.6001 33.7508 0.0000 0.0000 0.0000
# 2 35.6001 164.7257 68.9511 0.0000 0.0000 0.0000
# 3 33.7508 68.9511 136.6775 0.0000 0.0000 0.0000
# 4 0.0000 0.0000 0.0000 37.9781 0.0000 0.0000
# 5 0.0000 0.0000 0.0000 0.0000 27.8318 0.0000
# 6 0.0000 0.0000 0.0000 0.0000 0.0000 32.0148
#
#
#
# Elastic Compliance Matrix: (Units=1/GPa)
#
#
# Indices 1 2 3 4 5 6 
#
# 1 0.016076 -0.002298 -0.002810 0.000000 0.000000 0.000000
# 2 -0.002298 0.008024 -0.003481 0.000000 0.000000 0.000000
# 3 -0.002810 -0.003481 0.009766 0.000000 0.000000 0.000000
# 4 0.000000 0.000000 0.000000 0.026331 0.000000 0.000000
# 5 0.000000 0.000000 0.000000 0.000000 0.035930 0.000000
# 6 0.000000 0.000000 0.000000 0.000000 0.000000 0.031236
#
#
# Mechanical properties :
#
#
# Convention : Reuss Voigt Hill
#
# Bulk Modulus (GPa) = 59.92178 72.35581 66.13879
# Shear Modulus (GPa) = 33.31033 35.31804 34.31418
#
# Velocity S-wave (km/s) = 3.89227 4.00785 3.95048
# Velocity P-wave (km/s) = 6.88857 7.37055 7.13363
#
# Compressibility (1/GPa) = 0.01668842
#
# Stress axis : x y z
#
# Youngs Moduli (GPa) = 62.20583 124.62253 102.39163
#
# Poissons Ratio (x) = 0.28636 0.28777
# Poissons Ratio (y) = 0.14294 0.35639
# Poissons Ratio (z) = 0.17483 0.43377
#
# Static dielectric constant tensor:
#      x y z
#    x 3.783520 0.000000 0.000000 
#    y 0.000000 4.504490 0.000000 
#    z 0.000000 0.000000 4.140850 
# 
# 
# High freq. dielectric constant tensor:
#      x y z
#    x 1.842110 0.000000 0.000000 
#    y 0.000000 1.881860 0.000000 
#    z 0.000000 0.000000 1.880780 
# 
# From -- ./inp_files/1746.got.cif
#   From: 2010.03.12/outbox.cif.g09.slc.cpg/sg45_1_cif.got.tgz:1746.got - 2010.04.14 02:50:11.
