data_PCOD8190727
_publ_section_title
;
Structure prediction by ZEFSAII (Michael W. Deem and Ramdas Pophale) SiO2 
 PCOD8190727
Probable space group: I B A 2
;
_chemical_formula_sum "Si O2"
_cell_formula_units_Z 60
_cell_length_a 11.605864
_cell_length_b 8.805839
_cell_length_c 26.905350
_cell_angle_alpha 90.000000
_cell_angle_beta 90.000000
_cell_angle_gamma 90.000000
_cell_volume 2749.709815
_symmetry_space_group_name_H-M "I B A 2"
_symmetry_group_IT_number 45
_symmetry_cell_setting 'orthorhombic'
loop_
_space_group_symop_operation_xyz
x,y,z
-x,-y,z
-x,y,1/2+z
x,-y,1/2+z
1/2+x,1/2+y,1/2+z
1/2-x,1/2-y,1/2+z
1/2-x,1/2+y,z
1/2+x,1/2-y,z
loop_
_atom_site_type_symbol
_atom_site_label
_atom_site_fract_x
_atom_site_fract_y
_atom_site_fract_z
Si Si1 0.286341 0.170164 0.765760
Si Si2 0.128723 0.975081 0.930969
Si Si3 0.131949 0.035976 0.317605
Si Si4 0.760753 0.224701 0.488349
Si Si5 0.160477 0.629410 0.145681
Si Si6 0.875558 0.524219 0.044866
Si Si7 0.000000 0.500000 0.225614
Si Si8 0.631993 0.442916 0.674700
O O1 0.315385 0.345362 0.777554
O O2 0.411443 0.093251 0.759872
O O3 0.197188 0.143350 0.720293
O O4 0.216167 0.108778 0.813388
O O5 0.140608 0.913961 0.874778
O O6 0.173492 0.847335 0.967692
O O7 0.184591 0.140678 0.940517
O O8 0.000000 0.000000 0.946910
O O9 0.000000 0.000000 0.302969
O O10 0.844845 0.305419 0.528162
O O11 0.707398 0.096876 0.521641
O O12 0.123286 0.508342 0.103809
O O13 0.294047 0.591633 0.159743
O O14 0.142214 0.809593 0.131945
O O15 0.075154 0.612403 0.192220
O O16 0.000000 0.500000 0.021724
O O17 0.500000 0.500000 0.684441
#
# Coordination Sequence:
#
# PCOD8190727 Si02
#       8
#     8   8   8   8   8   8   4   8
#     4  11  24  42  63  95 126 175 222 272 333 393
#     4  10  21  42  64  94 128 166 208 271 335 398
#     4  11  25  41  68  95 132 169 223 278 334 411
#     4  10  22  39  66  94 128 169 214 264 338 402
#     4  11  24  42  63  95 130 175 225 281 333 394
#     4  11  22  40  64  94 129 169 218 272 324 400
#     4  10  24  40  64  88 134 174 218 276 328 396
#     4  11  26  42  66  91 131 178 226 282 340 397
#
# _framework density 21.820485000000001
#
# number of rings (size 3 to 8) (size 9 to 14) (size 15 to 20)
#    0.000    1.333    0.667    4.400    9.333    1.067 
#    0.000    3.333    2.933    0.000    0.000    0.000 
#    0.000    0.000    0.000    0.000    0.000    0.000 
#
# Total GULP energy -371705.061983 kJ/mol
# GULP energy per Si atom -12390.168733 kJ/mol
# Density = 2.177082 g / cm^3
# Si number density = 21.820485 Si / 1000 Ang^3
#
#
#
# Elastic Constant Matrix: (Units=GPa)
#
#
# Indices 1 2 3 4 5 6 
#
# 1 140.8386 45.3759 18.0692 0.0000 0.0000 0.0000
# 2 45.3759 110.5993 19.9219 0.0000 0.0000 0.0000
# 3 18.0692 19.9219 54.9229 0.0000 0.0000 0.0000
# 4 0.0000 0.0000 0.0000 37.3223 0.0000 0.0000
# 5 0.0000 0.0000 0.0000 0.0000 3.6853 0.0000
# 6 0.0000 0.0000 0.0000 0.0000 0.0000 30.2176
#
#
#
# Elastic Compliance Matrix: (Units=1/GPa)
#
#
# Indices 1 2 3 4 5 6 
#
# 1 0.008312 -0.003121 -0.001602 0.000000 0.000000 0.000000
# 2 -0.003121 0.010846 -0.002907 0.000000 0.000000 0.000000
# 3 -0.001602 -0.002907 0.019789 0.000000 0.000000 0.000000
# 4 0.000000 0.000000 0.000000 0.026794 0.000000 0.000000
# 5 0.000000 0.000000 0.000000 0.000000 0.271345 0.000000
# 6 0.000000 0.000000 0.000000 0.000000 0.000000 0.033093
#
#
# Mechanical properties :
#
#
# Convention : Reuss Voigt Hill
#
# Bulk Modulus (GPa) = 42.22108 52.56609 47.39359
# Shear Modulus (GPa) = 12.71181 29.11131 20.91156
#
# Velocity S-wave (km/s) = 2.41625 3.65653 3.09907
# Velocity P-wave (km/s) = 5.21303 6.47839 5.87985
#
# Compressibility (1/GPa) = 0.02368485
#
# Stress axis : x y z
#
# Youngs Moduli (GPa) = 120.31448 92.20046 50.53320
#
# Poissons Ratio (x) = 0.28779 0.08097
# Poissons Ratio (y) = 0.37555 0.14691
# Poissons Ratio (z) = 0.19277 0.26804
#
# Static dielectric constant tensor:
#      x y z
#    x 4.341860 0.000000 0.000000 
#    y 0.000000 4.039870 0.000000 
#    z 0.000000 0.000000 3.899250 
# 
# 
# High freq. dielectric constant tensor:
#      x y z
#    x 1.872760 0.000000 0.000000 
#    y 0.000000 1.867410 0.000000 
#    z 0.000000 0.000000 1.843570 
# 
# From -- ./inp_files/9961.got.cif
#   From: 2010.03.12/outbox.cif.g09.slc.cpg/sg45_5_cif.got.tgz:9961.got - 2010.04.14 02:50:11.
