data_PCOD8190034
_publ_section_title
;
Structure prediction by ZEFSAII (Michael W. Deem and Ramdas Pophale) SiO2 
 PCOD8190034
Probable space group: I M M 2
;
_chemical_formula_sum "Si O2"
_cell_formula_units_Z 64
_cell_length_a 8.649494
_cell_length_b 27.454082
_cell_length_c 13.090328
_cell_angle_alpha 90.000000
_cell_angle_beta 90.000000
_cell_angle_gamma 90.000000
_cell_volume 3108.480569
_symmetry_space_group_name_H-M "I M M 2"
_symmetry_group_IT_number 44
_symmetry_cell_setting 'orthorhombic'
loop_
_space_group_symop_operation_xyz
x,y,z
-x,-y,z
-x,y,z
x,-y,z
1/2+x,1/2+y,1/2+z
1/2-x,1/2-y,1/2+z
1/2-x,1/2+y,1/2+z
1/2+x,1/2-y,1/2+z
loop_
_atom_site_type_symbol
_atom_site_label
_atom_site_fract_x
_atom_site_fract_y
_atom_site_fract_z
Si Si1 0.317136 0.626896 0.253250
Si Si2 0.816316 0.554883 0.851855
Si Si3 0.822725 0.268046 0.002746
Si Si4 0.182189 0.055313 0.933419
Si Si5 0.320684 0.208469 0.167283
Si Si6 0.817440 0.621543 0.036670
Si Si7 0.182916 0.598205 0.639912
Si Si8 0.321085 0.771022 0.817669
O O1 0.500000 0.634230 0.257501
O O2 0.260183 0.588466 0.339094
O O3 0.267883 0.607281 0.141899
O O4 0.234736 0.677892 0.273144
O O5 0.758686 0.500000 0.868530
O O6 0.750370 0.573628 0.743134
O O7 0.000000 0.558712 0.848810
O O8 0.754530 0.586381 0.947152
O O9 0.709953 0.232339 0.938474
O O10 0.000000 0.260675 0.970953
O O11 0.791683 0.248190 0.115619
O O12 0.774134 0.324318 0.000265
O O13 0.000000 0.058810 0.943872
O O14 0.236073 0.000000 0.912052
O O15 0.252051 0.072689 0.040053
O O16 0.500000 0.215765 0.141160
O O17 0.265217 0.154305 0.142116
O O18 0.283548 0.224068 0.283456
O O19 0.000000 0.616088 0.054691
O O20 0.000000 0.593406 0.637651
O O21 0.500000 0.764627 0.791698
#
# Coordination Sequence:
#
# PCOD8190034 Si02
#       8
#     8   8   8   8   8   8   8   8
#     4  11  23  40  62  86 120 163 206 254 308 367
#     4   9  18  35  60  88 118 154 196 246 307 364
#     4  11  22  37  57  83 119 160 198 245 299 357
#     4  10  23  42  62  87 121 162 205 255 316 372
#     4  11  22  37  58  87 120 155 198 244 297 362
#     4  10  21  38  60  87 121 158 200 250 302 361
#     4  10  21  38  62  92 122 155 200 255 307 367
#     4  12  24  38  58  86 120 159 202 249 299 362
#
# _framework density 20.588836000000001
#
# number of rings (size 3 to 8) (size 9 to 14) (size 15 to 20)
#    0.000    1.500    1.250    4.125    0.000    7.750 
#    0.000    0.625    0.000    0.750    0.000    0.000 
#    0.000    0.000    0.000    0.000    0.000    0.000 
#
# Total GULP energy -396796.051326 kJ/mol
# GULP energy per Si atom -12399.876604 kJ/mol
# Density = 2.054198 g / cm^3
# Si number density = 20.588836 Si / 1000 Ang^3
#
#
#
# Elastic Constant Matrix: (Units=GPa)
#
#
# Indices 1 2 3 4 5 6 
#
# 1 50.2970 44.3355 35.8934 0.0002 0.0000 0.0000
# 2 44.3355 147.9291 71.2372 0.0000 0.0000 0.0000
# 3 35.8934 71.2372 141.6874 0.0004 0.0001 0.0001
# 4 0.0002 0.0000 0.0004 42.1355 0.0000 0.0000
# 5 0.0000 0.0000 0.0001 0.0000 37.3726 0.0001
# 6 0.0000 0.0000 0.0001 0.0000 0.0001 23.7122
#
#
#
# Elastic Compliance Matrix: (Units=1/GPa)
#
#
# Indices 1 2 3 4 5 6 
#
# 1 0.028539 -0.006692 -0.003865 0.000000 0.000000 0.000000
# 2 -0.006692 0.010489 -0.003578 0.000000 0.000000 0.000000
# 3 -0.003865 -0.003578 0.009836 0.000000 0.000000 0.000000
# 4 0.000000 0.000000 0.000000 0.023733 0.000000 0.000000
# 5 0.000000 0.000000 0.000000 0.000000 0.026758 0.000000
# 6 0.000000 0.000000 0.000000 0.000000 0.000000 0.042172
#
#
# Mechanical properties :
#
#
# Convention : Reuss Voigt Hill
#
# Bulk Modulus (GPa) = 48.56026 71.42730 59.99378
# Shear Modulus (GPa) = 28.30264 33.20723 30.75493
#
# Velocity S-wave (km/s) = 3.71166 4.02042 3.86912
# Velocity P-wave (km/s) = 6.48117 7.50462 7.01159
#
# Compressibility (1/GPa) = 0.02059297
#
# Stress axis : x y z
#
# Youngs Moduli (GPa) = 35.03972 95.33978 101.66738
#
# Poissons Ratio (x) = 0.63802 0.39296
# Poissons Ratio (y) = 0.23449 0.36379
# Poissons Ratio (z) = 0.13543 0.34115
#
# Static dielectric constant tensor:
#      x y z
#    x 3.408220 0.000000 0.000000 
#    y 0.000000 3.820800 0.000000 
#    z 0.000000 0.000000 3.981820 
# 
# 
# High freq. dielectric constant tensor:
#      x y z
#    x 1.784930 0.000000 0.000000 
#    y 0.000000 1.808850 0.000000 
#    z 0.000000 0.000000 1.827480 
# 
# From -- ./inp_files/11497.got.cif
#   From: 2010.03.12/outbox.cif.g09.slc.cpg/sg44_6_cif.got.tgz:11497.got - 2010.04.14 02:36:11.
