data_PCOD8190288
_publ_section_title
;
Structure prediction by ZEFSAII (Michael W. Deem and Ramdas Pophale) SiO2 
 PCOD8190288
Probable space group: I M M 2
;
_chemical_formula_sum "Si O2"
_cell_formula_units_Z 48
_cell_length_a 8.575439
_cell_length_b 18.386257
_cell_length_c 15.109689
_cell_angle_alpha 90.000000
_cell_angle_beta 90.000000
_cell_angle_gamma 90.000000
_cell_volume 2382.348069
_symmetry_space_group_name_H-M "I M M 2"
_symmetry_group_IT_number 44
_symmetry_cell_setting 'orthorhombic'
loop_
_space_group_symop_operation_xyz
x,y,z
-x,-y,z
-x,y,z
x,-y,z
1/2+x,1/2+y,1/2+z
1/2-x,1/2-y,1/2+z
1/2-x,1/2+y,1/2+z
1/2+x,1/2-y,1/2+z
loop_
_atom_site_type_symbol
_atom_site_label
_atom_site_fract_x
_atom_site_fract_y
_atom_site_fract_z
Si Si1 0.677724 0.108115 0.635060
Si Si2 0.321655 0.266099 0.693561
Si Si3 0.684615 0.156959 0.031847
Si Si4 0.314376 0.921513 0.445255
Si Si5 0.685274 0.000000 0.970236
Si Si6 0.184457 0.732961 0.883747
Si Si7 0.814320 0.500000 0.275280
O O1 0.500000 0.082080 0.634270
O O2 0.691272 0.194193 0.634976
O O3 0.755780 0.079960 0.544669
O O4 0.750440 0.070620 0.722233
O O5 0.500000 0.287443 0.713904
O O6 0.242368 0.326385 0.631480
O O7 0.233539 0.248024 0.784378
O O8 0.500000 0.162549 0.028753
O O9 0.743641 0.074209 0.016612
O O10 0.746749 0.211088 0.955553
O O11 0.500000 0.915816 0.447705
O O12 0.250859 0.850001 0.395460
O O13 0.264240 0.000000 0.402071
O O14 0.500000 0.000000 0.968166
O O15 0.760167 0.000000 0.872208
O O16 0.000000 0.736750 0.894249
O O17 0.000000 0.500000 0.287742
#
# Coordination Sequence:
#
# PCOD8190288 Si02
#       7
#     8   8   8   8   4   8   4
#     4   9  15  26  50  81 110 138 177 231 287 342
#     4  11  22  38  59  86 117 157 203 246 298 356
#     4  11  22  40  63  87 118 157 202 252 304 360
#     4   9  16  30  53  83 114 146 187 236 285 342
#     4   9  20  36  55  84 117 152 200 250 296 360
#     4  11  22  38  60  89 121 156 199 246 300 360
#     4   9  14  24  48  82 111 136 178 236 290 342
#
# _framework density 20.148188000000001
#
# number of rings (size 3 to 8) (size 9 to 14) (size 15 to 20)
#    0.000    2.000    2.500    2.500    0.000    2.667 
#    1.500    1.667    0.000    1.500    0.000    1.167 
#    0.000    0.000    0.000    0.000    0.000    0.000 
#
# Total GULP energy -297346.674302 kJ/mol
# GULP energy per Si atom -12389.444763 kJ/mol
# Density = 2.010233 g / cm^3
# Si number density = 20.148188 Si / 1000 Ang^3
#
#
#
# Elastic Constant Matrix: (Units=GPa)
#
#
# Indices 1 2 3 4 5 6 
#
# 1 48.7512 32.7097 18.2986 0.0000 0.0000 0.0000
# 2 32.7097 131.7258 26.0881 0.0000 0.0000 0.0000
# 3 18.2986 26.0881 81.8097 0.0000 0.0000 0.0000
# 4 0.0000 0.0000 0.0000 33.8658 0.0000 0.0000
# 5 0.0000 0.0000 0.0000 0.0000 26.6718 0.0000
# 6 0.0000 0.0000 0.0000 0.0000 0.0000 18.4885
#
#
#
# Elastic Compliance Matrix: (Units=1/GPa)
#
#
# Indices 1 2 3 4 5 6 
#
# 1 0.025769 -0.005612 -0.003974 0.000000 0.000000 0.000000
# 2 -0.005612 0.009325 -0.001719 0.000000 0.000000 0.000000
# 3 -0.003974 -0.001719 0.013660 0.000000 0.000000 0.000000
# 4 0.000000 0.000000 0.000000 0.029528 0.000000 0.000000
# 5 0.000000 0.000000 0.000000 0.000000 0.037493 0.000000
# 6 0.000000 0.000000 0.000000 0.000000 0.000000 0.054088
#
#
# Mechanical properties :
#
#
# Convention : Reuss Voigt Hill
#
# Bulk Modulus (GPa) = 38.24715 46.27551 42.26133
# Shear Modulus (GPa) = 24.85228 28.15123 26.50176
#
# Velocity S-wave (km/s) = 3.51590 3.74198 3.63070
# Velocity P-wave (km/s) = 5.95871 6.45657 6.21263
#
# Compressibility (1/GPa) = 0.02614574
#
# Stress axis : x y z
#
# Youngs Moduli (GPa) = 38.80581 107.23404 73.20395
#
# Poissons Ratio (x) = 0.60178 0.29094
# Poissons Ratio (y) = 0.21777 0.12580
# Poissons Ratio (z) = 0.15423 0.18429
#
# Static dielectric constant tensor:
#      x y z
#    x 3.216860 0.000000 0.000000 
#    y 0.000000 4.009660 0.000000 
#    z 0.000000 0.000000 3.692920 
# 
# 
# High freq. dielectric constant tensor:
#      x y z
#    x 1.737340 0.000000 0.000000 
#    y 0.000000 1.803090 0.000000 
#    z 0.000000 0.000000 1.786760 
# 
# From -- ./inp_files/16144.got.cif
#   From: 2010.03.12/outbox.cif.g09.slc.cpg/sg44_9_cif.got.tgz:16144.got - 2010.04.14 02:36:11.
