data_PCOD8190610
_publ_section_title
;
Structure prediction by ZEFSAII (Michael W. Deem and Ramdas Pophale) SiO2 
 PCOD8190610
Probable space group: I B A 2
;
_chemical_formula_sum "Si O2"
_cell_formula_units_Z 56
_cell_length_a 12.091591
_cell_length_b 13.984261
_cell_length_c 14.715830
_cell_angle_alpha 90.000000
_cell_angle_beta 90.000000
_cell_angle_gamma 90.000000
_cell_volume 2488.328603
_symmetry_space_group_name_H-M "I B A 2"
_symmetry_group_IT_number 45
_symmetry_cell_setting 'orthorhombic'
loop_
_space_group_symop_operation_xyz
x,y,z
-x,-y,z
-x,y,1/2+z
x,-y,1/2+z
1/2+x,1/2+y,1/2+z
1/2-x,1/2-y,1/2+z
1/2-x,1/2+y,z
1/2+x,1/2-y,z
loop_
_atom_site_type_symbol
_atom_site_label
_atom_site_fract_x
_atom_site_fract_y
_atom_site_fract_z
Si Si1 0.814236 0.521155 0.883310
Si Si2 0.477689 0.889940 0.172290
Si Si3 0.205722 0.345453 0.036117
Si Si4 0.054782 0.807373 0.477402
Si Si5 0.099256 0.933159 0.314169
Si Si6 0.089731 0.204290 0.647697
Si Si7 0.469027 0.859160 0.365586
O O1 0.718365 0.489041 0.811152
O O2 0.906655 0.597337 0.847909
O O3 0.884446 0.429595 0.918072
O O4 0.751242 0.573495 0.966618
O O5 0.404121 0.886560 0.082854
O O6 0.582414 0.819747 0.155050
O O7 0.419606 0.846216 0.263373
O O8 0.500000 0.000000 0.193844
O O9 0.292408 0.325270 0.112466
O O10 0.172025 0.246867 0.986874
O O11 0.079311 0.901121 0.418487
O O12 0.969190 0.738681 0.422381
O O13 0.003895 0.833831 0.576374
O O14 0.086852 0.842755 0.247302
O O15 0.000000 0.000000 0.282496
#
# Coordination Sequence:
#
# PCOD8190610 Si02
#       7
#     8   8   8   8   8   8   8
#     4  10  22  40  70  98 133 178 228 286 342 424
#     4  11  22  41  69  99 134 176 235 295 343 414
#     4  10  24  41  66 105 136 181 230 288 358 405
#     4  10  24  44  66  95 142 182 229 290 351 419
#     4  12  26  46  68 101 143 194 227 280 364 432
#     4  11  25  45  64 105 140 180 235 291 343 431
#     4  10  20  43  68 101 127 177 239 291 349 398
#
# _framework density 22.505067
#
# number of rings (size 3 to 8) (size 9 to 14) (size 15 to 20)
#    0.000    1.429    2.857    1.714    8.000    1.714 
#    5.143    0.000    0.000    0.000    0.000    0.000 
#    0.000    0.000    0.000    0.000    0.000    0.000 
#
# Total GULP energy -346934.768893 kJ/mol
# GULP energy per Si atom -12390.527460 kJ/mol
# Density = 2.245384 g / cm^3
# Si number density = 22.505067 Si / 1000 Ang^3
#
#
#
# Elastic Constant Matrix: (Units=GPa)
#
#
# Indices 1 2 3 4 5 6 
#
# 1 88.9856 29.9774 10.6930 0.0000 0.0000 0.0000
# 2 29.9774 69.7196 27.3627 0.0001 0.0000 0.0000
# 3 10.6930 27.3627 88.3360 0.0000 0.0000 0.0000
# 4 0.0000 0.0001 0.0000 39.4558 0.0000 0.0000
# 5 0.0000 0.0000 0.0000 0.0000 32.2779 0.0000
# 6 0.0000 0.0000 0.0000 0.0000 0.0000 20.2744
#
#
#
# Elastic Compliance Matrix: (Units=1/GPa)
#
#
# Indices 1 2 3 4 5 6 
#
# 1 0.013144 -0.005723 0.000182 0.000000 0.000000 0.000000
# 2 -0.005723 0.018820 -0.005137 0.000000 0.000000 0.000000
# 3 0.000182 -0.005137 0.012890 0.000000 0.000000 0.000000
# 4 0.000000 0.000000 0.000000 0.025345 0.000000 0.000000
# 5 0.000000 0.000000 0.000000 0.000000 0.030981 0.000000
# 6 0.000000 0.000000 0.000000 0.000000 0.000000 0.049323
#
#
# Mechanical properties :
#
#
# Convention : Reuss Voigt Hill
#
# Bulk Modulus (GPa) = 42.55809 42.56751 42.56280
# Shear Modulus (GPa) = 27.82561 30.33550 29.08055
#
# Velocity S-wave (km/s) = 3.52008 3.67541 3.59859
# Velocity P-wave (km/s) = 5.95591 6.08007 6.01831
#
# Compressibility (1/GPa) = 0.02349730
#
# Stress axis : x y z
#
# Youngs Moduli (GPa) = 76.08137 53.13548 77.58193
#
# Poissons Ratio (x) = 0.30408 -0.01409
# Poissons Ratio (y) = 0.43539 0.39853
# Poissons Ratio (z) = -0.01382 0.27295
#
# Static dielectric constant tensor:
#      x y z
#    x 3.882350 0.000000 0.000000 
#    y 0.000000 4.004530 0.000000 
#    z 0.000000 0.000000 4.169130 
# 
# 
# High freq. dielectric constant tensor:
#      x y z
#    x 1.866400 0.000000 0.000000 
#    y 0.000000 1.880360 0.000000 
#    z 0.000000 0.000000 1.895940 
# 
# From -- ./inp_files/6174.got.cif
#   From: 2010.03.12/outbox.cif.g09.slc.cpg/sg45_4_cif.got.tgz:6174.got - 2010.04.14 02:50:11.
