data_PCOD8190054
_publ_section_title
;
Structure prediction by ZEFSAII (Michael W. Deem and Ramdas Pophale) SiO2 
 PCOD8190054
Probable space group: I M M 2
;
_chemical_formula_sum "Si O2"
_cell_formula_units_Z 40
_cell_length_a 16.663512
_cell_length_b 8.723654
_cell_length_c 12.736254
_cell_angle_alpha 90.000000
_cell_angle_beta 90.000000
_cell_angle_gamma 90.000000
_cell_volume 1851.427381
_symmetry_space_group_name_H-M "I M M 2"
_symmetry_group_IT_number 44
_symmetry_cell_setting 'orthorhombic'
loop_
_space_group_symop_operation_xyz
x,y,z
-x,-y,z
-x,y,z
x,-y,z
1/2+x,1/2+y,1/2+z
1/2-x,1/2-y,1/2+z
1/2-x,1/2+y,1/2+z
1/2+x,1/2-y,1/2+z
loop_
_atom_site_type_symbol
_atom_site_label
_atom_site_fract_x
_atom_site_fract_y
_atom_site_fract_z
Si Si1 0.828936 0.321125 0.555480
Si Si2 0.906125 0.668608 0.179768
Si Si3 0.406576 0.681255 0.260029
Si Si4 0.332526 0.181104 0.468307
Si Si5 0.407552 0.666685 0.878704
O O1 0.809188 0.500000 0.563402
O O2 0.854750 0.260262 0.668826
O O3 0.756468 0.228765 0.501719
O O4 0.900531 0.286886 0.474057
O O5 0.866606 0.500000 0.188334
O O6 0.865988 0.771236 0.271428
O O7 0.000000 0.657465 0.197867
O O8 0.888612 0.735129 0.064806
O O9 0.500000 0.735339 0.257139
O O10 0.401578 0.500000 0.245081
O O11 0.364877 0.728057 0.368290
O O12 0.337914 0.000000 0.445673
O O13 0.500000 0.644475 0.854451
O O14 0.369326 0.500000 0.905847
#
# Coordination Sequence:
#
# PCOD8190054 Si02
#       5
#     8   8   8   8   8
#     4  12  26  42  64  93 130 173 218 271 328 387
#     4   9  19  37  62  91 123 161 205 254 312 382
#     4  11  25  46  71  99 134 176 224 276 333 400
#     4  11  24  42  66  95 131 171 216 271 327 388
#     4  10  21  38  62  91 124 162 207 261 319 381
#
# _framework density 21.604949999999999
#
# number of rings (size 3 to 8) (size 9 to 14) (size 15 to 20)
#    0.000    1.400    0.000    4.800    2.800    7.600 
#    0.000    2.000    0.000    0.000    0.000    0.000 
#    0.000    0.000    0.000    0.000    0.000    0.000 
#
# Total GULP energy -247934.585633 kJ/mol
# GULP energy per Si atom -12396.729282 kJ/mol
# Density = 2.155578 g / cm^3
# Si number density = 21.604950 Si / 1000 Ang^3
#
#
#
# Elastic Constant Matrix: (Units=GPa)
#
#
# Indices 1 2 3 4 5 6 
#
# 1 60.2965 21.1217 25.9421 0.0000 0.0000 0.0000
# 2 21.1217 88.1385 42.8435 0.0000 0.0000 0.0000
# 3 25.9421 42.8435 163.5626 0.0000 0.0000 0.0000
# 4 0.0000 0.0000 0.0000 38.6647 0.0000 0.0000
# 5 0.0000 0.0000 0.0000 0.0000 36.2844 0.0000
# 6 0.0000 0.0000 0.0000 0.0000 0.0000 23.5939
#
#
#
# Elastic Compliance Matrix: (Units=1/GPa)
#
#
# Indices 1 2 3 4 5 6 
#
# 1 0.018687 -0.003481 -0.002052 0.000000 0.000000 0.000000
# 2 -0.003481 0.013649 -0.003023 0.000000 0.000000 0.000000
# 3 -0.002052 -0.003023 0.007231 0.000000 0.000000 0.000000
# 4 0.000000 0.000000 0.000000 0.025863 0.000000 0.000000
# 5 0.000000 0.000000 0.000000 0.000000 0.027560 0.000000
# 6 0.000000 0.000000 0.000000 0.000000 0.000000 0.042384
#
#
# Mechanical properties :
#
#
# Convention : Reuss Voigt Hill
#
# Bulk Modulus (GPa) = 44.53250 54.64580 49.58915
# Shear Modulus (GPa) = 31.25541 34.51460 32.88500
#
# Velocity S-wave (km/s) = 3.80765 4.00125 3.90565
# Velocity P-wave (km/s) = 6.32359 6.83336 6.58341
#
# Compressibility (1/GPa) = 0.02245551
#
# Stress axis : x y z
#
# Youngs Moduli (GPa) = 53.51343 73.26277 138.28830
#
# Poissons Ratio (x) = 0.25500 0.28379
# Poissons Ratio (y) = 0.18626 0.41809
# Poissons Ratio (z) = 0.10982 0.22149
#
# Static dielectric constant tensor:
#      x y z
#    x 3.828910 0.000000 0.000000 
#    y 0.000000 4.263800 0.000000 
#    z 0.000000 0.000000 4.180190 
# 
# 
# High freq. dielectric constant tensor:
#      x y z
#    x 1.839810 0.000000 0.000000 
#    y 0.000000 1.854520 0.000000 
#    z 0.000000 0.000000 1.867750 
# 
# From -- ./inp_files/10833.got.cif
#   From: 2010.03.12/outbox.cif.g09.slc.cpg/sg44_6_cif.got.tgz:10833.got - 2010.04.14 02:36:11.
