data_PCOD8190474
_publ_section_title
;
Structure prediction by ZEFSAII (Michael W. Deem and Ramdas Pophale) SiO2 
 PCOD8190474
Probable space group: I B A 2
;
_chemical_formula_sum "Si O2"
_cell_formula_units_Z 64
_cell_length_a 8.271131
_cell_length_b 22.594470
_cell_length_c 17.472081
_cell_angle_alpha 90.000000
_cell_angle_beta 90.000000
_cell_angle_gamma 90.000000
_cell_volume 3265.214318
_symmetry_space_group_name_H-M "I B A 2"
_symmetry_group_IT_number 45
_symmetry_cell_setting 'orthorhombic'
loop_
_space_group_symop_operation_xyz
x,y,z
-x,-y,z
-x,y,1/2+z
x,-y,1/2+z
1/2+x,1/2+y,1/2+z
1/2-x,1/2-y,1/2+z
1/2-x,1/2+y,z
1/2+x,1/2-y,z
loop_
_atom_site_type_symbol
_atom_site_label
_atom_site_fract_x
_atom_site_fract_y
_atom_site_fract_z
Si Si1 0.555413 0.938488 0.252280
Si Si2 0.836288 0.968489 0.152521
Si Si3 0.784226 0.764982 0.083557
Si Si4 0.517731 0.643770 0.131782
Si Si5 0.015129 0.327822 0.008417
Si Si6 0.668326 0.282241 0.746218
Si Si7 0.979118 0.320956 0.830011
Si Si8 0.659371 0.077653 0.102755
O O1 0.738396 0.951334 0.227740
O O2 0.554385 0.884704 0.310712
O O3 0.445876 0.921179 0.179480
O O4 0.500000 0.000000 0.291819
O O5 0.885898 0.906802 0.114686
O O6 0.730635 0.010389 0.094288
O O7 0.000000 0.000000 0.180599
O O8 0.953609 0.801656 0.081279
O O9 0.823111 0.709663 0.028734
O O10 0.637399 0.805617 0.056771
O O11 0.751246 0.744448 0.170313
O O12 0.535621 0.668302 0.219708
O O13 0.694287 0.623462 0.107623
O O14 0.050812 0.397069 0.032419
O O15 0.974056 0.319220 0.920744
O O16 0.798419 0.315551 0.798533
O O17 0.588723 0.231027 0.796438
#
# Coordination Sequence:
#
# PCOD8190474 Si02
#       8
#     8   8   8   8   8   8   8   8
#     4  10  20  39  63  87 120 162 217 271 311 382
#     4   9  20  34  61  95 113 149 211 275 313 356
#     4  12  21  38  61  87 119 168 212 258 310 384
#     4  11  19  34  62  91 115 150 211 268 301 360
#     4  12  23  38  57  89 133 165 204 262 336 390
#     4  12  21  37  62  87 124 164 214 262 308 381
#     4  12  25  38  58  94 129 168 208 265 339 395
#     4  10  19  38  61  86 120 157 206 265 310 380
#
# _framework density 19.600552
#
# number of rings (size 3 to 8) (size 9 to 14) (size 15 to 20)
#    0.000    1.000    5.000    3.000    0.000    0.000 
#    0.000    3.125    0.000    2.250    0.000    0.000 
#    0.000    0.000    0.000    0.000    0.000    0.000 
#
# Total GULP energy -396480.592579 kJ/mol
# GULP energy per Si atom -12390.018518 kJ/mol
# Density = 1.955594 g / cm^3
# Si number density = 19.600552 Si / 1000 Ang^3
#
#
#
# Elastic Constant Matrix: (Units=GPa)
#
#
# Indices 1 2 3 4 5 6 
#
# 1 76.4336 37.7773 24.2941 0.0000 0.0000 0.0000
# 2 37.7773 125.5850 47.4135 0.0000 0.0000 0.0000
# 3 24.2941 47.4135 99.1125 0.0001 0.0000 0.0000
# 4 0.0000 0.0000 0.0001 21.5413 0.0000 0.0000
# 5 0.0000 0.0000 0.0000 0.0000 22.0490 0.0000
# 6 0.0000 0.0000 0.0000 0.0000 0.0000 37.9109
#
#
#
# Elastic Compliance Matrix: (Units=1/GPa)
#
#
# Indices 1 2 3 4 5 6 
#
# 1 0.015666 -0.003982 -0.001935 0.000000 0.000000 0.000000
# 2 -0.003982 0.010730 -0.004157 0.000000 0.000000 0.000000
# 3 -0.001935 -0.004157 0.012552 0.000000 0.000000 0.000000
# 4 0.000000 0.000000 0.000000 0.046422 0.000000 0.000000
# 5 0.000000 0.000000 0.000000 0.000000 0.045354 0.000000
# 6 0.000000 0.000000 0.000000 0.000000 0.000000 0.026378
#
#
# Mechanical properties :
#
#
# Convention : Reuss Voigt Hill
#
# Bulk Modulus (GPa) = 53.18977 57.78899 55.48938
# Shear Modulus (GPa) = 27.24533 29.07666 28.16100
#
# Velocity S-wave (km/s) = 3.73235 3.85575 3.79455
# Velocity P-wave (km/s) = 6.76533 7.02636 6.89708
#
# Compressibility (1/GPa) = 0.01880061
#
# Stress axis : x y z
#
# Youngs Moduli (GPa) = 63.83068 93.19671 79.66547
#
# Poissons Ratio (x) = 0.37111 0.15417
# Poissons Ratio (y) = 0.25418 0.33117
# Poissons Ratio (z) = 0.12352 0.38741
#
# Static dielectric constant tensor:
#      x y z
#    x 3.884860 0.000000 0.000000 
#    y 0.000000 4.093070 0.000000 
#    z 0.000000 0.000000 3.134040 
# 
# 
# High freq. dielectric constant tensor:
#      x y z
#    x 1.785280 0.000000 0.000000 
#    y 0.000000 1.787730 0.000000 
#    z 0.000000 0.000000 1.707060 
# 
# From -- ./inp_files/5854.got.cif
#   From: 2010.03.12/outbox.cif.g09.slc.cpg/sg45_3_cif.got.tgz:5854.got - 2010.04.14 02:50:11.
