data_PCOD8190896
_publ_section_title
;
Structure prediction by ZEFSAII (Michael W. Deem and Ramdas Pophale) SiO2 
 PCOD8190896
Probable space group: I B A 2
;
_chemical_formula_sum "Si O2"
_cell_formula_units_Z 48
_cell_length_a 11.382150
_cell_length_b 16.306619
_cell_length_c 11.582490
_cell_angle_alpha 90.000000
_cell_angle_beta 90.000000
_cell_angle_gamma 90.000000
_cell_volume 2149.760915
_symmetry_space_group_name_H-M "I B A 2"
_symmetry_group_IT_number 45
_symmetry_cell_setting 'orthorhombic'
loop_
_space_group_symop_operation_xyz
x,y,z
-x,-y,z
-x,y,1/2+z
x,-y,1/2+z
1/2+x,1/2+y,1/2+z
1/2-x,1/2-y,1/2+z
1/2-x,1/2+y,z
1/2+x,1/2-y,z
loop_
_atom_site_type_symbol
_atom_site_label
_atom_site_fract_x
_atom_site_fract_y
_atom_site_fract_z
Si Si1 0.815714 0.092848 0.500000
Si Si2 0.237618 0.414307 0.056368
Si Si3 0.710454 0.684327 0.738331
Si Si4 0.333109 0.863902 0.287870
Si Si5 0.935264 0.668702 0.891832
Si Si6 0.553498 0.659888 0.943244
O O1 0.783159 0.138106 0.617885
O O2 0.752777 0.141312 0.396902
O O3 0.954440 0.093616 0.474409
O O4 0.774099 0.999707 0.499533
O O5 0.211858 0.428852 0.192384
O O6 0.118535 0.383155 0.996430
O O7 0.343299 0.348211 0.039437
O O8 0.666265 0.776976 0.720853
O O9 0.838290 0.687905 0.795881
O O10 0.614951 0.639016 0.820498
O O11 0.463754 0.885928 0.331109
O O12 0.996399 0.749905 0.944671
#
# Coordination Sequence:
#
# PCOD8190896 Si02
#       6
#     8   8   8   8   8   8
#     4  12  26  46  71 110 146 185 240 304 369 422
#     4  11  27  45  72 107 148 185 242 303 370 422
#     4  10  24  45  74 104 139 187 248 294 351 434
#     4  11  26  43  74 101 142 191 240 294 363 432
#     4  10  23  48  72 102 139 190 244 293 356 438
#     4  10  23  47  74 101 140 191 242 301 353 425
#
# _framework density 22.328064000000001
#
# number of rings (size 3 to 8) (size 9 to 14) (size 15 to 20)
#    0.000    1.333    1.667    1.500   14.000    0.667 
#    0.000    0.000    0.000    0.000    0.000    0.000 
#    0.000    0.000    0.000    0.000    0.000    0.000 
#
# Total GULP energy -297652.996455 kJ/mol
# GULP energy per Si atom -12402.208186 kJ/mol
# Density = 2.227724 g / cm^3
# Si number density = 22.328064 Si / 1000 Ang^3
#
#
#
# Elastic Constant Matrix: (Units=GPa)
#
#
# Indices 1 2 3 4 5 6 
#
# 1 156.3171 38.8600 67.3596 0.0001 0.0000 0.0000
# 2 38.8600 85.6050 47.3448 -0.0002 0.0001 0.0000
# 3 67.3596 47.3448 140.7936 -0.0004 0.0001 -0.0001
# 4 0.0001 -0.0002 -0.0004 31.3489 0.0001 -0.0001
# 5 0.0000 0.0001 0.0001 0.0001 32.9474 0.0000
# 6 0.0000 0.0000 -0.0001 -0.0001 0.0000 29.9717
#
#
#
# Elastic Compliance Matrix: (Units=1/GPa)
#
#
# Indices 1 2 3 4 5 6 
#
# 1 0.008311 -0.001933 -0.003326 0.000000 0.000000 0.000000
# 2 -0.001933 0.014800 -0.004052 0.000000 0.000000 0.000000
# 3 -0.003326 -0.004052 0.010056 0.000000 0.000000 0.000000
# 4 0.000000 0.000000 0.000000 0.031899 0.000000 0.000000
# 5 0.000000 0.000000 0.000000 0.000000 0.030351 0.000000
# 6 0.000000 0.000000 0.000000 0.000000 0.000000 0.033365
#
#
# Mechanical properties :
#
#
# Convention : Reuss Voigt Hill
#
# Bulk Modulus (GPa) = 68.75201 76.64939 72.70070
# Shear Modulus (GPa) = 32.83984 34.13036 33.48510
#
# Velocity S-wave (km/s) = 3.83925 3.91395 3.87678
# Velocity P-wave (km/s) = 7.10716 7.40464 7.25742
#
# Compressibility (1/GPa) = 0.01454503
#
# Stress axis : x y z
#
# Youngs Moduli (GPa) = 120.32015 67.56712 99.43827
#
# Poissons Ratio (x) = 0.13062 0.33075
# Poissons Ratio (y) = 0.23261 0.40292
# Poissons Ratio (z) = 0.40021 0.27378
#
# Static dielectric constant tensor:
#      x y z
#    x 4.355500 0.000000 0.000000 
#    y 0.000000 3.756920 0.000000 
#    z 0.000000 0.000000 4.015280 
# 
# 
# High freq. dielectric constant tensor:
#      x y z
#    x 1.897900 0.000000 0.000000 
#    y 0.000000 1.861810 0.000000 
#    z 0.000000 0.000000 1.882990 
# 
# From -- ./inp_files/3670.got.cif
#   From: 2010.03.12/outbox.cif.g09.slc.cpg/sg45_2_cif.got.tgz:3670.got - 2010.04.14 02:50:11.
