data_PCOD8190875
_publ_section_title
;
Structure prediction by ZEFSAII (Michael W. Deem and Ramdas Pophale) SiO2 
 PCOD8190875
Probable space group: I B A 2
;
_chemical_formula_sum "Si O2"
_cell_formula_units_Z 36
_cell_length_a 5.168808
_cell_length_b 13.425996
_cell_length_c 22.851948
_cell_angle_alpha 90.000000
_cell_angle_beta 90.000000
_cell_angle_gamma 90.000000
_cell_volume 1585.842822
_symmetry_space_group_name_H-M "I B A 2"
_symmetry_group_IT_number 45
_symmetry_cell_setting 'orthorhombic'
loop_
_space_group_symop_operation_xyz
x,y,z
-x,-y,z
-x,y,1/2+z
x,-y,1/2+z
1/2+x,1/2+y,1/2+z
1/2-x,1/2-y,1/2+z
1/2-x,1/2+y,z
1/2+x,1/2-y,z
loop_
_atom_site_type_symbol
_atom_site_label
_atom_site_fract_x
_atom_site_fract_y
_atom_site_fract_z
Si Si1 0.500000 0.000000 0.108210
Si Si2 0.251949 0.436054 0.930445
Si Si3 0.774654 0.690617 0.822088
Si Si4 0.258612 0.057776 0.220300
Si Si5 0.300621 0.186126 0.539358
O O1 0.307726 0.065483 0.150187
O O2 0.667291 0.078187 0.070632
O O3 0.500000 0.500000 0.949995
O O4 0.280974 0.404325 0.863001
O O5 0.000000 0.500000 0.941472
O O6 0.222891 0.336940 0.970293
O O7 0.564055 0.774448 0.836373
O O8 0.742676 0.663472 0.753260
O O9 0.500000 0.000000 0.249958
O O10 0.000000 0.000000 0.234314
O O11 0.536331 0.258396 0.557249
#
# Coordination Sequence:
#
# PCOD8190875 Si02
#       5
#     4   8   8   8   8
#     4  10  28  46  72  98 148 186 242 294 352 414
#     4  12  24  44  73  98 140 187 226 288 363 424
#     4  12  24  41  67 104 140 172 232 292 345 425
#     4  10  23  43  66  91 134 181 233 270 350 411
#     4  12  27  45  72 106 139 184 241 294 354 420
#
# _framework density 22.700863999999999
#
# number of rings (size 3 to 8) (size 9 to 14) (size 15 to 20)
#    0.667    0.000    1.111    6.667    3.111    1.778 
#    0.000    0.000    0.000    0.000    0.000    0.000 
#    0.000    0.000    0.000    0.000    0.000    0.000 
#
# Total GULP energy -223160.985390 kJ/mol
# GULP energy per Si atom -12397.832522 kJ/mol
# Density = 2.264920 g / cm^3
# Si number density = 22.700864 Si / 1000 Ang^3
#
#
#
# Elastic Constant Matrix: (Units=GPa)
#
#
# Indices 1 2 3 4 5 6 
#
# 1 164.2475 39.1125 24.8290 0.0000 0.0000 0.0000
# 2 39.1125 81.0618 37.5956 0.0000 0.0000 0.0000
# 3 24.8290 37.5956 100.4868 0.0000 0.0000 0.0000
# 4 0.0000 0.0000 0.0000 50.6263 0.0000 0.0000
# 5 0.0000 0.0000 0.0000 0.0000 40.2853 0.0000
# 6 0.0000 0.0000 0.0000 0.0000 0.0000 34.9164
#
#
#
# Elastic Compliance Matrix: (Units=1/GPa)
#
#
# Indices 1 2 3 4 5 6 
#
# 1 0.006904 -0.003073 -0.000556 0.000000 0.000000 0.000000
# 2 -0.003073 0.016294 -0.005337 0.000000 0.000000 0.000000
# 3 -0.000556 -0.005337 0.012086 0.000000 0.000000 0.000000
# 4 0.000000 0.000000 0.000000 0.019753 0.000000 0.000000
# 5 0.000000 0.000000 0.000000 0.000000 0.024823 0.000000
# 6 0.000000 0.000000 0.000000 0.000000 0.000000 0.028640
#
#
# Mechanical properties :
#
#
# Convention : Reuss Voigt Hill
#
# Bulk Modulus (GPa) = 57.63171 60.98557 59.30864
# Shear Modulus (GPa) = 37.81677 41.44953 39.63315
#
# Velocity S-wave (km/s) = 4.08594 4.27769 4.18291
# Velocity P-wave (km/s) = 6.90670 7.16389 7.03647
#
# Compressibility (1/GPa) = 0.01735156
#
# Stress axis : x y z
#
# Youngs Moduli (GPa) = 144.83692 61.37078 82.74259
#
# Poissons Ratio (x) = 0.18862 0.04601
# Poissons Ratio (y) = 0.44515 0.44159
# Poissons Ratio (z) = 0.08054 0.32753
#
# Static dielectric constant tensor:
#      x y z
#    x 4.064820 0.000000 0.000000 
#    y 0.000000 3.632080 0.000000 
#    z 0.000000 0.000000 4.057660 
# 
# 
# High freq. dielectric constant tensor:
#      x y z
#    x 1.910050 0.000000 0.000000 
#    y 0.000000 1.882240 0.000000 
#    z 0.000000 0.000000 1.897300 
# 
# From -- ./inp_files/9389.got.cif
#   From: 2010.03.12/outbox.cif.g09.slc.cpg/sg45_5_cif.got.tgz:9389.got - 2010.04.14 02:50:11.
