data_PCOD8190166
_publ_section_title
;
Structure prediction by ZEFSAII (Michael W. Deem and Ramdas Pophale) SiO2 
 PCOD8190166
Probable space group: I M M 2
;
_chemical_formula_sum "Si O2"
_cell_formula_units_Z 40
_cell_length_a 8.860147
_cell_length_b 11.493231
_cell_length_c 19.871792
_cell_angle_alpha 90.000000
_cell_angle_beta 90.000000
_cell_angle_gamma 90.000000
_cell_volume 2023.578683
_symmetry_space_group_name_H-M "I M M 2"
_symmetry_group_IT_number 44
_symmetry_cell_setting 'orthorhombic'
loop_
_space_group_symop_operation_xyz
x,y,z
-x,-y,z
-x,y,z
x,-y,z
1/2+x,1/2+y,1/2+z
1/2-x,1/2-y,1/2+z
1/2-x,1/2+y,1/2+z
1/2+x,1/2-y,1/2+z
loop_
_atom_site_type_symbol
_atom_site_label
_atom_site_fract_x
_atom_site_fract_y
_atom_site_fract_z
Si Si1 0.822174 0.500000 0.516090
Si Si2 0.821671 0.500000 0.664723
Si Si3 0.176324 0.635014 0.867002
Si Si4 0.177984 0.754495 0.492676
Si Si5 0.825988 0.789885 0.238984
Si Si6 0.674339 0.867169 0.617824
O O1 0.749558 0.500000 0.590386
O O2 0.774273 0.380689 0.478504
O O3 0.000000 0.500000 0.525649
O O4 0.768500 0.612529 0.702797
O O5 0.000000 0.500000 0.663775
O O6 0.211743 0.500000 0.850691
O O7 0.234931 0.662919 0.941368
O O8 0.260654 0.720725 0.814552
O O9 0.000000 0.660397 0.863671
O O10 0.224169 0.789384 0.568356
O O11 0.000000 0.772131 0.484135
O O12 0.804003 0.672443 0.195545
O O13 0.000000 0.825816 0.243672
O O14 0.500000 0.853262 0.596291
O O15 0.727941 0.000000 0.612961
#
# Coordination Sequence:
#
# PCOD8190166 Si02
#       6
#     4   4   8   8   8   8
#     4   9  20  37  59  87 119 152 187 236 295 345
#     4  11  19  35  61  89 121 150 183 238 299 347
#     4  11  24  41  60  84 119 157 192 240 300 349
#     4  11  22  39  62  88 117 153 197 241 288 348
#     4  11  22  37  61  90 117 151 198 243 285 348
#     4  10  22  40  60  86 121 156 191 237 295 348
#
# _framework density 19.766960999999998
#
# number of rings (size 3 to 8) (size 9 to 14) (size 15 to 20)
#    0.000    1.400    3.000    2.700    0.000    4.800 
#    1.800    2.000    0.000    0.000    0.000    0.000 
#    0.000    0.000    0.000    0.000    0.000    0.000 
#
# Total GULP energy -248004.464651 kJ/mol
# GULP energy per Si atom -12400.223233 kJ/mol
# Density = 1.972197 g / cm^3
# Si number density = 19.766961 Si / 1000 Ang^3
#
#
#
# Elastic Constant Matrix: (Units=GPa)
#
#
# Indices 1 2 3 4 5 6 
#
# 1 80.8098 39.9653 34.8130 0.0000 0.0000 0.0000
# 2 39.9653 101.1418 23.2271 0.0000 0.0000 0.0000
# 3 34.8130 23.2271 98.1580 0.0000 0.0000 0.0000
# 4 0.0000 0.0000 0.0000 27.5914 0.0000 0.0000
# 5 0.0000 0.0000 0.0000 0.0000 35.9809 0.0000
# 6 0.0000 0.0000 0.0000 0.0000 0.0000 3.6876
#
#
#
# Elastic Compliance Matrix: (Units=1/GPa)
#
#
# Indices 1 2 3 4 5 6 
#
# 1 0.017260 -0.005725 -0.004767 0.000000 0.000000 0.000000
# 2 -0.005725 0.012354 -0.000893 0.000000 0.000000 0.000000
# 3 -0.004767 -0.000893 0.012089 0.000000 0.000000 0.000000
# 4 0.000000 0.000000 0.000000 0.036243 0.000000 0.000000
# 5 0.000000 0.000000 0.000000 0.000000 0.027793 0.000000
# 6 0.000000 0.000000 0.000000 0.000000 0.000000 0.271179
#
#
# Mechanical properties :
#
#
# Convention : Reuss Voigt Hill
#
# Bulk Modulus (GPa) = 52.81498 52.90225 52.85862
# Shear Modulus (GPa) = 12.31530 25.59227 18.95378
#
# Velocity S-wave (km/s) = 2.49875 3.60210 3.09991
# Velocity P-wave (km/s) = 5.92468 6.64238 6.29377
#
# Compressibility (1/GPa) = 0.01893402
#
# Stress axis : x y z
#
# Youngs Moduli (GPa) = 57.93834 80.94223 82.71668
#
# Poissons Ratio (x) = 0.46343 0.39428
# Poissons Ratio (y) = 0.33172 0.07385
# Poissons Ratio (z) = 0.27617 0.07227
#
# Static dielectric constant tensor:
#      x y z
#    x 3.553160 0.000000 0.000000 
#    y 0.000000 3.990030 0.000000 
#    z 0.000000 0.000000 3.685860 
# 
# 
# High freq. dielectric constant tensor:
#      x y z
#    x 1.770260 0.000000 0.000000 
#    y 0.000000 1.766590 0.000000 
#    z 0.000000 0.000000 1.772630 
# 
# From -- ./inp_files/22796.got.cif
#   From: 2010.03.12/outbox.cif.g09.slc.cpg/sg44_12_cif.got.tgz:22796.got - 2010.04.14 02:36:11.
