data_PCOD8190403
_publ_section_title
;
Structure prediction by ZEFSAII (Michael W. Deem and Ramdas Pophale) SiO2 
 PCOD8190403
Probable space group: I B A 2
;
_chemical_formula_sum "Si O2"
_cell_formula_units_Z 48
_cell_length_a 8.337430
_cell_length_b 15.198142
_cell_length_c 17.783557
_cell_angle_alpha 90.000000
_cell_angle_beta 90.000000
_cell_angle_gamma 90.000000
_cell_volume 2253.415773
_symmetry_space_group_name_H-M "I B A 2"
_symmetry_group_IT_number 45
_symmetry_cell_setting 'orthorhombic'
loop_
_space_group_symop_operation_xyz
x,y,z
-x,-y,z
-x,y,1/2+z
x,-y,1/2+z
1/2+x,1/2+y,1/2+z
1/2-x,1/2-y,1/2+z
1/2-x,1/2+y,z
1/2+x,1/2-y,z
loop_
_atom_site_type_symbol
_atom_site_label
_atom_site_fract_x
_atom_site_fract_y
_atom_site_fract_z
Si Si1 0.500000 0.500000 0.283480
Si Si2 0.500000 0.500000 0.530265
Si Si3 0.792443 0.846078 0.245891
Si Si4 0.292443 0.346078 0.067855
Si Si5 0.500000 0.209779 0.656873
Si Si6 0.674054 0.281402 0.406873
Si Si7 0.360021 0.619368 0.906873
O O1 0.613217 0.437958 0.233269
O O2 0.619742 0.559390 0.333578
O O3 0.613217 0.437958 0.580477
O O4 0.619742 0.559390 0.480168
O O5 0.627022 0.851815 0.199944
O O6 0.751270 0.828573 0.333226
O O7 0.906538 0.768210 0.217401
O O8 0.406538 0.268210 0.096344
O O9 0.127022 0.351815 0.113802
O O10 0.251270 0.328573 0.980520
O O11 0.485050 0.299685 0.406873
O O12 0.694546 0.174667 0.406873
#
# Coordination Sequence:
#
# PCOD8190403 Si02
#       7
#     4   4   8   8   8   8   8
#     4   9  18  33  58  88 120 150 190 246 304 342
#     4   9  18  33  58  88 120 150 190 246 304 342
#     4  10  20  37  61  88 119 158 199 245 293 351
#     4  10  20  37  61  88 119 158 199 245 293 351
#     4  10  22  37  60  89 122 162 200 234 294 364
#     4  10  18  34  62  84 108 152 204 236 281 354
#     4   9  18  32  58  89 112 148 196 249 293 337
#
# _framework density 21.300995
#
# number of rings (size 3 to 8) (size 9 to 14) (size 15 to 20)
#    0.000    2.333    0.000    5.000    0.000    0.667 
#    0.000    0.000    0.000   90.000    0.000    0.000 
#    0.000    1.333    0.000    0.000    0.000    0.000 
#
# Total GULP energy -297562.724958 kJ/mol
# GULP energy per Si atom -12398.446873 kJ/mol
# Density = 2.125251 g / cm^3
# Si number density = 21.300995 Si / 1000 Ang^3
#
#
#
# Elastic Constant Matrix: (Units=GPa)
#
#
# Indices 1 2 3 4 5 6 
#
# 1 109.4102 59.7585 59.5606 0.0000 0.0000 0.0000
# 2 59.7585 118.1598 43.5056 0.0000 0.0000 0.0000
# 3 59.5606 43.5056 117.3581 0.0000 0.0000 0.0000
# 4 0.0000 0.0000 0.0000 20.7246 0.0000 0.0000
# 5 0.0000 0.0000 0.0000 0.0000 29.6787 0.0000
# 6 0.0000 0.0000 0.0000 0.0000 0.0000 54.6207
#
#
#
# Elastic Compliance Matrix: (Units=1/GPa)
#
#
# Indices 1 2 3 4 5 6 
#
# 1 0.015321 -0.005658 -0.005678 0.000000 0.000000 0.000000
# 2 -0.005658 0.011890 -0.001536 0.000000 0.000000 0.000000
# 3 -0.005678 -0.001536 0.011972 0.000000 0.000000 0.000000
# 4 0.000000 0.000000 0.000000 0.048252 0.000000 0.000000
# 5 0.000000 0.000000 0.000000 0.000000 0.033694 0.000000
# 6 0.000000 0.000000 0.000000 0.000000 0.000000 0.018308
#
#
# Mechanical properties :
#
#
# Convention : Reuss Voigt Hill
#
# Bulk Modulus (GPa) = 74.41212 74.50861 74.46037
# Shear Modulus (GPa) = 29.47025 33.14506 31.30765
#
# Velocity S-wave (km/s) = 3.72360 3.94894 3.83792
# Velocity P-wave (km/s) = 7.31412 7.47309 7.39403
#
# Compressibility (1/GPa) = 0.01343867
#
# Stress axis : x y z
#
# Youngs Moduli (GPa) = 65.26826 84.10251 83.52627
#
# Poissons Ratio (x) = 0.47585 0.47429
# Poissons Ratio (y) = 0.36928 0.12832
# Poissons Ratio (z) = 0.37061 0.12921
#
# Static dielectric constant tensor:
#      x y z
#    x 3.750540 0.000000 0.000000 
#    y 0.000000 3.814660 0.000000 
#    z 0.000000 0.000000 3.925310 
# 
# 
# High freq. dielectric constant tensor:
#      x y z
#    x 1.816860 0.000000 0.000000 
#    y 0.000000 1.823000 0.000000 
#    z 0.000000 0.000000 1.844280 
# 
# From -- ./inp_files/7591.got.cif
#   From: 2010.03.12/outbox.cif.g09.slc.cpg/sg45_4_cif.got.tgz:7591.got - 2010.04.14 02:50:11.
