data_PCOD8190756
_publ_section_title
;
Structure prediction by ZEFSAII (Michael W. Deem and Ramdas Pophale) SiO2 
 PCOD8190756
Probable space group: I B A 2
;
_chemical_formula_sum "Si O2"
_cell_formula_units_Z 64
_cell_length_a 24.862596
_cell_length_b 13.106682
_cell_length_c 9.868230
_cell_angle_alpha 90.000000
_cell_angle_beta 90.000000
_cell_angle_gamma 90.000000
_cell_volume 3215.722013
_symmetry_space_group_name_H-M "I B A 2"
_symmetry_group_IT_number 45
_symmetry_cell_setting 'orthorhombic'
loop_
_space_group_symop_operation_xyz
x,y,z
-x,-y,z
-x,y,1/2+z
x,-y,1/2+z
1/2+x,1/2+y,1/2+z
1/2-x,1/2-y,1/2+z
1/2-x,1/2+y,z
1/2+x,1/2-y,z
loop_
_atom_site_type_symbol
_atom_site_label
_atom_site_fract_x
_atom_site_fract_y
_atom_site_fract_z
Si Si1 0.845106 0.403736 0.049260
Si Si2 0.767391 0.826580 0.060644
Si Si3 0.620471 0.683555 0.941394
Si Si4 0.154267 0.581327 0.357315
Si Si5 0.122243 0.805294 0.446683
Si Si6 0.432728 0.599668 0.696783
Si Si7 0.553266 0.361466 0.194765
Si Si8 0.266797 0.653379 0.363171
O O1 0.779749 0.410650 0.045426
O O2 0.866437 0.425275 0.201957
O O3 0.864953 0.293019 0.003304
O O4 0.868989 0.488259 0.946678
O O5 0.771771 0.791752 0.217120
O O6 0.825524 0.864663 0.007238
O O7 0.751301 0.729164 0.977855
O O8 0.584357 0.702904 0.808727
O O9 0.673459 0.616222 0.903006
O O10 0.587914 0.615029 0.045391
O O11 0.134438 0.685672 0.426952
O O12 0.219644 0.569275 0.356256
O O13 0.109290 0.853191 0.301754
O O14 0.072260 0.822559 0.547581
O O15 0.436048 0.480054 0.720957
O O16 0.489720 0.657382 0.709250
#
# Coordination Sequence:
#
# PCOD8190756 Si02
#       8
#     8   8   8   8   8   8   8   8
#     4  10  22  38  60  91 126 163 202 244 293 358
#     4   9  19  35  56  87 120 157 199 239 287 348
#     4  11  21  41  63  89 126 160 200 249 305 360
#     4  10  22  38  60  91 126 163 202 244 293 358
#     4  11  21  41  63  89 126 160 200 249 305 360
#     4  11  24  42  62  91 121 153 202 260 308 363
#     4  11  24  40  66  91 115 157 206 252 312 365
#     4   9  19  35  56  87 120 157 199 239 287 348
#
# _framework density 19.902218000000001
#
# number of rings (size 3 to 8) (size 9 to 14) (size 15 to 20)
#    0.000    1.750    2.500    1.500    3.500    5.000 
#    0.000    0.000    0.000    4.500    0.000    0.000 
#    0.000    0.000    0.000    0.000    0.000    0.000 
#
# Total GULP energy -396653.144423 kJ/mol
# GULP energy per Si atom -12395.410763 kJ/mol
# Density = 1.985692 g / cm^3
# Si number density = 19.902218 Si / 1000 Ang^3
#
#
#
# Elastic Constant Matrix: (Units=GPa)
#
#
# Indices 1 2 3 4 5 6 
#
# 1 86.9955 12.3652 24.0756 0.0000 0.0000 0.0000
# 2 12.3652 54.3085 21.2752 0.0000 0.0000 0.0000
# 3 24.0756 21.2752 103.9471 0.0000 0.0000 0.0000
# 4 0.0000 0.0000 0.0000 33.2860 0.0000 0.0000
# 5 0.0000 0.0000 0.0000 0.0000 35.2050 0.0000
# 6 0.0000 0.0000 0.0000 0.0000 0.0000 17.6675
#
#
#
# Elastic Compliance Matrix: (Units=1/GPa)
#
#
# Indices 1 2 3 4 5 6 
#
# 1 0.012451 -0.001854 -0.002504 0.000000 0.000000 0.000000
# 2 -0.001854 0.020294 -0.003724 0.000000 0.000000 0.000000
# 3 -0.002504 -0.003724 0.010963 0.000000 0.000000 0.000000
# 4 0.000000 0.000000 0.000000 0.030043 0.000000 0.000000
# 5 0.000000 0.000000 0.000000 0.000000 0.028405 0.000000
# 6 0.000000 0.000000 0.000000 0.000000 0.000000 0.056601
#
#
# Mechanical properties :
#
#
# Convention : Reuss Voigt Hill
#
# Bulk Modulus (GPa) = 36.30673 40.07588 38.19131
# Shear Modulus (GPa) = 27.15858 29.73404 28.44631
#
# Velocity S-wave (km/s) = 3.69806 3.86943 3.78471
# Velocity P-wave (km/s) = 6.04287 6.33588 6.19111
#
# Compressibility (1/GPa) = 0.02754310
#
# Stress axis : x y z
#
# Youngs Moduli (GPa) = 80.31196 49.27462 91.21907
#
# Poissons Ratio (x) = 0.09135 0.22846
# Poissons Ratio (y) = 0.14889 0.33973
# Poissons Ratio (z) = 0.20114 0.18352
#
# Static dielectric constant tensor:
#      x y z
#    x 4.003830 0.000000 0.000000 
#    y 0.000000 3.214270 0.000000 
#    z 0.000000 0.000000 3.833020 
# 
# 
# High freq. dielectric constant tensor:
#      x y z
#    x 1.770800 0.000000 0.000000 
#    y 0.000000 1.742480 0.000000 
#    z 0.000000 0.000000 1.801300 
# 
# From -- ./inp_files/1915.got.cif
#   From: 2010.03.12/outbox.cif.g09.slc.cpg/sg45_1_cif.got.tgz:1915.got - 2010.04.14 02:50:11.
