data_PCOD8190277
_publ_section_title
;
Structure prediction by ZEFSAII (Michael W. Deem and Ramdas Pophale) SiO2 
 PCOD8190277
Probable space group: I M M 2
;
_chemical_formula_sum "Si O2"
_cell_formula_units_Z 40
_cell_length_a 13.547098
_cell_length_b 8.951173
_cell_length_c 18.213945
_cell_angle_alpha 90.000000
_cell_angle_beta 90.000000
_cell_angle_gamma 90.000000
_cell_volume 2208.667009
_symmetry_space_group_name_H-M "I M M 2"
_symmetry_group_IT_number 44
_symmetry_cell_setting 'orthorhombic'
loop_
_space_group_symop_operation_xyz
x,y,z
-x,-y,z
-x,y,z
x,-y,z
1/2+x,1/2+y,1/2+z
1/2-x,1/2-y,1/2+z
1/2-x,1/2+y,1/2+z
1/2+x,1/2-y,1/2+z
loop_
_atom_site_type_symbol
_atom_site_label
_atom_site_fract_x
_atom_site_fract_y
_atom_site_fract_z
Si Si1 0.699528 0.671061 0.974260
Si Si2 0.388398 0.327151 0.130961
Si Si3 0.385972 0.174925 0.835586
Si Si4 0.205202 0.176169 0.194926
Si Si5 0.110782 0.671910 0.059419
O O1 0.687652 0.500000 0.947623
O O2 0.665061 0.783451 0.911992
O O3 0.633101 0.701986 0.045518
O O4 0.813830 0.708128 0.993461
O O5 0.500000 0.278106 0.148129
O O6 0.370342 0.500000 0.149698
O O7 0.316903 0.230457 0.181934
O O8 0.500000 0.222996 0.838081
O O9 0.331720 0.263151 0.771921
O O10 0.374006 0.000000 0.821642
O O11 0.132551 0.230162 0.130806
O O12 0.203866 0.000000 0.197307
O O13 0.124377 0.500000 0.083751
O O14 0.000000 0.704916 0.031497
#
# Coordination Sequence:
#
# PCOD8190277 Si02
#       5
#     8   8   8   8   8
#     4   9  18  33  54  80 106 133 169 212 259 311
#     4   9  18  35  58  80 105 139 174 209 254 308
#     4  11  23  37  53  74 103 139 176 216 263 311
#     4  11  22  34  52  79 108 137 173 217 261 307
#     4   9  18  35  57  78 104 139 175 212 257 309
#
# _framework density 18.110471
#
# number of rings (size 3 to 8) (size 9 to 14) (size 15 to 20)
#    0.000    2.200    0.000    4.800    0.000    8.800 
#    0.000    1.000    0.000    3.600    0.000    0.000 
#    0.000    0.000    0.000    0.000    0.000    0.000 
#
# Total GULP energy -248049.800990 kJ/mol
# GULP energy per Si atom -12402.490050 kJ/mol
# Density = 1.806925 g / cm^3
# Si number density = 18.110471 Si / 1000 Ang^3
#
#
#
# Elastic Constant Matrix: (Units=GPa)
#
#
# Indices 1 2 3 4 5 6 
#
# 1 150.4977 59.7304 62.3022 0.0000 0.0000 0.0000
# 2 59.7304 101.4559 57.9519 0.0000 0.0000 0.0000
# 3 62.3022 57.9519 94.7313 0.0000 0.0000 0.0000
# 4 0.0000 0.0000 0.0000 34.5737 0.0000 0.0000
# 5 0.0000 0.0000 0.0000 0.0000 17.6114 0.0000
# 6 0.0000 0.0000 0.0000 0.0000 0.0000 22.8917
#
#
#
# Elastic Compliance Matrix: (Units=1/GPa)
#
#
# Indices 1 2 3 4 5 6 
#
# 1 0.009761 -0.003197 -0.004464 0.000000 0.000000 0.000000
# 2 -0.003197 0.016198 -0.007806 0.000000 0.000000 0.000000
# 3 -0.004464 -0.007806 0.018268 0.000000 0.000000 0.000000
# 4 0.000000 0.000000 0.000000 0.028924 0.000000 0.000000
# 5 0.000000 0.000000 0.000000 0.000000 0.056781 0.000000
# 6 0.000000 0.000000 0.000000 0.000000 0.000000 0.043684
#
#
# Mechanical properties :
#
#
# Convention : Reuss Voigt Hill
#
# Bulk Modulus (GPa) = 75.23384 78.51710 76.87547
# Shear Modulus (GPa) = 23.92557 26.12872 25.02714
#
# Velocity S-wave (km/s) = 3.63862 3.80246 3.72145
# Velocity P-wave (km/s) = 7.69965 7.92004 7.81062
#
# Compressibility (1/GPa) = 0.01329189
#
# Stress axis : x y z
#
# Youngs Moduli (GPa) = 102.44336 61.73719 54.74161
#
# Poissons Ratio (x) = 0.19737 0.24437
# Poissons Ratio (y) = 0.32751 0.42733
# Poissons Ratio (z) = 0.45732 0.48194
#
# Static dielectric constant tensor:
#      x y z
#    x 3.668880 0.000000 0.000000 
#    y 0.000000 3.284170 0.000000 
#    z 0.000000 0.000000 3.135320 
# 
# 
# High freq. dielectric constant tensor:
#      x y z
#    x 1.714910 0.000000 0.000000 
#    y 0.000000 1.699830 0.000000 
#    z 0.000000 0.000000 1.685340 
# 
# From -- ./inp_files/15785.got.cif
#   From: 2010.03.12/outbox.cif.g09.slc.cpg/sg44_8_cif.got.tgz:15785.got - 2010.04.14 02:36:11.
