data_PCOD8190340
_publ_section_title
;
Structure prediction by ZEFSAII (Michael W. Deem and Ramdas Pophale) SiO2 
 PCOD8190340
Probable space group: I M M 2
;
_chemical_formula_sum "Si O2"
_cell_formula_units_Z 56
_cell_length_a 31.837179
_cell_length_b 9.442003
_cell_length_c 13.750562
_cell_angle_alpha 90.000000
_cell_angle_beta 90.000000
_cell_angle_gamma 90.000000
_cell_volume 4133.511611
_symmetry_space_group_name_H-M "I M M 2"
_symmetry_group_IT_number 44
_symmetry_cell_setting 'orthorhombic'
loop_
_space_group_symop_operation_xyz
x,y,z
-x,-y,z
-x,y,z
x,-y,z
1/2+x,1/2+y,1/2+z
1/2-x,1/2-y,1/2+z
1/2-x,1/2+y,1/2+z
1/2+x,1/2-y,1/2+z
loop_
_atom_site_type_symbol
_atom_site_label
_atom_site_fract_x
_atom_site_fract_y
_atom_site_fract_z
Si Si1 0.890085 0.341857 0.849370
Si Si2 0.769785 0.834632 0.344779
Si Si3 0.548921 0.665735 0.456120
Si Si4 0.312156 0.166033 0.686343
Si Si5 0.230215 0.834632 0.567461
Si Si6 0.390085 0.158143 0.562870
Si Si7 0.312156 0.833967 0.225897
O O1 0.905511 0.500000 0.820078
O O2 0.930239 0.236254 0.858907
O O3 0.856470 0.284648 0.771646
O O4 0.867857 0.348630 0.956120
O O5 0.805719 0.750160 0.286535
O O6 0.771303 0.785295 0.456120
O O7 0.724285 0.794887 0.302268
O O8 0.779249 0.000000 0.333918
O O9 0.500000 0.700171 0.456120
O O10 0.558326 0.500000 0.456120
O O11 0.569761 0.736254 0.553333
O O12 0.275715 0.205113 0.609972
O O13 0.356470 0.215352 0.640595
O O14 0.312321 0.000000 0.708986
O O15 0.194281 0.750160 0.625705
O O16 0.220751 0.000000 0.578322
O O17 0.405511 0.000000 0.592162
O O18 0.312321 0.000000 0.203254
#
# Coordination Sequence:
#
# PCOD8190340 Si02
#       7
#     8   8   8   8   8   8   8
#     4   8  15  26  41  57  76 105 133 159 192 234
#     4   9  17  27  39  54  77 106 134 168 204 234
#     4   9  17  27  39  59  85 107 127 159 199 237
#     4   9  16  27  41  56  75 102 137 170 199 230
#     4   9  17  27  39  54  77 106 134 168 204 234
#     4   8  15  26  41  57  76 105 133 159 192 234
#     4   9  16  27  41  56  75 102 137 170 199 230
#
# _framework density 13.547803
#
# number of rings (size 3 to 8) (size 9 to 14) (size 15 to 20)
#    0.857    2.429    0.000    0.857    0.000    6.286 
#    0.000    0.000    0.000    0.000    0.000    0.000 
#    0.000    1.143    0.000   12.571    0.000    9.143 
#
# Total GULP energy -346936.323174 kJ/mol
# GULP energy per Si atom -12390.582971 kJ/mol
# Density = 1.351697 g / cm^3
# Si number density = 13.547803 Si / 1000 Ang^3
#
#
#
# Elastic Constant Matrix: (Units=GPa)
#
#
# Indices 1 2 3 4 5 6 
#
# 1 91.7689 51.7105 42.3380 0.0000 0.0000 0.0000
# 2 51.7105 57.5363 38.3921 0.0000 0.0000 0.0000
# 3 42.3380 38.3921 86.2046 0.0000 0.0000 0.0000
# 4 0.0000 0.0000 0.0000 23.2938 0.0000 0.0000
# 5 0.0000 0.0000 0.0000 0.0000 20.0926 0.0000
# 6 0.0000 0.0000 0.0000 0.0000 0.0000 22.8617
#
#
#
# Elastic Compliance Matrix: (Units=1/GPa)
#
#
# Indices 1 2 3 4 5 6 
#
# 1 0.022583 -0.018348 -0.002920 0.000000 0.000000 0.000000
# 2 -0.018348 0.039636 -0.008641 0.000000 0.000000 0.000000
# 3 -0.002920 -0.008641 0.016883 0.000000 0.000000 0.000000
# 4 0.000000 0.000000 0.000000 0.042930 0.000000 0.000000
# 5 0.000000 0.000000 0.000000 0.000000 0.049770 0.000000
# 6 0.000000 0.000000 0.000000 0.000000 0.000000 0.043741
#
#
# Mechanical properties :
#
#
# Convention : Reuss Voigt Hill
#
# Bulk Modulus (GPa) = 51.85584 55.59899 53.72742
# Shear Modulus (GPa) = 17.74382 20.12091 18.93237
#
# Velocity S-wave (km/s) = 3.62293 3.85798 3.74230
# Velocity P-wave (km/s) = 7.47396 7.80856 7.64309
#
# Compressibility (1/GPa) = 0.01928423
#
# Stress axis : x y z
#
# Youngs Moduli (GPa) = 44.28161 25.22933 59.23214
#
# Poissons Ratio (x) = 0.46291 0.17294
# Poissons Ratio (y) = 0.81247 0.51184
# Poissons Ratio (z) = 0.12929 0.21801
#
# Static dielectric constant tensor:
#      x y z
#    x 2.478090 0.000000 0.000000 
#    y 0.000000 2.671680 0.000000 
#    z 0.000000 0.000000 2.580740 
# 
# 
# High freq. dielectric constant tensor:
#      x y z
#    x 1.490050 0.000000 0.000000 
#    y 0.000000 1.519550 0.000000 
#    z 0.000000 0.000000 1.492250 
# 
# From -- ./inp_files/19658.got.cif
#   From: 2010.03.12/outbox.cif.g09.slc.cpg/sg44_10_cif.got.tgz:19658.got - 2010.04.14 02:36:11.
