data_PCOD8190436
_publ_section_title
;
Structure prediction by ZEFSAII (Michael W. Deem and Ramdas Pophale) SiO2 
 PCOD8190436
Probable space group: I B A 2
;
_chemical_formula_sum "Si O2"
_cell_formula_units_Z 48
_cell_length_a 5.014911
_cell_length_b 15.656942
_cell_length_c 29.576184
_cell_angle_alpha 90.000000
_cell_angle_beta 90.000000
_cell_angle_gamma 90.000000
_cell_volume 2322.267863
_symmetry_space_group_name_H-M "I B A 2"
_symmetry_group_IT_number 45
_symmetry_cell_setting 'orthorhombic'
loop_
_space_group_symop_operation_xyz
x,y,z
-x,-y,z
-x,y,1/2+z
x,-y,1/2+z
1/2+x,1/2+y,1/2+z
1/2-x,1/2-y,1/2+z
1/2-x,1/2+y,z
1/2+x,1/2-y,z
loop_
_atom_site_type_symbol
_atom_site_label
_atom_site_fract_x
_atom_site_fract_y
_atom_site_fract_z
Si Si1 0.245748 0.056845 0.291940
Si Si2 0.537292 0.100559 0.149161
Si Si3 0.460473 0.599605 0.198222
Si Si4 0.825626 0.692621 0.060559
Si Si5 0.804349 0.691501 0.867554
Si Si6 0.423023 0.804404 0.963727
O O1 0.133210 0.112672 0.249925
O O2 0.351276 0.118974 0.330653
O O3 0.500000 0.000000 0.276026
O O4 0.000000 0.000000 0.310469
O O5 0.257124 0.141891 0.164509
O O6 0.616525 0.121958 0.098094
O O7 0.754655 0.139729 0.184621
O O8 0.500000 0.000000 0.153670
O O9 0.500000 0.500000 0.188504
O O10 0.526317 0.727424 0.065407
O O11 0.860258 0.647036 0.011036
O O12 0.511405 0.730790 0.861793
O O13 0.847218 0.646529 0.917089
O O14 0.735236 0.780560 0.963252
#
# Coordination Sequence:
#
# PCOD8190436 Si02
#       6
#     8   8   8   8   8   8
#     4  11  21  36  57  80 105 140 180 219 261 314
#     4  10  19  33  52  73  98 132 171 208 246 298
#     4   9  18  33  52  71  98 137 171 197 248 317
#     4  10  19  33  52  76 102 133 170 210 253 303
#     4  10  20  36  56  80 107 139 176 218 264 315
#     4   8  16  31  52  72  99 137 170 198 251 321
#
# _framework density 20.669449
#
# number of rings (size 3 to 8) (size 9 to 14) (size 15 to 20)
#    0.000    2.333    0.000    4.500    0.000    0.000 
#    0.000    5.833    0.000    3.000    0.000    0.000 
#    0.000    0.000    0.000    0.000    0.000    0.000 
#
# Total GULP energy -297350.958338 kJ/mol
# GULP energy per Si atom -12389.623264 kJ/mol
# Density = 2.062240 g / cm^3
# Si number density = 20.669449 Si / 1000 Ang^3
#
#
#
# Elastic Constant Matrix: (Units=GPa)
#
#
# Indices 1 2 3 4 5 6 
#
# 1 104.9195 11.4939 36.2291 0.0000 0.0000 0.0000
# 2 11.4939 17.6310 30.9213 0.0000 0.0000 0.0000
# 3 36.2291 30.9213 180.1207 0.0000 0.0000 0.0000
# 4 0.0000 0.0000 0.0000 28.9687 0.0000 0.0000
# 5 0.0000 0.0000 0.0000 0.0000 34.4359 0.0000
# 6 0.0000 0.0000 0.0000 0.0000 0.0000 18.6428
#
#
#
# Elastic Compliance Matrix: (Units=1/GPa)
#
#
# Indices 1 2 3 4 5 6 
#
# 1 0.010485 -0.004488 -0.001339 0.000000 0.000000 0.000000
# 2 -0.004488 0.083071 -0.013358 0.000000 0.000000 0.000000
# 3 -0.001339 -0.013358 0.008114 0.000000 0.000000 0.000000
# 4 0.000000 0.000000 0.000000 0.034520 0.000000 0.000000
# 5 0.000000 0.000000 0.000000 0.000000 0.029039 0.000000
# 6 0.000000 0.000000 0.000000 0.000000 0.000000 0.053640
#
#
# Mechanical properties :
#
#
# Convention : Reuss Voigt Hill
#
# Bulk Modulus (GPa) = 15.79737 51.10665 33.45201
# Shear Modulus (GPa) = 17.96366 31.34461 24.65414
#
# Velocity S-wave (km/s) = 2.95124 3.89841 3.45741
# Velocity P-wave (km/s) = 4.39005 6.71140 5.67078
#
# Compressibility (1/GPa) = 0.06330168
#
# Stress axis : x y z
#
# Youngs Moduli (GPa) = 95.37487 12.03782 123.23978
#
# Poissons Ratio (x) = 0.05402 0.16496
# Poissons Ratio (y) = 0.42802 1.64626
# Poissons Ratio (z) = 0.12766 0.16080
#
# Static dielectric constant tensor:
#      x y z
#    x 4.269190 0.000000 0.000000 
#    y 0.000000 2.966800 0.000000 
#    z 0.000000 0.000000 4.073340 
# 
# 
# High freq. dielectric constant tensor:
#      x y z
#    x 1.841200 0.000000 0.000000 
#    y 0.000000 1.725060 0.000000 
#    z 0.000000 0.000000 1.828720 
# 
# From -- ./inp_files/9426.got.cif
#   From: 2010.03.12/outbox.cif.g09.slc.cpg/sg45_5_cif.got.tgz:9426.got - 2010.04.14 02:50:11.
