data_PCOD8190770
_publ_section_title
;
Structure prediction by ZEFSAII (Michael W. Deem and Ramdas Pophale) SiO2 
 PCOD8190770
Probable space group: I B A 2
;
_chemical_formula_sum "Si O2"
_cell_formula_units_Z 52
_cell_length_a 8.422653
_cell_length_b 24.113799
_cell_length_c 12.136518
_cell_angle_alpha 90.000000
_cell_angle_beta 90.000000
_cell_angle_gamma 90.000000
_cell_volume 2464.953039
_symmetry_space_group_name_H-M "I B A 2"
_symmetry_group_IT_number 45
_symmetry_cell_setting 'orthorhombic'
loop_
_space_group_symop_operation_xyz
x,y,z
-x,-y,z
-x,y,1/2+z
x,-y,1/2+z
1/2+x,1/2+y,1/2+z
1/2-x,1/2-y,1/2+z
1/2-x,1/2+y,z
1/2+x,1/2-y,z
loop_
_atom_site_type_symbol
_atom_site_label
_atom_site_fract_x
_atom_site_fract_y
_atom_site_fract_z
Si Si1 0.780806 0.507047 0.932970
Si Si2 0.238268 0.068720 0.649153
Si Si3 0.000000 0.000000 0.790914
Si Si4 0.920463 0.235649 0.725383
Si Si5 0.350581 0.196065 0.362000
Si Si6 0.799886 0.809836 0.592211
Si Si7 0.962839 0.416675 0.843518
O O1 0.619218 0.527670 0.877539
O O2 0.819942 0.440423 0.923642
O O3 0.900873 0.538344 0.852664
O O4 0.791185 0.523135 0.060314
O O5 0.088370 0.045931 0.717469
O O6 0.185685 0.124003 0.586823
O O7 0.392318 0.084088 0.720831
O O8 0.790077 0.190661 0.769461
O O9 0.827327 0.290011 0.683012
O O10 0.033997 0.253666 0.826525
O O11 0.024346 0.211756 0.624229
O O12 0.260590 0.212281 0.474450
O O13 0.462094 0.142190 0.377385
#
# Coordination Sequence:
#
# PCOD8190770 Si02
#       7
#     8   8   4   8   8   8   8
#     4  10  22  41  63  90 128 164 213 263 320 382
#     4  11  22  41  65  92 130 169 215 261 322 385
#     4  10  24  40  62  94 130 160 216 266 320 380
#     4  10  24  40  66  95 129 165 213 268 322 386
#     4  11  21  43  66  94 133 163 214 270 318 392
#     4  11  22  40  66  93 126 169 213 257 330 380
#     4  10  22  39  64  92 123 170 210 261 319 382
#
# _framework density 21.095737
#
# number of rings (size 3 to 8) (size 9 to 14) (size 15 to 20)
#    0.000    1.538    3.077    1.385    2.154    4.923 
#    0.000    0.000   16.923    0.000    0.000    0.000 
#    0.000    0.000    0.000    0.000    0.000    0.000 
#
# Total GULP energy -322107.697254 kJ/mol
# GULP energy per Si atom -12388.757587 kJ/mol
# Density = 2.104772 g / cm^3
# Si number density = 21.095737 Si / 1000 Ang^3
#
#
#
# Elastic Constant Matrix: (Units=GPa)
#
#
# Indices 1 2 3 4 5 6 
#
# 1 122.1546 33.6014 45.8338 0.0002 -0.0004 -0.0001
# 2 33.6014 81.9662 36.6920 0.0003 -0.0014 -0.0001
# 3 45.8338 36.6920 99.2993 0.0012 -0.0020 -0.0002
# 4 0.0002 0.0003 0.0012 28.5107 -0.0014 -0.0001
# 5 -0.0004 -0.0014 -0.0020 -0.0014 88.7158 0.0004
# 6 -0.0001 -0.0001 -0.0002 -0.0001 0.0004 29.7304
#
#
#
# Elastic Compliance Matrix: (Units=1/GPa)
#
#
# Indices 1 2 3 4 5 6 
#
# 1 0.010316 -0.002513 -0.003833 0.000000 0.000000 0.000000
# 2 -0.002513 0.015230 -0.004468 0.000000 0.000000 0.000000
# 3 -0.003833 -0.004468 0.013491 0.000000 0.000000 0.000000
# 4 0.000000 0.000000 0.000000 0.035075 0.000001 0.000000
# 5 0.000000 0.000000 0.000000 0.000001 0.011272 0.000000
# 6 0.000000 0.000000 0.000000 0.000000 0.000000 0.033636
#
#
# Mechanical properties :
#
#
# Convention : Reuss Voigt Hill
#
# Bulk Modulus (GPa) = 57.44075 59.51941 58.48008
# Shear Modulus (GPa) = 34.14150 41.87759 38.00955
#
# Velocity S-wave (km/s) = 4.02731 4.46030 4.24932
# Velocity P-wave (km/s) = 6.99381 7.40277 7.20119
#
# Compressibility (1/GPa) = 0.01740924
#
# Stress axis : x y z
#
# Youngs Moduli (GPa) = 96.93902 65.65825 74.12575
#
# Poissons Ratio (x) = 0.16501 0.28411
# Poissons Ratio (y) = 0.24362 0.33118
# Poissons Ratio (z) = 0.37155 0.29335
#
# Static dielectric constant tensor:
#      x y z
#    x 3.767080 0.000000 0.000000 
#    y 0.000000 3.851110 0.000000 
#    z 0.000000 0.000000 3.724670 
# 
# 
# High freq. dielectric constant tensor:
#      x y z
#    x 1.844380 0.000000 0.000000 
#    y 0.000000 1.807620 0.000000 
#    z 0.000000 0.000000 1.823210 
# 
# From -- ./inp_files/3318.got.cif
#   From: 2010.03.12/outbox.cif.g09.slc.cpg/sg45_2_cif.got.tgz:3318.got - 2010.04.14 02:50:11.
