data_PCOD8190825
_publ_section_title
;
Structure prediction by ZEFSAII (Michael W. Deem and Ramdas Pophale) SiO2 
 PCOD8190825
Probable space group: I B A 2
;
_chemical_formula_sum "Si O2"
_cell_formula_units_Z 56
_cell_length_a 14.040825
_cell_length_b 12.523937
_cell_length_c 13.614061
_cell_angle_alpha 90.000000
_cell_angle_beta 90.000000
_cell_angle_gamma 90.000000
_cell_volume 2393.983721
_symmetry_space_group_name_H-M "I B A 2"
_symmetry_group_IT_number 45
_symmetry_cell_setting 'orthorhombic'
loop_
_space_group_symop_operation_xyz
x,y,z
-x,-y,z
-x,y,1/2+z
x,-y,1/2+z
1/2+x,1/2+y,1/2+z
1/2-x,1/2-y,1/2+z
1/2-x,1/2+y,z
1/2+x,1/2-y,z
loop_
_atom_site_type_symbol
_atom_site_label
_atom_site_fract_x
_atom_site_fract_y
_atom_site_fract_z
Si Si1 0.000000 0.000000 0.728420
Si Si2 0.863751 0.606687 0.792241
Si Si3 0.500000 0.000000 0.649318
Si Si4 0.684965 0.514939 0.356562
Si Si5 0.872326 0.831581 0.130549
Si Si6 0.771637 0.193761 0.230082
Si Si7 0.273435 0.472570 0.066225
Si Si8 0.588064 0.858598 0.504946
O O1 0.912230 0.973641 0.797626
O O2 0.967133 0.102530 0.662439
O O3 0.755094 0.578280 0.819860
O O4 0.856096 0.720596 0.739350
O O5 0.930441 0.624886 0.889205
O O6 0.908811 0.517703 0.720459
O O7 0.495528 0.104238 0.578696
O O8 0.739280 0.626988 0.332225
O O9 0.660084 0.489249 0.469672
O O10 0.833627 0.743395 0.208424
O O11 0.890148 0.765762 0.028927
O O12 0.782689 0.912881 0.119657
O O13 0.809346 0.118409 0.140685
O O14 0.168200 0.446557 0.031703
#
# Coordination Sequence:
#
# PCOD8190825 Si02
#       8
#     4   8   4   8   8   8   8   8
#     4  12  24  42  70 102 144 182 242 292 368 434
#     4  11  23  44  69 100 140 188 240 297 364 434
#     4  12  24  42  72  98 142 186 238 304 360 428
#     4  11  24  44  68 101 141 187 234 300 355 429
#     4  11  22  42  68  99 141 185 233 294 356 426
#     4  11  20  42  71  97 134 190 231 289 363 422
#     4  10  22  43  69  94 136 182 235 292 349 426
#     4  10  24  41  68 104 136 182 245 292 355 441
#
# _framework density 23.391971000000002
#
# number of rings (size 3 to 8) (size 9 to 14) (size 15 to 20)
#    0.000    1.143    2.857    3.857    2.000    0.571 
#    0.000    1.429    0.000    0.000    0.000    0.000 
#    0.000    0.000    0.000    0.000    0.000    0.000 
#
# Total GULP energy -346893.756057 kJ/mol
# GULP energy per Si atom -12389.062716 kJ/mol
# Density = 2.333873 g / cm^3
# Si number density = 23.391971 Si / 1000 Ang^3
#
#
#
# Elastic Constant Matrix: (Units=GPa)
#
#
# Indices 1 2 3 4 5 6 
#
# 1 67.4710 26.9584 30.7469 0.0000 0.0000 0.0000
# 2 26.9584 139.3279 59.5823 0.0000 0.0000 0.0000
# 3 30.7469 59.5823 148.3902 0.0000 0.0000 0.0000
# 4 0.0000 0.0000 0.0000 33.1139 0.0000 0.0000
# 5 0.0000 0.0000 0.0000 0.0000 28.6140 0.0000
# 6 0.0000 0.0000 0.0000 0.0000 0.0000 37.4116
#
#
#
# Elastic Compliance Matrix: (Units=1/GPa)
#
#
# Indices 1 2 3 4 5 6 
#
# 1 0.016878 -0.002137 -0.002639 0.000000 0.000000 0.000000
# 2 -0.002137 0.008936 -0.003145 0.000000 0.000000 0.000000
# 3 -0.002639 -0.003145 0.008549 0.000000 0.000000 0.000000
# 4 0.000000 0.000000 0.000000 0.030199 0.000000 0.000000
# 5 0.000000 0.000000 0.000000 0.000000 0.034948 0.000000
# 6 0.000000 0.000000 0.000000 0.000000 0.000000 0.026730
#
#
# Mechanical properties :
#
#
# Convention : Reuss Voigt Hill
#
# Bulk Modulus (GPa) = 53.99668 65.52938 59.76303
# Shear Modulus (GPa) = 33.72585 35.68800 34.70692
#
# Velocity S-wave (km/s) = 3.80118 3.91020 3.85608
# Velocity P-wave (km/s) = 6.51144 6.96137 6.74016
#
# Compressibility (1/GPa) = 0.01851966
#
# Stress axis : x y z
#
# Youngs Moduli (GPa) = 59.24984 111.90928 116.97758
#
# Poissons Ratio (x) = 0.23916 0.30870
# Poissons Ratio (y) = 0.12662 0.36791
# Poissons Ratio (z) = 0.15636 0.35197
#
# Static dielectric constant tensor:
#      x y z
#    x 3.889420 0.000000 0.000000 
#    y 0.000000 4.369530 0.000000 
#    z 0.000000 0.000000 4.682370 
# 
# 
# High freq. dielectric constant tensor:
#      x y z
#    x 1.892580 0.000000 0.000000 
#    y 0.000000 1.934680 0.000000 
#    z 0.000000 0.000000 1.935730 
# 
# From -- ./inp_files/6542.got.cif
#   From: 2010.03.12/outbox.cif.g09.slc.cpg/sg45_4_cif.got.tgz:6542.got - 2010.04.14 02:50:11.
