data_PCOD8190069
_publ_section_title
;
Structure prediction by ZEFSAII (Michael W. Deem and Ramdas Pophale) SiO2 
 PCOD8190069
Probable space group: I M M 2
;
_chemical_formula_sum "Si O2"
_cell_formula_units_Z 48
_cell_length_a 8.476205
_cell_length_b 23.298244
_cell_length_c 11.591852
_cell_angle_alpha 90.000000
_cell_angle_beta 90.000000
_cell_angle_gamma 90.000000
_cell_volume 2289.166958
_symmetry_space_group_name_H-M "I M M 2"
_symmetry_group_IT_number 44
_symmetry_cell_setting 'orthorhombic'
loop_
_space_group_symop_operation_xyz
x,y,z
-x,-y,z
-x,y,z
x,-y,z
1/2+x,1/2+y,1/2+z
1/2-x,1/2-y,1/2+z
1/2-x,1/2+y,1/2+z
1/2+x,1/2-y,1/2+z
loop_
_atom_site_type_symbol
_atom_site_label
_atom_site_fract_x
_atom_site_fract_y
_atom_site_fract_z
Si Si1 0.187583 0.862448 0.456000
Si Si2 0.679428 0.657100 0.584403
Si Si3 0.312703 0.566384 0.178800
Si Si4 0.818616 0.938487 0.251560
Si Si5 0.681915 0.156353 0.841991
Si Si6 0.316990 0.225168 0.295473
O O1 0.245954 0.891819 0.574676
O O2 0.258090 0.902611 0.355040
O O3 0.260703 0.800036 0.421467
O O4 0.000000 0.855670 0.455478
O O5 0.500000 0.670075 0.543971
O O6 0.697018 0.592098 0.628818
O O7 0.798874 0.661333 0.479124
O O8 0.720333 0.698706 0.689743
O O9 0.500000 0.565761 0.184478
O O10 0.252770 0.500000 0.165081
O O11 0.243496 0.594843 0.294949
O O12 0.000000 0.946434 0.285875
O O13 0.733423 0.000000 0.242615
O O14 0.500000 0.164385 0.809968
O O15 0.784657 0.207162 0.786563
O O16 0.500000 0.212893 0.277512
#
# Coordination Sequence:
#
# PCOD8190069 Si02
#       6
#     8   8   8   8   8   8
#     4   9  18  35  61  92 124 158 203 255 306 362
#     4  10  21  39  61  88 119 153 201 254 309 372
#     4  10  22  41  65  93 127 169 215 259 310 376
#     4   8  14  28  55  88 117 148 188 238 293 350
#     4  12  26  42  61  86 122 166 209 258 314 374
#     4  11  23  40  63  90 122 159 204 257 318 379
#
# _framework density 20.968326000000001
#
# number of rings (size 3 to 8) (size 9 to 14) (size 15 to 20)
#    0.000    2.000    0.000    5.000    2.333    3.667 
#    0.000    1.667    0.000   16.000    0.000    0.000 
#    0.000    0.000    0.000    0.000    0.000    0.000 
#
# Total GULP energy -297479.925195 kJ/mol
# GULP energy per Si atom -12394.996883 kJ/mol
# Density = 2.092060 g / cm^3
# Si number density = 20.968326 Si / 1000 Ang^3
#
#
#
# Elastic Constant Matrix: (Units=GPa)
#
#
# Indices 1 2 3 4 5 6 
#
# 1 60.7415 24.9220 13.6625 0.0001 0.0000 0.0000
# 2 24.9220 108.6865 27.7928 0.0005 -0.0002 -0.0001
# 3 13.6625 27.7928 87.7646 0.0024 -0.0006 -0.0004
# 4 0.0001 0.0005 0.0024 22.6223 -0.0002 -0.0002
# 5 0.0000 -0.0002 -0.0006 -0.0002 29.2989 0.0002
# 6 0.0000 -0.0001 -0.0004 -0.0002 0.0002 23.2448
#
#
#
# Elastic Compliance Matrix: (Units=1/GPa)
#
#
# Indices 1 2 3 4 5 6 
#
# 1 0.018393 -0.003793 -0.001662 0.000000 0.000000 0.000000
# 2 -0.003793 0.010793 -0.002828 0.000000 0.000000 0.000000
# 3 -0.001662 -0.002828 0.012548 -0.000001 0.000000 0.000000
# 4 0.000000 0.000000 -0.000001 0.044204 0.000000 0.000000
# 5 0.000000 0.000000 0.000000 0.000000 0.034131 0.000000
# 6 0.000000 0.000000 0.000000 0.000000 0.000000 0.043020
#
#
# Mechanical properties :
#
#
# Convention : Reuss Voigt Hill
#
# Bulk Modulus (GPa) = 39.72973 43.32746 41.52859
# Shear Modulus (GPa) = 26.58934 27.75423 27.17178
#
# Velocity S-wave (km/s) = 3.56486 3.64211 3.60370
# Velocity P-wave (km/s) = 5.99441 6.19635 6.09622
#
# Compressibility (1/GPa) = 0.02517007
#
# Stress axis : x y z
#
# Youngs Moduli (GPa) = 54.36805 92.64855 79.69188
#
# Poissons Ratio (x) = 0.35137 0.13247
# Poissons Ratio (y) = 0.20619 0.22534
# Poissons Ratio (z) = 0.09038 0.26198
#
# Static dielectric constant tensor:
#      x y z
#    x 3.440640 0.000000 0.000000 
#    y 0.000000 4.168430 0.000000 
#    z 0.000000 0.000000 3.731660 
# 
# 
# High freq. dielectric constant tensor:
#      x y z
#    x 1.796140 0.000000 0.000000 
#    y 0.000000 1.830910 0.000000 
#    z 0.000000 0.000000 1.816600 
# 
# From -- ./inp_files/11158.got.cif
#   From: 2010.03.12/outbox.cif.g09.slc.cpg/sg44_6_cif.got.tgz:11158.got - 2010.04.14 02:36:11.
