data_PCOD8190609
_publ_section_title
;
Structure prediction by ZEFSAII (Michael W. Deem and Ramdas Pophale) SiO2 
 PCOD8190609
Probable space group: I B A 2
;
_chemical_formula_sum "Si O2"
_cell_formula_units_Z 40
_cell_length_a 13.242360
_cell_length_b 15.979090
_cell_length_c 8.833001
_cell_angle_alpha 90.000000
_cell_angle_beta 90.000000
_cell_angle_gamma 90.000000
_cell_volume 1869.070628
_symmetry_space_group_name_H-M "I B A 2"
_symmetry_group_IT_number 45
_symmetry_cell_setting 'orthorhombic'
loop_
_space_group_symop_operation_xyz
x,y,z
-x,-y,z
-x,y,1/2+z
x,-y,1/2+z
1/2+x,1/2+y,1/2+z
1/2-x,1/2-y,1/2+z
1/2-x,1/2+y,z
1/2+x,1/2-y,z
loop_
_atom_site_type_symbol
_atom_site_label
_atom_site_fract_x
_atom_site_fract_y
_atom_site_fract_z
Si Si1 0.302543 0.942700 0.397950
Si Si2 0.585067 0.936405 0.201892
Si Si3 0.078450 0.073150 0.814685
Si Si4 0.432401 0.199265 0.797960
Si Si5 0.010072 0.812470 0.064441
O O1 0.330025 0.923119 0.572360
O O2 0.186790 0.962989 0.361686
O O3 0.337582 0.863297 0.296070
O O4 0.362941 0.025193 0.350012
O O5 0.536891 0.849735 0.260470
O O6 0.500000 0.000000 0.137928
O O7 0.088013 0.138645 0.675311
O O8 0.000000 0.000000 0.771040
O O9 0.042837 0.119027 0.964004
O O10 0.422654 0.269564 0.668107
O O11 0.435447 0.242099 0.963397
#
# Coordination Sequence:
#
# PCOD8190609 Si02
#       5
#     8   8   8   8   8
#     4  11  24  38  69  97 127 177 214 262 331 386
#     4  10  21  39  67 102 131 164 207 278 332 393
#     4  11  26  45  64  89 132 175 228 262 312 401
#     4  10  20  43  67  97 132 154 216 273 337 387
#     4  10  23  43  66  89 132 174 203 284 322 370
#
# _framework density 21.401008000000001
#
# number of rings (size 3 to 8) (size 9 to 14) (size 15 to 20)
#    0.000    1.600    2.000    2.400    8.400    1.600 
#    0.000    0.000    0.000    0.000    0.000    0.000 
#    0.000    0.000    0.000    0.000    0.000    0.000 
#
# Total GULP energy -247927.895035 kJ/mol
# GULP energy per Si atom -12396.394752 kJ/mol
# Density = 2.135230 g / cm^3
# Si number density = 21.401008 Si / 1000 Ang^3
#
#
#
# Elastic Constant Matrix: (Units=GPa)
#
#
# Indices 1 2 3 4 5 6 
#
# 1 105.9921 26.4998 23.6327 0.0000 0.0000 0.0000
# 2 26.4998 89.5457 34.9687 0.0000 0.0000 0.0000
# 3 23.6327 34.9687 109.5094 0.0000 0.0000 0.0000
# 4 0.0000 0.0000 0.0000 34.7550 0.0000 0.0000
# 5 0.0000 0.0000 0.0000 0.0000 23.5679 0.0000
# 6 0.0000 0.0000 0.0000 0.0000 0.0000 19.8982
#
#
#
# Elastic Compliance Matrix: (Units=1/GPa)
#
#
# Indices 1 2 3 4 5 6 
#
# 1 0.010383 -0.002511 -0.001439 0.000000 0.000000 0.000000
# 2 -0.002511 0.013366 -0.003726 0.000000 0.000000 0.000000
# 3 -0.001439 -0.003726 0.010632 0.000000 0.000000 0.000000
# 4 0.000000 0.000000 0.000000 0.028773 0.000000 0.000000
# 5 0.000000 0.000000 0.000000 0.000000 0.042431 0.000000
# 6 0.000000 0.000000 0.000000 0.000000 0.000000 0.050256
#
#
# Mechanical properties :
#
#
# Convention : Reuss Voigt Hill
#
# Bulk Modulus (GPa) = 52.55124 52.80553 52.67838
# Shear Modulus (GPa) = 28.16346 30.30728 29.23537
#
# Velocity S-wave (km/s) = 3.63159 3.76727 3.70005
# Velocity P-wave (km/s) = 6.49564 6.60689 6.55150
#
# Compressibility (1/GPa) = 0.01902905
#
# Stress axis : x y z
#
# Youngs Moduli (GPa) = 96.30886 74.81895 94.05572
#
# Poissons Ratio (x) = 0.18786 0.13535
# Poissons Ratio (y) = 0.24182 0.35046
# Poissons Ratio (z) = 0.13859 0.27878
#
# Static dielectric constant tensor:
#      x y z
#    x 3.506830 0.000000 0.000000 
#    y 0.000000 4.058580 0.000000 
#    z 0.000000 0.000000 4.009890 
# 
# 
# High freq. dielectric constant tensor:
#      x y z
#    x 1.798930 0.000000 0.000000 
#    y 0.000000 1.851040 0.000000 
#    z 0.000000 0.000000 1.856010 
# 
# From -- ./inp_files/1247.got.cif
#   From: 2010.03.12/outbox.cif.g09.slc.cpg/sg45_1_cif.got.tgz:1247.got - 2010.04.14 02:50:11.
