data_PCOD8190243
_publ_section_title
;
Structure prediction by ZEFSAII (Michael W. Deem and Ramdas Pophale) SiO2 
 PCOD8190243
Probable space group: I M M 2
;
_chemical_formula_sum "Si O2"
_cell_formula_units_Z 64
_cell_length_a 14.486409
_cell_length_b 27.595103
_cell_length_c 9.116654
_cell_angle_alpha 90.000000
_cell_angle_beta 90.000000
_cell_angle_gamma 90.000000
_cell_volume 3644.418433
_symmetry_space_group_name_H-M "I M M 2"
_symmetry_group_IT_number 44
_symmetry_cell_setting 'orthorhombic'
loop_
_space_group_symop_operation_xyz
x,y,z
-x,-y,z
-x,y,z
x,-y,z
1/2+x,1/2+y,1/2+z
1/2-x,1/2-y,1/2+z
1/2-x,1/2+y,1/2+z
1/2+x,1/2-y,1/2+z
loop_
_atom_site_type_symbol
_atom_site_label
_atom_site_fract_x
_atom_site_fract_y
_atom_site_fract_z
Si Si1 0.226810 0.632703 0.432270
Si Si2 0.894675 0.443601 0.274646
Si Si3 0.894675 0.443601 0.937720
Si Si4 0.106262 0.171486 0.434961
Si Si5 0.106262 0.171490 0.777424
Si Si6 0.601968 0.219807 0.280382
Si Si7 0.226812 0.367300 0.780093
Si Si8 0.898032 0.719810 0.431991
O O1 0.174786 0.584956 0.378834
O O2 0.329932 0.634249 0.367029
O O3 0.231947 0.631559 0.606182
O O4 0.173272 0.680194 0.371268
O O5 0.874783 0.500000 0.298708
O O6 0.000000 0.431376 0.318858
O O7 0.877065 0.429094 0.106183
O O8 0.874785 0.500000 0.913661
O O9 0.825214 0.415046 0.833527
O O10 0.000000 0.431375 0.893512
O O11 0.127789 0.165928 0.606193
O O12 0.170069 0.134246 0.345348
O O13 0.128837 0.226142 0.379768
O O14 0.000000 0.158560 0.401944
O O15 0.128839 0.226146 0.832613
O O16 0.000000 0.158566 0.810444
O O17 0.500000 0.206578 0.340580
O O18 0.673273 0.180191 0.341101
O O19 0.599721 0.219076 0.106186
O O20 0.000000 0.706582 0.371792
#
# Coordination Sequence:
#
# PCOD8190243 Si02
#       8
#     8   8   8   8   8   8   8   8
#     4  11  20  29  48  76 103 129 158 199 249 294
#     4   9  19  36  55  74  98 128 161 196 234 283
#     4   9  19  36  55  74  98 128 161 196 234 283
#     4   9  18  33  50  66  92 134 176 207 235 275
#     4   9  18  33  50  66  92 134 176 207 235 275
#     4   8  15  28  45  68  99 132 164 197 235 282
#     4  11  20  29  48  76 103 129 158 199 249 294
#     4   8  15  28  45  68  99 132 164 197 235 282
#
# _framework density 17.561101000000001
#
# number of rings (size 3 to 8) (size 9 to 14) (size 15 to 20)
#    0.000    2.750    0.000    4.500    0.000    2.500 
#    0.000    2.500    0.000    3.750    0.000    5.250 
#    0.000    0.000    0.000    0.000    0.000    0.000 
#
# Total GULP energy -396753.238880 kJ/mol
# GULP energy per Si atom -12398.538715 kJ/mol
# Density = 1.752113 g / cm^3
# Si number density = 17.561101 Si / 1000 Ang^3
#
#
#
# Elastic Constant Matrix: (Units=GPa)
#
#
# Indices 1 2 3 4 5 6 
#
# 1 116.2879 59.9246 56.1962 0.0006 0.0008 0.0003
# 2 59.9246 70.7417 40.6897 -0.0009 0.0008 0.0008
# 3 56.1962 40.6897 65.3500 -0.0108 0.0015 0.0044
# 4 0.0006 -0.0009 -0.0108 25.5728 0.0000 0.0015
# 5 0.0008 0.0008 0.0015 0.0000 24.5195 -0.0002
# 6 0.0003 0.0008 0.0044 0.0015 -0.0002 30.3485
#
#
#
# Elastic Compliance Matrix: (Units=1/GPa)
#
#
# Indices 1 2 3 4 5 6 
#
# 1 0.018426 -0.010118 -0.009545 -0.000005 0.000000 0.000001
# 2 -0.010118 0.027580 -0.008471 -0.000002 0.000000 0.000001
# 3 -0.009545 -0.008471 0.028785 0.000012 -0.000001 -0.000004
# 4 -0.000005 -0.000002 0.000012 0.039104 0.000000 -0.000002
# 5 0.000000 0.000000 -0.000001 0.000000 0.040784 0.000000
# 6 0.000001 0.000001 -0.000004 -0.000002 0.000000 0.032951
#
#
# Mechanical properties :
#
#
# Convention : Reuss Voigt Hill
#
# Bulk Modulus (GPa) = 53.99166 62.88896 58.44031
# Shear Modulus (GPa) = 19.99425 22.45943 21.22684
#
# Velocity S-wave (km/s) = 3.37791 3.58009 3.48047
# Velocity P-wave (km/s) = 6.78421 7.27865 7.03577
#
# Compressibility (1/GPa) = 0.01852138
#
# Stress axis : x y z
#
# Youngs Moduli (GPa) = 54.27082 36.25851 34.74071
#
# Poissons Ratio (x) = 0.36688 0.33160
# Poissons Ratio (y) = 0.54914 0.29430
# Poissons Ratio (z) = 0.51801 0.30715
#
# Static dielectric constant tensor:
#      x y z
#    x 3.299160 0.000000 0.000000 
#    y 0.000000 3.119890 -0.000010 
#    z 0.000000 -0.000010 2.944060 
# 
# 
# High freq. dielectric constant tensor:
#      x y z
#    x 1.681750 0.000000 0.000000 
#    y 0.000000 1.659610 0.000000 
#    z 0.000000 0.000000 1.658200 
# 
# From -- ./inp_files/7569.got.cif
#   From: 2010.03.12/outbox.cif.g09.slc.cpg/sg44_4_cif.got.tgz:7569.got - 2010.04.14 02:36:11.
