data_PCOD8190660
_publ_section_title
;
Structure prediction by ZEFSAII (Michael W. Deem and Ramdas Pophale) SiO2 
 PCOD8190660
Probable space group: I B A 2
;
_chemical_formula_sum "Si O2"
_cell_formula_units_Z 60
_cell_length_a 10.616770
_cell_length_b 27.825780
_cell_length_c 9.049673
_cell_angle_alpha 90.000000
_cell_angle_beta 90.000000
_cell_angle_gamma 90.000000
_cell_volume 2673.453550
_symmetry_space_group_name_H-M "I B A 2"
_symmetry_group_IT_number 45
_symmetry_cell_setting 'orthorhombic'
loop_
_space_group_symop_operation_xyz
x,y,z
-x,-y,z
-x,y,1/2+z
x,-y,1/2+z
1/2+x,1/2+y,1/2+z
1/2-x,1/2-y,1/2+z
1/2-x,1/2+y,z
1/2+x,1/2-y,z
loop_
_atom_site_type_symbol
_atom_site_label
_atom_site_fract_x
_atom_site_fract_y
_atom_site_fract_z
Si Si1 0.143431 0.305756 0.985080
Si Si2 0.254701 0.194228 0.003605
Si Si3 0.537404 0.158569 0.700071
Si Si4 0.843372 0.120031 0.073671
Si Si5 0.388114 0.938146 0.128366
Si Si6 0.484746 0.345139 0.346431
Si Si7 0.833719 0.757577 0.281387
Si Si8 0.500000 0.000000 0.873526
O O1 0.060880 0.339935 0.875552
O O2 0.198705 0.265477 0.872523
O O3 0.257392 0.333237 0.061997
O O4 0.046121 0.296038 0.128008
O O5 0.325070 0.160363 0.121312
O O6 0.204902 0.241362 0.106315
O O7 0.135517 0.164867 0.948383
O O8 0.355002 0.206848 0.869336
O O9 0.469472 0.109231 0.659333
O O10 0.759842 0.073383 0.108368
O O11 0.945752 0.128962 0.198656
O O12 0.923074 0.116106 0.922926
O O13 0.430552 0.961249 0.974484
O O14 0.398994 0.974120 0.266624
O O15 0.557286 0.295135 0.315886
#
# Coordination Sequence:
#
# PCOD8190660 Si02
#       8
#     8   8   8   8   8   8   8   4
#     4   9  21  37  57  87 125 164 220 272 320 379
#     4  11  25  38  61  86 124 177 220 286 326 372
#     4  10  21  38  61  95 125 166 223 259 328 387
#     4  10  22  41  66  88 128 169 222 261 313 392
#     4  10  21  41  69 104 133 166 198 270 318 419
#     4  11  23  43  61  90 125 179 230 267 328 370
#     4  10  24  41  54  86 127 170 225 283 326 373
#     4  10  22  40  70 110 140 156 194 254 358 392
#
# _framework density 22.442882000000001
#
# number of rings (size 3 to 8) (size 9 to 14) (size 15 to 20)
#    0.000    1.867    1.333    1.600   11.200    0.000 
#    0.000    0.000    0.000    2.400    0.000    0.000 
#    0.000    0.000    0.000    0.000    0.000    0.000 
#
# Total GULP energy -371786.174798 kJ/mol
# GULP energy per Si atom -12392.872493 kJ/mol
# Density = 2.239180 g / cm^3
# Si number density = 22.442882 Si / 1000 Ang^3
#
#
#
# Elastic Constant Matrix: (Units=GPa)
#
#
# Indices 1 2 3 4 5 6 
#
# 1 100.0957 15.6525 42.3073 -0.0022 0.0010 0.0021
# 2 15.6525 43.3495 8.6194 -0.0010 -0.0008 0.0008
# 3 42.3073 8.6194 151.3117 -0.0019 -0.0074 0.0006
# 4 -0.0022 -0.0010 -0.0019 25.2049 0.0002 -0.0009
# 5 0.0010 -0.0008 -0.0074 0.0002 42.2562 0.0036
# 6 0.0021 0.0008 0.0006 -0.0009 0.0036 30.7909
#
#
#
# Elastic Compliance Matrix: (Units=1/GPa)
#
#
# Indices 1 2 3 4 5 6 
#
# 1 0.011880 -0.003671 -0.003113 0.000001 -0.000001 -0.000001
# 2 -0.003671 0.024467 -0.000367 0.000001 0.000000 0.000000
# 3 -0.003113 -0.000367 0.007500 0.000000 0.000001 0.000000
# 4 0.000001 0.000001 0.000000 0.039675 0.000000 0.000001
# 5 -0.000001 0.000000 0.000001 0.000000 0.023665 -0.000003
# 6 -0.000001 0.000000 0.000000 0.000001 -0.000003 0.032477
#
#
# Mechanical properties :
#
#
# Convention : Reuss Voigt Hill
#
# Bulk Modulus (GPa) = 33.84607 47.54612 40.69610
# Shear Modulus (GPa) = 30.52241 34.86224 32.69232
#
# Velocity S-wave (km/s) = 3.69182 3.94556 3.82080
# Velocity P-wave (km/s) = 5.76944 6.47982 6.13492
#
# Compressibility (1/GPa) = 0.02954553
#
# Stress axis : x y z
#
# Youngs Moduli (GPa) = 84.17476 40.87171 133.33165
#
# Poissons Ratio (x) = 0.15003 0.41501
# Poissons Ratio (y) = 0.30898 0.04898
# Poissons Ratio (z) = 0.26200 0.01502
#
# Static dielectric constant tensor:
#      x y z
#    x 4.537020 0.000000 0.000010 
#    y 0.000000 3.738430 0.000000 
#    z 0.000010 0.000000 4.908130 
# 
# 
# High freq. dielectric constant tensor:
#      x y z
#    x 1.900790 0.000000 0.000000 
#    y 0.000000 1.826710 0.000000 
#    z 0.000000 0.000000 1.934620 
# 
# From -- ./inp_files/1456.got.cif
#   From: 2010.03.12/outbox.cif.g09.slc.cpg/sg45_1_cif.got.tgz:1456.got - 2010.04.14 02:50:11.
