data_PCOD8190946
_publ_section_title
;
Structure prediction by ZEFSAII (Michael W. Deem and Ramdas Pophale) SiO2 
 PCOD8190946
Probable space group: I B A 2
;
_chemical_formula_sum "Si O2"
_cell_formula_units_Z 56
_cell_length_a 12.300802
_cell_length_b 14.210657
_cell_length_c 13.820229
_cell_angle_alpha 90.000000
_cell_angle_beta 90.000000
_cell_angle_gamma 90.000000
_cell_volume 2415.810276
_symmetry_space_group_name_H-M "I B A 2"
_symmetry_group_IT_number 45
_symmetry_cell_setting 'orthorhombic'
loop_
_space_group_symop_operation_xyz
x,y,z
-x,-y,z
-x,y,1/2+z
x,-y,1/2+z
1/2+x,1/2+y,1/2+z
1/2-x,1/2-y,1/2+z
1/2-x,1/2+y,z
1/2+x,1/2-y,z
loop_
_atom_site_type_symbol
_atom_site_label
_atom_site_fract_x
_atom_site_fract_y
_atom_site_fract_z
Si Si1 0.082662 0.572333 0.403830
Si Si2 0.450552 0.401523 0.710903
Si Si3 0.430394 0.734658 0.837914
Si Si4 0.759240 0.701115 0.709613
Si Si5 0.986930 0.899119 0.501818
Si Si6 0.377177 0.975849 0.696853
Si Si7 0.741510 0.873388 0.573144
O O1 0.018698 0.661693 0.356715
O O2 0.136623 0.515448 0.313974
O O3 0.166644 0.616291 0.479257
O O4 0.000000 0.500000 0.456859
O O5 0.500000 0.500000 0.751326
O O6 0.525438 0.314613 0.741640
O O7 0.331888 0.372375 0.749435
O O8 0.438104 0.404512 0.596052
O O9 0.302943 0.747735 0.808054
O O10 0.457127 0.675214 0.932260
O O11 0.853052 0.632603 0.665309
O O12 0.719570 0.774371 0.627843
O O13 0.864748 0.877130 0.535770
O O14 0.000000 0.000000 0.448803
O O15 0.500000 0.000000 0.663917
O O16 0.287164 0.043438 0.647918
#
# Coordination Sequence:
#
# PCOD8190946 Si02
#       7
#     8   8   8   8   8   8   8
#     4  10  25  46  69 111 151 198 259 309 384 445
#     4  11  24  48  76 106 151 191 250 310 374 452
#     4  11  25  47  72 108 150 194 242 314 372 458
#     4  11  26  43  76 109 144 201 246 301 390 443
#     4  11  25  45  71 109 145 198 255 312 373 449
#     4  10  24  46  72 105 154 199 250 317 376 451
#     4  12  25  45  76 110 147 202 252 318 380 449
#
# _framework density 23.180629
#
# number of rings (size 3 to 8) (size 9 to 14) (size 15 to 20)
#    0.000    1.143    1.429    3.429   10.000    3.429 
#    0.000    1.429    0.000    0.000    0.000    0.000 
#    0.000    0.000    0.000    0.000    0.000    0.000 
#
# Total GULP energy -346884.815545 kJ/mol
# GULP energy per Si atom -12388.743412 kJ/mol
# Density = 2.312787 g / cm^3
# Si number density = 23.180629 Si / 1000 Ang^3
#
#
#
# Elastic Constant Matrix: (Units=GPa)
#
#
# Indices 1 2 3 4 5 6 
#
# 1 128.5957 68.1056 44.7479 0.0000 0.0000 0.0000
# 2 68.1056 163.9537 59.3536 0.0000 0.0000 0.0000
# 3 44.7479 59.3536 109.4762 0.0001 0.0000 0.0000
# 4 0.0000 0.0000 0.0001 40.3037 0.0000 0.0000
# 5 0.0000 0.0000 0.0000 0.0000 33.2571 0.0000
# 6 0.0000 0.0000 0.0000 0.0000 0.0000 50.3064
#
#
#
# Elastic Compliance Matrix: (Units=1/GPa)
#
#
# Indices 1 2 3 4 5 6 
#
# 1 0.010448 -0.003476 -0.002386 0.000000 0.000000 0.000000
# 2 -0.003476 0.008745 -0.003321 0.000000 0.000000 0.000000
# 3 -0.002386 -0.003321 0.011910 0.000000 0.000000 0.000000
# 4 0.000000 0.000000 0.000000 0.024812 0.000000 0.000000
# 5 0.000000 0.000000 0.000000 0.000000 0.030069 0.000000
# 6 0.000000 0.000000 0.000000 0.000000 0.000000 0.019878
#
#
# Mechanical properties :
#
#
# Convention : Reuss Voigt Hill
#
# Bulk Modulus (GPa) = 78.50629 82.93777 80.72203
# Shear Modulus (GPa) = 38.91899 40.09467 39.50683
#
# Velocity S-wave (km/s) = 4.10194 4.16343 4.13280
# Velocity P-wave (km/s) = 7.50835 7.67912 7.59421
#
# Compressibility (1/GPa) = 0.01273783
#
# Stress axis : x y z
#
# Youngs Moduli (GPa) = 95.71666 114.34657 83.96447
#
# Poissons Ratio (x) = 0.39749 0.20032
# Poissons Ratio (y) = 0.33273 0.27880
# Poissons Ratio (z) = 0.22835 0.37969
#
# Static dielectric constant tensor:
#      x y z
#    x 4.140210 0.000000 0.000000 
#    y 0.000000 4.552930 0.000000 
#    z 0.000000 0.000000 4.157440 
# 
# 
# High freq. dielectric constant tensor:
#      x y z
#    x 1.904720 0.000000 0.000000 
#    y 0.000000 1.936010 0.000000 
#    z 0.000000 0.000000 1.915720 
# 
# From -- ./inp_files/6153.got.cif
#   From: 2010.03.12/outbox.cif.g09.slc.cpg/sg45_4_cif.got.tgz:6153.got - 2010.04.14 02:50:11.
