data_PCOD8190046
_publ_section_title
;
Structure prediction by ZEFSAII (Michael W. Deem and Ramdas Pophale) SiO2 
 PCOD8190046
Probable space group: I M M 2
;
_chemical_formula_sum "Si O2"
_cell_formula_units_Z 64
_cell_length_a 22.545231
_cell_length_b 13.439080
_cell_length_c 10.026085
_cell_angle_alpha 90.000000
_cell_angle_beta 90.000000
_cell_angle_gamma 90.000000
_cell_volume 3037.775050
_symmetry_space_group_name_H-M "I M M 2"
_symmetry_group_IT_number 44
_symmetry_cell_setting 'orthorhombic'
loop_
_space_group_symop_operation_xyz
x,y,z
-x,-y,z
-x,y,z
x,-y,z
1/2+x,1/2+y,1/2+z
1/2-x,1/2-y,1/2+z
1/2-x,1/2+y,1/2+z
1/2+x,1/2-y,1/2+z
loop_
_atom_site_type_symbol
_atom_site_label
_atom_site_fract_x
_atom_site_fract_y
_atom_site_fract_z
Si Si1 0.353417 0.786242 0.668520
Si Si2 0.258739 0.748061 0.879898
Si Si3 0.431501 0.237073 0.892552
Si Si4 0.340796 0.383572 0.494336
Si Si5 0.355120 0.381857 0.013090
Si Si6 0.345166 0.883135 0.380075
Si Si7 0.067354 0.116291 0.768401
Si Si8 0.930908 0.386495 0.649884
O O1 0.295911 0.800353 0.762543
O O2 0.410701 0.817001 0.756221
O O3 0.356409 0.668557 0.633889
O O4 0.352809 0.850599 0.534137
O O5 0.221417 0.837723 0.944601
O O6 0.213560 0.666840 0.818760
O O7 0.296635 0.686945 0.992380
O O8 0.500000 0.253880 0.889029
O O9 0.400265 0.345995 0.896982
O O10 0.410050 0.172547 0.019072
O O11 0.332131 0.500000 0.513152
O O12 0.396608 0.355087 0.400706
O O13 0.340612 0.500000 0.005511
O O14 0.389922 0.350732 0.147762
O O15 0.399496 0.847532 0.285483
O O16 0.337894 0.000000 0.376353
O O17 0.000000 0.164603 0.762084
O O18 0.057933 0.000000 0.760615
O O19 0.913388 0.500000 0.622495
O O20 0.000000 0.372824 0.675289
#
# Coordination Sequence:
#
# PCOD8190046 Si02
#       8
#     8   8   8   8   8   8   8   8
#     4  10  24  40  58  91 130 158 208 261 321 383
#     4  10  23  40  59  86 127 165 210 260 320 393
#     4  10  22  39  62  92 126 168 211 257 322 391
#     4  10  23  40  61  89 128 170 209 261 326 392
#     4  10  21  38  61  89 123 162 208 267 317 374
#     4  10  22  40  64  91 119 162 214 264 318 376
#     4   9  19  36  61  92 121 159 212 263 319 381
#     4   9  20  40  64  91 125 165 212 263 316 378
#
# _framework density 21.068048999999998
#
# number of rings (size 3 to 8) (size 9 to 14) (size 15 to 20)
#    0.000    2.250    0.000    0.750    7.000    7.250 
#    0.000    4.375    0.000    0.000    0.000    0.000 
#    0.000    0.000    0.000    0.000    0.000    0.000 
#
# Total GULP energy -396444.707382 kJ/mol
# GULP energy per Si atom -12388.897106 kJ/mol
# Density = 2.102010 g / cm^3
# Si number density = 21.068049 Si / 1000 Ang^3
#
#
#
# Elastic Constant Matrix: (Units=GPa)
#
#
# Indices 1 2 3 4 5 6 
#
# 1 105.6466 32.5766 38.0634 0.0000 0.0000 0.0000
# 2 32.5766 76.8299 17.8843 0.0000 0.0000 0.0000
# 3 38.0634 17.8843 86.2823 0.0000 0.0000 0.0000
# 4 0.0000 0.0000 0.0000 24.0566 0.0000 0.0000
# 5 0.0000 0.0000 0.0000 0.0000 138.5238 0.0000
# 6 0.0000 0.0000 0.0000 0.0000 0.0000 23.7828
#
#
#
# Elastic Compliance Matrix: (Units=1/GPa)
#
#
# Indices 1 2 3 4 5 6 
#
# 1 0.012419 -0.004193 -0.004610 0.000000 0.000000 0.000000
# 2 -0.004193 0.015091 -0.001278 0.000000 0.000000 0.000000
# 3 -0.004610 -0.001278 0.013888 0.000000 0.000000 0.000000
# 4 0.000000 0.000000 0.000000 0.041569 0.000000 0.000000
# 5 0.000000 0.000000 0.000000 0.000000 0.007219 0.000000
# 6 0.000000 0.000000 0.000000 0.000000 0.000000 0.042047
#
#
# Mechanical properties :
#
#
# Convention : Reuss Voigt Hill
#
# Bulk Modulus (GPa) = 47.08760 49.53416 48.31088
# Shear Modulus (GPa) = 31.35305 49.28829 40.32067
#
# Velocity S-wave (km/s) = 3.86188 4.84206 4.37948
# Velocity P-wave (km/s) = 6.50263 7.40428 6.96805
#
# Compressibility (1/GPa) = 0.02123701
#
# Stress axis : x y z
#
# Youngs Moduli (GPa) = 80.52051 66.26403 72.00267
#
# Poissons Ratio (x) = 0.27783 0.33191
# Poissons Ratio (y) = 0.33761 0.09205
# Poissons Ratio (z) = 0.37117 0.08471
#
# Static dielectric constant tensor:
#      x y z
#    x 3.410650 0.000000 0.000000 
#    y 0.000000 3.917330 0.000000 
#    z 0.000000 0.000000 3.934050 
# 
# 
# High freq. dielectric constant tensor:
#      x y z
#    x 1.833250 0.000000 0.000000 
#    y 0.000000 1.826430 0.000000 
#    z 0.000000 0.000000 1.825180 
# 
# From -- ./inp_files/9465.got.cif
#   From: 2010.03.12/outbox.cif.g09.slc.cpg/sg44_5_cif.got.tgz:9465.got - 2010.04.14 02:36:11.
