data_PCOD8190445
_publ_section_title
;
Structure prediction by ZEFSAII (Michael W. Deem and Ramdas Pophale) SiO2 
 PCOD8190445
Probable space group: I B A 2
;
_chemical_formula_sum "Si O2"
_cell_formula_units_Z 64
_cell_length_a 20.702027
_cell_length_b 27.317466
_cell_length_c 5.391181
_cell_angle_alpha 90.000000
_cell_angle_beta 90.000000
_cell_angle_gamma 90.000000
_cell_volume 3048.857979
_symmetry_space_group_name_H-M "I B A 2"
_symmetry_group_IT_number 45
_symmetry_cell_setting 'orthorhombic'
loop_
_space_group_symop_operation_xyz
x,y,z
-x,-y,z
-x,y,1/2+z
x,-y,1/2+z
1/2+x,1/2+y,1/2+z
1/2-x,1/2-y,1/2+z
1/2-x,1/2+y,z
1/2+x,1/2-y,z
loop_
_atom_site_type_symbol
_atom_site_label
_atom_site_fract_x
_atom_site_fract_y
_atom_site_fract_z
Si Si1 0.962806 0.720766 0.899770
Si Si2 0.963740 0.163975 0.403550
Si Si3 0.763956 0.371755 0.888741
Si Si4 0.885901 0.015281 0.777144
Si Si5 0.669487 0.799237 0.197059
Si Si6 0.645106 0.620590 0.683585
Si Si7 0.799034 0.197638 0.009543
Si Si8 0.741666 0.023588 0.231713
O O1 0.892788 0.694582 0.873900
O O2 0.005591 0.704330 0.660729
O O3 0.951425 0.778466 0.902213
O O4 0.896297 0.135680 0.441466
O O5 0.993518 0.147381 0.141964
O O6 0.723739 0.328414 0.759455
O O7 0.778636 0.418629 0.715784
O O8 0.827067 0.346212 0.011446
O O9 0.718061 0.392940 0.105232
O O10 0.879891 0.072839 0.824272
O O11 0.923642 0.006526 0.516048
O O12 0.818933 0.984869 0.735288
O O13 0.735783 0.794656 0.345427
O O14 0.663372 0.748510 0.047054
O O15 0.645769 0.665576 0.875665
O O16 0.711274 0.000379 0.483140
#
# Coordination Sequence:
#
# PCOD8190445 Si02
#       8
#     8   8   8   8   8   8   8   8
#     4  10  24  42  64  80 114 168 211 250 282 342
#     4  10  24  40  57  83 109 151 213 268 294 345
#     4  11  22  35  58  87 120 161 188 245 309 379
#     4  10  19  34  55  83 107 145 196 242 295 374
#     4  11  24  37  55  90 127 159 203 240 310 370
#     4  11  23  35  61  81 112 159 201 249 314 367
#     4  11  23  36  54  87 127 161 189 245 311 377
#     4  10  19  35  54  82 116 148 196 234 290 369
#
# _framework density 20.991467
#
# number of rings (size 3 to 8) (size 9 to 14) (size 15 to 20)
#    0.000    1.500    3.750    2.250   12.250    0.000 
#    0.000    0.000    0.000    2.250    0.000    0.000 
#    0.000    3.000    0.000    0.000    0.000    0.000 
#
# Total GULP energy -396647.201491 kJ/mol
# GULP energy per Si atom -12395.225047 kJ/mol
# Density = 2.094369 g / cm^3
# Si number density = 20.991467 Si / 1000 Ang^3
#
#
#
# Elastic Constant Matrix: (Units=GPa)
#
#
# Indices 1 2 3 4 5 6 
#
# 1 52.8232 21.8146 24.7960 0.0000 0.0000 0.0000
# 2 21.8146 77.6409 23.7965 0.0000 0.0000 0.0000
# 3 24.7960 23.7965 123.4884 0.0000 0.0000 0.0000
# 4 0.0000 0.0000 0.0000 28.8957 0.0000 0.0000
# 5 0.0000 0.0000 0.0000 0.0000 26.0225 0.0000
# 6 0.0000 0.0000 0.0000 0.0000 0.0000 12.1744
#
#
#
# Elastic Compliance Matrix: (Units=1/GPa)
#
#
# Indices 1 2 3 4 5 6 
#
# 1 0.022794 -0.005315 -0.003553 0.000000 0.000000 0.000000
# 2 -0.005315 0.014928 -0.001809 0.000000 0.000000 0.000000
# 3 -0.003553 -0.001809 0.009160 0.000000 0.000000 0.000000
# 4 0.000000 0.000000 0.000000 0.034607 0.000000 0.000000
# 5 0.000000 0.000000 0.000000 0.000000 0.038428 0.000000
# 6 0.000000 0.000000 0.000000 0.000000 0.000000 0.082140
#
#
# Mechanical properties :
#
#
# Convention : Reuss Voigt Hill
#
# Bulk Modulus (GPa) = 39.17443 43.86295 41.51869
# Shear Modulus (GPa) = 21.55909 25.65487 23.60698
#
# Velocity S-wave (km/s) = 3.20822 3.49973 3.35714
# Velocity P-wave (km/s) = 5.69440 6.10506 5.90330
#
# Compressibility (1/GPa) = 0.02552686
#
# Stress axis : x y z
#
# Youngs Moduli (GPa) = 43.87138 66.98896 109.17105
#
# Poissons Ratio (x) = 0.35608 0.38784
# Poissons Ratio (y) = 0.23320 0.19752
# Poissons Ratio (z) = 0.15586 0.12120
#
# Static dielectric constant tensor:
#      x y z
#    x 3.390580 0.000000 0.000000 
#    y 0.000000 3.810950 0.000000 
#    z 0.000000 0.000000 4.418210 
# 
# 
# High freq. dielectric constant tensor:
#      x y z
#    x 1.762530 0.000000 0.000000 
#    y 0.000000 1.808670 0.000000 
#    z 0.000000 0.000000 1.845400 
# 
# From -- ./inp_files/475.got.cif
#   From: 2010.03.12/outbox.cif.g09.slc.cpg/sg45_1_cif.got.tgz:475.got - 2010.04.14 02:50:11.
