data_PCOD8190582
_publ_section_title
;
Structure prediction by ZEFSAII (Michael W. Deem and Ramdas Pophale) SiO2 
 PCOD8190582
Probable space group: I B A 2
;
_chemical_formula_sum "Si O2"
_cell_formula_units_Z 60
_cell_length_a 19.233166
_cell_length_b 18.467793
_cell_length_c 8.285142
_cell_angle_alpha 90.000000
_cell_angle_beta 90.000000
_cell_angle_gamma 90.000000
_cell_volume 2942.833792
_symmetry_space_group_name_H-M "I B A 2"
_symmetry_group_IT_number 45
_symmetry_cell_setting 'orthorhombic'
loop_
_space_group_symop_operation_xyz
x,y,z
-x,-y,z
-x,y,1/2+z
x,-y,1/2+z
1/2+x,1/2+y,1/2+z
1/2-x,1/2-y,1/2+z
1/2-x,1/2+y,z
1/2+x,1/2-y,z
loop_
_atom_site_type_symbol
_atom_site_label
_atom_site_fract_x
_atom_site_fract_y
_atom_site_fract_z
Si Si1 0.918370 0.415084 0.986490
Si Si2 0.799507 0.396845 0.468588
Si Si3 0.214146 0.455097 0.317888
Si Si4 0.052689 0.265286 0.381312
Si Si5 0.905729 0.728474 0.012014
Si Si6 0.500000 0.000000 0.236642
Si Si7 0.708486 0.319741 0.880208
Si Si8 0.815290 0.784114 0.518815
O O1 0.838763 0.428686 0.952758
O O2 0.932499 0.330538 0.006993
O O3 0.967207 0.436415 0.838407
O O4 0.937988 0.462769 0.139655
O O5 0.784376 0.457589 0.332015
O O6 0.809929 0.436041 0.638962
O O7 0.867922 0.345331 0.444951
O O8 0.729908 0.351008 0.458163
O O9 0.284201 0.407561 0.359445
O O10 0.070530 0.283457 0.196042
O O11 0.106053 0.204512 0.450283
O O12 0.971138 0.247150 0.401239
O O13 0.851580 0.795937 0.006152
O O14 0.687251 0.281222 0.712273
O O15 0.782807 0.289119 0.941391
#
# Coordination Sequence:
#
# PCOD8190582 Si02
#       8
#     8   8   8   8   8   4   8   8
#     4  11  21  36  50  77 112 161 190 243 274 356
#     4  10  23  39  57  86 118 155 197 236 290 345
#     4  11  21  38  57  83 116 152 196 241 282 348
#     4  12  22  39  59  84 118 153 201 242 291 344
#     4  11  24  40  58  88 118 158 198 243 290 352
#     4  10  24  32  48  72 118 156 200 228 292 332
#     4  10  21  39  60  82 115 153 200 242 293 341
#     4  10  20  40  59  83 114 155 196 247 286 349
#
# _framework density 20.388511000000001
#
# number of rings (size 3 to 8) (size 9 to 14) (size 15 to 20)
#    0.000    1.333    2.667    4.000    3.733    3.200 
#    4.800    0.000    0.000    0.800    0.000    5.600 
#    0.000    0.000    0.000    0.000    0.000    0.000 
#
# Total GULP energy -371753.807628 kJ/mol
# GULP energy per Si atom -12391.793588 kJ/mol
# Density = 2.034211 g / cm^3
# Si number density = 20.388511 Si / 1000 Ang^3
#
#
#
# Elastic Constant Matrix: (Units=GPa)
#
#
# Indices 1 2 3 4 5 6 
#
# 1 126.2335 49.5144 27.4697 0.0000 0.0000 0.0000
# 2 49.5144 55.2406 26.2493 0.0000 0.0000 0.0000
# 3 27.4697 26.2493 55.7557 0.0000 0.0000 0.0000
# 4 0.0000 0.0000 0.0000 20.3450 0.0000 0.0000
# 5 0.0000 0.0000 0.0000 0.0000 33.9869 0.0000
# 6 0.0000 0.0000 0.0000 0.0000 0.0000 26.5566
#
#
#
# Elastic Compliance Matrix: (Units=1/GPa)
#
#
# Indices 1 2 3 4 5 6 
#
# 1 0.012271 -0.010468 -0.001117 0.000000 0.000000 0.000000
# 2 -0.010468 0.032249 -0.010025 0.000000 0.000000 0.000000
# 3 -0.001117 -0.010025 0.023206 0.000000 0.000000 0.000000
# 4 0.000000 0.000000 0.000000 0.049152 0.000000 0.000000
# 5 0.000000 0.000000 0.000000 0.000000 0.029423 0.000000
# 6 0.000000 0.000000 0.000000 0.000000 0.000000 0.037655
#
#
# Mechanical properties :
#
#
# Convention : Reuss Voigt Hill
#
# Bulk Modulus (GPa) = 40.80871 49.29962 45.05416
# Shear Modulus (GPa) = 21.24527 25.11080 23.17803
#
# Velocity S-wave (km/s) = 3.23154 3.51324 3.37533
# Velocity P-wave (km/s) = 5.82947 6.37885 6.11034
#
# Compressibility (1/GPa) = 0.02450457
#
# Stress axis : x y z
#
# Youngs Moduli (GPa) = 81.49280 31.00834 43.09281
#
# Poissons Ratio (x) = 0.32460 0.04815
# Poissons Ratio (y) = 0.85307 0.43202
# Poissons Ratio (z) = 0.09106 0.31087
#
# Static dielectric constant tensor:
#      x y z
#    x 3.678950 0.000000 0.000000 
#    y 0.000000 3.717190 0.000000 
#    z 0.000000 0.000000 3.750530 
# 
# 
# High freq. dielectric constant tensor:
#      x y z
#    x 1.789830 0.000000 0.000000 
#    y 0.000000 1.772460 0.000000 
#    z 0.000000 0.000000 1.805310 
# 
# From -- ./inp_files/2151.got.cif
#   From: 2010.03.12/outbox.cif.g09.slc.cpg/sg45_2_cif.got.tgz:2151.got - 2010.04.14 02:50:11.
