data_PCOD8190785
_publ_section_title
;
Structure prediction by ZEFSAII (Michael W. Deem and Ramdas Pophale) SiO2 
 PCOD8190785
Probable space group: I B A 2
;
_chemical_formula_sum "Si O2"
_cell_formula_units_Z 52
_cell_length_a 25.641878
_cell_length_b 10.207222
_cell_length_c 8.423743
_cell_angle_alpha 90.000000
_cell_angle_beta 90.000000
_cell_angle_gamma 90.000000
_cell_volume 2204.765977
_symmetry_space_group_name_H-M "I B A 2"
_symmetry_group_IT_number 45
_symmetry_cell_setting 'orthorhombic'
loop_
_space_group_symop_operation_xyz
x,y,z
-x,-y,z
-x,y,1/2+z
x,-y,1/2+z
1/2+x,1/2+y,1/2+z
1/2-x,1/2-y,1/2+z
1/2-x,1/2+y,z
1/2+x,1/2-y,z
loop_
_atom_site_type_symbol
_atom_site_label
_atom_site_fract_x
_atom_site_fract_y
_atom_site_fract_z
Si Si1 0.034014 0.190987 0.626140
Si Si2 0.769502 0.851818 0.676665
Si Si3 0.228574 0.594944 0.004394
Si Si4 0.573911 0.838273 0.595706
Si Si5 0.121539 0.456037 0.400206
Si Si6 0.500000 0.500000 0.877069
Si Si7 0.629059 0.227053 0.795776
O O1 0.037764 0.096388 0.475090
O O2 0.085889 0.276424 0.652218
O O3 0.984155 0.285661 0.622111
O O4 0.036416 0.092471 0.774036
O O5 0.748478 0.719006 0.597090
O O6 0.731021 0.886680 0.816770
O O7 0.827474 0.833741 0.748842
O O8 0.762790 0.968402 0.550081
O O9 0.165351 0.596384 0.024489
O O10 0.600178 0.850483 0.771702
O O11 0.604820 0.740053 0.473682
O O12 0.573883 0.980690 0.505437
O O13 0.150580 0.577923 0.308360
#
# Coordination Sequence:
#
# PCOD8190785 Si02
#       7
#     8   8   8   8   8   4   8
#     4  11  22  45  64  99 139 184 245 289 366 437
#     4  12  26  47  75 108 148 191 249 304 383 447
#     4  12  26  48  75 108 147 197 241 320 377 453
#     4  10  23  44  68 103 134 192 227 295 363 442
#     4  10  22  45  72 102 146 182 239 303 382 434
#     4  10  22  40  68  86 132 196 222 306 348 410
#     4  10  24  44  68 106 139 186 247 290 369 449
#
# _framework density 23.585269
#
# number of rings (size 3 to 8) (size 9 to 14) (size 15 to 20)
#    0.923    0.308    1.538    4.615    2.154    4.308 
#    2.769    0.000    0.000    0.000    0.000    0.000 
#    0.000    0.000    0.000    0.000    0.000    0.000 
#
# Total GULP energy -322091.154315 kJ/mol
# GULP energy per Si atom -12388.121320 kJ/mol
# Density = 2.353159 g / cm^3
# Si number density = 23.585269 Si / 1000 Ang^3
#
#
#
# Elastic Constant Matrix: (Units=GPa)
#
#
# Indices 1 2 3 4 5 6 
#
# 1 97.2850 44.7922 17.4312 0.0000 0.0000 0.0000
# 2 44.7922 116.9544 26.0621 0.0000 0.0000 0.0000
# 3 17.4312 26.0621 73.2609 0.0000 0.0000 0.0000
# 4 0.0000 0.0000 0.0000 57.5486 0.0000 0.0000
# 5 0.0000 0.0000 0.0000 0.0000 32.8118 0.0000
# 6 0.0000 0.0000 0.0000 0.0000 0.0000 28.3638
#
#
#
# Elastic Compliance Matrix: (Units=1/GPa)
#
#
# Indices 1 2 3 4 5 6 
#
# 1 0.012609 -0.004519 -0.001393 0.000000 0.000000 0.000000
# 2 -0.004519 0.010906 -0.002805 0.000000 0.000000 0.000000
# 3 -0.001393 -0.002805 0.014979 0.000000 0.000000 0.000000
# 4 0.000000 0.000000 0.000000 0.017377 0.000000 0.000000
# 5 0.000000 0.000000 0.000000 0.000000 0.030477 0.000000
# 6 0.000000 0.000000 0.000000 0.000000 0.000000 0.035256
#
#
# Mechanical properties :
#
#
# Convention : Reuss Voigt Hill
#
# Bulk Modulus (GPa) = 47.47870 51.56347 49.52108
# Shear Modulus (GPa) = 34.23335 37.02583 35.62959
#
# Velocity S-wave (km/s) = 3.81395 3.96646 3.89095
# Velocity P-wave (km/s) = 6.29042 6.54882 6.42092
#
# Compressibility (1/GPa) = 0.02106208
#
# Stress axis : x y z
#
# Youngs Moduli (GPa) = 79.30733 91.69286 66.76060
#
# Poissons Ratio (x) = 0.41435 0.09297
# Poissons Ratio (y) = 0.35838 0.18723
# Poissons Ratio (z) = 0.11044 0.25716
#
# Static dielectric constant tensor:
#      x y z
#    x 3.781910 0.000000 0.000000 
#    y 0.000000 4.154290 0.000000 
#    z 0.000000 0.000000 4.571390 
# 
# 
# High freq. dielectric constant tensor:
#      x y z
#    x 1.908640 0.000000 0.000000 
#    y 0.000000 1.924810 0.000000 
#    z 0.000000 0.000000 1.963750 
# 
# From -- ./inp_files/2614.got.cif
#   From: 2010.03.12/outbox.cif.g09.slc.cpg/sg45_2_cif.got.tgz:2614.got - 2010.04.14 02:50:11.
