data_PCOD8190602
_publ_section_title
;
Structure prediction by ZEFSAII (Michael W. Deem and Ramdas Pophale) SiO2 
 PCOD8190602
Probable space group: I B A 2
;
_chemical_formula_sum "Si O2"
_cell_formula_units_Z 64
_cell_length_a 31.253072
_cell_length_b 7.643103
_cell_length_c 13.296901
_cell_angle_alpha 90.000000
_cell_angle_beta 90.000000
_cell_angle_gamma 90.000000
_cell_volume 3176.236704
_symmetry_space_group_name_H-M "I B A 2"
_symmetry_group_IT_number 45
_symmetry_cell_setting 'orthorhombic'
loop_
_space_group_symop_operation_xyz
x,y,z
-x,-y,z
-x,y,1/2+z
x,-y,1/2+z
1/2+x,1/2+y,1/2+z
1/2-x,1/2-y,1/2+z
1/2-x,1/2+y,z
1/2+x,1/2-y,z
loop_
_atom_site_type_symbol
_atom_site_label
_atom_site_fract_x
_atom_site_fract_y
_atom_site_fract_z
Si Si1 0.515455 0.693152 0.206960
Si Si2 0.294876 0.569390 0.040419
Si Si3 0.011061 0.699586 0.422154
Si Si4 0.429490 0.230644 0.030944
Si Si5 0.348916 0.253049 0.690961
Si Si6 0.658910 0.267606 0.430480
Si Si7 0.436786 0.164956 0.597679
Si Si8 0.798929 0.546672 0.043847
O O1 0.500000 0.500000 0.227235
O O2 0.529980 0.771511 0.312742
O O3 0.556756 0.678074 0.135317
O O4 0.478778 0.826454 0.168286
O O5 0.310600 0.428600 0.959300
O O6 0.247261 0.523669 0.076613
O O7 0.295102 0.762946 0.988935
O O8 0.324670 0.578648 0.141241
O O9 0.965349 0.787943 0.448056
O O10 0.000000 0.500000 0.445893
O O11 0.048668 0.768782 0.496702
O O12 0.424520 0.027814 0.060734
O O13 0.385611 0.302833 0.986563
O O14 0.346746 0.258804 0.810875
O O15 0.397998 0.257734 0.654829
O O16 0.326407 0.075508 0.646997
O O17 0.678536 0.084696 0.466993
#
# Coordination Sequence:
#
# PCOD8190602 Si02
#       8
#     8   8   8   8   8   8   8   8
#     4  11  23  35  56  90 125 167 208 259 321 380
#     4  10  23  45  66 100 136 166 216 270 319 393
#     4   9  19  37  62  83 118 170 212 257 319 376
#     4  10  21  39  63  85 121 168 209 270 310 375
#     4  10  24  42  67  99 127 172 216 269 320 393
#     4  12  22  44  70  95 134 173 216 266 333 381
#     4  10  20  42  60  86 127 156 221 269 300 386
#     4  10  22  46  66  98 136 166 213 274 318 392
#
# _framework density 20.149633000000001
#
# number of rings (size 3 to 8) (size 9 to 14) (size 15 to 20)
#    0.750    1.000    2.500    2.625    1.750    4.000 
#    4.500    0.000    0.000    0.000    0.000    0.000 
#    0.000    0.000    0.000    0.000    0.000    0.000 
#
# Total GULP energy -396442.253262 kJ/mol
# GULP energy per Si atom -12388.820414 kJ/mol
# Density = 2.010377 g / cm^3
# Si number density = 20.149633 Si / 1000 Ang^3
#
#
#
# Elastic Constant Matrix: (Units=GPa)
#
#
# Indices 1 2 3 4 5 6 
#
# 1 120.2519 30.2962 74.8426 0.0000 0.0000 0.0000
# 2 30.2962 63.6850 26.2531 0.0000 0.0000 0.0000
# 3 74.8426 26.2531 166.1466 0.0000 0.0000 0.0000
# 4 0.0000 0.0000 0.0000 20.4784 0.0000 0.0000
# 5 0.0000 0.0000 0.0000 0.0000 17.8377 0.0000
# 6 0.0000 0.0000 0.0000 0.0000 0.0000 23.1098
#
#
#
# Elastic Compliance Matrix: (Units=1/GPa)
#
#
# Indices 1 2 3 4 5 6 
#
# 1 0.012375 -0.003839 -0.004968 0.000000 0.000000 0.000000
# 2 -0.003839 0.017987 -0.001113 0.000000 0.000000 0.000000
# 3 -0.004968 -0.001113 0.008432 0.000000 0.000000 0.000000
# 4 0.000000 0.000000 0.000000 0.048832 0.000000 0.000000
# 5 0.000000 0.000000 0.000000 0.000000 0.056061 0.000000
# 6 0.000000 0.000000 0.000000 0.000000 0.000000 0.043272
#
#
# Mechanical properties :
#
#
# Convention : Reuss Voigt Hill
#
# Bulk Modulus (GPa) = 52.75588 68.09638 60.42613
# Shear Modulus (GPa) = 23.46126 26.86463 25.16294
#
# Velocity S-wave (km/s) = 3.41596 3.65534 3.53768
# Velocity P-wave (km/s) = 6.46508 7.18916 6.83671
#
# Compressibility (1/GPa) = 0.01895523
#
# Stress axis : x y z
#
# Youngs Moduli (GPa) = 80.80810 55.59448 118.58972
#
# Poissons Ratio (x) = 0.21343 0.58913
# Poissons Ratio (y) = 0.31023 0.13197
# Poissons Ratio (z) = 0.40144 0.06187
#
# Static dielectric constant tensor:
#      x y z
#    x 3.802620 0.000000 0.000000 
#    y 0.000000 3.558410 0.000000 
#    z 0.000000 0.000000 3.517810 
# 
# 
# High freq. dielectric constant tensor:
#      x y z
#    x 1.791350 0.000000 0.000000 
#    y 0.000000 1.779600 0.000000 
#    z 0.000000 0.000000 1.773800 
# 
# From -- ./inp_files/4970.got.cif
#   From: 2010.03.12/outbox.cif.g09.slc.cpg/sg45_3_cif.got.tgz:4970.got - 2010.04.14 02:50:11.
