data_PCOD8190310
_publ_section_title
;
Structure prediction by ZEFSAII (Michael W. Deem and Ramdas Pophale) SiO2 
 PCOD8190310
Probable space group: I M M 2
;
_chemical_formula_sum "Si O2"
_cell_formula_units_Z 64
_cell_length_a 9.097197
_cell_length_b 24.468730
_cell_length_c 14.981783
_cell_angle_alpha 90.000000
_cell_angle_beta 90.000000
_cell_angle_gamma 90.000000
_cell_volume 3334.897810
_symmetry_space_group_name_H-M "I M M 2"
_symmetry_group_IT_number 44
_symmetry_cell_setting 'orthorhombic'
loop_
_space_group_symop_operation_xyz
x,y,z
-x,-y,z
-x,y,z
x,-y,z
1/2+x,1/2+y,1/2+z
1/2-x,1/2-y,1/2+z
1/2-x,1/2+y,1/2+z
1/2+x,1/2-y,1/2+z
loop_
_atom_site_type_symbol
_atom_site_label
_atom_site_fract_x
_atom_site_fract_y
_atom_site_fract_z
Si Si1 0.670004 0.755415 0.049830
Si Si2 0.173088 0.142716 0.738553
Si Si3 0.326312 0.439898 0.384823
Si Si4 0.672145 0.358837 0.536547
Si Si5 0.826681 0.436956 0.889289
Si Si6 0.669909 0.630734 0.742288
Si Si7 0.170591 0.748361 0.234434
Si Si8 0.831706 0.134907 0.532927
O O1 0.500000 0.764386 0.077381
O O2 0.732846 0.807777 0.996602
O O3 0.775274 0.753013 0.134084
O O4 0.684674 0.697675 0.997571
O O5 0.232150 0.093032 0.798708
O O6 0.242497 0.198358 0.779642
O O7 0.219467 0.131752 0.636247
O O8 0.000000 0.150568 0.746081
O O9 0.500000 0.444789 0.377646
O O10 0.253718 0.500000 0.384352
O O11 0.282909 0.410493 0.476825
O O12 0.500000 0.344415 0.528291
O O13 0.715074 0.373240 0.638298
O O14 0.777810 0.500000 0.895535
O O15 0.765369 0.411814 0.797862
O O16 0.000000 0.430851 0.888003
O O17 0.767205 0.405317 0.975510
O O18 0.500000 0.614902 0.754572
O O19 0.698006 0.692381 0.779924
O O20 0.000000 0.733603 0.235538
O O21 0.000000 0.115645 0.523457
#
# Coordination Sequence:
#
# PCOD8190310 Si02
#       8
#     8   8   8   8   8   8   8   8
#     4   9  17  31  53  81 110 137 169 210 259 315
#     4   9  18  33  55  83 110 138 174 213 258 310
#     4   9  18  33  53  78 108 141 180 221 254 297
#     4   9  18  33  55  83 110 138 174 213 258 310
#     4  11  25  40  53  74 102 135 180 227 268 311
#     4   9  19  35  55  79 106 137 172 212 260 315
#     4   9  17  31  53  81 110 137 169 210 259 315
#     4   9  19  35  55  79 106 137 172 212 260 315
#
# _framework density 19.190994
#
# number of rings (size 3 to 8) (size 9 to 14) (size 15 to 20)
#    0.000    2.750    0.000    2.625    0.000    8.000 
#    0.000    5.625    0.000    1.500    0.000    0.000 
#    0.000    0.000    0.000    0.000    0.000    0.000 
#
# Total GULP energy -396594.575180 kJ/mol
# GULP energy per Si atom -12393.580474 kJ/mol
# Density = 1.914731 g / cm^3
# Si number density = 19.190994 Si / 1000 Ang^3
#
#
#
# Elastic Constant Matrix: (Units=GPa)
#
#
# Indices 1 2 3 4 5 6 
#
# 1 54.0031 54.7996 31.8411 0.0004 0.0000 0.0000
# 2 54.7996 159.3888 59.2638 0.0023 0.0000 0.0000
# 3 31.8411 59.2638 87.3959 0.0087 0.0001 0.0000
# 4 0.0004 0.0023 0.0087 61.9021 -0.0003 -0.0001
# 5 0.0000 0.0000 0.0001 -0.0003 19.3938 0.0000
# 6 0.0000 0.0000 0.0000 -0.0001 0.0000 31.3912
#
#
#
# Elastic Compliance Matrix: (Units=1/GPa)
#
#
# Indices 1 2 3 4 5 6 
#
# 1 0.030165 -0.008404 -0.005292 0.000001 0.000000 0.000000
# 2 -0.008404 0.010730 -0.004215 0.000000 0.000000 0.000000
# 3 -0.005292 -0.004215 0.016228 -0.000002 0.000000 0.000000
# 4 0.000001 0.000000 -0.000002 0.016155 0.000000 0.000000
# 5 0.000000 0.000000 0.000000 0.000000 0.051563 0.000000
# 6 0.000000 0.000000 0.000000 0.000000 0.000000 0.031856
#
#
# Mechanical properties :
#
#
# Convention : Reuss Voigt Hill
#
# Bulk Modulus (GPa) = 46.93990 65.84409 56.39200
# Shear Modulus (GPa) = 25.04793 32.86297 28.95545
#
# Velocity S-wave (km/s) = 3.61666 4.14262 3.88855
# Velocity P-wave (km/s) = 6.47710 7.56744 7.04340
#
# Compressibility (1/GPa) = 0.02130384
#
# Stress axis : x y z
#
# Youngs Moduli (GPa) = 33.15112 93.19451 61.62188
#
# Poissons Ratio (x) = 0.78316 0.32608
# Poissons Ratio (y) = 0.27859 0.25971
# Poissons Ratio (z) = 0.17542 0.39278
#
# Static dielectric constant tensor:
#      x y z
#    x 3.400580 0.000000 0.000000 
#    y 0.000000 3.991100 0.000000 
#    z 0.000000 0.000000 3.407090 
# 
# 
# High freq. dielectric constant tensor:
#      x y z
#    x 1.729200 0.000000 0.000000 
#    y 0.000000 1.752920 0.000000 
#    z 0.000000 0.000000 1.734560 
# 
# From -- ./inp_files/16759.got.cif
#   From: 2010.03.12/outbox.cif.g09.slc.cpg/sg44_9_cif.got.tgz:16759.got - 2010.04.14 02:36:11.
