data_PCOD8190087
_publ_section_title
;
Structure prediction by ZEFSAII (Michael W. Deem and Ramdas Pophale) SiO2 
 PCOD8190087
Probable space group: I M M 2
;
_chemical_formula_sum "Si O2"
_cell_formula_units_Z 48
_cell_length_a 7.506256
_cell_length_b 9.037051
_cell_length_c 34.462506
_cell_angle_alpha 90.000000
_cell_angle_beta 90.000000
_cell_angle_gamma 90.000000
_cell_volume 2337.744047
_symmetry_space_group_name_H-M "I M M 2"
_symmetry_group_IT_number 44
_symmetry_cell_setting 'orthorhombic'
loop_
_space_group_symop_operation_xyz
x,y,z
-x,-y,z
-x,y,z
x,-y,z
1/2+x,1/2+y,1/2+z
1/2-x,1/2-y,1/2+z
1/2-x,1/2+y,1/2+z
1/2+x,1/2-y,1/2+z
loop_
_atom_site_type_symbol
_atom_site_label
_atom_site_fract_x
_atom_site_fract_y
_atom_site_fract_z
Si Si1 0.706690 0.335947 0.257480
Si Si2 0.291051 0.164843 0.841475
Si Si3 0.500000 0.670757 0.466421
Si Si4 0.500000 0.329015 0.557885
Si Si5 0.793012 0.826158 0.606592
Si Si6 0.708057 0.673292 0.917705
Si Si7 0.288601 0.835259 0.184307
O O1 0.500000 0.350011 0.248526
O O2 0.794616 0.500000 0.256646
O O3 0.738070 0.264118 0.299943
O O4 0.792768 0.235181 0.223766
O O5 0.500000 0.153843 0.844670
O O6 0.220904 0.268468 0.876060
O O7 0.206281 0.000000 0.845296
O O8 0.500000 0.500000 0.453779
O O9 0.500000 0.689842 0.512153
O O10 0.679304 0.747201 0.450946
O O11 0.500000 0.500000 0.570510
O O12 0.321630 0.251375 0.573379
O O13 0.728856 0.764182 0.648067
O O14 0.000000 0.789491 0.598758
O O15 0.756524 0.000000 0.606175
O O16 0.500000 0.710222 0.924402
O O17 0.744824 0.500000 0.919468
O O18 0.500000 0.842416 0.186849
O O19 0.209396 0.000000 0.179469
#
# Coordination Sequence:
#
# PCOD8190087 Si02
#       7
#     8   8   4   4   8   8   8
#     4   9  17  29  47  73 106 146 193 243 291 346
#     4   9  18  33  52  76 109 150 195 241 291 350
#     4  11  25  43  65  91 121 157 199 245 297 363
#     4  11  25  43  63  93 125 153 195 249 301 361
#     4  10  21  39  64  90 119 159 200 243 297 357
#     4  10  22  40  62  89 121 157 197 246 301 357
#     4   9  17  31  52  78 110 150 195 242 292 346
#
# _framework density 20.532616999999998
#
# number of rings (size 3 to 8) (size 9 to 14) (size 15 to 20)
#    0.000    2.333    0.000    2.000    1.167    6.667 
#    1.500    3.333    0.000    0.000    0.000    0.000 
#    0.000    0.000    0.000    0.000    0.000    0.000 
#
# Total GULP energy -297581.769125 kJ/mol
# GULP energy per Si atom -12399.240380 kJ/mol
# Density = 2.048588 g / cm^3
# Si number density = 20.532617 Si / 1000 Ang^3
#
#
#
# Elastic Constant Matrix: (Units=GPa)
#
#
# Indices 1 2 3 4 5 6 
#
# 1 69.7794 49.6510 47.0135 0.0000 0.0000 0.0000
# 2 49.6510 147.8101 82.3193 0.0000 0.0000 0.0000
# 3 47.0135 82.3193 140.4201 0.0000 0.0000 0.0000
# 4 0.0000 0.0000 0.0000 36.1894 0.0000 0.0000
# 5 0.0000 0.0000 0.0000 0.0000 88.4545 0.0000
# 6 0.0000 0.0000 0.0000 0.0000 0.0000 23.0285
#
#
#
# Elastic Compliance Matrix: (Units=1/GPa)
#
#
# Indices 1 2 3 4 5 6 
#
# 1 0.020351 -0.004516 -0.004166 0.000000 0.000000 0.000000
# 2 -0.004516 0.011047 -0.004964 0.000000 0.000000 0.000000
# 3 -0.004166 -0.004964 0.011427 0.000000 0.000000 0.000000
# 4 0.000000 0.000000 0.000000 0.027632 0.000000 0.000000
# 5 0.000000 0.000000 0.000000 0.000000 0.011305 0.000000
# 6 0.000000 0.000000 0.000000 0.000000 0.000000 0.043424
#
#
# Mechanical properties :
#
#
# Convention : Reuss Voigt Hill
#
# Bulk Modulus (GPa) = 64.38328 79.55302 71.96815
# Shear Modulus (GPa) = 31.71438 41.46954 36.59196
#
# Velocity S-wave (km/s) = 3.93439 4.49897 4.22612
# Velocity P-wave (km/s) = 7.21553 8.11274 7.67725
#
# Compressibility (1/GPa) = 0.01553198
#
# Stress axis : x y z
#
# Youngs Moduli (GPa) = 49.13729 90.52164 87.51476
#
# Poissons Ratio (x) = 0.40878 0.36462
# Poissons Ratio (y) = 0.22189 0.43445
# Poissons Ratio (z) = 0.20472 0.44937
#
# Static dielectric constant tensor:
#      x y z
#    x 3.483800 0.000000 0.000000 
#    y 0.000000 3.946530 0.000000 
#    z 0.000000 0.000000 3.772050 
# 
# 
# High freq. dielectric constant tensor:
#      x y z
#    x 1.794580 0.000000 0.000000 
#    y 0.000000 1.804020 0.000000 
#    z 0.000000 0.000000 1.804600 
# 
# From -- ./inp_files/26919.got.cif
#   From: 2010.03.12/outbox.cif.g09.slc.cpg/sg44_14_cif.got.tgz:26919.got - 2010.04.14 02:36:11.
