data_PCOD8190832
_publ_section_title
;
Structure prediction by ZEFSAII (Michael W. Deem and Ramdas Pophale) SiO2 
 PCOD8190832
Probable space group: I B A 2
;
_chemical_formula_sum "Si O2"
_cell_formula_units_Z 64
_cell_length_a 15.404147
_cell_length_b 21.536519
_cell_length_c 9.537940
_cell_angle_alpha 90.000000
_cell_angle_beta 90.000000
_cell_angle_gamma 90.000000
_cell_volume 3164.227853
_symmetry_space_group_name_H-M "I B A 2"
_symmetry_group_IT_number 45
_symmetry_cell_setting 'orthorhombic'
loop_
_space_group_symop_operation_xyz
x,y,z
-x,-y,z
-x,y,1/2+z
x,-y,1/2+z
1/2+x,1/2+y,1/2+z
1/2-x,1/2-y,1/2+z
1/2-x,1/2+y,z
1/2+x,1/2-y,z
loop_
_atom_site_type_symbol
_atom_site_label
_atom_site_fract_x
_atom_site_fract_y
_atom_site_fract_z
Si Si1 0.689212 0.474611 0.111080
Si Si2 0.896236 0.395517 0.449540
Si Si3 0.347880 0.753994 0.269702
Si Si4 0.754167 0.192479 0.020696
Si Si5 0.595561 0.401743 0.554467
Si Si6 0.557583 0.119088 0.261274
Si Si7 0.434027 0.373975 0.740390
Si Si8 0.306327 0.019435 0.861024
O O1 0.617885 0.526325 0.074597
O O2 0.641750 0.415438 0.174936
O O3 0.760806 0.500650 0.217128
O O4 0.735519 0.452652 0.968085
O O5 0.826845 0.339901 0.443451
O O6 0.948333 0.393511 0.595593
O O7 0.848016 0.460467 0.436424
O O8 0.961216 0.387887 0.320282
O O9 0.275668 0.767901 0.153391
O O10 0.300389 0.738916 0.414652
O O11 0.409844 0.812194 0.295497
O O12 0.407085 0.697169 0.219552
O O13 0.818323 0.139017 0.075844
O O14 0.526545 0.382648 0.670378
O O15 0.554064 0.391503 0.402428
O O16 0.621167 0.070456 0.334183
#
# Coordination Sequence:
#
# PCOD8190832 Si02
#       8
#     8   8   8   8   8   8   8   8
#     4  12  23  42  68  97 131 168 215 272 334 393
#     4  11  24  45  63  97 133 169 220 279 332 390
#     4  10  24  44  62 100 126 174 226 262 334 400
#     4  10  22  44  66  88 132 172 218 280 322 398
#     4  11  24  45  63  97 133 169 220 279 332 390
#     4  11  26  41  66  97 133 172 220 272 332 397
#     4  11  26  41  66  97 133 172 220 272 332 397
#     4  12  23  42  68  97 131 168 215 272 334 393
#
# _framework density 20.226102999999998
#
# number of rings (size 3 to 8) (size 9 to 14) (size 15 to 20)
#    0.000    1.000    3.750    2.250    5.250    9.000 
#    0.000    0.000    0.000    0.000    0.000    0.000 
#    0.000    0.000    0.000    0.000    0.000    0.000 
#
# Total GULP energy -397030.088802 kJ/mol
# GULP energy per Si atom -12407.190275 kJ/mol
# Density = 2.018007 g / cm^3
# Si number density = 20.226103 Si / 1000 Ang^3
#
#
#
# Elastic Constant Matrix: (Units=GPa)
#
#
# Indices 1 2 3 4 5 6 
#
# 1 73.5215 -8.8037 26.6400 0.0000 0.0000 0.0000
# 2 -8.8037 66.6752 17.2461 0.0000 0.0000 0.0000
# 3 26.6400 17.2461 73.7220 0.0000 0.0000 0.0000
# 4 0.0000 0.0000 0.0000 32.1831 0.0000 0.0000
# 5 0.0000 0.0000 0.0000 0.0000 39.9286 0.0000
# 6 0.0000 0.0000 0.0000 0.0000 0.0000 19.7355
#
#
#
# Elastic Compliance Matrix: (Units=1/GPa)
#
#
# Indices 1 2 3 4 5 6 
#
# 1 0.016588 0.003982 -0.006926 0.000000 0.000000 0.000000
# 2 0.003982 0.016920 -0.005397 0.000000 0.000000 0.000000
# 3 -0.006926 -0.005397 0.017330 0.000000 0.000000 0.000000
# 4 0.000000 0.000000 0.000000 0.031072 0.000000 0.000000
# 5 0.000000 0.000000 0.000000 0.000000 0.025045 0.000000
# 6 0.000000 0.000000 0.000000 0.000000 0.000000 0.050670
#
#
# Mechanical properties :
#
#
# Convention : Reuss Voigt Hill
#
# Bulk Modulus (GPa) = 29.27802 31.56483 30.42142
# Shear Modulus (GPa) = 26.92650 30.29188 28.60919
#
# Velocity S-wave (km/s) = 3.65262 3.87416 3.76502
# Velocity P-wave (km/s) = 5.68293 5.97093 5.82871
#
# Compressibility (1/GPa) = 0.03415532
#
# Stress axis : x y z
#
# Youngs Moduli (GPa) = 60.28581 59.10253 57.70477
#
# Poissons Ratio (x) = -0.23532 0.39963
# Poissons Ratio (y) = -0.24003 0.31143
# Poissons Ratio (z) = 0.41751 0.31897
#
# Static dielectric constant tensor:
#      x y z
#    x 3.692810 0.000000 0.000000 
#    y 0.000000 3.773150 0.000000 
#    z 0.000000 0.000000 3.785920 
# 
# 
# High freq. dielectric constant tensor:
#      x y z
#    x 1.797550 0.000000 0.000000 
#    y 0.000000 1.798180 0.000000 
#    z 0.000000 0.000000 1.802480 
# 
# From -- ./inp_files/2212.got.cif
#   From: 2010.03.12/outbox.cif.g09.slc.cpg/sg45_2_cif.got.tgz:2212.got - 2010.04.14 02:50:11.
