data_PCOD8190149
_publ_section_title
;
Structure prediction by ZEFSAII (Michael W. Deem and Ramdas Pophale) SiO2 
 PCOD8190149
Probable space group: I M M 2
;
_chemical_formula_sum "Si O2"
_cell_formula_units_Z 64
_cell_length_a 8.784973
_cell_length_b 26.628181
_cell_length_c 13.007481
_cell_angle_alpha 90.000000
_cell_angle_beta 90.000000
_cell_angle_gamma 90.000000
_cell_volume 3042.812079
_symmetry_space_group_name_H-M "I M M 2"
_symmetry_group_IT_number 44
_symmetry_cell_setting 'orthorhombic'
loop_
_space_group_symop_operation_xyz
x,y,z
-x,-y,z
-x,y,z
x,-y,z
1/2+x,1/2+y,1/2+z
1/2-x,1/2-y,1/2+z
1/2-x,1/2+y,1/2+z
1/2+x,1/2-y,1/2+z
loop_
_atom_site_type_symbol
_atom_site_label
_atom_site_fract_x
_atom_site_fract_y
_atom_site_fract_z
Si Si1 0.320457 0.124005 0.019090
Si Si2 0.822923 0.878270 0.235667
Si Si3 0.673407 0.726708 0.460755
Si Si4 0.823991 0.558604 0.914712
Si Si5 0.327223 0.301206 0.088202
Si Si6 0.325191 0.442116 0.340673
Si Si7 0.832235 0.276889 0.759602
Si Si8 0.179894 0.402265 0.137667
O O1 0.500000 0.118429 0.015051
O O2 0.263624 0.106119 0.131018
O O3 0.276193 0.181782 0.002143
O O4 0.250769 0.090249 0.929763
O O5 0.773942 0.913474 0.329255
O O6 0.791759 0.820647 0.266987
O O7 0.000000 0.885605 0.215372
O O8 0.500000 0.718118 0.498171
O O9 0.732382 0.783139 0.489252
O O10 0.687481 0.730304 0.337994
O O11 0.795239 0.500000 0.901140
O O12 0.000000 0.572887 0.899979
O O13 0.768897 0.574455 0.028617
O O14 0.500000 0.316922 0.061140
O O15 0.319799 0.249622 0.150872
O O16 0.243740 0.346115 0.146269
O O17 0.500000 0.425356 0.331363
O O18 0.309086 0.500000 0.372186
O O19 0.246915 0.434646 0.230480
O O20 0.000000 0.301673 0.773401
O O21 0.000000 0.401858 0.149471
#
# Coordination Sequence:
#
# PCOD8190149 Si02
#       8
#     8   8   8   8   8   8   8   8
#     4  12  25  43  67  94 130 173 219 269 327 394
#     4  12  25  41  65  95 130 170 217 272 327 386
#     4  11  22  38  61  91 127 166 210 261 315 374
#     4  10  23  44  68  93 126 171 219 269 328 391
#     4  11  22  37  59  89 126 169 211 252 309 375
#     4  11  25  45  69  97 130 169 216 274 337 396
#     4  10  22  39  59  85 124 168 207 252 309 376
#     4  11  23  41  67  99 134 171 218 271 326 393
#
# _framework density 21.033176000000001
#
# number of rings (size 3 to 8) (size 9 to 14) (size 15 to 20)
#    0.000    1.000    1.250    5.625    0.000    8.750 
#    0.000    0.000    0.000    0.000    0.000    0.000 
#    0.000    0.000    0.000    0.000    0.000    0.000 
#
# Total GULP energy -396854.491882 kJ/mol
# GULP energy per Si atom -12401.702871 kJ/mol
# Density = 2.098530 g / cm^3
# Si number density = 21.033176 Si / 1000 Ang^3
#
#
#
# Elastic Constant Matrix: (Units=GPa)
#
#
# Indices 1 2 3 4 5 6 
#
# 1 140.9825 43.2951 53.4090 0.0000 -0.0002 0.0002
# 2 43.2951 81.4721 33.4706 0.0000 0.0000 0.0002
# 3 53.4090 33.4706 114.6150 0.0002 -0.0001 0.0007
# 4 0.0000 0.0000 0.0002 35.1228 0.0001 0.0001
# 5 -0.0002 0.0000 -0.0001 0.0001 33.4173 0.0001
# 6 0.0002 0.0002 0.0007 0.0001 0.0001 28.8439
#
#
#
# Elastic Compliance Matrix: (Units=1/GPa)
#
#
# Indices 1 2 3 4 5 6 
#
# 1 0.009488 -0.003665 -0.003351 0.000000 0.000000 0.000000
# 2 -0.003665 0.015363 -0.002778 0.000000 0.000000 0.000000
# 3 -0.003351 -0.002778 0.011098 0.000000 0.000000 0.000000
# 4 0.000000 0.000000 0.000000 0.028471 0.000000 0.000000
# 5 0.000000 0.000000 0.000000 0.000000 0.029925 0.000000
# 6 0.000000 0.000000 0.000000 0.000000 0.000000 0.034669
#
#
# Mechanical properties :
#
#
# Convention : Reuss Voigt Hill
#
# Bulk Modulus (GPa) = 61.12620 66.37990 63.75305
# Shear Modulus (GPa) = 32.45532 33.26979 32.86255
#
# Velocity S-wave (km/s) = 3.93243 3.98147 3.95703
# Velocity P-wave (km/s) = 7.05291 7.26390 7.15919
#
# Compressibility (1/GPa) = 0.01635960
#
# Stress axis : x y z
#
# Youngs Moduli (GPa) = 105.39421 65.08948 90.10840
#
# Poissons Ratio (x) = 0.23858 0.30195
# Poissons Ratio (y) = 0.38632 0.25036
# Poissons Ratio (z) = 0.35317 0.18085
#
# Static dielectric constant tensor:
#      x y z
#    x 3.904420 0.000000 0.000000 
#    y 0.000000 3.652990 0.000000 
#    z 0.000000 0.000000 4.015520 
# 
# 
# High freq. dielectric constant tensor:
#      x y z
#    x 1.831010 0.000000 0.000000 
#    y 0.000000 1.822190 0.000000 
#    z 0.000000 0.000000 1.841490 
# 
# From -- ./inp_files/16842.got.cif
#   From: 2010.03.12/outbox.cif.g09.slc.cpg/sg44_9_cif.got.tgz:16842.got - 2010.04.14 02:36:11.
