data_PCOD8190842
_publ_section_title
;
Structure prediction by ZEFSAII (Michael W. Deem and Ramdas Pophale) SiO2 
 PCOD8190842
Probable space group: I B A 2
;
_chemical_formula_sum "Si O2"
_cell_formula_units_Z 56
_cell_length_a 14.376820
_cell_length_b 13.713693
_cell_length_c 13.373515
_cell_angle_alpha 90.000000
_cell_angle_beta 90.000000
_cell_angle_gamma 90.000000
_cell_volume 2636.712800
_symmetry_space_group_name_H-M "I B A 2"
_symmetry_group_IT_number 45
_symmetry_cell_setting 'orthorhombic'
loop_
_space_group_symop_operation_xyz
x,y,z
-x,-y,z
-x,y,1/2+z
x,-y,1/2+z
1/2+x,1/2+y,1/2+z
1/2-x,1/2-y,1/2+z
1/2-x,1/2+y,z
1/2+x,1/2-y,z
loop_
_atom_site_type_symbol
_atom_site_label
_atom_site_fract_x
_atom_site_fract_y
_atom_site_fract_z
Si Si1 0.985361 0.320378 0.013500
Si Si2 0.794430 0.616268 0.605184
Si Si3 0.653457 0.776953 0.655181
Si Si4 0.194216 0.999218 0.440516
Si Si5 0.683925 0.033863 0.262613
Si Si6 0.392830 0.325138 0.859790
Si Si7 0.000000 0.500000 0.883413
Si Si8 0.000000 0.000000 0.885994
O O1 0.060412 0.274529 0.089035
O O2 0.899489 0.361135 0.076591
O O3 0.032163 0.409440 0.952553
O O4 0.948508 0.239125 0.938639
O O5 0.732108 0.713564 0.599590
O O6 0.753729 0.530293 0.535778
O O7 0.795399 0.572548 0.716515
O O8 0.687925 0.887141 0.673099
O O9 0.639338 0.736915 0.766817
O O10 0.237951 0.943209 0.344934
O O11 0.191950 0.117309 0.417958
O O12 0.086944 0.964237 0.455028
O O13 0.583644 0.035304 0.314221
O O14 0.463730 0.409502 0.818729
#
# Coordination Sequence:
#
# PCOD8190842 Si02
#       8
#     8   8   8   8   8   8   4   4
#     4  12  26  44  72 106 139 188 238 290 360 423
#     4  12  25  45  72 106 135 190 236 296 355 422
#     4  12  26  45  71 107 142 179 246 290 353 429
#     4  10  22  46  69 101 139 180 231 288 360 406
#     4  12  25  46  68 100 143 186 240 290 348 424
#     4  10  22  47  66 102 136 181 227 290 358 420
#     4  12  24  48  70  96 152 188 236 304 346 412
#     4   8  20  40  72  92 136 178 218 286 356 416
#
# _framework density 21.238567
#
# number of rings (size 3 to 8) (size 9 to 14) (size 15 to 20)
#    0.857    0.000    4.286    2.571    2.000    1.143 
#    5.143    0.714    0.000    0.000    0.000    0.000 
#    0.000    0.000    0.000    0.000    0.000    0.000 
#
# Total GULP energy -347012.312833 kJ/mol
# GULP energy per Si atom -12393.296887 kJ/mol
# Density = 2.119023 g / cm^3
# Si number density = 21.238567 Si / 1000 Ang^3
#
#
#
# Elastic Constant Matrix: (Units=GPa)
#
#
# Indices 1 2 3 4 5 6 
#
# 1 79.7185 27.7272 28.4056 0.0000 0.0000 0.0000
# 2 27.7272 99.4338 30.5820 0.0000 0.0000 0.0000
# 3 28.4056 30.5820 78.4243 0.0000 0.0000 0.0000
# 4 0.0000 0.0000 0.0000 41.0193 0.0000 0.0000
# 5 0.0000 0.0000 0.0000 0.0000 21.5142 0.0000
# 6 0.0000 0.0000 0.0000 0.0000 0.0000 39.9552
#
#
#
# Elastic Compliance Matrix: (Units=1/GPa)
#
#
# Indices 1 2 3 4 5 6 
#
# 1 0.015092 -0.002871 -0.004346 0.000000 0.000000 0.000000
# 2 -0.002871 0.011974 -0.003629 0.000000 0.000000 0.000000
# 3 -0.004346 -0.003629 0.015741 0.000000 0.000000 0.000000
# 4 0.000000 0.000000 0.000000 0.024379 0.000000 0.000000
# 5 0.000000 0.000000 0.000000 0.000000 0.046481 0.000000
# 6 0.000000 0.000000 0.000000 0.000000 0.000000 0.025028
#
#
# Mechanical properties :
#
#
# Convention : Reuss Voigt Hill
#
# Bulk Modulus (GPa) = 47.36688 47.88957 47.62822
# Shear Modulus (GPa) = 29.86400 31.88853 30.87627
#
# Velocity S-wave (km/s) = 3.75390 3.87905 3.81699
# Velocity P-wave (km/s) = 6.41402 6.53147 6.47301
#
# Compressibility (1/GPa) = 0.02111180
#
# Stress axis : x y z
#
# Youngs Moduli (GPa) = 66.26186 83.51521 63.52955
#
# Poissons Ratio (x) = 0.23981 0.27613
# Poissons Ratio (y) = 0.19027 0.23056
# Poissons Ratio (z) = 0.28801 0.30309
#
# Static dielectric constant tensor:
#      x y z
#    x 3.830760 0.000000 0.000000 
#    y 0.000000 4.003240 0.000000 
#    z 0.000000 0.000000 3.656320 
# 
# 
# High freq. dielectric constant tensor:
#      x y z
#    x 1.834240 0.000000 0.000000 
#    y 0.000000 1.842560 0.000000 
#    z 0.000000 0.000000 1.823950 
# 
# From -- ./inp_files/4190.got.cif
#   From: 2010.03.12/outbox.cif.g09.slc.cpg/sg45_3_cif.got.tgz:4190.got - 2010.04.14 02:50:11.
