data_PCOD8190627
_publ_section_title
;
Structure prediction by ZEFSAII (Michael W. Deem and Ramdas Pophale) SiO2 
 PCOD8190627
Probable space group: I B A 2
;
_chemical_formula_sum "Si O2"
_cell_formula_units_Z 56
_cell_length_a 5.032435
_cell_length_b 16.571140
_cell_length_c 33.174864
_cell_angle_alpha 90.000000
_cell_angle_beta 90.000000
_cell_angle_gamma 90.000000
_cell_volume 2766.557568
_symmetry_space_group_name_H-M "I B A 2"
_symmetry_group_IT_number 45
_symmetry_cell_setting 'orthorhombic'
loop_
_space_group_symop_operation_xyz
x,y,z
-x,-y,z
-x,y,1/2+z
x,-y,1/2+z
1/2+x,1/2+y,1/2+z
1/2-x,1/2-y,1/2+z
1/2-x,1/2+y,z
1/2+x,1/2-y,z
loop_
_atom_site_type_symbol
_atom_site_label
_atom_site_fract_x
_atom_site_fract_y
_atom_site_fract_z
Si Si1 0.739928 0.052635 0.746730
Si Si2 0.376787 0.694704 0.398492
Si Si3 0.015742 0.095511 0.477278
Si Si4 0.341265 0.801005 0.689784
Si Si5 0.811390 0.301457 0.098492
Si Si6 0.513946 0.905410 0.026118
Si Si7 0.743991 0.946248 0.339196
O O1 0.757809 0.132403 0.720621
O O2 0.687959 0.077537 0.792981
O O3 0.500000 0.000000 0.729628
O O4 0.000000 0.000000 0.741636
O O5 0.671637 0.731267 0.396659
O O6 0.373361 0.640889 0.438435
O O7 0.294348 0.637370 0.361757
O O8 0.724756 0.123598 0.491920
O O9 0.220774 0.121569 0.512574
O O10 0.000000 0.000000 0.468163
O O11 0.644478 0.774589 0.697161
O O12 0.324741 0.834224 0.644151
O O13 0.510694 0.273220 0.090543
O O14 0.896286 0.373027 0.069211
O O15 0.500000 0.000000 0.030717
O O16 0.500000 0.000000 0.356672
O O17 0.000000 0.000000 0.344256
#
# Coordination Sequence:
#
# PCOD8190627 Si02
#       7
#     8   8   8   8   8   8   8
#     4  10  21  38  61  88 113 147 194 235 277 335
#     4  12  25  38  58  90 117 144 192 241 282 334
#     4  10  22  39  57  78 111 151 186 227 285 340
#     4  10  21  37  57  84 118 154 188 229 288 345
#     4  10  21  36  55  80 112 149 184 224 281 337
#     4  10  21  37  57  81 107 144 192 234 275 328
#     4  10  22  41  62  83 115 155 188 226 286 347
#
# _framework density 20.241762999999999
#
# number of rings (size 3 to 8) (size 9 to 14) (size 15 to 20)
#    0.000    1.714    0.000    3.857    0.000    6.857 
#    0.000    2.143    0.000    0.000    0.000    0.000 
#    0.000    0.000    0.000    0.000    0.000    0.000 
#
# Total GULP energy -347181.327982 kJ/mol
# GULP energy per Si atom -12399.333142 kJ/mol
# Density = 2.019569 g / cm^3
# Si number density = 20.241763 Si / 1000 Ang^3
#
#
#
# Elastic Constant Matrix: (Units=GPa)
#
#
# Indices 1 2 3 4 5 6 
#
# 1 101.4522 24.9508 25.8509 0.0000 0.0000 0.0000
# 2 24.9508 65.9334 56.6812 0.0000 0.0000 0.0000
# 3 25.8509 56.6812 101.9816 0.0000 0.0000 0.0000
# 4 0.0000 0.0000 0.0000 28.3689 0.0000 0.0000
# 5 0.0000 0.0000 0.0000 0.0000 33.6055 0.0000
# 6 0.0000 0.0000 0.0000 0.0000 0.0000 31.8854
#
#
#
# Elastic Compliance Matrix: (Units=1/GPa)
#
#
# Indices 1 2 3 4 5 6 
#
# 1 0.010911 -0.003354 -0.000902 0.000000 0.000000 0.000000
# 2 -0.003354 0.030075 -0.015866 0.000000 0.000000 0.000000
# 3 -0.000902 -0.015866 0.018852 0.000000 0.000000 0.000000
# 4 0.000000 0.000000 0.000000 0.035250 0.000000 0.000000
# 5 0.000000 0.000000 0.000000 0.000000 0.029757 0.000000
# 6 0.000000 0.000000 0.000000 0.000000 0.000000 0.031362
#
#
# Mechanical properties :
#
#
# Convention : Reuss Voigt Hill
#
# Bulk Modulus (GPa) = 51.02964 53.81479 52.42222
# Shear Modulus (GPa) = 24.63259 29.56425 27.09842
#
# Velocity S-wave (km/s) = 3.49222 3.82587 3.66285
# Velocity P-wave (km/s) = 6.44404 6.79412 6.62139
#
# Compressibility (1/GPa) = 0.01959645
#
# Stress axis : x y z
#
# Youngs Moduli (GPa) = 91.64647 33.24994 53.04373
#
# Poissons Ratio (x) = 0.11152 0.04784
# Poissons Ratio (y) = 0.30737 0.84157
# Poissons Ratio (z) = 0.08265 0.52753
#
# Static dielectric constant tensor:
#      x y z
#    x 3.994400 0.000000 0.000000 
#    y 0.000000 3.540550 0.000000 
#    z 0.000000 0.000000 3.710130 
# 
# 
# High freq. dielectric constant tensor:
#      x y z
#    x 1.815090 0.000000 0.000000 
#    y 0.000000 1.778490 0.000000 
#    z 0.000000 0.000000 1.790780 
# 
# From -- ./inp_files/10129.got.cif
#   From: 2010.03.12/outbox.cif.g09.slc.cpg/sg45_6_cif.got.tgz:10129.got - 2010.04.14 02:50:11.
