data_PCOD8190294
_publ_section_title
;
Structure prediction by ZEFSAII (Michael W. Deem and Ramdas Pophale) SiO2 
 PCOD8190294
Probable space group: I M M 2
;
_chemical_formula_sum "Si O2"
_cell_formula_units_Z 48
_cell_length_a 27.865717
_cell_length_b 8.306626
_cell_length_c 9.818445
_cell_angle_alpha 90.000000
_cell_angle_beta 90.000000
_cell_angle_gamma 90.000000
_cell_volume 2272.676341
_symmetry_space_group_name_H-M "I M M 2"
_symmetry_group_IT_number 44
_symmetry_cell_setting 'orthorhombic'
loop_
_space_group_symop_operation_xyz
x,y,z
-x,-y,z
-x,y,z
x,-y,z
1/2+x,1/2+y,1/2+z
1/2-x,1/2-y,1/2+z
1/2-x,1/2+y,1/2+z
1/2+x,1/2-y,1/2+z
loop_
_atom_site_type_symbol
_atom_site_label
_atom_site_fract_x
_atom_site_fract_y
_atom_site_fract_z
Si Si1 0.613001 0.813605 0.072710
Si Si2 0.608447 0.812437 0.568508
Si Si3 0.293501 0.313091 0.655836
Si Si4 0.789164 0.813702 0.470021
Si Si5 0.052004 0.690062 0.325667
Si Si6 0.555222 0.685908 0.315878
O O1 0.591177 0.786525 0.221114
O O2 0.627239 0.000000 0.053648
O O3 0.659093 0.706760 0.039106
O O4 0.571111 0.756552 0.971886
O O5 0.665066 0.778818 0.572106
O O6 0.589272 0.750910 0.713440
O O7 0.577973 0.707564 0.463715
O O8 0.599122 0.000000 0.539086
O O9 0.306464 0.500000 0.661728
O O10 0.246118 0.286712 0.566795
O O11 0.287819 0.249571 0.812669
O O12 0.774147 0.000000 0.473638
O O13 0.047055 0.500000 0.317581
O O14 0.000000 0.770783 0.303067
O O15 0.500000 0.750123 0.311610
O O16 0.556337 0.500000 0.273952
#
# Coordination Sequence:
#
# PCOD8190294 Si02
#       6
#     8   8   8   8   8   8
#     4  11  22  40  66  94 128 166 211 263 317 378
#     4  11  22  40  66  94 128 166 211 263 317 378
#     4  11  25  44  67  95 129 167 212 261 319 383
#     4  11  25  44  67  95 129 167 212 261 319 383
#     4   9  18  34  60  93 124 157 201 254 308 365
#     4  11  25  43  62  91 132 175 217 262 316 377
#
# _framework density 21.120474999999999
#
# number of rings (size 3 to 8) (size 9 to 14) (size 15 to 20)
#    0.000    1.333    1.667    3.500    2.333    4.667 
#    0.000    0.000    0.000    4.000    0.000    0.000 
#    0.000    0.000    0.000    0.000    0.000    0.000 
#
# Total GULP energy -297626.404806 kJ/mol
# GULP energy per Si atom -12401.100200 kJ/mol
# Density = 2.107240 g / cm^3
# Si number density = 21.120475 Si / 1000 Ang^3
#
#
#
# Elastic Constant Matrix: (Units=GPa)
#
#
# Indices 1 2 3 4 5 6 
#
# 1 125.1187 15.2981 39.9699 0.0000 0.0000 0.0000
# 2 15.2981 43.5036 17.3842 0.0000 0.0000 0.0000
# 3 39.9699 17.3842 99.7363 0.0000 0.0000 0.0000
# 4 0.0000 0.0000 0.0000 27.3260 0.0000 0.0000
# 5 0.0000 0.0000 0.0000 0.0000 41.2741 0.0000
# 6 0.0000 0.0000 0.0000 0.0000 0.0000 29.6350
#
#
#
# Elastic Compliance Matrix: (Units=1/GPa)
#
#
# Indices 1 2 3 4 5 6 
#
# 1 0.009312 -0.001917 -0.003398 0.000000 0.000000 0.000000
# 2 -0.001917 0.025102 -0.003607 0.000000 0.000000 0.000000
# 3 -0.003398 -0.003607 0.012017 0.000000 0.000000 0.000000
# 4 0.000000 0.000000 0.000000 0.036595 0.000000 0.000000
# 5 0.000000 0.000000 0.000000 0.000000 0.024228 0.000000
# 6 0.000000 0.000000 0.000000 0.000000 0.000000 0.033744
#
#
# Mechanical properties :
#
#
# Convention : Reuss Voigt Hill
#
# Bulk Modulus (GPa) = 34.98030 45.96257 40.47144
# Shear Modulus (GPa) = 29.69626 32.69412 31.19519
#
# Velocity S-wave (km/s) = 3.75379 3.93871 3.84736
# Velocity P-wave (km/s) = 5.94863 6.51873 6.24019
#
# Compressibility (1/GPa) = 0.02858752
#
# Stress axis : x y z
#
# Youngs Moduli (GPa) = 107.38552 39.83731 83.21636
#
# Poissons Ratio (x) = 0.07636 0.28275
# Poissons Ratio (y) = 0.20585 0.30017
# Poissons Ratio (z) = 0.36488 0.14370
#
# Static dielectric constant tensor:
#      x y z
#    x 3.867030 0.000000 0.000000 
#    y 0.000000 3.514000 0.000000 
#    z 0.000000 0.000000 3.875620 
# 
# 
# High freq. dielectric constant tensor:
#      x y z
#    x 1.840480 0.000000 0.000000 
#    y 0.000000 1.812940 0.000000 
#    z 0.000000 0.000000 1.837060 
# 
# From -- ./inp_files/9969.got.cif
#   From: 2010.03.12/outbox.cif.g09.slc.cpg/sg44_5_cif.got.tgz:9969.got - 2010.04.14 02:36:11.
