data_PCOD8190335
_publ_section_title
;
Structure prediction by ZEFSAII (Michael W. Deem and Ramdas Pophale) SiO2 
 PCOD8190335
Probable space group: I M M 2
;
_chemical_formula_sum "Si O2"
_cell_formula_units_Z 64
_cell_length_a 19.984391
_cell_length_b 9.365983
_cell_length_c 20.317104
_cell_angle_alpha 90.000000
_cell_angle_beta 90.000000
_cell_angle_gamma 90.000000
_cell_volume 3802.822782
_symmetry_space_group_name_H-M "I M M 2"
_symmetry_group_IT_number 44
_symmetry_cell_setting 'orthorhombic'
loop_
_space_group_symop_operation_xyz
x,y,z
-x,-y,z
-x,y,z
x,-y,z
1/2+x,1/2+y,1/2+z
1/2-x,1/2-y,1/2+z
1/2-x,1/2+y,1/2+z
1/2+x,1/2-y,1/2+z
loop_
_atom_site_type_symbol
_atom_site_label
_atom_site_fract_x
_atom_site_fract_y
_atom_site_fract_z
Si Si1 0.925851 0.669894 0.080620
Si Si2 0.822411 0.329703 0.186219
Si Si3 0.422157 0.164859 0.432667
Si Si4 0.923034 0.833418 0.573995
Si Si5 0.827997 0.831285 0.834893
Si Si6 0.826656 0.830716 0.687249
Si Si7 0.323230 0.830943 0.832517
Si Si8 0.923135 0.332616 0.443318
O O1 0.926405 0.500000 0.084213
O O2 0.873751 0.735986 0.133019
O O3 0.000000 0.727832 0.097826
O O4 0.905557 0.716103 0.006893
O O5 0.825353 0.500000 0.184697
O O6 0.747688 0.277035 0.168080
O O7 0.841402 0.273888 0.259382
O O8 0.500000 0.189756 0.417112
O O9 0.378741 0.257720 0.383818
O O10 0.402984 0.000000 0.423362
O O11 0.879654 0.771149 0.634501
O O12 0.901563 0.748809 0.509093
O O13 0.000000 0.805095 0.591952
O O14 0.908961 0.000000 0.561524
O O15 0.845441 0.779399 0.760767
O O16 0.751980 0.784577 0.852229
O O17 0.836545 0.000000 0.841698
O O18 0.827835 0.000000 0.686722
O O19 0.376774 0.770937 0.884773
O O20 0.327463 0.000000 0.831027
O O21 0.911439 0.500000 0.454978
O O22 0.000000 0.300053 0.424712
#
# Coordination Sequence:
#
# PCOD8190335 Si02
#       8
#     8   8   8   8   8   8   8   8
#     4   8  14  24  38  58  85 113 138 168 208 251
#     4   8  13  23  40  61  84 109 138 172 210 251
#     4   9  18  31  44  63  93 119 139 173 217 254
#     4   9  17  29  44  62  84 109 140 179 216 249
#     4   9  17  30  47  65  86 113 145 179 214 254
#     4   8  15  27  42  61  83 106 137 179 217 245
#     4   8  15  27  42  63  90 114 139 178 219 249
#     4   9  17  29  44  63  89 118 144 172 211 258
#
# _framework density 16.829604
#
# number of rings (size 3 to 8) (size 9 to 14) (size 15 to 20)
#    0.000    3.500    0.000    2.250    0.000    2.250 
#    0.000    6.250    0.000    1.500    0.000    4.375 
#    0.000    2.000    0.000    0.000    0.000    0.000 
#
# Total GULP energy -396606.399255 kJ/mol
# GULP energy per Si atom -12393.949977 kJ/mol
# Density = 1.679130 g / cm^3
# Si number density = 16.829604 Si / 1000 Ang^3
#
#
#
# Elastic Constant Matrix: (Units=GPa)
#
#
# Indices 1 2 3 4 5 6 
#
# 1 116.9801 28.0133 108.1799 0.0000 0.0000 0.0000
# 2 28.0133 21.3077 32.1508 0.0000 0.0000 0.0000
# 3 108.1799 32.1508 158.4994 0.0000 0.0000 0.0000
# 4 0.0000 0.0000 0.0000 22.3761 0.0000 0.0000
# 5 0.0000 0.0000 0.0000 0.0000 42.9734 0.0000
# 6 0.0000 0.0000 0.0000 0.0000 0.0000 16.1404
#
#
#
# Elastic Compliance Matrix: (Units=1/GPa)
#
#
# Indices 1 2 3 4 5 6 
#
# 1 0.024598 -0.010097 -0.014741 0.000000 0.000000 0.000000
# 2 -0.010097 0.071776 -0.007668 0.000000 0.000000 0.000000
# 3 -0.014741 -0.007668 0.017926 0.000000 0.000000 0.000000
# 4 0.000000 0.000000 0.000000 0.044691 0.000000 0.000000
# 5 0.000000 0.000000 0.000000 0.000000 0.023270 0.000000
# 6 0.000000 0.000000 0.000000 0.000000 0.000000 0.061956
#
#
# Mechanical properties :
#
#
# Convention : Reuss Voigt Hill
#
# Bulk Modulus (GPa) = 20.28888 70.38614 45.33751
# Shear Modulus (GPa) = 15.35352 24.86085 20.10719
#
# Velocity S-wave (km/s) = 3.02369 3.84762 3.46027
# Velocity P-wave (km/s) = 4.92666 7.85191 6.55456
#
# Compressibility (1/GPa) = 0.04928809
#
# Stress axis : x y z
#
# Youngs Moduli (GPa) = 40.65306 13.93224 55.78639
#
# Poissons Ratio (x) = 0.14068 0.82234
# Poissons Ratio (y) = 0.41049 0.42775
# Poissons Ratio (z) = 0.59926 0.10683
#
# Static dielectric constant tensor:
#      x y z
#    x 3.425560 0.000000 0.000000 
#    y 0.000000 2.633330 0.000000 
#    z 0.000000 0.000000 3.469660 
# 
# 
# High freq. dielectric constant tensor:
#      x y z
#    x 1.654360 0.000000 0.000000 
#    y 0.000000 1.591530 0.000000 
#    z 0.000000 0.000000 1.657260 
# 
# From -- ./inp_files/21440.got.cif
#   From: 2010.03.12/outbox.cif.g09.slc.cpg/sg44_11_cif.got.tgz:21440.got - 2010.04.14 02:36:11.
