data_PCOD8190529
_publ_section_title
;
Structure prediction by ZEFSAII (Michael W. Deem and Ramdas Pophale) SiO2 
 PCOD8190529
Probable space group: I B A 2
;
_chemical_formula_sum "Si O2"
_cell_formula_units_Z 56
_cell_length_a 14.094804
_cell_length_b 9.227536
_cell_length_c 18.092687
_cell_angle_alpha 90.000000
_cell_angle_beta 90.000000
_cell_angle_gamma 90.000000
_cell_volume 2353.140504
_symmetry_space_group_name_H-M "I B A 2"
_symmetry_group_IT_number 45
_symmetry_cell_setting 'orthorhombic'
loop_
_space_group_symop_operation_xyz
x,y,z
-x,-y,z
-x,y,1/2+z
x,-y,1/2+z
1/2+x,1/2+y,1/2+z
1/2-x,1/2-y,1/2+z
1/2-x,1/2+y,z
1/2+x,1/2-y,z
loop_
_atom_site_type_symbol
_atom_site_label
_atom_site_fract_x
_atom_site_fract_y
_atom_site_fract_z
Si Si1 0.104174 0.988493 0.300970
Si Si2 0.246018 0.193434 0.970907
Si Si3 0.411777 0.835732 0.743423
Si Si4 0.395300 0.752929 0.190287
Si Si5 0.801368 0.198758 0.129375
Si Si6 0.096279 0.945247 0.563536
Si Si7 0.299283 0.958516 0.874768
O O1 0.116719 0.114440 0.241419
O O2 0.189027 0.012456 0.357587
O O3 0.111873 0.829758 0.265841
O O4 0.000000 0.000000 0.339177
O O5 0.192683 0.311686 0.920982
O O6 0.325362 0.101477 0.924038
O O7 0.289919 0.263068 0.043417
O O8 0.167021 0.077686 0.996014
O O9 0.524846 0.860987 0.726465
O O10 0.353999 0.839015 0.666021
O O11 0.370282 0.948133 0.804280
O O12 0.294958 0.833809 0.176695
O O13 0.427980 0.701607 0.108655
O O14 0.862381 0.052324 0.127041
O O15 0.000000 0.000000 0.526674
#
# Coordination Sequence:
#
# PCOD8190529 Si02
#       7
#     8   8   8   8   8   8   8
#     4  10  20  36  66 101 129 174 238 290 341 431
#     4  11  26  42  64 101 145 195 231 293 375 436
#     4  11  21  39  70 104 135 183 242 302 360 432
#     4  10  20  36  67 108 133 175 240 300 359 424
#     4  11  21  39  69 105 141 179 242 309 359 418
#     4  11  20  40  72 101 136 185 253 291 356 449
#     4  12  23  44  65 102 145 192 233 295 374 432
#
# _framework density 23.797984
#
# number of rings (size 3 to 8) (size 9 to 14) (size 15 to 20)
#    0.000    1.143    7.143    0.429    0.000    0.571 
#    0.000    0.000    0.000   34.286    0.000    0.000 
#    0.000    0.000    0.000    0.000    0.000    0.000 
#
# Total GULP energy -346946.620135 kJ/mol
# GULP energy per Si atom -12390.950719 kJ/mol
# Density = 2.374382 g / cm^3
# Si number density = 23.797984 Si / 1000 Ang^3
#
#
#
# Elastic Constant Matrix: (Units=GPa)
#
#
# Indices 1 2 3 4 5 6 
#
# 1 121.9834 15.3913 33.6047 0.0000 0.0000 0.0000
# 2 15.3913 42.6990 9.7657 0.0000 0.0000 0.0000
# 3 33.6047 9.7657 100.3803 0.0000 0.0000 0.0000
# 4 0.0000 0.0000 0.0000 40.4688 0.0000 0.0000
# 5 0.0000 0.0000 0.0000 0.0000 17.4486 0.0000
# 6 0.0000 0.0000 0.0000 0.0000 0.0000 30.2187
#
#
#
# Elastic Compliance Matrix: (Units=1/GPa)
#
#
# Indices 1 2 3 4 5 6 
#
# 1 0.009327 -0.002708 -0.002859 0.000000 0.000000 0.000000
# 2 -0.002708 0.024739 -0.001500 0.000000 0.000000 0.000000
# 3 -0.002859 -0.001500 0.011065 0.000000 0.000000 0.000000
# 4 0.000000 0.000000 0.000000 0.024710 0.000000 0.000000
# 5 0.000000 0.000000 0.000000 0.000000 0.057311 0.000000
# 6 0.000000 0.000000 0.000000 0.000000 0.000000 0.033092
#
#
# Mechanical properties :
#
#
# Convention : Reuss Voigt Hill
#
# Bulk Modulus (GPa) = 32.26151 42.50957 37.38554
# Shear Modulus (GPa) = 27.06917 31.38062 29.22489
#
# Velocity S-wave (km/s) = 3.37628 3.63523 3.50814
# Velocity P-wave (km/s) = 5.36515 5.95997 5.67037
#
# Compressibility (1/GPa) = 0.03099669
#
# Stress axis : x y z
#
# Youngs Moduli (GPa) = 107.21377 40.42188 90.37357
#
# Poissons Ratio (x) = 0.10947 0.25838
# Poissons Ratio (y) = 0.29035 0.13558
# Poissons Ratio (z) = 0.30653 0.06064
#
# Static dielectric constant tensor:
#      x y z
#    x 4.344090 0.000000 0.000000 
#    y 0.000000 4.151370 0.000000 
#    z 0.000000 0.000000 4.290150 
# 
# 
# High freq. dielectric constant tensor:
#      x y z
#    x 1.931800 0.000000 0.000000 
#    y 0.000000 1.940140 0.000000 
#    z 0.000000 0.000000 1.948380 
# 
# From -- ./inp_files/9188.got.cif
#   From: 2010.03.12/outbox.cif.g09.slc.cpg/sg45_5_cif.got.tgz:9188.got - 2010.04.14 02:50:11.
