data_PCOD8190455
_publ_section_title
;
Structure prediction by ZEFSAII (Michael W. Deem and Ramdas Pophale) SiO2 
 PCOD8190455
Probable space group: I B A 2
;
_chemical_formula_sum "Si O2"
_cell_formula_units_Z 48
_cell_length_a 8.356084
_cell_length_b 13.230790
_cell_length_c 19.647190
_cell_angle_alpha 90.000000
_cell_angle_beta 90.000000
_cell_angle_gamma 90.000000
_cell_volume 2172.146028
_symmetry_space_group_name_H-M "I B A 2"
_symmetry_group_IT_number 45
_symmetry_cell_setting 'orthorhombic'
loop_
_space_group_symop_operation_xyz
x,y,z
-x,-y,z
-x,y,1/2+z
x,-y,1/2+z
1/2+x,1/2+y,1/2+z
1/2-x,1/2-y,1/2+z
1/2-x,1/2+y,z
1/2+x,1/2-y,z
loop_
_atom_site_type_symbol
_atom_site_label
_atom_site_fract_x
_atom_site_fract_y
_atom_site_fract_z
Si Si1 0.371577 0.631395 0.846850
Si Si2 0.329899 0.288663 0.777516
Si Si3 0.865293 0.653013 0.157235
Si Si4 0.185821 0.008870 0.228727
Si Si5 0.563961 0.611532 0.502340
Si Si6 0.142214 0.721987 0.069507
O O1 0.550138 0.643176 0.820637
O O2 0.284525 0.737784 0.832903
O O3 0.288322 0.544002 0.802497
O O4 0.376386 0.602632 0.925134
O O5 0.416628 0.208820 0.727587
O O6 0.247226 0.376242 0.731392
O O7 0.804682 0.540450 0.173411
O O8 0.708362 0.711371 0.130922
O O9 0.999706 0.652732 0.099238
O O10 0.000000 0.000000 0.204172
O O11 0.500000 0.500000 0.525470
O O12 0.723350 0.644937 0.542599
O O13 0.428803 0.698839 0.512912
#
# Coordination Sequence:
#
# PCOD8190455 Si02
#       6
#     8   8   8   8   8   8
#     4  10  20  36  59  88 117 151 201 249 306 370
#     4  10  19  35  60  87 117 153 191 252 317 363
#     4  10  20  38  59  88 123 156 202 252 306 373
#     4   9  18  33  60  91 118 154 195 247 313 372
#     4  11  23  42  65  88 124 172 213 259 314 369
#     4  10  23  40  60  90 125 166 214 257 302 373
#
# _framework density 22.097961000000002
#
# number of rings (size 3 to 8) (size 9 to 14) (size 15 to 20)
#    0.000    2.000    0.000    5.500    0.000    3.333 
#    0.000   15.833    0.000    8.000    0.000    0.000 
#    0.000    0.000    0.000    0.000    0.000    0.000 
#
# Total GULP energy -297447.273915 kJ/mol
# GULP energy per Si atom -12393.636413 kJ/mol
# Density = 2.204767 g / cm^3
# Si number density = 22.097961 Si / 1000 Ang^3
#
#
#
# Elastic Constant Matrix: (Units=GPa)
#
#
# Indices 1 2 3 4 5 6 
#
# 1 80.2466 54.9642 26.5690 0.0000 0.0000 0.0000
# 2 54.9642 132.9519 25.0519 0.0000 0.0000 0.0000
# 3 26.5690 25.0519 70.7829 0.0000 0.0000 0.0000
# 4 0.0000 0.0000 0.0000 32.2927 0.0000 0.0000
# 5 0.0000 0.0000 0.0000 0.0000 30.2679 0.0000
# 6 0.0000 0.0000 0.0000 0.0000 0.0000 37.7357
#
#
#
# Elastic Compliance Matrix: (Units=1/GPa)
#
#
# Indices 1 2 3 4 5 6 
#
# 1 0.018676 -0.006857 -0.004583 0.000000 0.000000 0.000000
# 2 -0.006857 0.010577 -0.001169 0.000000 0.000000 0.000000
# 3 -0.004583 -0.001169 0.016262 0.000000 0.000000 0.000000
# 4 0.000000 0.000000 0.000000 0.030967 0.000000 0.000000
# 5 0.000000 0.000000 0.000000 0.000000 0.033038 0.000000
# 6 0.000000 0.000000 0.000000 0.000000 0.000000 0.026500
#
#
# Mechanical properties :
#
#
# Convention : Reuss Voigt Hill
#
# Bulk Modulus (GPa) = 49.27380 55.23908 52.25644
# Shear Modulus (GPa) = 29.76111 31.88568 30.82340
#
# Velocity S-wave (km/s) = 3.67383 3.80271 3.73882
# Velocity P-wave (km/s) = 6.35156 6.65826 6.50672
#
# Compressibility (1/GPa) = 0.02029476
#
# Stress axis : x y z
#
# Youngs Moduli (GPa) = 53.54506 94.54687 61.49324
#
# Poissons Ratio (x) = 0.64833 0.28183
# Poissons Ratio (y) = 0.36717 0.07191
# Poissons Ratio (z) = 0.24541 0.11057
#
# Static dielectric constant tensor:
#      x y z
#    x 3.857160 0.000000 0.000000 
#    y 0.000000 4.316110 0.000000 
#    z 0.000000 0.000000 3.830490 
# 
# 
# High freq. dielectric constant tensor:
#      x y z
#    x 1.860680 0.000000 0.000000 
#    y 0.000000 1.880890 0.000000 
#    z 0.000000 0.000000 1.857230 
# 
# From -- ./inp_files/7563.got.cif
#   From: 2010.03.12/outbox.cif.g09.slc.cpg/sg45_4_cif.got.tgz:7563.got - 2010.04.14 02:50:11.
