data_PCOD8190989
_publ_section_title
;
Structure prediction by ZEFSAII (Michael W. Deem and Ramdas Pophale) SiO2 
 PCOD8190989
Probable space group: I B A 2
;
_chemical_formula_sum "Si O2"
_cell_formula_units_Z 48
_cell_length_a 18.769987
_cell_length_b 7.732890
_cell_length_c 18.288004
_cell_angle_alpha 90.000000
_cell_angle_beta 90.000000
_cell_angle_gamma 90.000000
_cell_volume 2654.435105
_symmetry_space_group_name_H-M "I B A 2"
_symmetry_group_IT_number 45
_symmetry_cell_setting 'orthorhombic'
loop_
_space_group_symop_operation_xyz
x,y,z
-x,-y,z
-x,y,1/2+z
x,-y,1/2+z
1/2+x,1/2+y,1/2+z
1/2-x,1/2-y,1/2+z
1/2-x,1/2+y,z
1/2+x,1/2-y,z
loop_
_atom_site_type_symbol
_atom_site_label
_atom_site_fract_x
_atom_site_fract_y
_atom_site_fract_z
Si Si1 0.168918 0.805560 0.498230
Si Si2 0.824259 0.689102 0.843654
Si Si3 0.417423 1.000000 0.741539
Si Si4 0.916402 0.500001 0.570948
Si Si5 0.324259 0.189104 0.843654
Si Si6 0.831083 0.805562 0.498230
O O1 0.151860 0.808867 0.411077
O O2 0.116071 0.674795 0.538375
O O3 0.250001 0.750000 0.512816
O O4 0.155876 0.999999 0.528073
O O5 0.883025 0.672636 0.779019
O O6 0.750000 0.749998 0.807437
O O7 0.811246 0.499999 0.879745
O O8 0.500000 0.000000 0.759359
O O9 0.400224 0.999998 0.656739
O O10 0.383024 0.172637 0.779018
O O11 0.883930 0.674798 0.538375
O O12 0.000000 0.500000 0.553966
O O13 0.348141 0.308868 0.911076
#
# Coordination Sequence:
#
# PCOD8190989 Si02
#       6
#     8   8   8   8   8   8
#     4  11  20  37  63  88 117 152 195 246 294 342
#     4   9  17  33  57  85 112 142 192 241 284 336
#     4   9  21  37  57  79 118 161 186 231 295 342
#     4  11  23  41  57  85 126 159 192 239 289 354
#     4   9  17  33  57  85 112 142 192 241 284 336
#     4  11  20  37  63  88 117 152 195 246 294 342
#
# _framework density 18.082944000000001
#
# number of rings (size 3 to 8) (size 9 to 14) (size 15 to 20)
#    1.000    1.000    3.333    3.000    0.000    4.667 
#    0.000    1.667    0.000    7.000    0.000    0.000 
#    0.000    0.000    0.000    0.000    0.000    0.000 
#
# Total GULP energy -297370.782152 kJ/mol
# GULP energy per Si atom -12390.449256 kJ/mol
# Density = 1.804179 g / cm^3
# Si number density = 18.082944 Si / 1000 Ang^3
#
#
#
# Elastic Constant Matrix: (Units=GPa)
#
#
# Indices 1 2 3 4 5 6 
#
# 1 132.3241 53.4520 85.6785 0.0000 0.0000 0.0000
# 2 53.4520 133.1681 40.0286 0.0000 0.0000 0.0000
# 3 85.6785 40.0286 103.4600 0.0000 0.0000 0.0000
# 4 0.0000 0.0000 0.0000 0.8425 0.0000 0.0000
# 5 0.0000 0.0000 0.0000 0.0000 32.4445 0.0000
# 6 0.0000 0.0000 0.0000 0.0000 0.0000 33.2504
#
#
#
# Elastic Compliance Matrix: (Units=1/GPa)
#
#
# Indices 1 2 3 4 5 6 
#
# 1 0.017281 -0.002981 -0.013157 0.000000 0.000000 0.000000
# 2 -0.002981 0.009012 -0.001018 0.000000 0.000000 0.000000
# 3 -0.013157 -0.001018 0.020955 0.000000 0.000000 0.000000
# 4 0.000000 0.000000 0.000000 1.186956 0.000000 0.000000
# 5 0.000000 0.000000 0.000000 0.000000 0.030822 0.000000
# 6 0.000000 0.000000 0.000000 0.000000 0.000000 0.030075
#
#
# Mechanical properties :
#
#
# Convention : Reuss Voigt Hill
#
# Bulk Modulus (GPa) = 77.30832 80.80783 79.05808
# Shear Modulus (GPa) = 3.74890 25.96035 14.85463
#
# Velocity S-wave (km/s) = 1.44141 3.79308 2.86924
# Velocity P-wave (km/s) = 6.75390 7.99797 7.40212
#
# Compressibility (1/GPa) = 0.01293522
#
# Stress axis : x y z
#
# Youngs Moduli (GPa) = 57.86827 110.96431 47.72090
#
# Poissons Ratio (x) = 0.33082 0.62787
# Poissons Ratio (y) = 0.17253 0.04857
# Poissons Ratio (z) = 0.76138 0.11293
#
# Static dielectric constant tensor:
#      x y z
#    x 3.282390 0.000000 0.000000 
#    y 0.000000 3.344780 0.000000 
#    z 0.000000 0.000000 3.162650 
# 
# 
# High freq. dielectric constant tensor:
#      x y z
#    x 1.695390 0.000000 0.000000 
#    y 0.000000 1.697150 0.000000 
#    z 0.000000 0.000000 1.687020 
# 
# From -- ./inp_files/8304.got.cif
#   From: 2010.03.12/outbox.cif.g09.slc.cpg/sg45_5_cif.got.tgz:8304.got - 2010.04.14 02:50:11.
