data_PCOD8190941
_publ_section_title
;
Structure prediction by ZEFSAII (Michael W. Deem and Ramdas Pophale) SiO2 
 PCOD8190941
Probable space group: I B A 2
;
_chemical_formula_sum "Si O2"
_cell_formula_units_Z 56
_cell_length_a 20.589597
_cell_length_b 14.556546
_cell_length_c 8.524936
_cell_angle_alpha 90.000000
_cell_angle_beta 90.000000
_cell_angle_gamma 90.000000
_cell_volume 2555.037688
_symmetry_space_group_name_H-M "I B A 2"
_symmetry_group_IT_number 45
_symmetry_cell_setting 'orthorhombic'
loop_
_space_group_symop_operation_xyz
x,y,z
-x,-y,z
-x,y,1/2+z
x,-y,1/2+z
1/2+x,1/2+y,1/2+z
1/2-x,1/2-y,1/2+z
1/2-x,1/2+y,z
1/2+x,1/2-y,z
loop_
_atom_site_type_symbol
_atom_site_label
_atom_site_fract_x
_atom_site_fract_y
_atom_site_fract_z
Si Si1 0.408852 0.561241 0.298150
Si Si2 0.500000 0.500000 0.537700
Si Si3 0.912340 0.577321 0.170889
Si Si4 0.700920 0.424415 0.803085
Si Si5 0.291463 0.757987 0.634996
Si Si6 0.288273 0.957259 0.597194
Si Si7 0.500000 0.000000 0.429933
Si Si8 0.340248 0.250982 0.779629
O O1 0.464675 0.576522 0.428537
O O2 0.443568 0.546328 0.134374
O O3 0.364477 0.475538 0.356857
O O4 0.365859 0.647862 0.265050
O O5 0.853126 0.518430 0.096565
O O6 0.894307 0.678554 0.228293
O O7 0.939049 0.532523 0.329502
O O8 0.970447 0.580370 0.042603
O O9 0.677927 0.322166 0.745586
O O10 0.728615 0.482519 0.657991
O O11 0.761463 0.423119 0.926342
O O12 0.303622 0.863234 0.696241
O O13 0.315514 0.756172 0.457313
O O14 0.214821 0.738381 0.647905
#
# Coordination Sequence:
#
# PCOD8190941 Si02
#       8
#     8   4   8   8   8   8   4   8
#     4  11  24  44  67  96 131 178 224 279 327 403
#     4  10  24  46  66  88 130 182 232 270 330 384
#     4  11  24  46  70 101 137 183 233 283 342 410
#     4  12  24  41  69  99 140 176 221 283 352 408
#     4  12  24  41  62 107 142 175 217 274 356 422
#     4  12  23  41  67 100 137 178 218 285 349 410
#     4  10  24  46  70  94 136 188 236 282 334 402
#     4  12  25  41  67 100 140 177 225 280 344 416
#
# _framework density 21.917484000000002
#
# number of rings (size 3 to 8) (size 9 to 14) (size 15 to 20)
#    0.000    0.571    4.286    4.286    0.000    2.286 
#    0.000    5.714    0.000    0.000    0.000    0.000 
#    0.000    0.000    0.000    0.000    0.000    0.000 
#
# Total GULP energy -346922.270196 kJ/mol
# GULP energy per Si atom -12390.081078 kJ/mol
# Density = 2.186760 g / cm^3
# Si number density = 21.917484 Si / 1000 Ang^3
#
#
#
# Elastic Constant Matrix: (Units=GPa)
#
#
# Indices 1 2 3 4 5 6 
#
# 1 90.5488 19.4493 30.9236 0.0000 0.0000 0.0000
# 2 19.4493 101.8193 6.9187 0.0000 0.0000 0.0000
# 3 30.9236 6.9187 92.0694 0.0000 0.0000 0.0000
# 4 0.0000 0.0000 0.0000 17.3368 0.0000 0.0000
# 5 0.0000 0.0000 0.0000 0.0000 57.6582 0.0000
# 6 0.0000 0.0000 0.0000 0.0000 0.0000 22.8047
#
#
#
# Elastic Compliance Matrix: (Units=1/GPa)
#
#
# Indices 1 2 3 4 5 6 
#
# 1 0.012942 -0.002188 -0.004182 0.000000 0.000000 0.000000
# 2 -0.002188 0.010242 -0.000035 0.000000 0.000000 0.000000
# 3 -0.004182 -0.000035 0.012269 0.000000 0.000000 0.000000
# 4 0.000000 0.000000 0.000000 0.057681 0.000000 0.000000
# 5 0.000000 0.000000 0.000000 0.000000 0.017344 0.000000
# 6 0.000000 0.000000 0.000000 0.000000 0.000000 0.043851
#
#
# Mechanical properties :
#
#
# Convention : Reuss Voigt Hill
#
# Bulk Modulus (GPa) = 44.16550 44.33563 44.25057
# Shear Modulus (GPa) = 28.62291 34.70299 31.66295
#
# Velocity S-wave (km/s) = 3.61770 3.98345 3.80497
# Velocity P-wave (km/s) = 6.13554 6.43657 6.28786
#
# Compressibility (1/GPa) = 0.02264210
#
# Stress axis : x y z
#
# Youngs Moduli (GPa) = 77.26716 97.64075 81.50783
#
# Poissons Ratio (x) = 0.21364 0.34090
# Poissons Ratio (y) = 0.16906 0.00283
# Poissons Ratio (z) = 0.32317 0.00339
#
# Static dielectric constant tensor:
#      x y z
#    x 4.073410 0.000000 0.000000 
#    y 0.000000 4.233730 0.000000 
#    z 0.000000 0.000000 4.154730 
# 
# 
# High freq. dielectric constant tensor:
#      x y z
#    x 1.864220 0.000000 0.000000 
#    y 0.000000 1.857640 0.000000 
#    z 0.000000 0.000000 1.870000 
# 
# From -- ./inp_files/1852.got.cif
#   From: 2010.03.12/outbox.cif.g09.slc.cpg/sg45_1_cif.got.tgz:1852.got - 2010.04.14 02:50:11.
