data_PCOD8190001
_publ_section_title
;
Structure prediction by ZEFSAII (Michael W. Deem and Ramdas Pophale) SiO2 
 PCOD8190001
Probable space group: I M M 2
;
_chemical_formula_sum "Si O2"
_cell_formula_units_Z 40
_cell_length_a 7.784495
_cell_length_b 28.965850
_cell_length_c 8.880190
_cell_angle_alpha 90.000000
_cell_angle_beta 90.000000
_cell_angle_gamma 90.000000
_cell_volume 2002.345331
_symmetry_space_group_name_H-M "I M M 2"
_symmetry_group_IT_number 44
_symmetry_cell_setting 'orthorhombic'
loop_
_space_group_symop_operation_xyz
x,y,z
-x,-y,z
-x,y,z
x,-y,z
1/2+x,1/2+y,1/2+z
1/2-x,1/2-y,1/2+z
1/2-x,1/2+y,1/2+z
1/2+x,1/2-y,1/2+z
loop_
_atom_site_type_symbol
_atom_site_label
_atom_site_fract_x
_atom_site_fract_y
_atom_site_fract_z
Si Si1 0.500000 0.554205 0.340650
Si Si2 0.303196 0.210010 0.838726
Si Si3 0.195148 0.701399 0.668658
Si Si4 0.500000 0.446123 0.691617
Si Si5 0.698034 0.110567 0.331073
Si Si6 0.690405 0.376655 0.159739
O O1 0.500000 0.500000 0.307512
O O2 0.500000 0.566220 0.516136
O O3 0.330487 0.577571 0.264929
O O4 0.500000 0.225692 0.850593
O O5 0.204172 0.250327 0.753811
O O6 0.292018 0.162283 0.749791
O O7 0.215904 0.204401 0.003981
O O8 0.269853 0.659628 0.768631
O O9 0.000000 0.688521 0.637179
O O10 0.500000 0.500000 0.719938
O O11 0.674603 0.427919 0.767068
O O12 0.500000 0.100221 0.283835
O O13 0.704055 0.110744 0.511527
O O14 0.500000 0.357935 0.115747
#
# Coordination Sequence:
#
# PCOD8190001 Si02
#       6
#     4   8   8   4   8   8
#     4   9  21  41  67  93 121 167 213 263 322 385
#     4  11  22  36  56  84 121 166 213 262 314 375
#     4  10  23  38  55  84 122 164 217 261 312 378
#     4  11  23  43  69  95 127 165 215 265 326 385
#     4  11  23  41  65  94 129 168 211 264 320 384
#     4  10  21  37  61  90 123 160 208 260 313 377
#
# _framework density 19.976575
#
# number of rings (size 3 to 8) (size 9 to 14) (size 15 to 20)
#    0.600    1.000    1.000    3.600    1.400    6.800 
#    0.000    1.000    0.000    4.200    0.000    0.000 
#    0.000    0.000    0.000    0.000    0.000    0.000 
#
# Total GULP energy -247957.947072 kJ/mol
# GULP energy per Si atom -12397.897354 kJ/mol
# Density = 1.993111 g / cm^3
# Si number density = 19.976575 Si / 1000 Ang^3
#
#
#
# Elastic Constant Matrix: (Units=GPa)
#
#
# Indices 1 2 3 4 5 6 
#
# 1 75.9093 26.2113 30.7475 0.0000 -0.0002 -0.0001
# 2 26.2113 130.0808 79.5052 0.0016 -0.0004 0.0000
# 3 30.7475 79.5052 169.4423 0.0019 -0.0006 -0.0001
# 4 0.0000 0.0016 0.0019 38.5183 -0.0004 0.0000
# 5 -0.0002 -0.0004 -0.0006 -0.0004 24.6489 0.0002
# 6 -0.0001 0.0000 -0.0001 0.0000 0.0002 32.3654
#
#
#
# Elastic Compliance Matrix: (Units=1/GPa)
#
#
# Indices 1 2 3 4 5 6 
#
# 1 0.014528 -0.001845 -0.001770 0.000000 0.000000 0.000000
# 2 -0.001845 0.011013 -0.004833 0.000000 0.000000 0.000000
# 3 -0.001770 -0.004833 0.008491 0.000000 0.000000 0.000000
# 4 0.000000 0.000000 0.000000 0.025962 0.000000 0.000000
# 5 0.000000 0.000000 0.000000 0.000000 0.040570 0.000000
# 6 0.000000 0.000000 0.000000 0.000000 0.000000 0.030897
#
#
# Mechanical properties :
#
#
# Convention : Reuss Voigt Hill
#
# Bulk Modulus (GPa) = 58.36092 72.04005 65.20048
# Shear Modulus (GPa) = 32.45309 35.03774 33.74542
#
# Velocity S-wave (km/s) = 4.03495 4.19255 4.11451
# Velocity P-wave (km/s) = 7.14044 7.71863 7.43516
#
# Compressibility (1/GPa) = 0.01713475
#
# Stress axis : x y z
#
# Youngs Moduli (GPa) = 68.83300 90.80112 117.77787
#
# Poissons Ratio (x) = 0.16755 0.20852
# Poissons Ratio (y) = 0.12702 0.56918
# Poissons Ratio (z) = 0.12187 0.43881
#
# Static dielectric constant tensor:
#      x y z
#    x 3.432610 0.000000 0.000000 
#    y 0.000000 3.467440 0.000000 
#    z 0.000000 0.000000 3.825730 
# 
# 
# High freq. dielectric constant tensor:
#      x y z
#    x 1.767860 0.000000 0.000000 
#    y 0.000000 1.771550 0.000000 
#    z 0.000000 0.000000 1.797000 
# 
# From -- ./inp_files/4667.got.cif
#   From: 2010.03.12/outbox.cif.g09.slc.cpg/sg44_3_cif.got.tgz:4667.got - 2010.04.14 02:36:11.
