data_PCOD8190446
_publ_section_title
;
Structure prediction by ZEFSAII (Michael W. Deem and Ramdas Pophale) SiO2 
 PCOD8190446
Probable space group: I B A 2
;
_chemical_formula_sum "Si O2"
_cell_formula_units_Z 40
_cell_length_a 5.055327
_cell_length_b 16.241422
_cell_length_c 23.658090
_cell_angle_alpha 90.000000
_cell_angle_beta 90.000000
_cell_angle_gamma 90.000000
_cell_volume 1942.464020
_symmetry_space_group_name_H-M "I B A 2"
_symmetry_group_IT_number 45
_symmetry_cell_setting 'orthorhombic'
loop_
_space_group_symop_operation_xyz
x,y,z
-x,-y,z
-x,y,1/2+z
x,-y,1/2+z
1/2+x,1/2+y,1/2+z
1/2-x,1/2-y,1/2+z
1/2-x,1/2+y,z
1/2+x,1/2-y,z
loop_
_atom_site_type_symbol
_atom_site_label
_atom_site_fract_x
_atom_site_fract_y
_atom_site_fract_z
Si Si1 0.961287 0.597228 0.096900
Si Si2 0.617203 0.195094 0.861636
Si Si3 0.755011 0.054442 0.775767
Si Si4 0.915928 0.696549 0.989621
Si Si5 0.459220 0.595444 0.157879
O O1 0.743052 0.633685 0.141209
O O2 0.000000 0.500000 0.099515
O O3 0.238381 0.636541 0.117348
O O4 0.879056 0.622128 0.033507
O O5 0.336028 0.236072 0.848481
O O6 0.656412 0.115151 0.823915
O O7 0.626120 0.162831 0.926155
O O8 0.868957 0.106563 0.722807
O O9 0.500000 0.000000 0.756629
O O10 0.000000 0.000000 0.799314
O O11 0.708122 0.769049 0.999940
O O12 0.500000 0.500000 0.144108
#
# Coordination Sequence:
#
# PCOD8190446 Si02
#       5
#     8   8   8   8   8
#     4  10  19  34  56  80 106 140 181 220 263 324
#     4  10  22  40  58  80 115 152 184 229 288 333
#     4  11  21  37  61  85 111 146 191 233 273 332
#     4  10  21  38  56  77 111 148 179 222 279 326
#     4   9  18  33  54  80 110 140 171 220 280 319
#
# _framework density 20.592400999999999
#
# number of rings (size 3 to 8) (size 9 to 14) (size 15 to 20)
#    0.000    2.000    0.000    5.400    0.000    0.800 
#    0.000    9.000    0.000    0.000    0.000    0.000 
#    0.000    0.000    0.000    0.000    0.000    0.000 
#
# Total GULP energy -247893.845207 kJ/mol
# GULP energy per Si atom -12394.692260 kJ/mol
# Density = 2.054553 g / cm^3
# Si number density = 20.592401 Si / 1000 Ang^3
#
#
#
# Elastic Constant Matrix: (Units=GPa)
#
#
# Indices 1 2 3 4 5 6 
#
# 1 103.1963 15.7269 46.1617 0.0000 0.0000 0.0000
# 2 15.7269 33.5740 46.3527 0.0000 0.0000 0.0000
# 3 46.1617 46.3527 141.5235 0.0000 0.0000 0.0000
# 4 0.0000 0.0000 0.0000 31.0302 0.0000 0.0000
# 5 0.0000 0.0000 0.0000 0.0000 33.4340 0.0000
# 6 0.0000 0.0000 0.0000 0.0000 0.0000 17.8687
#
#
#
# Elastic Compliance Matrix: (Units=1/GPa)
#
#
# Indices 1 2 3 4 5 6 
#
# 1 0.011348 -0.000375 -0.003579 0.000000 0.000000 0.000000
# 2 -0.000375 0.054383 -0.017690 0.000000 0.000000 0.000000
# 3 -0.003579 -0.017690 0.014027 0.000000 0.000000 0.000000
# 4 0.000000 0.000000 0.000000 0.032227 0.000000 0.000000
# 5 0.000000 0.000000 0.000000 0.000000 0.029910 0.000000
# 6 0.000000 0.000000 0.000000 0.000000 0.000000 0.055964
#
#
# Mechanical properties :
#
#
# Convention : Reuss Voigt Hill
#
# Bulk Modulus (GPa) = 27.41840 54.97517 41.19678
# Shear Modulus (GPa) = 19.73923 27.80340 23.77132
#
# Velocity S-wave (km/s) = 3.09943 3.67846 3.40129
# Velocity P-wave (km/s) = 5.11394 6.69300 5.95603
#
# Compressibility (1/GPa) = 0.03647186
#
# Stress axis : x y z
#
# Youngs Moduli (GPa) = 88.11935 18.38803 71.29070
#
# Poissons Ratio (x) = 0.00690 0.25513
# Poissons Ratio (y) = 0.03304 1.26111
# Poissons Ratio (z) = 0.31535 0.32528
#
# Static dielectric constant tensor:
#      x y z
#    x 4.389330 0.000000 0.000000 
#    y 0.000000 3.187810 0.000000 
#    z 0.000000 0.000000 3.762500 
# 
# 
# High freq. dielectric constant tensor:
#      x y z
#    x 1.837520 0.000000 0.000000 
#    y 0.000000 1.758390 0.000000 
#    z 0.000000 0.000000 1.808230 
# 
# From -- ./inp_files/7247.got.cif
#   From: 2010.03.12/outbox.cif.g09.slc.cpg/sg45_4_cif.got.tgz:7247.got - 2010.04.14 02:50:11.
