data_PCOD8190869
_publ_section_title
;
Structure prediction by ZEFSAII (Michael W. Deem and Ramdas Pophale) SiO2 
 PCOD8190869
Probable space group: I B A 2
;
_chemical_formula_sum "Si O2"
_cell_formula_units_Z 56
_cell_length_a 15.078269
_cell_length_b 11.019846
_cell_length_c 13.897829
_cell_angle_alpha 90.000000
_cell_angle_beta 90.000000
_cell_angle_gamma 90.000000
_cell_volume 2309.266079
_symmetry_space_group_name_H-M "I B A 2"
_symmetry_group_IT_number 45
_symmetry_cell_setting 'orthorhombic'
loop_
_space_group_symop_operation_xyz
x,y,z
-x,-y,z
-x,y,1/2+z
x,-y,1/2+z
1/2+x,1/2+y,1/2+z
1/2-x,1/2-y,1/2+z
1/2-x,1/2+y,z
1/2+x,1/2-y,z
loop_
_atom_site_type_symbol
_atom_site_label
_atom_site_fract_x
_atom_site_fract_y
_atom_site_fract_z
Si Si1 0.884748 0.182681 0.628830
Si Si2 0.032857 0.375485 0.631458
Si Si3 0.806004 0.210449 0.136399
Si Si4 0.615251 0.682681 0.416717
Si Si5 0.806004 0.210450 0.909149
Si Si6 0.643992 0.500001 0.772774
Si Si7 0.467142 0.875486 0.414089
O O1 0.944459 0.298871 0.637586
O O2 0.783886 0.216682 0.653634
O O3 0.891618 0.125733 0.522773
O O4 0.917671 0.081913 0.704333
O O5 0.062055 0.406736 0.522774
O O6 0.000000 0.500000 0.683671
O O7 0.114851 0.299015 0.676487
O O8 0.800020 0.087347 0.199969
O O9 0.819538 0.177914 0.022774
O O10 0.716112 0.716684 0.391913
O O11 0.582329 0.581911 0.341214
O O12 0.555538 0.798867 0.407955
O O13 0.800020 0.087349 0.845578
O O14 0.885147 0.299019 0.869060
O O15 0.500000 0.000000 0.361877
#
# Coordination Sequence:
#
# PCOD8190869 Si02
#       7
#     8   8   8   8   8   8   8
#     4  10  23  42  66  95 129 170 211 262 322 375
#     4   9  20  41  68  94 124 168 219 259 311 383
#     4  10  23  42  66  95 129 170 211 262 322 375
#     4  10  23  42  66  95 129 170 211 262 322 375
#     4  10  23  42  66  95 129 170 211 262 322 375
#     4  12  24  41  62  95 132 168 210 267 312 393
#     4   9  20  41  68  94 124 168 219 259 311 383
#
# _framework density 24.250131
#
# number of rings (size 3 to 8) (size 9 to 14) (size 15 to 20)
#    0.000    2.000    0.000    1.714    4.000    3.429 
#    0.000    5.714    0.000    0.000    0.000    0.000 
#    0.000    0.000    0.000    0.000    0.000    0.000 
#
# Total GULP energy -346915.391034 kJ/mol
# GULP energy per Si atom -12389.835394 kJ/mol
# Density = 2.419494 g / cm^3
# Si number density = 24.250131 Si / 1000 Ang^3
#
#
#
# Elastic Constant Matrix: (Units=GPa)
#
#
# Indices 1 2 3 4 5 6 
#
# 1 117.6794 38.1783 21.8787 0.0000 0.0000 0.0000
# 2 38.1783 143.4041 65.5951 0.0000 0.0000 0.0000
# 3 21.8787 65.5951 98.1898 0.0000 0.0000 0.0000
# 4 0.0000 0.0000 0.0000 46.7517 0.0000 0.0000
# 5 0.0000 0.0000 0.0000 0.0000 -4.6236 0.0000
# 6 0.0000 0.0000 0.0000 0.0000 0.0000 3.2444
#
#
#
# Elastic Compliance Matrix: (Units=1/GPa)
#
#
# Indices 1 2 3 4 5 6 
#
# 1 0.009326 -0.002207 -0.000604 0.000000 0.000000 0.000000
# 2 -0.002207 0.010564 -0.006565 0.000000 0.000000 0.000000
# 3 -0.000604 -0.006565 0.014705 0.000000 0.000000 0.000000
# 4 0.000000 0.000000 0.000000 0.021390 0.000000 0.000000
# 5 0.000000 0.000000 0.000000 0.000000 -0.216280 0.000000
# 6 0.000000 0.000000 0.000000 0.000000 0.000000 0.308224
#
#
# Mechanical properties :
#
#
# Convention : Reuss Voigt Hill
#
# Bulk Modulus (GPa) = 63.12031 67.84194 65.48112
# Shear Modulus (GPa) = 29.07635 24.64924 26.86280
#
# Velocity S-wave (km/s) = 3.46644 3.19165 3.33188
# Velocity P-wave (km/s) = 6.48899 6.45127 6.47016
#
# Compressibility (1/GPa) = 0.01584276
#
# Stress axis : x y z
#
# Youngs Moduli (GPa) = 107.22932 94.66204 68.00431
#
# Poissons Ratio (x) = 0.20888 0.04107
# Poissons Ratio (y) = 0.23661 0.44648
# Poissons Ratio (z) = 0.06476 0.62150
#
# Static dielectric constant tensor:
#      x y z
#    x 4.091310 0.000000 0.000000 
#    y 0.000000 4.455890 0.000000 
#    z 0.000000 0.000000 4.860850 
# 
# 
# High freq. dielectric constant tensor:
#      x y z
#    x 1.947070 0.000000 0.000000 
#    y 0.000000 1.967420 0.000000 
#    z 0.000000 0.000000 1.976160 
# 
# From -- ./inp_files/6532.got.cif
#   From: 2010.03.12/outbox.cif.g09.slc.cpg/sg45_4_cif.got.tgz:6532.got - 2010.04.14 02:50:11.
