data_PCOD8190448
_publ_section_title
;
Structure prediction by ZEFSAII (Michael W. Deem and Ramdas Pophale) SiO2 
 PCOD8190448
Probable space group: I B A 2
;
_chemical_formula_sum "Si O2"
_cell_formula_units_Z 64
_cell_length_a 9.702136
_cell_length_b 15.477025
_cell_length_c 20.956410
_cell_angle_alpha 90.000000
_cell_angle_beta 90.000000
_cell_angle_gamma 90.000000
_cell_volume 3146.818747
_symmetry_space_group_name_H-M "I B A 2"
_symmetry_group_IT_number 45
_symmetry_cell_setting 'orthorhombic'
loop_
_space_group_symop_operation_xyz
x,y,z
-x,-y,z
-x,y,1/2+z
x,-y,1/2+z
1/2+x,1/2+y,1/2+z
1/2-x,1/2-y,1/2+z
1/2-x,1/2+y,z
1/2+x,1/2-y,z
loop_
_atom_site_type_symbol
_atom_site_label
_atom_site_fract_x
_atom_site_fract_y
_atom_site_fract_z
Si Si1 0.071786 0.334724 0.227810
Si Si2 0.865243 0.548242 0.331932
Si Si3 0.185482 0.442386 0.707792
Si Si4 0.157044 0.984147 0.440593
Si Si5 0.113093 0.817846 0.519701
Si Si6 0.199902 0.161871 0.502864
Si Si7 0.707465 0.402588 0.642505
Si Si8 0.923013 0.164952 0.666109
O O1 0.091828 0.356529 0.303495
O O2 0.218181 0.339658 0.192502
O O3 0.011263 0.241735 0.209413
O O4 0.969151 0.407541 0.198840
O O5 0.801112 0.495028 0.273194
O O6 0.747674 0.557783 0.384577
O O7 0.000000 0.500000 0.360291
O O8 0.230158 0.501334 0.647842
O O9 0.296337 0.366027 0.709442
O O10 0.160133 0.914519 0.498465
O O11 0.222595 0.077105 0.458946
O O12 0.000000 0.000000 0.417812
O O13 0.201247 0.742378 0.484569
O O14 0.130615 0.807572 0.595887
O O15 0.955811 0.803459 0.498455
O O16 0.238237 0.132213 0.573152
O O17 0.544064 0.405106 0.657209
#
# Coordination Sequence:
#
# PCOD8190448 Si02
#       8
#     8   8   8   8   8   8   8   8
#     4  10  20  36  57  86 119 155 192 249 298 353
#     4   9  21  41  59  82 118 157 210 250 290 355
#     4  10  21  36  58  85 118 157 200 244 299 360
#     4  10  22  42  64  85 119 167 207 254 301 352
#     4  10  22  38  62  91 126 156 202 253 300 372
#     4  10  21  39  59  91 122 157 203 249 305 363
#     4  10  19  34  56  86 119 152 192 241 301 367
#     4  11  20  34  59  90 124 151 190 246 311 363
#
# _framework density 20.338000999999998
#
# number of rings (size 3 to 8) (size 9 to 14) (size 15 to 20)
#    0.000    2.000    1.250    3.000    1.750    5.000 
#    2.250    1.250    0.000    0.000    0.000    0.000 
#    0.000    0.000    0.000    0.000    0.000    0.000 
#
# Total GULP energy -396613.243040 kJ/mol
# GULP energy per Si atom -12394.163845 kJ/mol
# Density = 2.029171 g / cm^3
# Si number density = 20.338001 Si / 1000 Ang^3
#
#
#
# Elastic Constant Matrix: (Units=GPa)
#
#
# Indices 1 2 3 4 5 6 
#
# 1 90.2636 37.3309 41.3049 0.0000 0.0000 0.0000
# 2 37.3309 111.2257 30.2016 0.0000 0.0000 0.0000
# 3 41.3049 30.2016 67.0090 0.0000 0.0000 0.0000
# 4 0.0000 0.0000 0.0000 21.5435 0.0000 0.0000
# 5 0.0000 0.0000 0.0000 0.0000 31.1436 0.0000
# 6 0.0000 0.0000 0.0000 0.0000 0.0000 36.6996
#
#
#
# Elastic Compliance Matrix: (Units=1/GPa)
#
#
# Indices 1 2 3 4 5 6 
#
# 1 0.016336 -0.003132 -0.008658 0.000000 0.000000 0.000000
# 2 -0.003132 0.010845 -0.002957 0.000000 0.000000 0.000000
# 3 -0.008658 -0.002957 0.021593 0.000000 0.000000 0.000000
# 4 0.000000 0.000000 0.000000 0.046418 0.000000 0.000000
# 5 0.000000 0.000000 0.000000 0.000000 0.032109 0.000000
# 6 0.000000 0.000000 0.000000 0.000000 0.000000 0.027248
#
#
# Mechanical properties :
#
#
# Convention : Reuss Voigt Hill
#
# Bulk Modulus (GPa) = 51.86882 54.01922 52.94402
# Shear Modulus (GPa) = 26.25080 28.52138 27.38609
#
# Velocity S-wave (km/s) = 3.59657 3.74888 3.67351
# Velocity P-wave (km/s) = 6.54262 6.73478 6.63939
#
# Compressibility (1/GPa) = 0.01927940
#
# Stress axis : x y z
#
# Youngs Moduli (GPa) = 61.21505 92.20907 46.31098
#
# Poissons Ratio (x) = 0.28879 0.40096
# Poissons Ratio (y) = 0.19172 0.13696
# Poissons Ratio (z) = 0.53000 0.27270
#
# Static dielectric constant tensor:
#      x y z
#    x 3.708050 0.000000 0.000000 
#    y 0.000000 3.912840 0.000000 
#    z 0.000000 0.000000 3.371180 
# 
# 
# High freq. dielectric constant tensor:
#      x y z
#    x 1.802240 0.000000 0.000000 
#    y 0.000000 1.799480 0.000000 
#    z 0.000000 0.000000 1.760540 
# 
# From -- ./inp_files/9612.got.cif
#   From: 2010.03.12/outbox.cif.g09.slc.cpg/sg45_5_cif.got.tgz:9612.got - 2010.04.14 02:50:11.
