data_PCOD8190910
_publ_section_title
;
Structure prediction by ZEFSAII (Michael W. Deem and Ramdas Pophale) SiO2 
 PCOD8190910
Probable space group: I B A 2
;
_chemical_formula_sum "Si O2"
_cell_formula_units_Z 44
_cell_length_a 14.078837
_cell_length_b 14.651357
_cell_length_c 9.566781
_cell_angle_alpha 90.000000
_cell_angle_beta 90.000000
_cell_angle_gamma 90.000000
_cell_volume 1973.378825
_symmetry_space_group_name_H-M "I B A 2"
_symmetry_group_IT_number 45
_symmetry_cell_setting 'orthorhombic'
loop_
_space_group_symop_operation_xyz
x,y,z
-x,-y,z
-x,y,1/2+z
x,-y,1/2+z
1/2+x,1/2+y,1/2+z
1/2-x,1/2-y,1/2+z
1/2-x,1/2+y,z
1/2+x,1/2-y,z
loop_
_atom_site_type_symbol
_atom_site_label
_atom_site_fract_x
_atom_site_fract_y
_atom_site_fract_z
Si Si1 0.207308 0.182082 0.381570
Si Si2 0.389999 0.602126 0.635402
Si Si3 0.603009 0.607141 0.633200
Si Si4 0.236594 0.122651 0.882450
Si Si5 0.126204 0.553445 0.386622
Si Si6 0.500000 0.000000 0.137150
O O1 0.141190 0.118747 0.476993
O O2 0.168940 0.171875 0.225200
O O3 0.203398 0.288010 0.427037
O O4 0.314641 0.145933 0.388107
O O5 0.495537 0.644422 0.644797
O O6 0.392481 0.497186 0.682459
O O7 0.309182 0.647126 0.732180
O O8 0.644429 0.607880 0.477672
O O9 0.307730 0.036846 0.883296
O O10 0.065671 0.558196 0.530700
O O11 0.063897 0.559744 0.244161
#
# Coordination Sequence:
#
# PCOD8190910 Si02
#       6
#     8   8   8   8   8   4
#     4  12  24  43  67  95 128 170 208 259 320 375
#     4  11  22  42  69  95 128 164 208 265 319 373
#     4  11  22  42  69  95 128 164 208 265 319 373
#     4  12  24  43  67  95 128 170 208 259 320 375
#     4  11  22  46  65  88 132 160 219 256 312 373
#     4  10  24  42  68  90 118 184 204 262 308 362
#
# _framework density 22.296783000000001
#
# number of rings (size 3 to 8) (size 9 to 14) (size 15 to 20)
#    0.000    0.727    3.636    4.364    0.000    2.909 
#   19.636    0.000    0.000    0.000    0.000    0.000 
#    0.000    0.000    0.000    0.000    0.000    0.000 
#
# Total GULP energy -272757.286007 kJ/mol
# GULP energy per Si atom -12398.058455 kJ/mol
# Density = 2.224603 g / cm^3
# Si number density = 22.296783 Si / 1000 Ang^3
#
#
#
# Elastic Constant Matrix: (Units=GPa)
#
#
# Indices 1 2 3 4 5 6 
#
# 1 122.0344 28.9888 40.3975 0.0000 0.0000 0.0000
# 2 28.9888 79.2240 11.0726 0.0000 0.0000 0.0000
# 3 40.3975 11.0726 115.7265 0.0000 0.0000 0.0000
# 4 0.0000 0.0000 0.0000 18.4840 0.0000 0.0000
# 5 0.0000 0.0000 0.0000 0.0000 43.0329 0.0000
# 6 0.0000 0.0000 0.0000 0.0000 0.0000 16.2105
#
#
#
# Elastic Compliance Matrix: (Units=1/GPa)
#
#
# Indices 1 2 3 4 5 6 
#
# 1 0.010014 -0.003219 -0.003188 0.000000 0.000000 0.000000
# 2 -0.003219 0.013828 -0.000199 0.000000 0.000000 0.000000
# 3 -0.003188 -0.000199 0.009773 0.000000 0.000000 0.000000
# 4 0.000000 0.000000 0.000000 0.054101 0.000000 0.000000
# 5 0.000000 0.000000 0.000000 0.000000 0.023238 0.000000
# 6 0.000000 0.000000 0.000000 0.000000 0.000000 0.061689
#
#
# Mechanical properties :
#
#
# Convention : Reuss Voigt Hill
#
# Bulk Modulus (GPa) = 49.01178 53.10030 51.05604
# Shear Modulus (GPa) = 25.95302 31.31388 28.63345
#
# Velocity S-wave (km/s) = 3.41542 3.75161 3.58746
# Velocity P-wave (km/s) = 6.13047 6.52940 6.33308
#
# Compressibility (1/GPa) = 0.02040326
#
# Stress axis : x y z
#
# Youngs Moduli (GPa) = 99.85728 72.31657 102.32339
#
# Poissons Ratio (x) = 0.23277 0.32619
# Poissons Ratio (y) = 0.32142 0.02041
# Poissons Ratio (z) = 0.31832 0.01442
#
# Static dielectric constant tensor:
#      x y z
#    x 4.229170 0.000000 0.000000 
#    y 0.000000 3.588040 0.000000 
#    z 0.000000 0.000000 4.048340 
# 
# 
# High freq. dielectric constant tensor:
#      x y z
#    x 1.892340 0.000000 0.000000 
#    y 0.000000 1.850670 0.000000 
#    z 0.000000 0.000000 1.893170 
# 
# From -- ./inp_files/1673.got.cif
#   From: 2010.03.12/outbox.cif.g09.slc.cpg/sg45_1_cif.got.tgz:1673.got - 2010.04.14 02:50:11.
