data_PCOD8190400
_publ_section_title
;
Structure prediction by ZEFSAII (Michael W. Deem and Ramdas Pophale) SiO2 
 PCOD8190400
Probable space group: I B A 2
;
_chemical_formula_sum "Si O2"
_cell_formula_units_Z 60
_cell_length_a 8.103360
_cell_length_b 21.154713
_cell_length_c 16.639072
_cell_angle_alpha 90.000000
_cell_angle_beta 90.000000
_cell_angle_gamma 90.000000
_cell_volume 2852.340524
_symmetry_space_group_name_H-M "I B A 2"
_symmetry_group_IT_number 45
_symmetry_cell_setting 'orthorhombic'
loop_
_space_group_symop_operation_xyz
x,y,z
-x,-y,z
-x,y,1/2+z
x,-y,1/2+z
1/2+x,1/2+y,1/2+z
1/2-x,1/2-y,1/2+z
1/2-x,1/2+y,z
1/2+x,1/2-y,z
loop_
_atom_site_type_symbol
_atom_site_label
_atom_site_fract_x
_atom_site_fract_y
_atom_site_fract_z
Si Si1 0.341139 0.385925 0.230670
Si Si2 0.229046 0.320884 0.905744
Si Si3 0.344683 0.039388 0.368319
Si Si4 0.475767 0.270227 0.313088
Si Si5 0.479341 0.064783 0.201217
Si Si6 0.552986 0.806194 0.153677
Si Si7 0.000000 0.000000 0.817912
Si Si8 0.288621 0.690578 0.583311
O O1 0.346658 0.325111 0.289455
O O2 0.468641 0.439574 0.259800
O O3 0.385518 0.360662 0.139577
O O4 0.154077 0.409519 0.233108
O O5 0.150859 0.390406 0.903980
O O6 0.354734 0.306755 0.832857
O O7 0.085112 0.268902 0.891602
O O8 0.328952 0.315633 0.989389
O O9 0.367597 0.040119 0.273342
O O10 0.159633 0.009498 0.377010
O O11 0.500000 0.000000 0.407527
O O12 0.506498 0.222363 0.238944
O O13 0.375618 0.122343 0.162553
O O14 0.500000 0.000000 0.146862
O O15 0.684453 0.762537 0.110770
O O16 0.404785 0.818295 0.092536
#
# Coordination Sequence:
#
# PCOD8190400 Si02
#       8
#     8   8   8   8   8   8   4   8
#     4  10  21  38  60  91 120 164 217 266 316 385
#     4  12  23  39  60  95 129 167 208 272 339 390
#     4  11  23  38  65  96 128 163 218 271 316 383
#     4  11  22  36  65  90 119 164 222 263 316 390
#     4  10  18  34  60  90 120 154 211 269 305 368
#     4  10  20  39  59  88 119 166 209 264 309 390
#     4  12  20  40  66  96 118 172 224 272 308 380
#     4  10  23  38  58  88 134 158 204 264 337 385
#
# _framework density 21.035357999999999
#
# number of rings (size 3 to 8) (size 9 to 14) (size 15 to 20)
#    0.000    1.333    5.333    3.200    0.000    0.000 
#    0.000    3.333    0.000    0.000    0.000    0.000 
#    0.000    0.000    0.000    0.000    0.000    0.000 
#
# Total GULP energy -371659.591847 kJ/mol
# GULP energy per Si atom -12388.653062 kJ/mol
# Density = 2.098748 g / cm^3
# Si number density = 21.035358 Si / 1000 Ang^3
#
#
#
# Elastic Constant Matrix: (Units=GPa)
#
#
# Indices 1 2 3 4 5 6 
#
# 1 77.9331 32.4455 1.4120 0.0000 0.0000 0.0000
# 2 32.4455 183.4605 39.4926 0.0000 0.0000 0.0000
# 3 1.4120 39.4926 72.6591 0.0002 -0.0001 0.0000
# 4 0.0000 0.0000 0.0002 16.4739 0.0000 0.0000
# 5 0.0000 0.0000 -0.0001 0.0000 19.5158 0.0000
# 6 0.0000 0.0000 0.0000 0.0000 0.0000 36.1879
#
#
#
# Elastic Compliance Matrix: (Units=1/GPa)
#
#
# Indices 1 2 3 4 5 6 
#
# 1 0.013945 -0.002727 0.001211 0.000000 0.000000 0.000000
# 2 -0.002727 0.006706 -0.003592 0.000000 0.000000 0.000000
# 3 0.001211 -0.003592 0.015692 0.000000 0.000000 0.000000
# 4 0.000000 0.000000 0.000000 0.060702 0.000000 0.000000
# 5 0.000000 0.000000 0.000000 0.000000 0.051240 0.000000
# 6 0.000000 0.000000 0.000000 0.000000 0.000000 0.027634
#
#
# Mechanical properties :
#
#
# Convention : Reuss Voigt Hill
#
# Bulk Modulus (GPa) = 38.27418 53.41698 45.84558
# Shear Modulus (GPa) = 25.66159 31.81570 28.73864
#
# Velocity S-wave (km/s) = 3.49653 3.89329 3.70023
# Velocity P-wave (km/s) = 5.87671 6.75717 6.33226
#
# Compressibility (1/GPa) = 0.02612727
#
# Stress axis : x y z
#
# Youngs Moduli (GPa) = 71.71099 149.11408 63.72766
#
# Poissons Ratio (x) = 0.40662 -0.07719
# Poissons Ratio (y) = 0.19555 0.22892
# Poissons Ratio (z) = -0.08685 0.53563
#
# Static dielectric constant tensor:
#      x y z
#    x 3.743300 0.000000 0.000000 
#    y 0.000000 4.659220 0.000000 
#    z 0.000000 0.000000 3.406110 
# 
# 
# High freq. dielectric constant tensor:
#      x y z
#    x 1.817040 0.000000 0.000000 
#    y 0.000000 1.850500 0.000000 
#    z 0.000000 0.000000 1.775660 
# 
# From -- ./inp_files/7703.got.cif
#   From: 2010.03.12/outbox.cif.g09.slc.cpg/sg45_4_cif.got.tgz:7703.got - 2010.04.14 02:50:11.
