data_PCOD8190383
_publ_section_title
;
Structure prediction by ZEFSAII (Michael W. Deem and Ramdas Pophale) SiO2 
 PCOD8190383
Probable space group: I B A 2
;
_chemical_formula_sum "Si O2"
_cell_formula_units_Z 60
_cell_length_a 12.388729
_cell_length_b 26.457083
_cell_length_c 8.658925
_cell_angle_alpha 90.000000
_cell_angle_beta 90.000000
_cell_angle_gamma 90.000000
_cell_volume 2838.132656
_symmetry_space_group_name_H-M "I B A 2"
_symmetry_group_IT_number 45
_symmetry_cell_setting 'orthorhombic'
loop_
_space_group_symop_operation_xyz
x,y,z
-x,-y,z
-x,y,1/2+z
x,-y,1/2+z
1/2+x,1/2+y,1/2+z
1/2-x,1/2-y,1/2+z
1/2-x,1/2+y,z
1/2+x,1/2-y,z
loop_
_atom_site_type_symbol
_atom_site_label
_atom_site_fract_x
_atom_site_fract_y
_atom_site_fract_z
Si Si1 0.376708 0.183845 0.993660
Si Si2 0.840195 0.520179 0.141097
Si Si3 0.997604 0.744215 0.737369
Si Si4 0.000000 0.000000 0.508210
Si Si5 0.634203 0.930193 0.941134
Si Si6 0.356879 0.588385 0.079072
Si Si7 0.296057 0.545949 0.361339
Si Si8 0.878724 0.805020 0.984018
O O1 0.432279 0.213135 0.856199
O O2 0.411124 0.124802 0.985448
O O3 0.415167 0.205780 0.156578
O O4 0.249923 0.192897 0.978275
O O5 0.903969 0.555988 0.264318
O O6 0.746924 0.497243 0.246928
O O7 0.909281 0.474227 0.059778
O O8 0.785500 0.554211 0.005540
O O9 0.080925 0.767798 0.616683
O O10 0.927593 0.787894 0.820319
O O11 0.084921 0.030329 0.407015
O O12 0.940912 0.043024 0.607581
O O13 0.765121 0.928932 0.956042
O O14 0.303516 0.596418 0.251548
O O15 0.418782 0.638197 0.021174
#
# Coordination Sequence:
#
# PCOD8190383 Si02
#       8
#     8   8   8   4   8   8   8   8
#     4  10  21  42  68  88 122 154 205 256 314 372
#     4   9  16  33  49  74 114 149 197 239 288 359
#     4  10  22  42  66  90 115 157 207 262 319 369
#     4  12  18  28  44  68 120 164 202 234 270 346
#     4   9  18  35  55  82 113 156 189 240 296 368
#     4  10  21  32  47  76 119 165 203 234 286 362
#     4  10  18  28  42  68 109 162 196 237 277 339
#     4  10  22  41  60  92 125 158 204 261 309 361
#
# _framework density 21.14066
#
# number of rings (size 3 to 8) (size 9 to 14) (size 15 to 20)
#    0.000    2.133    4.000    1.200    1.867    0.000 
#    2.400   12.000    0.000    2.400    0.000    0.000 
#    0.000    0.000    0.000    0.000    0.000    0.000 
#
# Total GULP energy -371660.740234 kJ/mol
# GULP energy per Si atom -12388.691341 kJ/mol
# Density = 2.109254 g / cm^3
# Si number density = 21.140660 Si / 1000 Ang^3
#
#
#
# Elastic Constant Matrix: (Units=GPa)
#
#
# Indices 1 2 3 4 5 6 
#
# 1 37.9506 26.1100 12.1496 -0.0004 0.0006 0.0004
# 2 26.1100 128.3092 56.7306 -0.0016 0.0006 0.0004
# 3 12.1496 56.7306 138.4673 0.0043 0.0065 -0.0009
# 4 -0.0004 -0.0016 0.0043 36.1251 0.0011 -0.0002
# 5 0.0006 0.0006 0.0065 0.0011 16.9912 -0.0005
# 6 0.0004 0.0004 -0.0009 -0.0002 -0.0005 25.8035
#
#
#
# Elastic Compliance Matrix: (Units=1/GPa)
#
#
# Indices 1 2 3 4 5 6 
#
# 1 0.030643 -0.006163 -0.000164 0.000000 -0.000001 0.000000
# 2 -0.006163 0.010757 -0.003867 0.000001 0.000001 0.000000
# 3 -0.000164 -0.003867 0.008820 -0.000001 -0.000003 0.000000
# 4 0.000000 0.000001 -0.000001 0.027682 -0.000002 0.000000
# 5 -0.000001 0.000001 -0.000003 -0.000002 0.058854 0.000001
# 6 0.000000 0.000000 0.000000 0.000000 0.000001 0.038754
#
#
# Mechanical properties :
#
#
# Convention : Reuss Voigt Hill
#
# Bulk Modulus (GPa) = 33.51905 54.96748 44.24326
# Shear Modulus (GPa) = 24.29049 29.76642 27.02846
#
# Velocity S-wave (km/s) = 3.39336 3.75643 3.57950
# Velocity P-wave (km/s) = 5.58953 6.69863 6.16905
#
# Compressibility (1/GPa) = 0.02983378
#
# Stress axis : x y z
#
# Youngs Moduli (GPa) = 32.63416 92.95912 113.37315
#
# Poissons Ratio (x) = 0.57293 0.01855
# Poissons Ratio (y) = 0.20113 0.43837
# Poissons Ratio (z) = 0.00534 0.35943
#
# Static dielectric constant tensor:
#      x y z
#    x 3.566190 0.000070 0.000030 
#    y 0.000070 4.538110 0.000190 
#    z 0.000030 0.000190 4.369210 
# 
# 
# High freq. dielectric constant tensor:
#      x y z
#    x 1.814100 0.000000 0.000000 
#    y 0.000000 1.814630 0.000000 
#    z 0.000000 0.000000 1.844400 
# 
# From -- ./inp_files/1905.got.cif
#   From: 2010.03.12/outbox.cif.g09.slc.cpg/sg45_1_cif.got.tgz:1905.got - 2010.04.14 02:50:11.
