data_PCOD8190879
_publ_section_title
;
Structure prediction by ZEFSAII (Michael W. Deem and Ramdas Pophale) SiO2 
 PCOD8190879
Probable space group: I B A 2
;
_chemical_formula_sum "Si O2"
_cell_formula_units_Z 60
_cell_length_a 9.106597
_cell_length_b 14.528016
_cell_length_c 20.146288
_cell_angle_alpha 90.000000
_cell_angle_beta 90.000000
_cell_angle_gamma 90.000000
_cell_volume 2665.369756
_symmetry_space_group_name_H-M "I B A 2"
_symmetry_group_IT_number 45
_symmetry_cell_setting 'orthorhombic'
loop_
_space_group_symop_operation_xyz
x,y,z
-x,-y,z
-x,y,1/2+z
x,-y,1/2+z
1/2+x,1/2+y,1/2+z
1/2-x,1/2-y,1/2+z
1/2-x,1/2+y,z
1/2+x,1/2-y,z
loop_
_atom_site_type_symbol
_atom_site_label
_atom_site_fract_x
_atom_site_fract_y
_atom_site_fract_z
Si Si1 0.239910 0.068050 0.160480
Si Si2 0.445209 0.726368 0.107367
Si Si3 0.552902 0.635332 0.373638
Si Si4 0.000000 0.000000 0.260595
Si Si5 0.927263 0.087450 0.010681
Si Si6 0.057439 0.685412 0.231950
Si Si7 0.690237 0.232431 0.321918
Si Si8 0.866651 0.431498 0.560925
O O1 0.195084 0.158128 0.116139
O O2 0.397436 0.092180 0.193888
O O3 0.119411 0.049597 0.215850
O O4 0.268221 0.975891 0.119202
O O5 0.551699 0.680334 0.053083
O O6 0.522731 0.733285 0.179177
O O7 0.412342 0.829360 0.081930
O O8 0.576937 0.572410 0.309228
O O9 0.518094 0.585626 0.442118
O O10 0.415445 0.701132 0.362222
O O11 0.712916 0.682851 0.378742
O O12 0.750779 0.075735 0.000071
O O13 0.000000 0.000000 0.049899
O O14 0.198458 0.715004 0.273952
O O15 0.914434 0.666006 0.277510
O O16 0.000000 0.500000 0.541071
#
# Coordination Sequence:
#
# PCOD8190879 Si02
#       8
#     8   8   8   4   8   8   8   8
#     4  12  23  42  71 112 149 189 238 311 389 449
#     4  12  25  45  72 107 148 194 240 309 385 443
#     4  11  25  47  71 101 137 194 244 296 356 438
#     4  12  24  42  74 102 146 188 240 300 376 436
#     4  12  27  49  72  97 146 201 254 298 367 447
#     4  11  20  40  71 105 145 178 234 299 379 441
#     4  10  23  43  70 103 138 183 240 294 365 447
#     4  12  28  45  72 111 148 187 253 312 373 446
#
# _framework density 22.510946000000001
#
# number of rings (size 3 to 8) (size 9 to 14) (size 15 to 20)
#    0.000    0.533    6.000    2.400    3.733    0.000 
#    0.000    0.000    0.000    0.000    0.000    0.000 
#    0.000    0.000    0.000    0.000    0.000    0.000 
#
# Total GULP energy -371827.581406 kJ/mol
# GULP energy per Si atom -12394.252714 kJ/mol
# Density = 2.245971 g / cm^3
# Si number density = 22.510946 Si / 1000 Ang^3
#
#
#
# Elastic Constant Matrix: (Units=GPa)
#
#
# Indices 1 2 3 4 5 6 
#
# 1 151.2603 56.2209 37.7698 0.0000 0.0000 0.0000
# 2 56.2209 138.2427 30.3850 0.0000 0.0000 0.0000
# 3 37.7698 30.3850 74.0080 0.0000 0.0000 0.0000
# 4 0.0000 0.0000 0.0000 32.3671 0.0000 0.0000
# 5 0.0000 0.0000 0.0000 0.0000 29.9173 0.0000
# 6 0.0000 0.0000 0.0000 0.0000 0.0000 38.2898
#
#
#
# Elastic Compliance Matrix: (Units=1/GPa)
#
#
# Indices 1 2 3 4 5 6 
#
# 1 0.008417 -0.002725 -0.003177 0.000000 0.000000 0.000000
# 2 -0.002725 0.008833 -0.002236 0.000000 0.000000 0.000000
# 3 -0.003177 -0.002236 0.016051 0.000000 0.000000 0.000000
# 4 0.000000 0.000000 0.000000 0.030896 0.000000 0.000000
# 5 0.000000 0.000000 0.000000 0.000000 0.033426 0.000000
# 6 0.000000 0.000000 0.000000 0.000000 0.000000 0.026117
#
#
# Mechanical properties :
#
#
# Convention : Reuss Voigt Hill
#
# Bulk Modulus (GPa) = 58.73282 68.02917 63.38100
# Shear Modulus (GPa) = 34.31928 36.05717 35.18822
#
# Velocity S-wave (km/s) = 3.90880 4.00654 3.95797
# Velocity P-wave (km/s) = 6.82048 7.18953 7.00744
#
# Compressibility (1/GPa) = 0.01702625
#
# Stress axis : x y z
#
# Youngs Moduli (GPa) = 118.80451 113.20844 62.29969
#
# Poissons Ratio (x) = 0.30848 0.19792
# Poissons Ratio (y) = 0.32372 0.13930
# Poissons Ratio (z) = 0.37744 0.25313
#
# Static dielectric constant tensor:
#      x y z
#    x 4.379750 0.000000 0.000000 
#    y 0.000000 -13.620140 0.000000 
#    z 0.000000 0.000000 3.906580 
# 
# 
# High freq. dielectric constant tensor:
#      x y z
#    x 1.902470 0.000000 0.000000 
#    y 0.000000 1.891330 0.000000 
#    z 0.000000 0.000000 1.868790 
# 
# From -- ./inp_files/9569.got.cif
#   From: 2010.03.12/outbox.cif.g09.slc.cpg/sg45_5_cif.got.tgz:9569.got - 2010.04.14 02:50:11.
