data_PCOD8190818
_publ_section_title
;
Structure prediction by ZEFSAII (Michael W. Deem and Ramdas Pophale) SiO2 
 PCOD8190818
Probable space group: I B A 2
;
_chemical_formula_sum "Si O2"
_cell_formula_units_Z 64
_cell_length_a 10.112242
_cell_length_b 14.430891
_cell_length_c 21.053816
_cell_angle_alpha 90.000000
_cell_angle_beta 90.000000
_cell_angle_gamma 90.000000
_cell_volume 3072.355200
_symmetry_space_group_name_H-M "I B A 2"
_symmetry_group_IT_number 45
_symmetry_cell_setting 'orthorhombic'
loop_
_space_group_symop_operation_xyz
x,y,z
-x,-y,z
-x,y,1/2+z
x,-y,1/2+z
1/2+x,1/2+y,1/2+z
1/2-x,1/2-y,1/2+z
1/2-x,1/2+y,z
1/2+x,1/2-y,z
loop_
_atom_site_type_symbol
_atom_site_label
_atom_site_fract_x
_atom_site_fract_y
_atom_site_fract_z
Si Si1 0.646791 0.010039 0.788400
Si Si2 0.289987 0.841730 0.886545
Si Si3 0.675763 0.653647 0.317752
Si Si4 0.153524 0.298449 0.588643
Si Si5 0.402701 0.236851 0.510387
Si Si6 0.003591 0.896898 0.932707
Si Si7 0.919072 0.862797 0.679131
Si Si8 0.701354 0.443007 0.166422
O O1 0.646949 0.070259 0.852230
O O2 0.737052 0.061592 0.736657
O O3 0.500000 0.000000 0.760693
O O4 0.693708 0.906613 0.805241
O O5 0.281688 0.756287 0.837628
O O6 0.385245 0.821069 0.945848
O O7 0.145267 0.862318 0.911277
O O8 0.592929 0.605155 0.372788
O O9 0.588476 0.652107 0.254363
O O10 0.262765 0.249133 0.544848
O O11 0.131482 0.230881 0.647815
O O12 0.199012 0.399483 0.614314
O O13 0.014852 0.314050 0.552164
O O14 0.454859 0.338417 0.492667
O O15 0.000000 0.000000 0.959836
O O16 0.071919 0.879106 0.663272
O O17 0.832336 0.949320 0.652704
#
# Coordination Sequence:
#
# PCOD8190818 Si02
#       8
#     8   8   8   8   8   8   8   8
#     4  11  24  41  65 101 137 166 213 276 343 402
#     4  11  23  43  65  96 131 175 215 275 332 395
#     4  10  23  38  67 101 130 166 214 269 334 403
#     4  12  23  46  67  96 132 180 228 279 322 391
#     4  11  26  42  67  94 134 172 235 271 323 393
#     4  11  22  42  71  94 129 173 225 272 331 399
#     4  10  22  42  71  99 128 175 225 267 343 404
#     4  10  23  43  69  97 133 173 220 277 332 406
#
# _framework density 20.830925000000001
#
# number of rings (size 3 to 8) (size 9 to 14) (size 15 to 20)
#    0.000    1.250    3.750    1.500    5.250    3.000 
#    4.500    0.000    0.000    0.000    0.000    0.000 
#    0.000    0.000    0.000    0.000    0.000    0.000 
#
# Total GULP energy -396921.352011 kJ/mol
# GULP energy per Si atom -12403.792250 kJ/mol
# Density = 2.078351 g / cm^3
# Si number density = 20.830925 Si / 1000 Ang^3
#
#
#
# Elastic Constant Matrix: (Units=GPa)
#
#
# Indices 1 2 3 4 5 6 
#
# 1 95.9405 14.8052 9.0039 0.0000 0.0000 0.0000
# 2 14.8052 54.3146 10.1850 0.0000 0.0000 0.0000
# 3 9.0039 10.1850 59.3020 0.0000 0.0000 0.0000
# 4 0.0000 0.0000 0.0000 24.5647 0.0000 0.0000
# 5 0.0000 0.0000 0.0000 0.0000 28.9894 0.0000
# 6 0.0000 0.0000 0.0000 0.0000 0.0000 28.1444
#
#
#
# Elastic Compliance Matrix: (Units=1/GPa)
#
#
# Indices 1 2 3 4 5 6 
#
# 1 0.010961 -0.002765 -0.001189 0.000000 0.000000 0.000000
# 2 -0.002765 0.019721 -0.002967 0.000000 0.000000 0.000000
# 3 -0.001189 -0.002967 0.017553 0.000000 0.000000 0.000000
# 4 0.000000 0.000000 0.000000 0.040709 0.000000 0.000000
# 5 0.000000 0.000000 0.000000 0.000000 0.034495 0.000000
# 6 0.000000 0.000000 0.000000 0.000000 0.000000 0.035531
#
#
# Mechanical properties :
#
#
# Convention : Reuss Voigt Hill
#
# Bulk Modulus (GPa) = 29.07602 30.83839 29.95720
# Shear Modulus (GPa) = 27.13286 28.04390 27.58838
#
# Velocity S-wave (km/s) = 3.61297 3.67313 3.64317
# Velocity P-wave (km/s) = 5.60296 5.72935 5.66651
#
# Compressibility (1/GPa) = 0.03439261
#
# Stress axis : x y z
#
# Youngs Moduli (GPa) = 91.22905 50.70652 56.97014
#
# Poissons Ratio (x) = 0.14020 0.06776
# Poissons Ratio (y) = 0.25224 0.16905
# Poissons Ratio (z) = 0.10851 0.15046
#
# Static dielectric constant tensor:
#      x y z
#    x 3.735840 0.000000 0.000000 
#    y 0.000000 3.576670 0.000000 
#    z 0.000000 0.000000 3.781140 
# 
# 
# High freq. dielectric constant tensor:
#      x y z
#    x 1.822740 0.000000 0.000000 
#    y 0.000000 1.814410 0.000000 
#    z 0.000000 0.000000 1.820470 
# 
# From -- ./inp_files/9597.got.cif
#   From: 2010.03.12/outbox.cif.g09.slc.cpg/sg45_5_cif.got.tgz:9597.got - 2010.04.14 02:50:11.
