data_PCOD8190632
_publ_section_title
;
Structure prediction by ZEFSAII (Michael W. Deem and Ramdas Pophale) SiO2 
 PCOD8190632
Probable space group: I B A 2
;
_chemical_formula_sum "Si O2"
_cell_formula_units_Z 48
_cell_length_a 5.068204
_cell_length_b 15.424520
_cell_length_c 28.803499
_cell_angle_alpha 90.000000
_cell_angle_beta 90.000000
_cell_angle_gamma 90.000000
_cell_volume 2251.702415
_symmetry_space_group_name_H-M "I B A 2"
_symmetry_group_IT_number 45
_symmetry_cell_setting 'orthorhombic'
loop_
_space_group_symop_operation_xyz
x,y,z
-x,-y,z
-x,y,1/2+z
x,-y,1/2+z
1/2+x,1/2+y,1/2+z
1/2-x,1/2-y,1/2+z
1/2-x,1/2+y,z
1/2+x,1/2-y,z
loop_
_atom_site_type_symbol
_atom_site_label
_atom_site_fract_x
_atom_site_fract_y
_atom_site_fract_z
Si Si1 0.514846 0.399460 0.063550
Si Si2 0.909330 0.308213 0.713913
Si Si3 0.016291 0.603540 0.616671
Si Si4 0.094066 0.807836 0.472546
Si Si5 0.896132 0.191710 0.367588
Si Si6 0.250594 0.443611 0.291424
O O1 0.500000 0.500000 0.072128
O O2 0.229578 0.363746 0.078537
O O3 0.737408 0.360086 0.098001
O O4 0.590818 0.384861 0.009854
O O5 0.698568 0.231692 0.721016
O O6 0.895217 0.352674 0.664165
O O7 0.854692 0.382192 0.751127
O O8 0.000000 0.500000 0.623293
O O9 0.333367 0.745244 0.482111
O O10 0.112675 0.844575 0.420265
O O11 0.677681 0.264808 0.357623
O O12 0.856984 0.109525 0.335268
O O13 0.500000 0.500000 0.273215
O O14 0.000000 0.500000 0.307838
#
# Coordination Sequence:
#
# PCOD8190632 Si02
#       6
#     8   8   8   8   8   8
#     4  10  21  37  57  84 119 157 195 242 293 344
#     4  12  25  41  63  91 120 157 200 248 300 358
#     4  10  22  39  58  83 119 158 197 243 294 345
#     4  10  21  36  59  86 117 155 195 240 291 344
#     4  10  21  41  63  88 122 159 198 247 300 353
#     4  12  25  42  65  92 120 156 197 246 302 362
#
# _framework density 21.317205999999999
#
# number of rings (size 3 to 8) (size 9 to 14) (size 15 to 20)
#    0.000    1.333    0.000    5.500    0.000    6.667 
#    0.000    2.500    0.000    0.000    0.000    0.000 
#    0.000    0.000    0.000    0.000    0.000    0.000 
#
# Total GULP energy -297615.282338 kJ/mol
# GULP energy per Si atom -12400.636764 kJ/mol
# Density = 2.126869 g / cm^3
# Si number density = 21.317206 Si / 1000 Ang^3
#
#
#
# Elastic Constant Matrix: (Units=GPa)
#
#
# Indices 1 2 3 4 5 6 
#
# 1 135.7698 30.7076 34.8239 0.0000 0.0000 0.0000
# 2 30.7076 61.4075 52.4513 0.0000 0.0000 0.0000
# 3 34.8239 52.4513 137.2200 0.0000 0.0000 0.0000
# 4 0.0000 0.0000 0.0000 66.9722 0.0000 0.0000
# 5 0.0000 0.0000 0.0000 0.0000 34.6208 0.0000
# 6 0.0000 0.0000 0.0000 0.0000 0.0000 21.6296
#
#
#
# Elastic Compliance Matrix: (Units=1/GPa)
#
#
# Indices 1 2 3 4 5 6 
#
# 1 0.008360 -0.003517 -0.000778 0.000000 0.000000 0.000000
# 2 -0.003517 0.025658 -0.008915 0.000000 0.000000 0.000000
# 3 -0.000778 -0.008915 0.010893 0.000000 0.000000 0.000000
# 4 0.000000 0.000000 0.000000 0.014932 0.000000 0.000000
# 5 0.000000 0.000000 0.000000 0.000000 0.028884 0.000000
# 6 0.000000 0.000000 0.000000 0.000000 0.000000 0.046233
#
#
# Mechanical properties :
#
#
# Convention : Reuss Voigt Hill
#
# Bulk Modulus (GPa) = 54.07601 63.37368 58.72484
# Shear Modulus (GPa) = 29.84323 39.07216 34.45769
#
# Velocity S-wave (km/s) = 3.74566 4.28587 4.02484
# Velocity P-wave (km/s) = 6.64297 7.36784 7.01477
#
# Compressibility (1/GPa) = 0.01849249
#
# Stress axis : x y z
#
# Youngs Moduli (GPa) = 119.61478 38.97418 91.80514
#
# Poissons Ratio (x) = 0.13705 0.07138
# Poissons Ratio (y) = 0.42063 0.81846
# Poissons Ratio (z) = 0.09300 0.34746
#
# Static dielectric constant tensor:
#      x y z
#    x 4.443450 0.000000 0.000000 
#    y 0.000000 3.447300 0.000000 
#    z 0.000000 0.000000 3.928490 
# 
# 
# High freq. dielectric constant tensor:
#      x y z
#    x 1.862320 0.000000 0.000000 
#    y 0.000000 1.824150 0.000000 
#    z 0.000000 0.000000 1.844800 
# 
# From -- ./inp_files/9887.got.cif
#   From: 2010.03.12/outbox.cif.g09.slc.cpg/sg45_5_cif.got.tgz:9887.got - 2010.04.14 02:50:11.
