data_PCOD8190985
_publ_section_title
;
Structure prediction by ZEFSAII (Michael W. Deem and Ramdas Pophale) SiO2 
 PCOD8190985
Probable space group: I B A 2
;
_chemical_formula_sum "Si O2"
_cell_formula_units_Z 48
_cell_length_a 9.097937
_cell_length_b 16.335577
_cell_length_c 13.319183
_cell_angle_alpha 90.000000
_cell_angle_beta 90.000000
_cell_angle_gamma 90.000000
_cell_volume 1979.497649
_symmetry_space_group_name_H-M "I B A 2"
_symmetry_group_IT_number 45
_symmetry_cell_setting 'orthorhombic'
loop_
_space_group_symop_operation_xyz
x,y,z
-x,-y,z
-x,y,1/2+z
x,-y,1/2+z
1/2+x,1/2+y,1/2+z
1/2-x,1/2-y,1/2+z
1/2-x,1/2+y,z
1/2+x,1/2-y,z
loop_
_atom_site_type_symbol
_atom_site_label
_atom_site_fract_x
_atom_site_fract_y
_atom_site_fract_z
Si Si1 0.500000 0.500000 0.059410
Si Si2 0.000000 0.500000 0.706688
Si Si3 0.620585 0.164848 0.674341
Si Si4 0.701859 0.431041 0.720285
Si Si5 0.270839 0.791262 0.887403
Si Si6 0.329923 0.785670 0.104814
Si Si7 0.954240 0.864154 0.895425
O O1 0.356356 0.486874 0.128819
O O2 0.527935 0.418255 0.994863
O O3 0.057674 0.423642 0.639493
O O4 0.146525 0.529656 0.766611
O O5 0.647948 0.164440 0.794676
O O6 0.494430 0.229150 0.643183
O O7 0.762035 0.193730 0.611161
O O8 0.737894 0.339734 0.683078
O O9 0.574794 0.426977 0.804093
O O10 0.310903 0.694790 0.896220
O O11 0.096353 0.806631 0.877205
O O12 0.325426 0.827092 0.994465
#
# Coordination Sequence:
#
# PCOD8190985 Si02
#       7
#     4   4   8   8   8   8   8
#     4  12  28  50  74 112 150 206 258 328 394 464
#     4  10  28  46  74 108 152 206 246 320 396 448
#     4  11  25  46  74 108 149 197 253 324 379 463
#     4  11  26  50  71 109 154 203 258 317 394 460
#     4  12  26  47  77 113 147 206 264 319 393 470
#     4  11  24  46  73 108 146 200 261 310 388 466
#     4  12  28  48  79 115 154 206 262 328 390 476
#
# _framework density 24.248576
#
# number of rings (size 3 to 8) (size 9 to 14) (size 15 to 20)
#    0.000    0.667    3.333    2.500    9.333    0.000 
#    0.000    4.167    0.000    0.000    0.000    0.000 
#    0.000    0.000    0.000    0.000    0.000    0.000 
#
# Total GULP energy -297378.912536 kJ/mol
# GULP energy per Si atom -12390.788022 kJ/mol
# Density = 2.419339 g / cm^3
# Si number density = 24.248576 Si / 1000 Ang^3
#
#
#
# Elastic Constant Matrix: (Units=GPa)
#
#
# Indices 1 2 3 4 5 6 
#
# 1 158.8463 71.4111 66.4361 0.0000 0.0000 0.0000
# 2 71.4111 114.9031 23.6938 0.0000 0.0000 0.0000
# 3 66.4361 23.6938 141.9177 0.0000 0.0000 0.0000
# 4 0.0000 0.0000 0.0000 23.3626 0.0000 0.0000
# 5 0.0000 0.0000 0.0000 0.0000 29.6219 0.0000
# 6 0.0000 0.0000 0.0000 0.0000 0.0000 48.1811
#
#
#
# Elastic Compliance Matrix: (Units=1/GPa)
#
#
# Indices 1 2 3 4 5 6 
#
# 1 0.010532 -0.005726 -0.003974 0.000000 0.000000 0.000000
# 2 -0.005726 0.012126 0.000656 0.000000 0.000000 0.000000
# 3 -0.003974 0.000656 0.008797 0.000000 0.000000 0.000000
# 4 0.000000 0.000000 0.000000 0.042803 0.000000 0.000000
# 5 0.000000 0.000000 0.000000 0.000000 0.033759 0.000000
# 6 0.000000 0.000000 0.000000 0.000000 0.000000 0.020755
#
#
# Mechanical properties :
#
#
# Convention : Reuss Voigt Hill
#
# Bulk Modulus (GPa) = 74.81160 82.08322 78.44741
# Shear Modulus (GPa) = 33.04332 37.17487 35.10910
#
# Velocity S-wave (km/s) = 3.69547 3.91970 3.80923
# Velocity P-wave (km/s) = 7.00911 7.37629 7.19504
#
# Compressibility (1/GPa) = 0.01336691
#
# Stress axis : x y z
#
# Youngs Moduli (GPa) = 94.95137 82.46555 113.67108
#
# Poissons Ratio (x) = 0.47218 0.45176
# Poissons Ratio (y) = 0.54367 -0.07456
# Poissons Ratio (z) = 0.37736 -0.05409
#
# Static dielectric constant tensor:
#      x y z
#    x 4.546570 0.000000 0.000000 
#    y 0.000000 4.349380 0.000000 
#    z 0.000000 0.000000 4.365500 
# 
# 
# High freq. dielectric constant tensor:
#      x y z
#    x 1.976680 0.000000 0.000000 
#    y 0.000000 1.962630 0.000000 
#    z 0.000000 0.000000 1.948180 
# 
# From -- ./inp_files/5630.got.cif
#   From: 2010.03.12/outbox.cif.g09.slc.cpg/sg45_3_cif.got.tgz:5630.got - 2010.04.14 02:50:11.
