data_PCOD8190995
_publ_section_title
;
Structure prediction by ZEFSAII (Michael W. Deem and Ramdas Pophale) SiO2 
 PCOD8190995
Probable space group: I B A 2
;
_chemical_formula_sum "Si O2"
_cell_formula_units_Z 64
_cell_length_a 9.578729
_cell_length_b 19.545096
_cell_length_c 17.870732
_cell_angle_alpha 90.000000
_cell_angle_beta 90.000000
_cell_angle_gamma 90.000000
_cell_volume 3345.708011
_symmetry_space_group_name_H-M "I B A 2"
_symmetry_group_IT_number 45
_symmetry_cell_setting 'orthorhombic'
loop_
_space_group_symop_operation_xyz
x,y,z
-x,-y,z
-x,y,1/2+z
x,-y,1/2+z
1/2+x,1/2+y,1/2+z
1/2-x,1/2-y,1/2+z
1/2-x,1/2+y,z
1/2+x,1/2-y,z
loop_
_atom_site_type_symbol
_atom_site_label
_atom_site_fract_x
_atom_site_fract_y
_atom_site_fract_z
Si Si1 0.308364 0.556381 0.803240
Si Si2 0.719316 0.812761 0.053287
Si Si3 0.191636 0.556381 0.133665
Si Si4 0.280684 0.312761 0.383618
Si Si5 0.614185 0.916268 0.669155
Si Si6 0.054356 0.770288 0.801709
Si Si7 0.445644 0.229712 0.635196
Si Si8 0.885815 0.083732 0.767749
O O1 0.294266 0.604473 0.876295
O O2 0.177059 0.571475 0.750793
O O3 0.447598 0.577550 0.757890
O O4 0.322286 0.475348 0.823393
O O5 0.705735 0.895527 0.060610
O O6 0.578470 0.776388 0.080996
O O7 0.847231 0.788919 0.104376
O O8 0.750000 0.792280 0.968452
O O9 0.177714 0.475348 0.113511
O O10 0.322941 0.571475 0.186112
O O11 0.052402 0.577550 0.179015
O O12 0.152770 0.288919 0.332528
O O13 0.421530 0.276387 0.355909
O O14 0.644788 0.840905 0.636555
O O15 0.003638 0.750000 0.718452
O O16 0.144788 0.840905 0.800350
#
# Coordination Sequence:
#
# PCOD8190995 Si02
#       8
#     8   8   8   8   8   8   8   8
#     4   9  18  34  54  80 108 142 184 235 281 329
#     4  11  23  37  55  83 121 153 185 239 300 346
#     4   9  18  34  54  80 108 142 184 235 281 329
#     4  11  23  37  55  83 121 153 185 239 300 346
#     4   9  18  32  56  81 105 139 191 238 267 327
#     4  11  21  36  59  86 113 153 200 239 279 348
#     4  11  21  36  59  86 113 153 200 239 279 348
#     4   9  18  32  56  81 105 139 191 238 267 327
#
# _framework density 19.128985
#
# number of rings (size 3 to 8) (size 9 to 14) (size 15 to 20)
#    0.000    2.000    2.500    1.500    3.500    0.000 
#    0.000    1.250    0.000   24.000    0.000    0.000 
#    0.000    0.000    0.000    0.000    0.000    0.000 
#
# Total GULP energy -396614.289247 kJ/mol
# GULP energy per Si atom -12394.196539 kJ/mol
# Density = 1.908545 g / cm^3
# Si number density = 19.128985 Si / 1000 Ang^3
#
#
#
# Elastic Constant Matrix: (Units=GPa)
#
#
# Indices 1 2 3 4 5 6 
#
# 1 76.4067 32.8598 40.7762 0.0000 0.0000 0.0000
# 2 32.8598 122.7560 36.1543 0.0000 0.0000 0.0000
# 3 40.7762 36.1543 85.5994 0.0000 0.0000 0.0000
# 4 0.0000 0.0000 0.0000 20.8009 0.0000 0.0000
# 5 0.0000 0.0000 0.0000 0.0000 23.5045 0.0000
# 6 0.0000 0.0000 0.0000 0.0000 0.0000 22.5409
#
#
#
# Elastic Compliance Matrix: (Units=1/GPa)
#
#
# Indices 1 2 3 4 5 6 
#
# 1 0.018279 -0.002659 -0.007584 0.000000 0.000000 0.000000
# 2 -0.002659 0.009690 -0.002826 0.000000 0.000000 0.000000
# 3 -0.007584 -0.002826 0.016489 0.000000 0.000000 0.000000
# 4 0.000000 0.000000 0.000000 0.048075 0.000000 0.000000
# 5 0.000000 0.000000 0.000000 0.000000 0.042545 0.000000
# 6 0.000000 0.000000 0.000000 0.000000 0.000000 0.044364
#
#
# Mechanical properties :
#
#
# Convention : Reuss Voigt Hill
#
# Bulk Modulus (GPa) = 54.58813 56.03808 55.31311
# Shear Modulus (GPa) = 23.61972 25.03405 24.32689
#
# Velocity S-wave (km/s) = 3.51773 3.62152 3.57000
# Velocity P-wave (km/s) = 6.71551 6.84439 6.78025
#
# Compressibility (1/GPa) = 0.01831900
#
# Stress axis : x y z
#
# Youngs Moduli (GPa) = 54.70752 103.19437 60.64721
#
# Poissons Ratio (x) = 0.27442 0.45996
# Poissons Ratio (y) = 0.14548 0.17140
# Poissons Ratio (z) = 0.41491 0.29164
#
# Static dielectric constant tensor:
#      x y z
#    x 3.493710 0.000000 0.000000 
#    y 0.000000 4.096890 0.000000 
#    z 0.000000 0.000000 3.031150 
# 
# 
# High freq. dielectric constant tensor:
#      x y z
#    x 1.749240 0.000000 0.000000 
#    y 0.000000 1.766620 0.000000 
#    z 0.000000 0.000000 1.693780 
# 
# From -- ./inp_files/7769.got.cif
#   From: 2010.03.12/outbox.cif.g09.slc.cpg/sg45_4_cif.got.tgz:7769.got - 2010.04.14 02:50:11.
