data_PCOD8190213
_publ_section_title
;
Structure prediction by ZEFSAII (Michael W. Deem and Ramdas Pophale) SiO2 
 PCOD8190213
Probable space group: I M M 2
;
_chemical_formula_sum "Si O2"
_cell_formula_units_Z 48
_cell_length_a 8.912607
_cell_length_b 30.298318
_cell_length_c 9.074940
_cell_angle_alpha 90.000000
_cell_angle_beta 90.000000
_cell_angle_gamma 90.000000
_cell_volume 2450.569583
_symmetry_space_group_name_H-M "I M M 2"
_symmetry_group_IT_number 44
_symmetry_cell_setting 'orthorhombic'
loop_
_space_group_symop_operation_xyz
x,y,z
-x,-y,z
-x,y,z
x,-y,z
1/2+x,1/2+y,1/2+z
1/2-x,1/2-y,1/2+z
1/2-x,1/2+y,1/2+z
1/2+x,1/2-y,1/2+z
loop_
_atom_site_type_symbol
_atom_site_label
_atom_site_fract_x
_atom_site_fract_y
_atom_site_fract_z
Si Si1 0.825174 0.210277 0.337470
Si Si2 0.672315 0.710872 0.179261
Si Si3 0.678491 0.951394 0.348299
Si Si4 0.671805 0.051115 0.679464
Si Si5 0.827104 0.124255 0.857791
Si Si6 0.822147 0.631305 0.666668
O O1 0.781312 0.256620 0.266015
O O2 0.784626 0.212382 0.508719
O O3 0.730011 0.171462 0.266464
O O4 0.000000 0.201084 0.310711
O O5 0.500000 0.725279 0.204925
O O6 0.701380 0.661578 0.235958
O O7 0.500000 0.952058 0.350570
O O8 0.733564 0.940711 0.514102
O O9 0.740063 0.914504 0.236351
O O10 0.737672 0.000000 0.299442
O O11 0.500000 0.066936 0.693232
O O12 0.771186 0.077954 0.794383
O O13 0.685931 0.000000 0.722206
O O14 0.000000 0.119875 0.900314
O O15 0.738317 0.137506 0.003453
O O16 0.000000 0.631090 0.661684
#
# Coordination Sequence:
#
# PCOD8190213 Si02
#       6
#     8   8   8   8   8   8
#     4  11  23  39  60  84 111 143 182 229 278 331
#     4  10  23  41  59  82 112 147 186 228 278 335
#     4   8  16  33  57  83 109 141 185 233 277 326
#     4   9  18  35  59  84 110 144 188 234 281 336
#     4  11  23  38  56  81 116 152 188 232 280 331
#     4  11  22  36  57  84 114 148 187 230 278 332
#
# _framework density 19.587281000000001
#
# number of rings (size 3 to 8) (size 9 to 14) (size 15 to 20)
#    0.000    2.000    0.000    4.500    0.000    6.333 
#    0.000    2.500    0.000    3.500    0.000    0.000 
#    0.000    0.000    0.000    0.000    0.000    0.000 
#
# Total GULP energy -297682.277319 kJ/mol
# GULP energy per Si atom -12403.428222 kJ/mol
# Density = 1.954270 g / cm^3
# Si number density = 19.587281 Si / 1000 Ang^3
#
#
#
# Elastic Constant Matrix: (Units=GPa)
#
#
# Indices 1 2 3 4 5 6 
#
# 1 70.7617 40.9322 47.2534 0.0007 -0.0002 -0.0002
# 2 40.9322 98.2894 50.1450 0.0001 0.0001 0.0003
# 3 47.2534 50.1450 127.0067 0.0018 0.0010 0.0002
# 4 0.0007 0.0001 0.0018 37.1871 0.0003 0.0003
# 5 -0.0002 0.0001 0.0010 0.0003 28.6565 0.0005
# 6 -0.0002 0.0003 0.0002 0.0003 0.0005 28.8407
#
#
#
# Elastic Compliance Matrix: (Units=1/GPa)
#
#
# Indices 1 2 3 4 5 6 
#
# 1 0.021341 -0.006056 -0.005549 0.000000 0.000000 0.000000
# 2 -0.006056 0.014459 -0.003455 0.000000 0.000000 0.000000
# 3 -0.005549 -0.003455 0.011302 0.000000 0.000000 0.000000
# 4 0.000000 0.000000 0.000000 0.026891 0.000000 0.000000
# 5 0.000000 0.000000 0.000000 0.000000 0.034896 -0.000001
# 6 0.000000 0.000000 0.000000 0.000000 -0.000001 0.034673
#
#
# Mechanical properties :
#
#
# Convention : Reuss Voigt Hill
#
# Bulk Modulus (GPa) = 58.88955 63.63543 61.26249
# Shear Modulus (GPa) = 27.87946 29.45202 28.66574
#
# Velocity S-wave (km/s) = 3.77682 3.88187 3.82971
# Velocity P-wave (km/s) = 7.01068 7.25607 7.13443
#
# Compressibility (1/GPa) = 0.01698094
#
# Stress axis : x y z
#
# Youngs Moduli (GPa) = 46.85917 69.16072 88.47774
#
# Poissons Ratio (x) = 0.41886 0.49093
# Poissons Ratio (y) = 0.28380 0.30573
# Poissons Ratio (z) = 0.26000 0.23898
#
# Static dielectric constant tensor:
#      x y z
#    x 3.422240 0.000000 0.000000 
#    y 0.000000 3.765670 0.000000 
#    z 0.000000 0.000000 3.654560 
# 
# 
# High freq. dielectric constant tensor:
#      x y z
#    x 1.748480 0.000000 0.000000 
#    y 0.000000 1.775580 0.000000 
#    z 0.000000 0.000000 1.770710 
# 
# From -- ./inp_files/4855.got.cif
#   From: 2010.03.12/outbox.cif.g09.slc.cpg/sg44_3_cif.got.tgz:4855.got - 2010.04.14 02:36:11.
