data_PCOD8190713
_publ_section_title
;
Structure prediction by ZEFSAII (Michael W. Deem and Ramdas Pophale) SiO2 
 PCOD8190713
Probable space group: I B A 2
;
_chemical_formula_sum "Si O2"
_cell_formula_units_Z 44
_cell_length_a 23.819655
_cell_length_b 10.151028
_cell_length_c 8.877543
_cell_angle_alpha 90.000000
_cell_angle_beta 90.000000
_cell_angle_gamma 90.000000
_cell_volume 2146.536498
_symmetry_space_group_name_H-M "I B A 2"
_symmetry_group_IT_number 45
_symmetry_cell_setting 'orthorhombic'
loop_
_space_group_symop_operation_xyz
x,y,z
-x,-y,z
-x,y,1/2+z
x,-y,1/2+z
1/2+x,1/2+y,1/2+z
1/2-x,1/2-y,1/2+z
1/2-x,1/2+y,z
1/2+x,1/2-y,z
loop_
_atom_site_type_symbol
_atom_site_label
_atom_site_fract_x
_atom_site_fract_y
_atom_site_fract_z
Si Si1 0.216538 0.831065 0.715850
Si Si2 0.218726 0.898788 0.374500
Si Si3 0.500000 0.000000 0.005691
Si Si4 0.914084 0.169044 0.710798
Si Si5 0.411152 0.591722 0.875072
Si Si6 0.477638 0.819141 0.754044
O O1 0.235173 0.874785 0.548165
O O2 0.249536 0.701457 0.764994
O O3 0.151015 0.790962 0.720014
O O4 0.232342 0.950517 0.828531
O O5 0.153354 0.875129 0.347301
O O6 0.539488 0.907122 0.109651
O O7 0.462210 0.904942 0.901601
O O8 0.929656 0.114192 0.546000
O O9 0.954875 0.291573 0.747727
O O10 0.926705 0.057221 0.834278
O O11 0.443785 0.684508 0.757322
#
# Coordination Sequence:
#
# PCOD8190713 Si02
#       6
#     8   8   4   8   8   8
#     4  10  21  41  61  89 119 155 198 245 293 349
#     4  10  21  41  61  89 119 155 198 245 293 349
#     4  10  24  38  58  78 128 154 188 236 276 360
#     4  10  22  38  62  87 116 149 195 244 288 342
#     4  10  22  38  62  87 116 149 195 244 288 342
#     4  11  21  42  56  86 117 155 192 232 294 339
#
# _framework density 20.498135999999999
#
# number of rings (size 3 to 8) (size 9 to 14) (size 15 to 20)
#    0.000    1.818    1.818    1.636    2.545    2.909 
#    6.545    0.000    0.000    0.000    0.000    0.000 
#    0.000    0.000    0.000    0.000    0.000    0.000 
#
# Total GULP energy -272788.134346 kJ/mol
# GULP energy per Si atom -12399.460652 kJ/mol
# Density = 2.045148 g / cm^3
# Si number density = 20.498136 Si / 1000 Ang^3
#
#
#
# Elastic Constant Matrix: (Units=GPa)
#
#
# Indices 1 2 3 4 5 6 
#
# 1 55.7450 40.7729 26.8878 0.0000 0.0000 0.0000
# 2 40.7729 84.2606 30.0502 0.0000 0.0000 0.0000
# 3 26.8878 30.0502 103.7473 0.0000 0.0000 0.0000
# 4 0.0000 0.0000 0.0000 38.1548 0.0000 0.0000
# 5 0.0000 0.0000 0.0000 0.0000 23.6738 0.0000
# 6 0.0000 0.0000 0.0000 0.0000 0.0000 28.3176
#
#
#
# Elastic Compliance Matrix: (Units=1/GPa)
#
#
# Indices 1 2 3 4 5 6 
#
# 1 0.029089 -0.012699 -0.003861 0.000000 0.000000 0.000000
# 2 -0.012699 0.018779 -0.002148 0.000000 0.000000 0.000000
# 3 -0.003861 -0.002148 0.011262 0.000000 0.000000 0.000000
# 4 0.000000 0.000000 0.000000 0.026209 0.000000 0.000000
# 5 0.000000 0.000000 0.000000 0.000000 0.042241 0.000000
# 6 0.000000 0.000000 0.000000 0.000000 0.000000 0.035314
#
#
# Mechanical properties :
#
#
# Convention : Reuss Voigt Hill
#
# Bulk Modulus (GPa) = 46.05326 48.79719 47.42523
# Shear Modulus (GPa) = 24.09085 27.76537 25.92811
#
# Velocity S-wave (km/s) = 3.43194 3.68439 3.56040
# Velocity P-wave (km/s) = 6.18224 6.47742 6.33155
#
# Compressibility (1/GPa) = 0.02171399
#
# Stress axis : x y z
#
# Youngs Moduli (GPa) = 34.37675 53.25084 88.79763
#
# Poissons Ratio (x) = 0.67624 0.34282
# Poissons Ratio (y) = 0.43656 0.19075
# Poissons Ratio (z) = 0.13272 0.11439
#
# Static dielectric constant tensor:
#      x y z
#    x 3.482100 0.000000 0.000000 
#    y 0.000000 3.744630 0.000000 
#    z 0.000000 0.000000 3.948300 
# 
# 
# High freq. dielectric constant tensor:
#      x y z
#    x 1.773680 0.000000 0.000000 
#    y 0.000000 1.810010 0.000000 
#    z 0.000000 0.000000 1.818670 
# 
# From -- ./inp_files/1034.got.cif
#   From: 2010.03.12/outbox.cif.g09.slc.cpg/sg45_1_cif.got.tgz:1034.got - 2010.04.14 02:50:11.
