data_PCOD8190492
_publ_section_title
;
Structure prediction by ZEFSAII (Michael W. Deem and Ramdas Pophale) SiO2 
 PCOD8190492
Probable space group: I B A 2
;
_chemical_formula_sum "Si O2"
_cell_formula_units_Z 56
_cell_length_a 13.365054
_cell_length_b 19.992528
_cell_length_c 8.970041
_cell_angle_alpha 90.000000
_cell_angle_beta 90.000000
_cell_angle_gamma 90.000000
_cell_volume 2396.805866
_symmetry_space_group_name_H-M "I B A 2"
_symmetry_group_IT_number 45
_symmetry_cell_setting 'orthorhombic'
loop_
_space_group_symop_operation_xyz
x,y,z
-x,-y,z
-x,y,1/2+z
x,-y,1/2+z
1/2+x,1/2+y,1/2+z
1/2-x,1/2-y,1/2+z
1/2-x,1/2+y,z
1/2+x,1/2-y,z
loop_
_atom_site_type_symbol
_atom_site_label
_atom_site_fract_x
_atom_site_fract_y
_atom_site_fract_z
Si Si1 0.783140 0.030102 0.728810
Si Si2 0.894956 0.419228 0.364272
Si Si3 0.220104 0.581289 0.920416
Si Si4 0.500000 0.500000 0.353070
Si Si5 0.520245 0.271654 0.184848
Si Si6 0.083274 0.860383 0.429580
Si Si7 0.500000 0.000000 0.610976
Si Si8 0.450229 0.181395 0.934107
O O1 0.724671 0.088240 0.824506
O O2 0.771543 0.039829 0.554267
O O3 0.712919 0.966722 0.776947
O O4 0.901012 0.019563 0.757936
O O5 0.952928 0.441842 0.213037
O O6 0.912185 0.471643 0.500925
O O7 0.936410 0.345941 0.409841
O O8 0.301663 0.637044 0.880762
O O9 0.115255 0.614949 0.960308
O O10 0.472283 0.432955 0.445951
O O11 0.460658 0.314198 0.303684
O O12 0.586347 0.220147 0.284190
O O13 0.584090 0.324390 0.090319
O O14 0.446275 0.230114 0.076223
#
# Coordination Sequence:
#
# PCOD8190492 Si02
#       8
#     8   8   8   4   8   8   4   8
#     4  11  23  39  63  97 131 167 216 271 327 388
#     4  11  20  36  58  89 131 171 211 263 322 386
#     4  11  24  40  63  95 129 168 214 266 330 391
#     4  10  24  44  70  94 124 166 212 276 338 386
#     4  10  23  43  64  88 126 171 218 266 313 386
#     4  10  23  44  66  92 123 161 213 271 329 386
#     4  10  20  32  56  88 126 170 212 260 316 378
#     4  11  23  40  63  93 131 175 214 256 320 394
#
# _framework density 23.364429999999999
#
# number of rings (size 3 to 8) (size 9 to 14) (size 15 to 20)
#    0.000    1.429    0.000    6.000    0.000    9.714 
#    0.000    5.714    0.000    0.000    0.000    0.000 
#    0.000    0.000    0.000    0.000    0.000    0.000 
#
# Total GULP energy -346940.552898 kJ/mol
# GULP energy per Si atom -12390.734032 kJ/mol
# Density = 2.331125 g / cm^3
# Si number density = 23.364430 Si / 1000 Ang^3
#
#
#
# Elastic Constant Matrix: (Units=GPa)
#
#
# Indices 1 2 3 4 5 6 
#
# 1 101.3945 19.1863 9.7817 -0.0001 0.0000 0.0000
# 2 19.1863 102.8223 39.6914 -0.0001 -0.0001 0.0000
# 3 9.7817 39.6914 116.6746 -0.0002 -0.0001 -0.0001
# 4 -0.0001 -0.0001 -0.0002 33.4217 0.0000 0.0000
# 5 0.0000 -0.0001 -0.0001 0.0000 22.7775 0.0000
# 6 0.0000 0.0000 -0.0001 0.0000 0.0000 22.3481
#
#
#
# Elastic Compliance Matrix: (Units=1/GPa)
#
#
# Indices 1 2 3 4 5 6 
#
# 1 0.010229 -0.001816 -0.000240 0.000000 0.000000 0.000000
# 2 -0.001816 0.011518 -0.003766 0.000000 0.000000 0.000000
# 3 -0.000240 -0.003766 0.009872 0.000000 0.000000 0.000000
# 4 0.000000 0.000000 0.000000 0.029921 0.000000 0.000000
# 5 0.000000 0.000000 0.000000 0.000000 0.043903 0.000000
# 6 0.000000 0.000000 0.000000 0.000000 0.000000 0.044746
#
#
# Mechanical properties :
#
#
# Convention : Reuss Voigt Hill
#
# Bulk Modulus (GPa) = 50.06130 50.91224 50.48677
# Shear Modulus (GPa) = 29.67496 32.52495 31.09996
#
# Velocity S-wave (km/s) = 3.56770 3.73509 3.65236
# Velocity P-wave (km/s) = 6.20033 6.35917 6.28025
#
# Compressibility (1/GPa) = 0.01997551
#
# Stress axis : x y z
#
# Youngs Moduli (GPa) = 97.75876 86.81916 101.29527
#
# Poissons Ratio (x) = 0.15768 0.02428
# Poissons Ratio (y) = 0.17755 0.38149
# Poissons Ratio (z) = 0.02344 0.32697
#
# Static dielectric constant tensor:
#      x y z
#    x 4.293290 0.000000 0.000000 
#    y 0.000000 4.593980 0.000000 
#    z 0.000000 0.000000 4.525960 
# 
# 
# High freq. dielectric constant tensor:
#      x y z
#    x 1.908170 0.000000 0.000000 
#    y 0.000000 1.922040 0.000000 
#    z 0.000000 0.000000 1.939820 
# 
# From -- ./inp_files/1859.got.cif
#   From: 2010.03.12/outbox.cif.g09.slc.cpg/sg45_1_cif.got.tgz:1859.got - 2010.04.14 02:50:11.
