data_PCOD8190967
_publ_section_title
;
Structure prediction by ZEFSAII (Michael W. Deem and Ramdas Pophale) SiO2 
 PCOD8190967
Probable space group: I B A 2
;
_chemical_formula_sum "Si O2"
_cell_formula_units_Z 60
_cell_length_a 26.936762
_cell_length_b 9.072459
_cell_length_c 10.955494
_cell_angle_alpha 90.000000
_cell_angle_beta 90.000000
_cell_angle_gamma 90.000000
_cell_volume 2677.332862
_symmetry_space_group_name_H-M "I B A 2"
_symmetry_group_IT_number 45
_symmetry_cell_setting 'orthorhombic'
loop_
_space_group_symop_operation_xyz
x,y,z
-x,-y,z
-x,y,1/2+z
x,-y,1/2+z
1/2+x,1/2+y,1/2+z
1/2-x,1/2-y,1/2+z
1/2-x,1/2+y,z
1/2+x,1/2-y,z
loop_
_atom_site_type_symbol
_atom_site_label
_atom_site_fract_x
_atom_site_fract_y
_atom_site_fract_z
Si Si1 0.000000 0.500000 0.509250
Si Si2 0.814823 0.275292 0.588778
Si Si3 0.426949 0.789279 0.124398
Si Si4 0.186885 0.751898 0.310554
Si Si5 0.569440 0.493017 0.984338
Si Si6 0.012139 0.775693 0.850045
Si Si7 0.408613 0.623307 0.744041
Si Si8 0.246112 0.989323 0.699176
O O1 0.954815 0.443688 0.595185
O O2 0.980234 0.623934 0.419175
O O3 0.868270 0.312324 0.647206
O O4 0.827373 0.253549 0.449720
O O5 0.776483 0.410324 0.603183
O O6 0.792907 0.120502 0.636624
O O7 0.442324 0.681009 0.010888
O O8 0.445512 0.715532 0.248282
O O9 0.135208 0.756414 0.235776
O O10 0.218348 0.899536 0.288823
O O11 0.215119 0.603798 0.276755
O O12 0.594156 0.547627 0.110266
O O13 0.522169 0.594313 0.948811
O O14 0.603410 0.487759 0.859712
O O15 0.961518 0.802274 0.773606
#
# Coordination Sequence:
#
# PCOD8190967 Si02
#       8
#     4   8   8   8   8   8   8   8
#     4  12  26  44  62 102 148 194 226 290 356 432
#     4  11  23  46  71  97 140 178 232 297 358 421
#     4  12  26  44  68 101 142 186 234 292 353 425
#     4  11  23  45  70  99 139 177 232 293 361 424
#     4  12  25  44  71 102 137 188 245 288 342 417
#     4  12  27  43  69 103 144 192 243 286 345 426
#     4  12  26  43  75 103 142 184 240 297 348 418
#     4  10  25  43  70 103 129 179 234 293 360 424
#
# _framework density 22.410361999999999
#
# number of rings (size 3 to 8) (size 9 to 14) (size 15 to 20)
#    0.000    0.533    4.000    3.200    1.867    4.267 
#    0.000    0.000    0.000    0.000    0.000    0.000 
#    0.000    0.000    0.000    0.000    0.000    0.000 
#
# Total GULP energy -371757.788162 kJ/mol
# GULP energy per Si atom -12391.926272 kJ/mol
# Density = 2.235935 g / cm^3
# Si number density = 22.410362 Si / 1000 Ang^3
#
#
#
# Elastic Constant Matrix: (Units=GPa)
#
#
# Indices 1 2 3 4 5 6 
#
# 1 154.6564 51.0232 39.9101 0.0000 0.0000 0.0000
# 2 51.0232 112.3828 34.4363 0.0000 0.0000 0.0000
# 3 39.9101 34.4363 128.5868 0.0000 0.0000 0.0000
# 4 0.0000 0.0000 0.0000 22.9748 0.0000 0.0000
# 5 0.0000 0.0000 0.0000 0.0000 29.2837 0.0000
# 6 0.0000 0.0000 0.0000 0.0000 0.0000 41.1061
#
#
#
# Elastic Compliance Matrix: (Units=1/GPa)
#
#
# Indices 1 2 3 4 5 6 
#
# 1 0.007905 -0.003091 -0.001626 0.000000 0.000000 0.000000
# 2 -0.003091 0.010902 -0.001960 0.000000 0.000000 0.000000
# 3 -0.001626 -0.001960 0.008806 0.000000 0.000000 0.000000
# 4 0.000000 0.000000 0.000000 0.043526 0.000000 0.000000
# 5 0.000000 0.000000 0.000000 0.000000 0.034149 0.000000
# 6 0.000000 0.000000 0.000000 0.000000 0.000000 0.024327
#
#
# Mechanical properties :
#
#
# Convention : Reuss Voigt Hill
#
# Bulk Modulus (GPa) = 70.12749 71.81836 70.97293
# Shear Modulus (GPa) = 33.84712 36.69002 35.26857
#
# Velocity S-wave (km/s) = 3.89052 4.05061 3.97137
# Velocity P-wave (km/s) = 7.17927 7.34800 7.26412
#
# Compressibility (1/GPa) = 0.01425974
#
# Stress axis : x y z
#
# Youngs Moduli (GPa) = 126.49855 91.72512 113.55315
#
# Poissons Ratio (x) = 0.28351 0.18462
# Poissons Ratio (y) = 0.39099 0.22260
# Poissons Ratio (z) = 0.20566 0.17981
#
# Static dielectric constant tensor:
#      x y z
#    x 4.050010 0.000000 0.000000 
#    y 0.000000 4.626390 0.000000 
#    z 0.000000 0.000000 4.157450 
# 
# 
# High freq. dielectric constant tensor:
#      x y z
#    x 1.887100 0.000000 0.000000 
#    y 0.000000 1.886980 0.000000 
#    z 0.000000 0.000000 1.893610 
# 
# From -- ./inp_files/4878.got.cif
#   From: 2010.03.12/outbox.cif.g09.slc.cpg/sg45_3_cif.got.tgz:4878.got - 2010.04.14 02:50:11.
