data_PCOD8190246
_publ_section_title
;
Structure prediction by ZEFSAII (Michael W. Deem and Ramdas Pophale) SiO2 
 PCOD8190246
Probable space group: I M M 2
;
_chemical_formula_sum "Si O2"
_cell_formula_units_Z 64
_cell_length_a 8.841192
_cell_length_b 19.478932
_cell_length_c 20.675307
_cell_angle_alpha 90.000000
_cell_angle_beta 90.000000
_cell_angle_gamma 90.000000
_cell_volume 3560.638886
_symmetry_space_group_name_H-M "I M M 2"
_symmetry_group_IT_number 44
_symmetry_cell_setting 'orthorhombic'
loop_
_space_group_symop_operation_xyz
x,y,z
-x,-y,z
-x,y,z
x,-y,z
1/2+x,1/2+y,1/2+z
1/2-x,1/2-y,1/2+z
1/2-x,1/2+y,1/2+z
1/2+x,1/2-y,1/2+z
loop_
_atom_site_type_symbol
_atom_site_label
_atom_site_fract_x
_atom_site_fract_y
_atom_site_fract_z
Si Si1 0.177060 0.206893 0.073280
Si Si2 0.820806 0.574048 0.772890
Si Si3 0.175650 0.922312 0.738723
Si Si4 0.322244 0.207679 0.941752
Si Si5 0.175387 0.577866 0.626951
Si Si6 0.177469 0.710119 0.200484
Si Si7 0.820825 0.716520 0.822305
Si Si8 0.324992 0.422196 0.389342
O O1 0.225862 0.128062 0.083028
O O2 0.226043 0.253602 0.133907
O O3 0.000000 0.210375 0.061041
O O4 0.260301 0.235771 0.009844
O O5 0.760429 0.500000 0.799388
O O6 0.762414 0.585473 0.699982
O O7 0.767626 0.636830 0.817748
O O8 0.000000 0.571567 0.769291
O O9 0.276359 0.870074 0.696537
O O10 0.207844 0.908559 0.814105
O O11 0.000000 0.910397 0.723235
O O12 0.222821 0.000000 0.720420
O O13 0.500000 0.214606 0.940308
O O14 0.253909 0.254205 0.885875
O O15 0.276411 0.128271 0.932040
O O16 0.198658 0.500000 0.602426
O O17 0.000000 0.599399 0.621972
O O18 0.269084 0.743987 0.258616
O O19 0.000000 0.717751 0.213566
O O20 0.000000 0.724186 0.827719
O O21 0.500000 0.407578 0.404508
O O22 0.281639 0.500000 0.407751
#
# Coordination Sequence:
#
# PCOD8190246 Si02
#       8
#     8   8   8   8   8   8   8   8
#     4  11  24  39  54  76 111 149 187 226 272 326
#     4   8  15  29  53  84 111 138 176 219 263 317
#     4   9  18  33  56  84 111 142 179 219 269 327
#     4  12  25  38  54  78 110 145 188 231 272 322
#     4   9  17  32  54  80 110 144 185 224 262 317
#     4  11  22  35  55  84 112 141 182 229 271 319
#     4  11  20  34  59  83 110 145 180 222 274 326
#     4   9  18  34  55  79 109 145 183 220 265 324
#
# _framework density 17.974304
#
# number of rings (size 3 to 8) (size 9 to 14) (size 15 to 20)
#    0.000    2.000    2.500    3.750    0.000    2.750 
#    0.000    1.250    0.000    2.250    0.000    1.750 
#    0.000    0.000    0.000    0.000    0.000    0.000 
#
# Total GULP energy -396792.315872 kJ/mol
# GULP energy per Si atom -12399.759871 kJ/mol
# Density = 1.793339 g / cm^3
# Si number density = 17.974304 Si / 1000 Ang^3
#
#
#
# Elastic Constant Matrix: (Units=GPa)
#
#
# Indices 1 2 3 4 5 6 
#
# 1 79.5708 45.3341 49.2258 0.0000 0.0000 0.0000
# 2 45.3341 113.3580 62.3946 0.0000 0.0000 0.0000
# 3 49.2258 62.3946 112.4711 0.0000 0.0000 0.0000
# 4 0.0000 0.0000 0.0000 16.7358 0.0000 0.0000
# 5 0.0000 0.0000 0.0000 0.0000 26.2482 0.0000
# 6 0.0000 0.0000 0.0000 0.0000 0.0000 13.2655
#
#
#
# Elastic Compliance Matrix: (Units=1/GPa)
#
#
# Indices 1 2 3 4 5 6 
#
# 1 0.018553 -0.004247 -0.005764 0.000000 0.000000 0.000000
# 2 -0.004247 0.013672 -0.005726 0.000000 0.000000 0.000000
# 3 -0.005764 -0.005726 0.014590 0.000000 0.000000 0.000000
# 4 0.000000 0.000000 0.000000 0.059752 0.000000 0.000000
# 5 0.000000 0.000000 0.000000 0.000000 0.038098 0.000000
# 6 0.000000 0.000000 0.000000 0.000000 0.000000 0.075384
#
#
# Mechanical properties :
#
#
# Convention : Reuss Voigt Hill
#
# Bulk Modulus (GPa) = 65.18320 68.81212 66.99766
# Shear Modulus (GPa) = 19.48286 21.14626 20.31456
#
# Velocity S-wave (km/s) = 3.29588 3.43369 3.36549
# Velocity P-wave (km/s) = 7.12932 7.35439 7.24273
#
# Compressibility (1/GPa) = 0.01534138
#
# Stress axis : x y z
#
# Youngs Moduli (GPa) = 53.89962 73.14435 68.53853
#
# Poissons Ratio (x) = 0.31065 0.39506
# Poissons Ratio (y) = 0.22891 0.39243
# Poissons Ratio (z) = 0.31068 0.41880
#
# Static dielectric constant tensor:
#      x y z
#    x 3.169170 0.000000 0.000000 
#    y 0.000000 3.776990 0.000000 
#    z 0.000000 0.000000 3.215390 
# 
# 
# High freq. dielectric constant tensor:
#      x y z
#    x 1.687310 0.000000 0.000000 
#    y 0.000000 1.702630 0.000000 
#    z 0.000000 0.000000 1.673480 
# 
# From -- ./inp_files/20739.got.cif
#   From: 2010.03.12/outbox.cif.g09.slc.cpg/sg44_11_cif.got.tgz:20739.got - 2010.04.14 02:36:11.
