data_PCOD8190762
_publ_section_title
;
Structure prediction by ZEFSAII (Michael W. Deem and Ramdas Pophale) SiO2 
 PCOD8190762
Probable space group: I B A 2
;
_chemical_formula_sum "Si O2"
_cell_formula_units_Z 64
_cell_length_a 29.716495
_cell_length_b 9.034112
_cell_length_c 11.574171
_cell_angle_alpha 90.000000
_cell_angle_beta 90.000000
_cell_angle_gamma 90.000000
_cell_volume 3107.226763
_symmetry_space_group_name_H-M "I B A 2"
_symmetry_group_IT_number 45
_symmetry_cell_setting 'orthorhombic'
loop_
_space_group_symop_operation_xyz
x,y,z
-x,-y,z
-x,y,1/2+z
x,-y,1/2+z
1/2+x,1/2+y,1/2+z
1/2-x,1/2-y,1/2+z
1/2-x,1/2+y,z
1/2+x,1/2-y,z
loop_
_atom_site_type_symbol
_atom_site_label
_atom_site_fract_x
_atom_site_fract_y
_atom_site_fract_z
Si Si1 0.944975 0.344389 0.160000
Si Si2 0.295074 0.417480 0.746266
Si Si3 0.409067 0.153020 0.916244
Si Si4 0.663121 0.651636 0.973774
Si Si5 0.623233 0.165222 0.854279
Si Si6 0.202530 0.738156 0.194371
Si Si7 0.372507 0.360679 0.576723
Si Si8 0.546477 0.188550 0.188399
O O1 0.917317 0.281037 0.269657
O O2 0.942648 0.522233 0.148358
O O3 0.994754 0.275152 0.163508
O O4 0.923520 0.289842 0.041783
O O5 0.299973 0.413645 0.885626
O O6 0.249535 0.342401 0.705644
O O7 0.292918 0.589562 0.719986
O O8 0.334227 0.332866 0.673400
O O9 0.367348 0.256475 0.884345
O O10 0.448769 0.187746 0.826831
O O11 0.392413 0.985420 0.912936
O O12 0.685869 0.768454 0.061817
O O13 0.632163 0.532768 0.042309
O O14 0.667663 0.150837 0.776191
O O15 0.635088 0.276502 0.956518
O O16 0.421181 0.309859 0.627311
#
# Coordination Sequence:
#
# PCOD8190762 Si02
#       8
#     8   8   8   8   8   8   8   8
#     4  10  22  38  65 103 128 168 226 275 325 390
#     4  11  26  43  66  98 130 171 220 269 335 394
#     4  11  22  40  67  93 130 172 218 272 323 394
#     4  11  24  44  67  90 136 172 217 270 326 401
#     4  11  23  41  66  96 129 173 218 273 329 390
#     4  11  26  43  66  97 129 169 219 273 327 400
#     4  11  23  44  66  91 134 180 210 271 336 393
#     4  10  22  38  66  97 131 169 219 278 331 384
#
# _framework density 20.597145999999999
#
# number of rings (size 3 to 8) (size 9 to 14) (size 15 to 20)
#    0.000    1.250    5.000    0.000    5.250    2.000 
#    0.000    0.625    0.000    0.000    0.000    0.000 
#    0.000    0.000    0.000    0.000    0.000    0.000 
#
# Total GULP energy -396581.578785 kJ/mol
# GULP energy per Si atom -12393.174337 kJ/mol
# Density = 2.055027 g / cm^3
# Si number density = 20.597146 Si / 1000 Ang^3
#
#
#
# Elastic Constant Matrix: (Units=GPa)
#
#
# Indices 1 2 3 4 5 6 
#
# 1 136.3304 30.1158 48.2181 0.0000 0.0000 0.0000
# 2 30.1158 26.0120 29.2902 0.0000 0.0000 0.0000
# 3 48.2181 29.2902 114.9606 0.0000 0.0000 0.0000
# 4 0.0000 0.0000 0.0000 21.8190 0.0000 0.0000
# 5 0.0000 0.0000 0.0000 0.0000 26.9440 0.0000
# 6 0.0000 0.0000 0.0000 0.0000 0.0000 25.8883
#
#
#
# Elastic Compliance Matrix: (Units=1/GPa)
#
#
# Indices 1 2 3 4 5 6 
#
# 1 0.010104 -0.009713 -0.001763 0.000000 0.000000 0.000000
# 2 -0.009713 0.063247 -0.012040 0.000000 0.000000 0.000000
# 3 -0.001763 -0.012040 0.012506 0.000000 0.000000 0.000000
# 4 0.000000 0.000000 0.000000 0.045832 0.000000 0.000000
# 5 0.000000 0.000000 0.000000 0.000000 0.037114 0.000000
# 6 0.000000 0.000000 0.000000 0.000000 0.000000 0.038627
#
#
# Mechanical properties :
#
#
# Convention : Reuss Voigt Hill
#
# Bulk Modulus (GPa) = 25.75740 54.72791 40.24266
# Shear Modulus (GPa) = 18.69821 26.24218 22.47019
#
# Velocity S-wave (km/s) = 3.01625 3.57328 3.30652
# Velocity P-wave (km/s) = 4.96617 6.60702 5.84447
#
# Compressibility (1/GPa) = 0.03882379
#
# Stress axis : x y z
#
# Youngs Moduli (GPa) = 98.96648 15.81105 79.96176
#
# Poissons Ratio (x) = 0.15357 0.14101
# Poissons Ratio (y) = 0.96125 0.96277
# Poissons Ratio (z) = 0.17452 0.19037
#
# Static dielectric constant tensor:
#      x y z
#    x 3.913690 0.000000 0.000000 
#    y 0.000000 3.577080 0.000000 
#    z 0.000000 0.000000 3.934820 
# 
# 
# High freq. dielectric constant tensor:
#      x y z
#    x 1.804010 0.000000 0.000000 
#    y 0.000000 1.789720 0.000000 
#    z 0.000000 0.000000 1.828140 
# 
# From -- ./inp_files/3417.got.cif
#   From: 2010.03.12/outbox.cif.g09.slc.cpg/sg45_2_cif.got.tgz:3417.got - 2010.04.14 02:50:11.
