data_PCOD8190351
_publ_section_title
;
Structure prediction by ZEFSAII (Michael W. Deem and Ramdas Pophale) SiO2 
 PCOD8190351
Probable space group: I M M 2
;
_chemical_formula_sum "Si O2"
_cell_formula_units_Z 48
_cell_length_a 9.396945
_cell_length_b 7.639597
_cell_length_c 34.755091
_cell_angle_alpha 90.000000
_cell_angle_beta 90.000000
_cell_angle_gamma 90.000000
_cell_volume 2495.028808
_symmetry_space_group_name_H-M "I M M 2"
_symmetry_group_IT_number 44
_symmetry_cell_setting 'orthorhombic'
loop_
_space_group_symop_operation_xyz
x,y,z
-x,-y,z
-x,y,z
x,-y,z
1/2+x,1/2+y,1/2+z
1/2-x,1/2-y,1/2+z
1/2-x,1/2+y,1/2+z
1/2+x,1/2-y,1/2+z
loop_
_atom_site_type_symbol
_atom_site_label
_atom_site_fract_x
_atom_site_fract_y
_atom_site_fract_z
Si Si1 0.332899 0.299167 0.534660
Si Si2 0.341043 0.793705 0.961614
Si Si3 0.168059 0.500000 0.176867
Si Si4 0.659235 0.792351 0.308699
Si Si5 0.658220 0.297095 0.878265
Si Si6 0.666376 0.701072 0.734033
Si Si7 0.331312 0.000000 0.591440
O O1 0.500000 0.281647 0.527571
O O2 0.290464 0.500000 0.544303
O O3 0.257956 0.226949 0.496135
O O4 0.280898 0.176024 0.569567
O O5 0.500000 0.715325 0.966856
O O6 0.276459 0.731672 0.920785
O O7 0.345671 0.000000 0.962270
O O8 0.216530 0.324103 0.198954
O O9 0.236711 0.500000 0.134192
O O10 0.000000 0.500000 0.172990
O O11 0.500000 0.713573 0.306554
O O12 0.738312 0.712355 0.346249
O O13 0.746835 0.735969 0.271170
O O14 0.651639 0.000000 0.311558
O O15 0.500000 0.210932 0.876114
O O16 0.644707 0.500000 0.868945
O O17 0.500000 0.725827 0.743411
O O18 0.700147 0.500000 0.722889
O O19 0.500000 0.000000 0.594206
#
# Coordination Sequence:
#
# PCOD8190351 Si02
#       7
#     8   8   4   8   8   8   4
#     4   9  18  32  50  72  99 132 165 200 246 297
#     4   9  18  32  48  68  96 129 165 204 246 291
#     4   9  18  32  51  79 105 125 163 211 249 295
#     4   9  17  30  48  70  97 130 165 200 244 296
#     4   9  17  29  46  68  94 126 165 208 247 287
#     4   9  17  31  52  74  97 129 165 203 247 292
#     4   9  18  32  51  77 105 129 161 207 253 297
#
# _framework density 19.238257000000001
#
# number of rings (size 3 to 8) (size 9 to 14) (size 15 to 20)
#    0.000    3.000    0.000    0.500    1.167    3.333 
#    1.500    3.750    0.000    2.000    0.000    4.667 
#    0.000    0.000    0.000    0.000    0.000    0.000 
#
# Total GULP energy -297506.968166 kJ/mol
# GULP energy per Si atom -12396.123674 kJ/mol
# Density = 1.919447 g / cm^3
# Si number density = 19.238257 Si / 1000 Ang^3
#
#
#
# Elastic Constant Matrix: (Units=GPa)
#
#
# Indices 1 2 3 4 5 6 
#
# 1 69.0235 25.9507 68.2531 0.0000 0.0000 0.0000
# 2 25.9507 71.0545 62.4582 0.0000 0.0000 0.0000
# 3 68.2531 62.4582 202.0961 0.0000 0.0000 0.0000
# 4 0.0000 0.0000 0.0000 18.1725 0.0000 0.0000
# 5 0.0000 0.0000 0.0000 0.0000 21.9757 0.0000
# 6 0.0000 0.0000 0.0000 0.0000 0.0000 9.5238
#
#
#
# Elastic Compliance Matrix: (Units=1/GPa)
#
#
# Indices 1 2 3 4 5 6 
#
# 1 0.021970 -0.002062 -0.006783 0.000000 0.000000 0.000000
# 2 -0.002062 0.019517 -0.005335 0.000000 0.000000 0.000000
# 3 -0.006783 -0.005335 0.008888 0.000000 0.000000 0.000000
# 4 0.000000 0.000000 0.000000 0.055028 0.000000 0.000000
# 5 0.000000 0.000000 0.000000 0.000000 0.045505 0.000000
# 6 0.000000 0.000000 0.000000 0.000000 0.000000 0.105000
#
#
# Mechanical properties :
#
#
# Convention : Reuss Voigt Hill
#
# Bulk Modulus (GPa) = 45.42430 72.83312 59.12871
# Shear Modulus (GPa) = 17.14649 22.30189 19.72419
#
# Velocity S-wave (km/s) = 2.98865 3.40847 3.20544
# Velocity P-wave (km/s) = 5.96424 7.30964 6.67094
#
# Compressibility (1/GPa) = 0.02201465
#
# Stress axis : x y z
#
# Youngs Moduli (GPa) = 45.51683 51.23858 112.51546
#
# Poissons Ratio (x) = 0.10565 0.76314
# Poissons Ratio (y) = 0.09385 0.60030
# Poissons Ratio (z) = 0.30872 0.27337
#
# Static dielectric constant tensor:
#      x y z
#    x 3.530410 0.000000 0.000000 
#    y 0.000000 3.400000 0.000000 
#    z 0.000000 0.000000 3.747090 
# 
# 
# High freq. dielectric constant tensor:
#      x y z
#    x 1.719520 0.000000 0.000000 
#    y 0.000000 1.740910 0.000000 
#    z 0.000000 0.000000 1.748020 
# 
# From -- ./inp_files/26896.got.cif
#   From: 2010.03.12/outbox.cif.g09.slc.cpg/sg44_14_cif.got.tgz:26896.got - 2010.04.14 02:36:11.
