data_PCOD8190843
_publ_section_title
;
Structure prediction by ZEFSAII (Michael W. Deem and Ramdas Pophale) SiO2 
 PCOD8190843
Probable space group: I B A 2
;
_chemical_formula_sum "Si O2"
_cell_formula_units_Z 64
_cell_length_a 23.816288
_cell_length_b 8.603359
_cell_length_c 14.748976
_cell_angle_alpha 90.000000
_cell_angle_beta 90.000000
_cell_angle_gamma 90.000000
_cell_volume 3022.066299
_symmetry_space_group_name_H-M "I B A 2"
_symmetry_group_IT_number 45
_symmetry_cell_setting 'orthorhombic'
loop_
_space_group_symop_operation_xyz
x,y,z
-x,-y,z
-x,y,1/2+z
x,-y,1/2+z
1/2+x,1/2+y,1/2+z
1/2-x,1/2-y,1/2+z
1/2-x,1/2+y,z
1/2+x,1/2-y,z
loop_
_atom_site_type_symbol
_atom_site_label
_atom_site_fract_x
_atom_site_fract_y
_atom_site_fract_z
Si Si1 0.142643 0.129823 0.950030
Si Si2 0.424173 0.172811 0.599771
Si Si3 0.350141 0.106679 0.766854
Si Si4 0.753366 0.314817 0.042787
Si Si5 0.865365 0.765079 0.455584
Si Si6 0.551797 0.187916 0.598280
Si Si7 0.261124 0.575124 0.675058
Si Si8 0.368234 0.743105 0.754861
O O1 0.117645 0.172882 0.852526
O O2 0.146465 0.946148 0.956411
O O3 0.105514 0.223546 0.022823
O O4 0.208414 0.169933 0.962472
O O5 0.387570 0.189243 0.690198
O O6 0.487273 0.234991 0.611025
O O7 0.431978 0.991085 0.580768
O O8 0.370603 0.192301 0.856624
O O9 0.284067 0.129454 0.749477
O O10 0.354945 0.922156 0.771601
O O11 0.741534 0.395377 0.142587
O O12 0.747436 0.136996 0.073862
O O13 0.817133 0.336399 0.006979
O O14 0.924881 0.760751 0.506101
O O15 0.579249 0.263642 0.687533
O O16 0.320748 0.635488 0.709641
#
# Coordination Sequence:
#
# PCOD8190843 Si02
#       8
#     8   8   8   8   8   8   8   8
#     4  12  26  40  64  98 133 171 212 266 328 387
#     4  10  23  44  71  91 121 169 221 272 324 383
#     4  11  24  40  64  96 130 170 218 265 320 388
#     4  12  23  40  65  93 130 170 210 260 319 384
#     4  12  26  41  63  98 135 170 213 265 324 391
#     4  10  22  46  69  92 122 167 220 273 325 384
#     4  12  22  40  67  92 128 171 209 261 322 380
#     4  11  24  41  65  97 132 168 213 268 321 389
#
# _framework density 21.177562999999999
#
# number of rings (size 3 to 8) (size 9 to 14) (size 15 to 20)
#    0.000    0.750    5.000    2.250    3.500    4.500 
#    0.000    2.500    0.000    0.000    0.000    0.000 
#    0.000    0.000    0.000    0.000    0.000    0.000 
#
# Total GULP energy -396427.777533 kJ/mol
# GULP energy per Si atom -12388.368048 kJ/mol
# Density = 2.112936 g / cm^3
# Si number density = 21.177563 Si / 1000 Ang^3
#
#
#
# Elastic Constant Matrix: (Units=GPa)
#
#
# Indices 1 2 3 4 5 6 
#
# 1 137.2027 42.5685 48.3889 0.0000 0.0000 0.0000
# 2 42.5685 53.8538 55.7362 0.0000 0.0000 0.0000
# 3 48.3889 55.7362 127.6826 0.0000 0.0000 0.0000
# 4 0.0000 0.0000 0.0000 43.4713 0.0000 0.0000
# 5 0.0000 0.0000 0.0000 0.0000 10.2749 0.0000
# 6 0.0000 0.0000 0.0000 0.0000 0.0000 27.6601
#
#
#
# Elastic Compliance Matrix: (Units=1/GPa)
#
#
# Indices 1 2 3 4 5 6 
#
# 1 0.009682 -0.007033 -0.000599 0.000000 0.000000 0.000000
# 2 -0.007033 0.038980 -0.014350 0.000000 0.000000 0.000000
# 3 -0.000599 -0.014350 0.014323 0.000000 0.000000 0.000000
# 4 0.000000 0.000000 0.000000 0.023004 0.000000 0.000000
# 5 0.000000 0.000000 0.000000 0.000000 0.097325 0.000000
# 6 0.000000 0.000000 0.000000 0.000000 0.000000 0.036153
#
#
# Mechanical properties :
#
#
# Convention : Reuss Voigt Hill
#
# Bulk Modulus (GPa) = 52.57559 68.01402 60.29480
# Shear Modulus (GPa) = 18.53425 27.75094 23.14260
#
# Velocity S-wave (km/s) = 2.96156 3.62386 3.30932
# Velocity P-wave (km/s) = 6.04768 7.04951 6.56773
#
# Compressibility (1/GPa) = 0.01902023
#
# Stress axis : x y z
#
# Youngs Moduli (GPa) = 103.28643 25.65448 69.81696
#
# Poissons Ratio (x) = 0.18042 0.04184
# Poissons Ratio (y) = 0.72639 1.00188
# Poissons Ratio (z) = 0.06189 0.36815
#
# Static dielectric constant tensor:
#      x y z
#    x 3.874530 0.000000 0.000000 
#    y 0.000000 3.923960 0.000000 
#    z 0.000000 0.000000 3.982790 
# 
# 
# High freq. dielectric constant tensor:
#      x y z
#    x 1.824600 0.000000 0.000000 
#    y 0.000000 1.844210 0.000000 
#    z 0.000000 0.000000 1.833130 
# 
# From -- ./inp_files/7055.got.cif
#   From: 2010.03.12/outbox.cif.g09.slc.cpg/sg45_4_cif.got.tgz:7055.got - 2010.04.14 02:50:11.
