data_PCOD8190822
_publ_section_title
;
Structure prediction by ZEFSAII (Michael W. Deem and Ramdas Pophale) SiO2 
 PCOD8190822
Probable space group: I B A 2
;
_chemical_formula_sum "Si O2"
_cell_formula_units_Z 64
_cell_length_a 15.273812
_cell_length_b 21.741522
_cell_length_c 8.557108
_cell_angle_alpha 90.000000
_cell_angle_beta 90.000000
_cell_angle_gamma 90.000000
_cell_volume 2841.609508
_symmetry_space_group_name_H-M "I B A 2"
_symmetry_group_IT_number 45
_symmetry_cell_setting 'orthorhombic'
loop_
_space_group_symop_operation_xyz
x,y,z
-x,-y,z
-x,y,1/2+z
x,-y,1/2+z
1/2+x,1/2+y,1/2+z
1/2-x,1/2-y,1/2+z
1/2-x,1/2+y,z
1/2+x,1/2-y,z
loop_
_atom_site_type_symbol
_atom_site_label
_atom_site_fract_x
_atom_site_fract_y
_atom_site_fract_z
Si Si1 0.597770 0.766445 0.631170
Si Si2 0.831191 0.581063 0.574316
Si Si3 0.375685 0.393111 0.248453
Si Si4 0.805985 0.889873 0.306015
Si Si5 0.932364 0.690628 0.476232
Si Si6 0.950558 0.127022 0.591544
Si Si7 0.703196 0.290870 0.571342
Si Si8 0.236508 0.511802 0.794446
O O1 0.587261 0.803374 0.792916
O O2 0.535239 0.798086 0.502680
O O3 0.564435 0.697272 0.642145
O O4 0.697893 0.766551 0.575066
O O5 0.758573 0.624256 0.657768
O O6 0.917534 0.621997 0.548329
O O7 0.835772 0.515883 0.670541
O O8 0.805104 0.564022 0.399018
O O9 0.447834 0.390915 0.109493
O O10 0.419466 0.389806 0.418325
O O11 0.314333 0.332993 0.223632
O O12 0.320458 0.454867 0.216172
O O13 0.897502 0.909067 0.225356
O O14 0.809097 0.830763 0.414202
O O15 0.771618 0.952020 0.392595
O O16 0.868253 0.736937 0.568904
#
# Coordination Sequence:
#
# PCOD8190822 Si02
#       8
#     8   8   8   8   8   8   8   8
#     4  12  28  44  73 107 153 186 234 295 372 437
#     4  10  23  45  73  98 142 179 246 297 353 433
#     4  12  24  42  68 100 149 194 244 293 361 429
#     4  10  23  43  69 101 140 189 238 289 353 428
#     4  12  27  46  70 111 144 191 238 302 364 434
#     4  12  23  42  66 108 151 188 238 298 353 449
#     4  12  26  43  74 103 144 193 234 298 371 421
#     4  10  22  43  68 101 134 190 240 290 347 426
#
# _framework density 22.522447
#
# number of rings (size 3 to 8) (size 9 to 14) (size 15 to 20)
#    0.750    0.000    3.750    3.750    3.500    0.500 
#    0.000    1.250    0.000   12.750    0.000    0.000 
#    0.000    0.000    0.000    0.000    0.000    0.000 
#
# Total GULP energy -396436.808721 kJ/mol
# GULP energy per Si atom -12388.650273 kJ/mol
# Density = 2.247118 g / cm^3
# Si number density = 22.522447 Si / 1000 Ang^3
#
#
#
# Elastic Constant Matrix: (Units=GPa)
#
#
# Indices 1 2 3 4 5 6 
#
# 1 86.1804 18.3850 11.4654 0.0000 0.0000 0.0000
# 2 18.3850 77.5976 26.8606 0.0000 0.0000 0.0000
# 3 11.4654 26.8606 90.3197 0.0000 0.0000 0.0000
# 4 0.0000 0.0000 0.0000 29.9282 0.0000 0.0000
# 5 0.0000 0.0000 0.0000 0.0000 28.6218 0.0000
# 6 0.0000 0.0000 0.0000 0.0000 0.0000 35.6036
#
#
#
# Elastic Compliance Matrix: (Units=1/GPa)
#
#
# Indices 1 2 3 4 5 6 
#
# 1 0.012269 -0.002640 -0.000773 0.000000 0.000000 0.000000
# 2 -0.002640 0.014934 -0.004106 0.000000 0.000000 0.000000
# 3 -0.000773 -0.004106 0.012391 0.000000 0.000000 0.000000
# 4 0.000000 0.000000 0.000000 0.033413 0.000000 0.000000
# 5 0.000000 0.000000 0.000000 0.000000 0.034938 0.000000
# 6 0.000000 0.000000 0.000000 0.000000 0.000000 0.028087
#
#
# Mechanical properties :
#
#
# Convention : Reuss Voigt Hill
#
# Bulk Modulus (GPa) = 40.72041 40.83555 40.77798
# Shear Modulus (GPa) = 31.39613 31.98982 31.69297
#
# Velocity S-wave (km/s) = 3.73767 3.77285 3.75530
# Velocity P-wave (km/s) = 6.06186 6.09504 6.07847
#
# Compressibility (1/GPa) = 0.02455771
#
# Stress axis : x y z
#
# Youngs Moduli (GPa) = 81.50329 66.96250 80.70380
#
# Poissons Ratio (x) = 0.17675 0.06235
# Poissons Ratio (y) = 0.21513 0.33138
# Poissons Ratio (z) = 0.06296 0.27496
#
# Static dielectric constant tensor:
#      x y z
#    x 4.066540 0.000000 0.000000 
#    y 0.000000 3.980850 0.000000 
#    z 0.000000 0.000000 3.927670 
# 
# 
# High freq. dielectric constant tensor:
#      x y z
#    x 1.873240 0.000000 0.000000 
#    y 0.000000 1.884590 0.000000 
#    z 0.000000 0.000000 1.890420 
# 
# From -- ./inp_files/1919.got.cif
#   From: 2010.03.12/outbox.cif.g09.slc.cpg/sg45_1_cif.got.tgz:1919.got - 2010.04.14 02:50:11.
