data_PCOD8190820
_publ_section_title
;
Structure prediction by ZEFSAII (Michael W. Deem and Ramdas Pophale) SiO2 
 PCOD8190820
Probable space group: I B A 2
;
_chemical_formula_sum "Si O2"
_cell_formula_units_Z 56
_cell_length_a 14.620107
_cell_length_b 18.962753
_cell_length_c 8.423739
_cell_angle_alpha 90.000000
_cell_angle_beta 90.000000
_cell_angle_gamma 90.000000
_cell_volume 2335.376155
_symmetry_space_group_name_H-M "I B A 2"
_symmetry_group_IT_number 45
_symmetry_cell_setting 'orthorhombic'
loop_
_space_group_symop_operation_xyz
x,y,z
-x,-y,z
-x,y,1/2+z
x,-y,1/2+z
1/2+x,1/2+y,1/2+z
1/2-x,1/2-y,1/2+z
1/2-x,1/2+y,z
1/2+x,1/2-y,z
loop_
_atom_site_type_symbol
_atom_site_label
_atom_site_fract_x
_atom_site_fract_y
_atom_site_fract_z
Si Si1 0.467397 0.081031 0.744990
Si Si2 0.867716 0.216804 0.079482
Si Si3 0.872801 0.374506 0.065221
Si Si4 0.786552 0.400826 0.580570
Si Si5 0.035208 0.164797 0.864475
Si Si6 0.759024 0.033131 0.751397
Si Si7 0.445849 0.433301 0.627281
O O1 0.557069 0.128268 0.714483
O O2 0.393633 0.111372 0.615860
O O3 0.500000 0.000000 0.717764
O O4 0.427988 0.091559 0.919663
O O5 0.836827 0.295555 0.031857
O O6 0.776432 0.168806 0.070213
O O7 0.905093 0.220931 0.262994
O O8 0.943598 0.195611 0.946670
O O9 0.787519 0.423486 0.108779
O O10 0.779533 0.444769 0.419812
O O11 0.755621 0.449841 0.727852
O O12 0.019068 0.107976 0.728433
O O13 0.092890 0.120488 0.993734
O O14 0.866684 0.044763 0.746493
O O15 0.500000 0.500000 0.550834
#
# Coordination Sequence:
#
# PCOD8190820 Si02
#       7
#     8   8   8   8   8   8   8
#     4  12  26  50  79 112 148 198 254 326 374 447
#     4  11  25  48  72 110 152 199 243 304 380 451
#     4  12  27  48  78 108 147 196 251 306 385 450
#     4  12  27  46  75 109 154 186 255 313 377 449
#     4  10  22  43  65 100 148 197 238 297 361 450
#     4  12  26  45  70 109 142 193 244 313 365 452
#     4  11  23  39  68  99 144 194 248 294 361 439
#
# _framework density 23.979006999999999
#
# number of rings (size 3 to 8) (size 9 to 14) (size 15 to 20)
#    0.000    0.571    2.857    5.143    6.000    1.143 
#    5.143    0.000    0.000    0.000    0.000    0.000 
#    0.000    0.000    0.000    0.000    0.000    0.000 
#
# Total GULP energy -346997.832952 kJ/mol
# GULP energy per Si atom -12392.779748 kJ/mol
# Density = 2.392443 g / cm^3
# Si number density = 23.979007 Si / 1000 Ang^3
#
#
#
# Elastic Constant Matrix: (Units=GPa)
#
#
# Indices 1 2 3 4 5 6 
#
# 1 69.1156 25.7479 14.3632 0.0000 0.0000 0.0000
# 2 25.7479 113.4246 7.2220 0.0000 0.0000 0.0000
# 3 14.3632 7.2220 82.8205 0.0000 0.0000 0.0000
# 4 0.0000 0.0000 0.0000 21.9513 0.0000 0.0000
# 5 0.0000 0.0000 0.0000 0.0000 31.0407 0.0000
# 6 0.0000 0.0000 0.0000 0.0000 0.0000 34.6421
#
#
#
# Elastic Compliance Matrix: (Units=1/GPa)
#
#
# Indices 1 2 3 4 5 6 
#
# 1 0.016312 -0.003542 -0.002520 0.000000 0.000000 0.000000
# 2 -0.003542 0.009635 -0.000226 0.000000 0.000000 0.000000
# 3 -0.002520 -0.000226 0.012531 0.000000 0.000000 0.000000
# 4 0.000000 0.000000 0.000000 0.045555 0.000000 0.000000
# 5 0.000000 0.000000 0.000000 0.000000 0.032216 0.000000
# 6 0.000000 0.000000 0.000000 0.000000 0.000000 0.028867
#
#
# Mechanical properties :
#
#
# Convention : Reuss Voigt Hill
#
# Bulk Modulus (GPa) = 38.60799 40.00300 39.30549
# Shear Modulus (GPa) = 30.06145 32.06198 31.06171
#
# Velocity S-wave (km/s) = 3.54454 3.66058 3.60303
# Velocity P-wave (km/s) = 5.73475 5.88092 5.80830
#
# Compressibility (1/GPa) = 0.02590137
#
# Stress axis : x y z
#
# Youngs Moduli (GPa) = 61.30501 103.78874 79.80195
#
# Poissons Ratio (x) = 0.36766 0.20110
# Poissons Ratio (y) = 0.21717 0.01802
# Poissons Ratio (z) = 0.15449 0.02344
#
# Static dielectric constant tensor:
#      x y z
#    x 4.334230 0.000000 0.000000 
#    y 0.000000 4.359670 0.000000 
#    z 0.000000 0.000000 4.847650 
# 
# 
# High freq. dielectric constant tensor:
#      x y z
#    x 1.949180 0.000000 0.000000 
#    y 0.000000 1.944840 0.000000 
#    z 0.000000 0.000000 1.961980 
# 
# From -- ./inp_files/1825.got.cif
#   From: 2010.03.12/outbox.cif.g09.slc.cpg/sg45_1_cif.got.tgz:1825.got - 2010.04.14 02:50:11.
