data_PCOD8190248
_publ_section_title
;
Structure prediction by ZEFSAII (Michael W. Deem and Ramdas Pophale) SiO2 
 PCOD8190248
Probable space group: I M M 2
;
_chemical_formula_sum "Si O2"
_cell_formula_units_Z 64
_cell_length_a 15.520549
_cell_length_b 8.498324
_cell_length_c 23.850734
_cell_angle_alpha 90.000000
_cell_angle_beta 90.000000
_cell_angle_gamma 90.000000
_cell_volume 3145.879713
_symmetry_space_group_name_H-M "I M M 2"
_symmetry_group_IT_number 44
_symmetry_cell_setting 'orthorhombic'
loop_
_space_group_symop_operation_xyz
x,y,z
-x,-y,z
-x,y,z
x,-y,z
1/2+x,1/2+y,1/2+z
1/2-x,1/2-y,1/2+z
1/2-x,1/2+y,1/2+z
1/2+x,1/2-y,1/2+z
loop_
_atom_site_type_symbol
_atom_site_label
_atom_site_fract_x
_atom_site_fract_y
_atom_site_fract_z
Si Si1 0.405223 0.686915 0.645270
Si Si2 0.405758 0.312669 0.880864
Si Si3 0.656480 0.686963 0.763096
Si Si4 0.647863 0.815815 0.264233
Si Si5 0.402819 0.681031 0.149536
Si Si6 0.255398 0.815699 0.074227
Si Si7 0.597133 0.680439 0.380691
Si Si8 0.752830 0.684478 0.952806
O O1 0.500000 0.742464 0.624619
O O2 0.399928 0.500000 0.647866
O O3 0.389014 0.755256 0.707587
O O4 0.331363 0.748843 0.603851
O O5 0.500000 0.255067 0.901918
O O6 0.401742 0.500000 0.880996
O O7 0.391777 0.247691 0.817934
O O8 0.330656 0.246142 0.920607
O O9 0.653201 0.500000 0.762905
O O10 0.754458 0.744925 0.764707
O O11 0.598533 0.725099 0.215076
O O12 0.606601 0.781520 0.324400
O O13 0.641291 0.000000 0.251637
O O14 0.500000 0.709741 0.127381
O O15 0.376267 0.500000 0.141910
O O16 0.337489 0.787240 0.113852
O O17 0.249005 0.000000 0.060872
O O18 0.263279 0.718704 0.017539
O O19 0.500000 0.702724 0.403674
O O20 0.616179 0.500000 0.365765
O O21 0.661002 0.734434 0.429907
O O22 0.762278 0.500000 0.942275
#
# Coordination Sequence:
#
# PCOD8190248 Si02
#       8
#     8   8   8   8   8   8   8   8
#     4   9  17  31  55  86 117 147 184 234 289 350
#     4   9  17  31  55  86 117 147 184 234 289 350
#     4   9  15  28  53  87 117 142 179 227 286 352
#     4  11  20  35  61  93 123 154 195 244 303 368
#     4  11  24  41  61  87 120 160 204 249 301 360
#     4  11  23  40  61  87 118 156 203 249 299 354
#     4  11  24  41  61  87 120 160 204 249 301 360
#     4  11  23  40  61  87 118 156 203 249 299 354
#
# _framework density 20.344069999999999
#
# number of rings (size 3 to 8) (size 9 to 14) (size 15 to 20)
#    0.000    1.750    2.500    2.625    0.000    6.000 
#    0.000    2.500    0.000    2.250    0.000    1.750 
#    0.000    0.000    0.000    0.000    0.000    0.000 
#
# Total GULP energy -396816.516032 kJ/mol
# GULP energy per Si atom -12400.516126 kJ/mol
# Density = 2.029777 g / cm^3
# Si number density = 20.344070 Si / 1000 Ang^3
#
#
#
# Elastic Constant Matrix: (Units=GPa)
#
#
# Indices 1 2 3 4 5 6 
#
# 1 153.1388 28.3506 47.2168 0.0000 0.0000 0.0000
# 2 28.3506 36.6034 5.8391 0.0000 0.0000 0.0000
# 3 47.2168 5.8391 108.9983 0.0000 0.0000 0.0000
# 4 0.0000 0.0000 0.0000 29.1865 0.0000 0.0000
# 5 0.0000 0.0000 0.0000 0.0000 16.5086 0.0000
# 6 0.0000 0.0000 0.0000 0.0000 0.0000 21.5853
#
#
#
# Elastic Compliance Matrix: (Units=1/GPa)
#
#
# Indices 1 2 3 4 5 6 
#
# 1 0.008748 -0.006224 -0.003456 0.000000 0.000000 0.000000
# 2 -0.006224 0.031984 0.000983 0.000000 0.000000 0.000000
# 3 -0.003456 0.000983 0.010619 0.000000 0.000000 0.000000
# 4 0.000000 0.000000 0.000000 0.034262 0.000000 0.000000
# 5 0.000000 0.000000 0.000000 0.000000 0.060574 0.000000
# 6 0.000000 0.000000 0.000000 0.000000 0.000000 0.046328
#
#
# Mechanical properties :
#
#
# Convention : Reuss Voigt Hill
#
# Bulk Modulus (GPa) = 29.44992 51.28373 40.36682
# Shear Modulus (GPa) = 22.60102 27.94501 25.27302
#
# Velocity S-wave (km/s) = 3.33669 3.71026 3.52842
# Velocity P-wave (km/s) = 5.41775 6.60436 6.04027
#
# Compressibility (1/GPa) = 0.03395595
#
# Stress axis : x y z
#
# Youngs Moduli (GPa) = 114.31290 31.26562 94.17148
#
# Poissons Ratio (x) = 0.19461 0.32546
# Poissons Ratio (y) = 0.71151 -0.09256
# Poissons Ratio (z) = 0.39507 -0.03073
#
# Static dielectric constant tensor:
#      x y z
#    x 3.987230 0.000000 0.000000 
#    y 0.000000 3.313140 0.000000 
#    z 0.000000 0.000000 3.623200 
# 
# 
# High freq. dielectric constant tensor:
#      x y z
#    x 1.812400 0.000000 0.000000 
#    y 0.000000 1.760830 0.000000 
#    z 0.000000 0.000000 1.791400 
# 
# From -- ./inp_files/25799.got.cif
#   From: 2010.03.12/outbox.cif.g09.slc.cpg/sg44_13_cif.got.tgz:25799.got - 2010.04.14 02:36:11.
