data_PCOD8190750
_publ_section_title
;
Structure prediction by ZEFSAII (Michael W. Deem and Ramdas Pophale) SiO2 
 PCOD8190750
Probable space group: I B A 2
;
_chemical_formula_sum "Si O2"
_cell_formula_units_Z 60
_cell_length_a 10.098878
_cell_length_b 20.863139
_cell_length_c 14.176984
_cell_angle_alpha 90.000000
_cell_angle_beta 90.000000
_cell_angle_gamma 90.000000
_cell_volume 2987.009656
_symmetry_space_group_name_H-M "I B A 2"
_symmetry_group_IT_number 45
_symmetry_cell_setting 'orthorhombic'
loop_
_space_group_symop_operation_xyz
x,y,z
-x,-y,z
-x,y,1/2+z
x,-y,1/2+z
1/2+x,1/2+y,1/2+z
1/2-x,1/2-y,1/2+z
1/2-x,1/2+y,z
1/2+x,1/2-y,z
loop_
_atom_site_type_symbol
_atom_site_label
_atom_site_fract_x
_atom_site_fract_y
_atom_site_fract_z
Si Si1 0.694291 0.719592 0.593470
Si Si2 0.856878 0.349236 0.938639
Si Si3 0.500000 0.500000 0.613468
Si Si4 0.853433 0.321675 0.443549
Si Si5 0.124216 0.090097 0.380644
Si Si6 0.205060 0.776054 0.285104
Si Si7 0.650995 0.545361 0.444819
Si Si8 0.513719 0.632207 0.699428
O O1 0.812408 0.689910 0.531631
O O2 0.642245 0.782557 0.541049
O O3 0.737037 0.737342 0.698100
O O4 0.575613 0.667665 0.607653
O O5 0.821526 0.310903 0.843225
O O6 0.787689 0.417865 0.938979
O O7 0.012822 0.363410 0.941613
O O8 0.627473 0.517021 0.549348
O O9 0.457700 0.561828 0.674054
O O10 0.725027 0.367841 0.443846
O O11 0.864785 0.273496 0.355575
O O12 0.128997 0.121165 0.276981
O O13 0.972730 0.092498 0.419839
O O14 0.165208 0.015403 0.374836
O O15 0.102918 0.827826 0.246311
#
# Coordination Sequence:
#
# PCOD8190750 Si02
#       8
#     8   8   4   8   8   8   8   8
#     4  11  24  39  62  96 133 170 218 269 328 395
#     4  11  23  42  60  96 134 169 212 269 335 394
#     4  10  22  36  66  98 118 162 224 284 312 366
#     4  11  25  40  66  94 138 173 208 268 342 400
#     4  10  22  41  64  92 121 170 221 266 322 379
#     4  11  24  39  65  93 132 171 220 266 330 392
#     4  10  22  41  66  92 125 166 227 270 316 387
#     4  12  21  39  66  95 123 169 227 274 312 387
#
# _framework density 20.086977000000001
#
# number of rings (size 3 to 8) (size 9 to 14) (size 15 to 20)
#    0.000    1.333    4.000    2.400    5.600    0.533 
#    0.000    0.000    0.000    0.000    0.000    0.000 
#    0.000    0.000    0.000    0.000    0.000    0.000 
#
# Total GULP energy -371955.225423 kJ/mol
# GULP energy per Si atom -12398.507514 kJ/mol
# Density = 2.004126 g / cm^3
# Si number density = 20.086977 Si / 1000 Ang^3
#
#
#
# Elastic Constant Matrix: (Units=GPa)
#
#
# Indices 1 2 3 4 5 6 
#
# 1 98.4270 51.7948 19.3083 0.0001 0.0000 0.0000
# 2 51.7948 115.2649 28.5305 0.0002 -0.0001 -0.0001
# 3 19.3083 28.5305 90.1494 0.0003 -0.0001 -0.0001
# 4 0.0001 0.0002 0.0003 40.5360 -0.0001 -0.0001
# 5 0.0000 -0.0001 -0.0001 -0.0001 15.5168 0.0000
# 6 0.0000 -0.0001 -0.0001 -0.0001 0.0000 33.6656
#
#
#
# Elastic Compliance Matrix: (Units=1/GPa)
#
#
# Indices 1 2 3 4 5 6 
#
# 1 0.013397 -0.005761 -0.001046 0.000000 0.000000 0.000000
# 2 -0.005761 0.011890 -0.002529 0.000000 0.000000 0.000000
# 3 -0.001046 -0.002529 0.012117 0.000000 0.000000 0.000000
# 4 0.000000 0.000000 0.000000 0.024669 0.000000 0.000000
# 5 0.000000 0.000000 0.000000 0.000000 0.064446 0.000000
# 6 0.000000 0.000000 0.000000 0.000000 0.000000 0.029704
#
#
# Mechanical properties :
#
#
# Convention : Reuss Voigt Hill
#
# Bulk Modulus (GPa) = 53.38516 55.90095 54.64306
# Shear Modulus (GPa) = 27.60294 31.55752 29.58023
#
# Velocity S-wave (km/s) = 3.71100 3.96794 3.84162
# Velocity P-wave (km/s) = 6.70796 6.99161 6.85125
#
# Compressibility (1/GPa) = 0.01873180
#
# Stress axis : x y z
#
# Youngs Moduli (GPa) = 74.64611 84.10168 82.52736
#
# Poissons Ratio (x) = 0.48450 0.08633
# Poissons Ratio (y) = 0.43003 0.20873
# Poissons Ratio (z) = 0.07809 0.21271
#
# Static dielectric constant tensor:
#      x y z
#    x 3.347420 0.000000 0.000000 
#    y 0.000000 3.849760 0.000000 
#    z 0.000000 0.000000 3.818570 
# 
# 
# High freq. dielectric constant tensor:
#      x y z
#    x 1.756750 0.000000 0.000000 
#    y 0.000000 1.793360 0.000000 
#    z 0.000000 0.000000 1.794170 
# 
# From -- ./inp_files/5836.got.cif
#   From: 2010.03.12/outbox.cif.g09.slc.cpg/sg45_3_cif.got.tgz:5836.got - 2010.04.14 02:50:11.
