data_PCOD8190666
_publ_section_title
;
Structure prediction by ZEFSAII (Michael W. Deem and Ramdas Pophale) SiO2 
 PCOD8190666
Probable space group: I B A 2
;
_chemical_formula_sum "Si O2"
_cell_formula_units_Z 48
_cell_length_a 26.811478
_cell_length_b 9.121335
_cell_length_c 8.976607
_cell_angle_alpha 90.000000
_cell_angle_beta 90.000000
_cell_angle_gamma 90.000000
_cell_volume 2195.287345
_symmetry_space_group_name_H-M "I B A 2"
_symmetry_group_IT_number 45
_symmetry_cell_setting 'orthorhombic'
loop_
_space_group_symop_operation_xyz
x,y,z
-x,-y,z
-x,y,1/2+z
x,-y,1/2+z
1/2+x,1/2+y,1/2+z
1/2-x,1/2-y,1/2+z
1/2-x,1/2+y,z
1/2+x,1/2-y,z
loop_
_atom_site_type_symbol
_atom_site_label
_atom_site_fract_x
_atom_site_fract_y
_atom_site_fract_z
Si Si1 0.465203 0.145968 0.607830
Si Si2 0.890219 0.294179 0.011799
Si Si3 0.785848 0.173387 0.958619
Si Si4 0.259808 0.930273 0.265196
Si Si5 0.126110 0.510090 0.744315
Si Si6 0.988727 0.171413 0.882783
O O1 0.407513 0.116111 0.641728
O O2 0.467715 0.223050 0.447037
O O3 0.483254 0.276363 0.715278
O O4 0.500000 0.000000 0.618235
O O5 0.845472 0.187492 0.964355
O O6 0.888318 0.447689 0.914366
O O7 0.940259 0.204704 0.984693
O O8 0.886534 0.344584 0.185973
O O9 0.760751 0.325048 0.908627
O O10 0.772388 0.064999 0.824335
O O11 0.766419 0.135941 0.121317
O O12 0.315445 0.970258 0.213282
O O13 0.000000 0.000000 0.888678
#
# Coordination Sequence:
#
# PCOD8190666 Si02
#       6
#     8   8   8   8   8   8
#     4  11  22  41  68  92 122 171 218 264 316 386
#     4  10  22  41  64  95 126 166 215 261 325 389
#     4  11  23  42  65  94 130 170 215 267 328 387
#     4  11  22  42  64  93 131 168 216 272 322 392
#     4  10  21  38  67  92 121 162 224 264 305 379
#     4  11  24  43  60  95 136 162 207 272 333 387
#
# _framework density 21.865020000000001
#
# number of rings (size 3 to 8) (size 9 to 14) (size 15 to 20)
#    0.000    1.333    1.667    5.000    2.333    0.000 
#   15.000    0.000    0.000    0.000    0.000    0.000 
#    0.000    0.000    0.000    0.000    0.000    0.000 
#
# Total GULP energy -297411.073777 kJ/mol
# GULP energy per Si atom -12392.128074 kJ/mol
# Density = 2.181525 g / cm^3
# Si number density = 21.865020 Si / 1000 Ang^3
#
#
#
# Elastic Constant Matrix: (Units=GPa)
#
#
# Indices 1 2 3 4 5 6 
#
# 1 63.5269 38.4348 33.4767 0.0000 0.0000 0.0000
# 2 38.4348 122.1186 24.1507 0.0000 0.0000 0.0000
# 3 33.4767 24.1507 62.4075 0.0000 0.0000 0.0000
# 4 0.0000 0.0000 0.0000 35.1146 0.0000 0.0000
# 5 0.0000 0.0000 0.0000 0.0000 24.5643 0.0000
# 6 0.0000 0.0000 0.0000 0.0000 0.0000 28.8127
#
#
#
# Elastic Compliance Matrix: (Units=1/GPa)
#
#
# Indices 1 2 3 4 5 6 
#
# 1 0.025118 -0.005675 -0.011278 0.000000 0.000000 0.000000
# 2 -0.005675 0.010150 -0.000883 0.000000 0.000000 0.000000
# 3 -0.011278 -0.000883 0.022415 0.000000 0.000000 0.000000
# 4 0.000000 0.000000 0.000000 0.028478 0.000000 0.000000
# 5 0.000000 0.000000 0.000000 0.000000 0.040709 0.000000
# 6 0.000000 0.000000 0.000000 0.000000 0.000000 0.034707
#
#
# Mechanical properties :
#
#
# Convention : Reuss Voigt Hill
#
# Bulk Modulus (GPa) = 45.43336 48.90860 47.17098
# Shear Modulus (GPa) = 24.43957 27.83105 26.13531
#
# Velocity S-wave (km/s) = 3.34690 3.57158 3.46107
# Velocity P-wave (km/s) = 5.97995 6.27895 6.13127
#
# Compressibility (1/GPa) = 0.02201026
#
# Stress axis : x y z
#
# Youngs Moduli (GPa) = 39.81232 98.52575 44.61269
#
# Poissons Ratio (x) = 0.55915 0.50312
# Poissons Ratio (y) = 0.22594 0.03941
# Poissons Ratio (z) = 0.44899 0.08705
#
# Static dielectric constant tensor:
#      x y z
#    x 4.076820 0.000000 0.000000 
#    y 0.000000 3.904680 0.000000 
#    z 0.000000 0.000000 4.122450 
# 
# 
# High freq. dielectric constant tensor:
#      x y z
#    x 1.865830 0.000000 0.000000 
#    y 0.000000 1.846090 0.000000 
#    z 0.000000 0.000000 1.873210 
# 
# From -- ./inp_files/1056.got.cif
#   From: 2010.03.12/outbox.cif.g09.slc.cpg/sg45_1_cif.got.tgz:1056.got - 2010.04.14 02:50:11.
