data_PCOD8190764
_publ_section_title
;
Structure prediction by ZEFSAII (Michael W. Deem and Ramdas Pophale) SiO2 
 PCOD8190764
Probable space group: I B A 2
;
_chemical_formula_sum "Si O2"
_cell_formula_units_Z 52
_cell_length_a 9.639733
_cell_length_b 24.104888
_cell_length_c 8.965798
_cell_angle_alpha 90.000000
_cell_angle_beta 90.000000
_cell_angle_gamma 90.000000
_cell_volume 2083.334822
_symmetry_space_group_name_H-M "I B A 2"
_symmetry_group_IT_number 45
_symmetry_cell_setting 'orthorhombic'
loop_
_space_group_symop_operation_xyz
x,y,z
-x,-y,z
-x,y,1/2+z
x,-y,1/2+z
1/2+x,1/2+y,1/2+z
1/2-x,1/2-y,1/2+z
1/2-x,1/2+y,z
1/2+x,1/2-y,z
loop_
_atom_site_type_symbol
_atom_site_label
_atom_site_fract_x
_atom_site_fract_y
_atom_site_fract_z
Si Si1 0.637174 0.379394 0.008050
Si Si2 0.403946 0.212035 0.649858
Si Si3 0.787544 0.020537 0.324823
Si Si4 0.866473 0.899563 0.342654
Si Si5 0.840402 0.592069 0.087881
Si Si6 0.000000 0.500000 0.957967
Si Si7 0.180332 0.723735 0.971489
O O1 0.633882 0.369586 0.184345
O O2 0.674732 0.442597 0.968101
O O3 0.486453 0.369298 0.936787
O O4 0.749871 0.336389 0.946246
O O5 0.388714 0.146060 0.676202
O O6 0.294848 0.232770 0.526599
O O7 0.558297 0.224221 0.593063
O O8 0.379646 0.241819 0.809530
O O9 0.783893 0.058203 0.174183
O O10 0.887700 0.966456 0.315426
O O11 0.629981 0.002694 0.348991
O O12 0.722813 0.889574 0.428692
O O13 0.976867 0.554092 0.062462
#
# Coordination Sequence:
#
# PCOD8190764 Si02
#       7
#     8   8   8   8   8   4   8
#     4  12  26  46  72 109 151 202 258 323 388 474
#     4  12  29  53  82 118 155 210 261 342 388 485
#     4  11  22  44  65 107 147 204 250 320 383 480
#     4  11  26  41  74 103 156 198 254 313 396 463
#     4  11  24  44  74 110 153 206 256 317 393 473
#     4  10  22  38  72 106 152 194 258 308 390 472
#     4  12  30  52  86 112 161 199 276 324 412 458
#
# _framework density 24.959980000000002
#
# number of rings (size 3 to 8) (size 9 to 14) (size 15 to 20)
#    0.000    0.615    1.538    5.538    6.462    3.692 
#    0.000    0.000    0.000    0.000    0.000    0.000 
#    0.000    0.000    0.000    0.000    0.000    0.000 
#
# Total GULP energy -322426.173775 kJ/mol
# GULP energy per Si atom -12401.006684 kJ/mol
# Density = 2.490317 g / cm^3
# Si number density = 24.959980 Si / 1000 Ang^3
#
#
#
# Elastic Constant Matrix: (Units=GPa)
#
#
# Indices 1 2 3 4 5 6 
#
# 1 100.6141 21.1960 28.5555 -0.0003 0.0000 -0.0001
# 2 21.1960 76.9796 13.1041 -0.0009 -0.0001 0.0001
# 3 28.5555 13.1041 131.0734 -0.0033 0.0014 0.0004
# 4 -0.0003 -0.0009 -0.0033 31.2083 0.0002 0.0002
# 5 0.0000 -0.0001 0.0014 0.0002 44.5690 0.0001
# 6 -0.0001 0.0001 0.0004 0.0002 0.0001 47.6157
#
#
#
# Elastic Compliance Matrix: (Units=1/GPa)
#
#
# Indices 1 2 3 4 5 6 
#
# 1 0.011118 -0.002695 -0.002153 0.000000 0.000000 0.000000
# 2 -0.002695 0.013869 -0.000799 0.000000 0.000000 0.000000
# 3 -0.002153 -0.000799 0.008178 0.000001 0.000000 0.000000
# 4 0.000000 0.000000 0.000001 0.032043 0.000000 0.000000
# 5 0.000000 0.000000 0.000000 0.000000 0.022437 0.000000
# 6 0.000000 0.000000 0.000000 0.000000 0.000000 0.021001
#
#
# Mechanical properties :
#
#
# Convention : Reuss Voigt Hill
#
# Bulk Modulus (GPa) = 45.72332 48.26425 46.99378
# Shear Modulus (GPa) = 39.29903 41.06604 40.18253
#
# Velocity S-wave (km/s) = 3.97228 4.06060 4.01668
# Velocity P-wave (km/s) = 6.27671 6.43143 6.35454
#
# Compressibility (1/GPa) = 0.02187068
#
# Stress axis : x y z
#
# Youngs Moduli (GPa) = 89.94738 72.10570 122.27611
#
# Poissons Ratio (x) = 0.19431 0.26322
# Poissons Ratio (y) = 0.24238 0.09775
# Poissons Ratio (z) = 0.19363 0.05764
#
# Static dielectric constant tensor:
#      x y z
#    x 4.404590 0.000000 0.000000 
#    y 0.000000 4.486140 0.000000 
#    z 0.000000 0.000000 4.438400 
# 
# 
# High freq. dielectric constant tensor:
#      x y z
#    x 1.991580 0.000000 0.000000 
#    y 0.000000 1.992610 0.000000 
#    z 0.000000 0.000000 2.001740 
# 
# From -- ./inp_files/1407.got.cif
#   From: 2010.03.12/outbox.cif.g09.slc.cpg/sg45_1_cif.got.tgz:1407.got - 2010.04.14 02:50:11.
