data_PCOD8190348
_publ_section_title
;
Structure prediction by ZEFSAII (Michael W. Deem and Ramdas Pophale) SiO2 
 PCOD8190348
Probable space group: I M M 2
;
_chemical_formula_sum "Si O2"
_cell_formula_units_Z 56
_cell_length_a 13.822420
_cell_length_b 13.848458
_cell_length_c 18.381568
_cell_angle_alpha 90.000000
_cell_angle_beta 90.000000
_cell_angle_gamma 90.000000
_cell_volume 3518.585093
_symmetry_space_group_name_H-M "I M M 2"
_symmetry_group_IT_number 44
_symmetry_cell_setting 'orthorhombic'
loop_
_space_group_symop_operation_xyz
x,y,z
-x,-y,z
-x,y,z
x,-y,z
1/2+x,1/2+y,1/2+z
1/2-x,1/2-y,1/2+z
1/2-x,1/2+y,1/2+z
1/2+x,1/2-y,1/2+z
loop_
_atom_site_type_symbol
_atom_site_label
_atom_site_fract_x
_atom_site_fract_y
_atom_site_fract_z
Si Si1 0.610181 0.110540 0.272420
Si Si2 0.737239 0.610874 0.651302
Si Si3 0.761897 0.785502 0.366622
Si Si4 0.610428 0.609556 0.968648
Si Si5 0.387937 0.891289 0.604938
Si Si6 0.748197 0.246917 0.523318
Si Si7 0.887427 0.742578 0.236469
O O1 0.500000 0.146438 0.263922
O O2 0.662569 0.121663 0.194790
O O3 0.662940 0.175962 0.332147
O O4 0.614020 0.000000 0.298821
O O5 0.707831 0.500000 0.639599
O O6 0.753554 0.658469 0.572554
O O7 0.650423 0.661435 0.695422
O O8 0.829177 0.875294 0.393562
O O9 0.734743 0.721522 0.438260
O O10 0.825002 0.723773 0.309264
O O11 0.500000 0.637040 0.953707
O O12 0.621322 0.500000 0.995697
O O13 0.653474 0.682270 0.030134
O O14 0.500000 0.890755 0.585348
O O15 0.339177 0.823367 0.545240
O O16 0.369944 0.850370 0.685878
O O17 0.346025 0.000000 0.601620
O O18 0.000000 0.756834 0.255434
#
# Coordination Sequence:
#
# PCOD8190348 Si02
#       7
#     8   8   8   8   8   8   8
#     4   9  17  29  46  67  91 120 153 187 225 271
#     4   9  18  33  48  66  92 124 161 194 226 270
#     4   9  18  29  45  67  96 122 149 188 232 278
#     4   9  17  28  43  65  92 120 148 181 227 277
#     4   9  17  30  49  70  94 124 154 189 232 278
#     4   9  19  30  46  68  95 123 153 191 232 277
#     4   9  17  31  49  70  94 121 156 194 233 276
#
# _framework density 15.915488
#
# number of rings (size 3 to 8) (size 9 to 14) (size 15 to 20)
#    0.857    2.143    0.000    1.286    0.000    2.000 
#    0.000    2.143    0.000    0.000    0.000    0.000 
#    0.000   11.429    0.000    0.000    0.000    0.000 
#
# Total GULP energy -346972.066840 kJ/mol
# GULP energy per Si atom -12391.859530 kJ/mol
# Density = 1.587926 g / cm^3
# Si number density = 15.915488 Si / 1000 Ang^3
#
#
#
# Elastic Constant Matrix: (Units=GPa)
#
#
# Indices 1 2 3 4 5 6 
#
# 1 84.2431 20.7408 34.4942 0.0000 0.0000 0.0000
# 2 20.7408 57.7930 30.3289 0.0000 0.0000 0.0000
# 3 34.4942 30.3289 108.0349 0.0000 0.0000 0.0000
# 4 0.0000 0.0000 0.0000 21.2433 0.0000 0.0000
# 5 0.0000 0.0000 0.0000 0.0000 23.5044 0.0000
# 6 0.0000 0.0000 0.0000 0.0000 0.0000 19.4040
#
#
#
# Elastic Compliance Matrix: (Units=1/GPa)
#
#
# Indices 1 2 3 4 5 6 
#
# 1 0.014135 -0.003172 -0.003623 0.000000 0.000000 0.000000
# 2 -0.003172 0.021004 -0.004884 0.000000 0.000000 0.000000
# 3 -0.003623 -0.004884 0.011784 0.000000 0.000000 0.000000
# 4 0.000000 0.000000 0.000000 0.047074 0.000000 0.000000
# 5 0.000000 0.000000 0.000000 0.000000 0.042545 0.000000
# 6 0.000000 0.000000 0.000000 0.000000 0.000000 0.051536
#
#
# Mechanical properties :
#
#
# Convention : Reuss Voigt Hill
#
# Bulk Modulus (GPa) = 42.43278 46.79985 44.61632
# Shear Modulus (GPa) = 22.80091 23.79747 23.29919
#
# Velocity S-wave (km/s) = 3.78911 3.87103 3.83029
# Velocity P-wave (km/s) = 6.77217 7.03199 6.90330
#
# Compressibility (1/GPa) = 0.02356669
#
# Stress axis : x y z
#
# Youngs Moduli (GPa) = 70.74847 47.60908 84.86062
#
# Poissons Ratio (x) = 0.15099 0.30742
# Poissons Ratio (y) = 0.22438 0.41446
# Poissons Ratio (z) = 0.25630 0.23252
#
# Static dielectric constant tensor:
#      x y z
#    x 3.054150 0.000000 0.000000 
#    y 0.000000 2.826210 0.000000 
#    z 0.000000 0.000000 2.977680 
# 
# 
# High freq. dielectric constant tensor:
#      x y z
#    x 1.615310 0.000000 0.000000 
#    y 0.000000 1.585470 0.000000 
#    z 0.000000 0.000000 1.604970 
# 
# From -- ./inp_files/21921.got.cif
#   From: 2010.03.12/outbox.cif.g09.slc.cpg/sg44_11_cif.got.tgz:21921.got - 2010.04.14 02:36:11.
