data_PCOD8190441
_publ_section_title
;
Structure prediction by ZEFSAII (Michael W. Deem and Ramdas Pophale) SiO2 
 PCOD8190441
Probable space group: I B A 2
;
_chemical_formula_sum "Si O2"
_cell_formula_units_Z 60
_cell_length_a 13.159014
_cell_length_b 17.098405
_cell_length_c 12.829687
_cell_angle_alpha 90.000000
_cell_angle_beta 90.000000
_cell_angle_gamma 90.000000
_cell_volume 2886.655850
_symmetry_space_group_name_H-M "I B A 2"
_symmetry_group_IT_number 45
_symmetry_cell_setting 'orthorhombic'
loop_
_space_group_symop_operation_xyz
x,y,z
-x,-y,z
-x,y,1/2+z
x,-y,1/2+z
1/2+x,1/2+y,1/2+z
1/2-x,1/2-y,1/2+z
1/2-x,1/2+y,z
1/2+x,1/2-y,z
loop_
_atom_site_type_symbol
_atom_site_label
_atom_site_fract_x
_atom_site_fract_y
_atom_site_fract_z
Si Si1 0.610941 0.021218 0.765190
Si Si2 0.677368 0.872319 0.445008
Si Si3 0.822633 0.627682 0.355254
Si Si4 0.500000 0.756512 0.900132
Si Si5 0.500000 0.500000 0.400132
Si Si6 0.391301 0.633478 0.525716
Si Si7 0.610940 0.978781 0.035073
Si Si8 0.391300 0.633476 0.774550
O O1 0.669383 0.085377 0.832963
O O2 0.500000 0.000000 0.810606
O O3 0.668669 0.938456 0.765596
O O4 0.604977 0.056701 0.650131
O O5 0.590246 0.807494 0.449869
O O6 0.787981 0.837009 0.468181
O O7 0.668671 0.938459 0.534663
O O8 0.909756 0.692507 0.350391
O O9 0.830621 0.585380 0.467300
O O10 0.712019 0.662992 0.332083
O O11 0.468631 0.703066 0.801969
O O12 0.531373 0.703072 0.998301
O O13 0.428598 0.551977 0.475227
O O14 0.571408 0.551973 0.325038
O O15 0.381148 0.624731 0.650133
O O16 0.500000 0.000000 0.989654
#
# Coordination Sequence:
#
# PCOD8190441 Si02
#       8
#     8   8   8   8   4   8   8   8
#     4  10  19  33  61  92 119 159 199 245 306 356
#     4  11  20  40  60  89 127 159 204 255 300 360
#     4  11  20  40  60  89 127 159 204 255 300 360
#     4  11  24  42  58  85 130 166 200 257 302 360
#     4  10  22  48  68  90 124 146 198 266 312 368
#     4  11  25  41  65  91 116 162 206 250 313 369
#     4  10  19  33  61  92 119 159 199 245 306 356
#     4  11  25  41  65  91 116 162 206 250 313 369
#
# _framework density 20.785297
#
# number of rings (size 3 to 8) (size 9 to 14) (size 15 to 20)
#    0.000    1.333    2.667    4.400    0.000    3.200 
#    0.000    5.333    0.000    0.000    0.000    0.000 
#    0.000    0.000    0.000    0.000    0.000    0.000 
#
# Total GULP energy -371842.537050 kJ/mol
# GULP energy per Si atom -12394.751235 kJ/mol
# Density = 2.073799 g / cm^3
# Si number density = 20.785297 Si / 1000 Ang^3
#
#
#
# Elastic Constant Matrix: (Units=GPa)
#
#
# Indices 1 2 3 4 5 6 
#
# 1 126.3799 57.7846 60.4039 0.0000 0.0000 0.0000
# 2 57.7846 118.2840 49.1048 0.0000 0.0000 0.0000
# 3 60.4039 49.1048 167.6493 0.0000 0.0000 -0.0001
# 4 0.0000 0.0000 0.0000 -5.3824 0.0000 0.0000
# 5 0.0000 0.0000 0.0000 0.0000 30.7387 0.0000
# 6 0.0000 0.0000 -0.0001 0.0000 0.0000 29.3071
#
#
#
# Elastic Compliance Matrix: (Units=1/GPa)
#
#
# Indices 1 2 3 4 5 6 
#
# 1 0.011218 -0.004329 -0.002774 0.000000 0.000000 0.000000
# 2 -0.004329 0.011295 -0.001749 0.000000 0.000000 0.000000
# 3 -0.002774 -0.001749 0.007476 0.000000 0.000000 0.000000
# 4 0.000000 0.000000 0.000000 -0.185789 0.000000 0.000000
# 5 0.000000 0.000000 0.000000 0.000000 0.032532 0.000000
# 6 0.000000 0.000000 0.000000 0.000000 0.000000 0.034121
#
#
# Mechanical properties :
#
#
# Convention : Reuss Voigt Hill
#
# Bulk Modulus (GPa) = 81.38909 82.98886 82.18898
# Shear Modulus (GPa) = -74.23999 27.26733 -23.48633
#
# Velocity S-wave (km/s) = -5.98290 3.62589 -3.36512
# Velocity P-wave (km/s) = 2.91286 7.58570 4.95268
#
# Compressibility (1/GPa) = 0.01228666
#
# Stress axis : x y z
#
# Youngs Moduli (GPa) = 89.14607 88.53653 133.75339
#
# Poissons Ratio (x) = 0.38323 0.37101
# Poissons Ratio (y) = 0.38587 0.23390
# Poissons Ratio (z) = 0.24728 0.15482
#
# Static dielectric constant tensor:
#      x y z
#    x 3.907760 0.000000 0.000000 
#    y 0.000000 3.763350 0.000000 
#    z 0.000000 0.000000 3.528560 
# 
# 
# High freq. dielectric constant tensor:
#      x y z
#    x 1.818230 0.000000 0.000000 
#    y 0.000000 1.814120 0.000000 
#    z 0.000000 0.000000 1.810970 
# 
# From -- ./inp_files/6254.got.cif
#   From: 2010.03.12/outbox.cif.g09.slc.cpg/sg45_4_cif.got.tgz:6254.got - 2010.04.14 02:50:11.
