data_PCOD8190748
_publ_section_title
;
Structure prediction by ZEFSAII (Michael W. Deem and Ramdas Pophale) SiO2 
 PCOD8190748
Probable space group: I B A 2
;
_chemical_formula_sum "Si O2"
_cell_formula_units_Z 44
_cell_length_a 8.756260
_cell_length_b 10.618569
_cell_length_c 21.406233
_cell_angle_alpha 90.000000
_cell_angle_beta 90.000000
_cell_angle_gamma 90.000000
_cell_volume 1990.329089
_symmetry_space_group_name_H-M "I B A 2"
_symmetry_group_IT_number 45
_symmetry_cell_setting 'orthorhombic'
loop_
_space_group_symop_operation_xyz
x,y,z
-x,-y,z
-x,y,1/2+z
x,-y,1/2+z
1/2+x,1/2+y,1/2+z
1/2-x,1/2-y,1/2+z
1/2-x,1/2+y,z
1/2+x,1/2-y,z
loop_
_atom_site_type_symbol
_atom_site_label
_atom_site_fract_x
_atom_site_fract_y
_atom_site_fract_z
Si Si1 0.104649 0.114875 0.088830
Si Si2 0.442957 0.130799 0.053183
Si Si3 0.185569 0.418319 0.330945
Si Si4 0.802646 0.899076 0.228735
Si Si5 0.430706 0.739561 0.789391
Si Si6 0.500000 0.000000 0.935365
O O1 0.258808 0.133775 0.049552
O O2 0.160681 0.072696 0.157420
O O3 0.009931 0.245980 0.087722
O O4 0.000000 0.000000 0.062499
O O5 0.500000 0.000000 0.087416
O O6 0.500746 0.123478 0.980743
O O7 0.229050 0.485682 0.266208
O O8 0.321662 0.319013 0.343548
O O9 0.155277 0.502066 0.392662
O O10 0.020820 0.353603 0.320727
O O11 0.680678 0.785366 0.233188
O O12 0.961029 0.866899 0.262171
#
# Coordination Sequence:
#
# PCOD8190748 Si02
#       6
#     8   8   8   8   8   4
#     4  12  24  45  74 107 143 191 252 308 374 447
#     4  10  26  47  69  99 142 197 252 302 365 437
#     4  11  21  43  64 101 137 179 228 293 367 438
#     4  11  22  40  66 105 142 172 228 290 373 440
#     4  10  22  36  65 103 137 177 216 282 376 438
#     4  10  24  48  68  92 144 192 248 298 358 444
#
# _framework density 22.106895999999999
#
# number of rings (size 3 to 8) (size 9 to 14) (size 15 to 20)
#    0.545    0.727    1.818    3.818    0.000    7.273 
#    0.000    1.818    0.000    0.000    0.000    0.000 
#    0.000    0.000    0.000    0.000    0.000    0.000 
#
# Total GULP energy -272577.702458 kJ/mol
# GULP energy per Si atom -12389.895566 kJ/mol
# Density = 2.205658 g / cm^3
# Si number density = 22.106896 Si / 1000 Ang^3
#
#
#
# Elastic Constant Matrix: (Units=GPa)
#
#
# Indices 1 2 3 4 5 6 
#
# 1 163.7683 59.5367 37.5360 0.0000 0.0000 0.0000
# 2 59.5367 130.4541 35.1928 0.0000 0.0000 0.0000
# 3 37.5360 35.1928 106.8713 0.0000 0.0000 0.0000
# 4 0.0000 0.0000 0.0000 28.4448 0.0000 0.0000
# 5 0.0000 0.0000 0.0000 0.0000 23.2552 0.0000
# 6 0.0000 0.0000 0.0000 0.0000 0.0000 40.9259
#
#
#
# Elastic Compliance Matrix: (Units=1/GPa)
#
#
# Indices 1 2 3 4 5 6 
#
# 1 0.007584 -0.003010 -0.001672 0.000000 0.000000 0.000000
# 2 -0.003010 0.009607 -0.002107 0.000000 0.000000 0.000000
# 3 -0.001672 -0.002107 0.010638 0.000000 0.000000 0.000000
# 4 0.000000 0.000000 0.000000 0.035156 0.000000 0.000000
# 5 0.000000 0.000000 0.000000 0.000000 0.043001 0.000000
# 6 0.000000 0.000000 0.000000 0.000000 0.000000 0.024434
#
#
# Mechanical properties :
#
#
# Convention : Reuss Voigt Hill
#
# Bulk Modulus (GPa) = 70.16803 73.95831 72.06317
# Shear Modulus (GPa) = 33.61364 36.44706 35.03035
#
# Velocity S-wave (km/s) = 3.90359 4.06479 3.98501
# Velocity P-wave (km/s) = 7.21988 7.45369 7.33772
#
# Compressibility (1/GPa) = 0.01425151
#
# Stress axis : x y z
#
# Youngs Moduli (GPa) = 131.86112 104.08546 94.00118
#
# Poissons Ratio (x) = 0.31329 0.15721
# Poissons Ratio (y) = 0.39689 0.19802
# Poissons Ratio (z) = 0.22053 0.21927
#
# Static dielectric constant tensor:
#      x y z
#    x 4.392810 0.000000 0.000000 
#    y 0.000000 4.045060 0.000000 
#    z 0.000000 0.000000 3.720570 
# 
# 
# High freq. dielectric constant tensor:
#      x y z
#    x 1.892710 0.000000 0.000000 
#    y 0.000000 1.874220 0.000000 
#    z 0.000000 0.000000 1.834400 
# 
# From -- ./inp_files/9519.got.cif
#   From: 2010.03.12/outbox.cif.g09.slc.cpg/sg45_5_cif.got.tgz:9519.got - 2010.04.14 02:50:11.
