data_PCOD8190860
_publ_section_title
;
Structure prediction by ZEFSAII (Michael W. Deem and Ramdas Pophale) SiO2 
 PCOD8190860
Probable space group: I B A 2
;
_chemical_formula_sum "Si O2"
_cell_formula_units_Z 56
_cell_length_a 17.826582
_cell_length_b 14.200458
_cell_length_c 8.763429
_cell_angle_alpha 90.000000
_cell_angle_beta 90.000000
_cell_angle_gamma 90.000000
_cell_volume 2218.423746
_symmetry_space_group_name_H-M "I B A 2"
_symmetry_group_IT_number 45
_symmetry_cell_setting 'orthorhombic'
loop_
_space_group_symop_operation_xyz
x,y,z
-x,-y,z
-x,y,1/2+z
x,-y,1/2+z
1/2+x,1/2+y,1/2+z
1/2-x,1/2-y,1/2+z
1/2-x,1/2+y,z
1/2+x,1/2-y,z
loop_
_atom_site_type_symbol
_atom_site_label
_atom_site_fract_x
_atom_site_fract_y
_atom_site_fract_z
Si Si1 0.962870 0.283364 0.204830
Si Si2 0.177556 0.390371 0.652187
Si Si3 0.759698 0.470650 0.851225
Si Si4 0.898090 0.258934 0.541913
Si Si5 0.909503 0.110862 0.028447
Si Si6 0.886667 0.931469 0.211196
Si Si7 0.243695 0.809190 0.129125
O O1 0.908559 0.359379 0.120438
O O2 0.939777 0.266380 0.379267
O O3 0.961709 0.184740 0.113769
O O4 0.049969 0.310047 0.172941
O O5 0.173102 0.462085 0.793822
O O6 0.223382 0.453497 0.528748
O O7 0.223609 0.295323 0.685489
O O8 0.684283 0.527024 0.806500
O O9 0.758162 0.365617 0.784493
O O10 0.873379 0.153155 0.591485
O O11 0.819561 0.314338 0.528766
O O12 0.822333 0.143320 0.031813
O O13 0.924393 0.012534 0.112241
O O14 0.937798 0.105409 0.852440
#
# Coordination Sequence:
#
# PCOD8190860 Si02
#       7
#     8   8   8   8   8   8   8
#     4  11  28  46  71 103 143 201 248 301 378 455
#     4  11  26  44  74 111 146 183 250 304 375 445
#     4  11  24  42  72 110 143 186 235 302 366 433
#     4  12  26  46  71  99 146 197 247 306 373 445
#     4  10  23  41  69 110 142 185 237 304 371 445
#     4  11  22  41  71 107 149 180 241 303 373 440
#     4  10  25  40  75 102 148 184 244 305 369 437
#
# _framework density 25.243148000000001
#
# number of rings (size 3 to 8) (size 9 to 14) (size 15 to 20)
#    0.000    1.143    1.429    3.429   16.000    0.571 
#    0.000    3.571    0.000    0.000    0.000    0.000 
#    0.000    0.000    0.000    0.000    0.000    0.000 
#
# Total GULP energy -347000.755262 kJ/mol
# GULP energy per Si atom -12392.884116 kJ/mol
# Density = 2.518569 g / cm^3
# Si number density = 25.243148 Si / 1000 Ang^3
#
#
#
# Elastic Constant Matrix: (Units=GPa)
#
#
# Indices 1 2 3 4 5 6 
#
# 1 103.8454 18.1209 10.5074 0.0000 0.0000 0.0000
# 2 18.1209 84.9699 39.0516 0.0000 0.0000 0.0000
# 3 10.5074 39.0516 135.0178 0.0000 0.0000 0.0000
# 4 0.0000 0.0000 0.0000 38.4292 0.0000 0.0000
# 5 0.0000 0.0000 0.0000 0.0000 32.6927 0.0000
# 6 0.0000 0.0000 0.0000 0.0000 0.0000 12.9560
#
#
#
# Elastic Compliance Matrix: (Units=1/GPa)
#
#
# Indices 1 2 3 4 5 6 
#
# 1 0.010006 -0.002048 -0.000186 0.000000 0.000000 0.000000
# 2 -0.002048 0.013992 -0.003888 0.000000 0.000000 0.000000
# 3 -0.000186 -0.003888 0.008545 0.000000 0.000000 0.000000
# 4 0.000000 0.000000 0.000000 0.026022 0.000000 0.000000
# 5 0.000000 0.000000 0.000000 0.000000 0.030588 0.000000
# 6 0.000000 0.000000 0.000000 0.000000 0.000000 0.077184
#
#
# Mechanical properties :
#
#
# Convention : Reuss Voigt Hill
#
# Bulk Modulus (GPa) = 49.26269 51.02143 50.14206
# Shear Modulus (GPa) = 26.97619 33.89247 30.43433
#
# Velocity S-wave (km/s) = 3.27257 3.66818 3.47601
# Velocity P-wave (km/s) = 5.81698 6.18034 6.00141
#
# Compressibility (1/GPa) = 0.02029934
#
# Stress axis : x y z
#
# Youngs Moduli (GPa) = 99.94028 71.46715 117.02245
#
# Poissons Ratio (x) = 0.14639 0.02180
# Poissons Ratio (y) = 0.20471 0.45494
# Poissons Ratio (z) = 0.01861 0.27784
#
# Static dielectric constant tensor:
#      x y z
#    x 4.676180 0.000000 0.000000 
#    y 0.000000 4.700370 0.000000 
#    z 0.000000 0.000000 4.540620 
# 
# 
# High freq. dielectric constant tensor:
#      x y z
#    x 2.002930 0.000000 0.000000 
#    y 0.000000 2.007020 0.000000 
#    z 0.000000 0.000000 2.011430 
# 
# From -- ./inp_files/2326.got.cif
#   From: 2010.03.12/outbox.cif.g09.slc.cpg/sg45_2_cif.got.tgz:2326.got - 2010.04.14 02:50:11.
