data_PCOD8190805
_publ_section_title
;
Structure prediction by ZEFSAII (Michael W. Deem and Ramdas Pophale) SiO2 
 PCOD8190805
Probable space group: I B A 2
;
_chemical_formula_sum "Si O2"
_cell_formula_units_Z 56
_cell_length_a 14.296478
_cell_length_b 13.260443
_cell_length_c 13.198099
_cell_angle_alpha 90.000000
_cell_angle_beta 90.000000
_cell_angle_gamma 90.000000
_cell_volume 2502.064350
_symmetry_space_group_name_H-M "I B A 2"
_symmetry_group_IT_number 45
_symmetry_cell_setting 'orthorhombic'
loop_
_space_group_symop_operation_xyz
x,y,z
-x,-y,z
-x,y,1/2+z
x,-y,1/2+z
1/2+x,1/2+y,1/2+z
1/2-x,1/2-y,1/2+z
1/2-x,1/2+y,z
1/2+x,1/2-y,z
loop_
_atom_site_type_symbol
_atom_site_label
_atom_site_fract_x
_atom_site_fract_y
_atom_site_fract_z
Si Si1 0.629194 0.732993 0.913390
Si Si2 0.003195 0.271679 0.222111
Si Si3 0.268300 0.935515 0.915102
Si Si4 0.221734 0.871696 0.527765
Si Si5 0.425373 0.928397 0.064273
Si Si6 0.662237 0.088121 0.711320
Si Si7 0.487326 0.621343 0.061692
O O1 0.570420 0.779819 0.820088
O O2 0.698240 0.648418 0.872646
O O3 0.696734 0.814823 0.966070
O O4 0.561494 0.681303 0.994217
O O5 0.038669 0.331564 0.123077
O O6 0.901442 0.317163 0.248692
O O7 0.996527 0.156618 0.179345
O O8 0.309349 0.976662 0.809933
O O9 0.348184 0.887328 0.986700
O O10 0.215387 0.017324 0.980849
O O11 0.249946 0.871073 0.646258
O O12 0.113989 0.838124 0.522512
O O13 0.500000 0.000000 0.003106
O O14 0.392358 0.008394 0.146175
O O15 0.500000 0.500000 0.055876
#
# Coordination Sequence:
#
# PCOD8190805 Si02
#       7
#     8   8   8   8   8   8   8
#     4  12  26  45  70 103 136 189 240 282 362 419
#     4  11  24  43  69 103 140 183 236 290 353 425
#     4  11  23  41  67 102 136 182 233 287 355 416
#     4  11  24  47  72  97 145 185 237 296 345 427
#     4   9  21  40  67 102 140 176 227 296 354 404
#     4  10  22  41  69 106 137 182 233 292 356 413
#     4  12  26  50  71 101 145 187 237 296 356 423
#
# _framework density 22.381518
#
# number of rings (size 3 to 8) (size 9 to 14) (size 15 to 20)
#    0.000    1.143    2.857    2.571    4.000    2.286 
#    2.571    0.000    0.000    0.000    0.000    0.000 
#    0.000    0.000    0.000    0.000    0.000    0.000 
#
# Total GULP energy -346891.794148 kJ/mol
# GULP energy per Si atom -12388.992648 kJ/mol
# Density = 2.233058 g / cm^3
# Si number density = 22.381518 Si / 1000 Ang^3
#
#
#
# Elastic Constant Matrix: (Units=GPa)
#
#
# Indices 1 2 3 4 5 6 
#
# 1 103.8924 22.9996 30.7465 0.0000 0.0000 0.0000
# 2 22.9996 70.1981 20.8460 0.0000 0.0000 0.0000
# 3 30.7465 20.8460 102.5628 0.0000 0.0000 0.0000
# 4 0.0000 0.0000 0.0000 4.5847 0.0000 0.0000
# 5 0.0000 0.0000 0.0000 0.0000 23.4398 0.0000
# 6 0.0000 0.0000 0.0000 0.0000 0.0000 33.6559
#
#
#
# Elastic Compliance Matrix: (Units=1/GPa)
#
#
# Indices 1 2 3 4 5 6 
#
# 1 0.011059 -0.002808 -0.002745 0.000000 0.000000 0.000000
# 2 -0.002808 0.015874 -0.002384 0.000000 0.000000 0.000000
# 3 -0.002745 -0.002384 0.011058 0.000000 0.000000 0.000000
# 4 0.000000 0.000000 0.000000 0.218118 0.000000 0.000000
# 5 0.000000 0.000000 0.000000 0.000000 0.042663 0.000000
# 6 0.000000 0.000000 0.000000 0.000000 0.000000 0.029712
#
#
# Mechanical properties :
#
#
# Convention : Reuss Voigt Hill
#
# Bulk Modulus (GPa) = 45.21688 47.31529 46.26609
# Shear Modulus (GPa) = 14.21545 25.80681 20.01113
#
# Velocity S-wave (km/s) = 2.52294 3.39933 2.99338
# Velocity P-wave (km/s) = 5.36037 6.04926 5.71520
#
# Compressibility (1/GPa) = 0.02211563
#
# Stress axis : x y z
#
# Youngs Moduli (GPa) = 90.42151 62.99760 90.43610
#
# Poissons Ratio (x) = 0.17692 0.24821
# Poissons Ratio (y) = 0.25394 0.21564
# Poissons Ratio (z) = 0.24817 0.15021
#
# Static dielectric constant tensor:
#      x y z
#    x 4.322880 0.000000 0.000000 
#    y 0.000000 4.216810 0.000000 
#    z 0.000000 0.000000 3.900090 
# 
# 
# High freq. dielectric constant tensor:
#      x y z
#    x 1.895760 0.000000 0.000000 
#    y 0.000000 1.880440 0.000000 
#    z 0.000000 0.000000 1.880870 
# 
# From -- ./inp_files/4132.got.cif
#   From: 2010.03.12/outbox.cif.g09.slc.cpg/sg45_3_cif.got.tgz:4132.got - 2010.04.14 02:50:11.
