data_PCOD8190950
_publ_section_title
;
Structure prediction by ZEFSAII (Michael W. Deem and Ramdas Pophale) SiO2 
 PCOD8190950
Probable space group: I B A 2
;
_chemical_formula_sum "Si O2"
_cell_formula_units_Z 48
_cell_length_a 7.843044
_cell_length_b 16.889873
_cell_length_c 13.529635
_cell_angle_alpha 90.000000
_cell_angle_beta 90.000000
_cell_angle_gamma 90.000000
_cell_volume 1792.243920
_symmetry_space_group_name_H-M "I B A 2"
_symmetry_group_IT_number 45
_symmetry_cell_setting 'orthorhombic'
loop_
_space_group_symop_operation_xyz
x,y,z
-x,-y,z
-x,y,1/2+z
x,-y,1/2+z
1/2+x,1/2+y,1/2+z
1/2-x,1/2-y,1/2+z
1/2-x,1/2+y,z
1/2+x,1/2-y,z
loop_
_atom_site_type_symbol
_atom_site_label
_atom_site_fract_x
_atom_site_fract_y
_atom_site_fract_z
Si Si1 0.165301 0.851376 0.819520
Si Si2 0.500000 0.000000 0.071992
Si Si3 0.000000 0.000000 0.890297
Si Si4 0.503357 0.272009 0.658011
Si Si5 0.206877 0.400711 0.428616
Si Si6 0.608601 0.254916 0.936924
Si Si7 0.163141 0.376851 0.206370
O O1 0.158910 0.822100 0.704666
O O2 0.332876 0.828532 0.885977
O O3 0.999640 0.804563 0.859159
O O4 0.128710 0.945230 0.824968
O O5 0.640169 0.046234 0.136848
O O6 0.435389 0.068413 0.000581
O O7 0.115015 0.056312 0.959277
O O8 0.473965 0.252069 0.543699
O O9 0.675583 0.323097 0.672102
O O10 0.500337 0.183147 0.707179
O O11 0.213933 0.305893 0.445892
O O12 0.178229 0.416998 0.312972
#
# Coordination Sequence:
#
# PCOD8190950 Si02
#       7
#     8   4   4   8   8   8   8
#     4  11  23  48  71 114 154 205 269 337 395 477
#     4  12  32  50  80 116 168 212 268 344 412 492
#     4  10  24  46  80 108 156 216 264 332 408 470
#     4  12  25  48  81 114 156 211 273 325 403 491
#     4  11  26  53  72 116 159 217 265 335 409 477
#     4  11  25  43  77 111 149 207 269 328 395 479
#     4  12  28  55  78 121 162 215 274 337 412 487
#
# _framework density 26.782067000000001
#
# number of rings (size 3 to 8) (size 9 to 14) (size 15 to 20)
#    0.000    0.667    5.000    1.500   11.667    1.333 
#    6.000    0.000    0.000    0.000    0.000    0.000 
#    0.000    0.000    0.000    0.000    0.000    0.000 
#
# Total GULP energy -297322.485925 kJ/mol
# GULP energy per Si atom -12388.436914 kJ/mol
# Density = 2.672111 g / cm^3
# Si number density = 26.782067 Si / 1000 Ang^3
#
#
#
# Elastic Constant Matrix: (Units=GPa)
#
#
# Indices 1 2 3 4 5 6 
#
# 1 66.3558 26.4445 54.2941 0.0000 0.0000 0.0000
# 2 26.4445 127.7288 40.6957 0.0000 0.0000 0.0000
# 3 54.2941 40.6957 134.0194 -0.0001 0.0000 0.0000
# 4 0.0000 0.0000 -0.0001 29.3370 0.0000 0.0000
# 5 0.0000 0.0000 0.0000 0.0000 33.4939 0.0000
# 6 0.0000 0.0000 0.0000 0.0000 0.0000 65.5000
#
#
#
# Elastic Compliance Matrix: (Units=1/GPa)
#
#
# Indices 1 2 3 4 5 6 
#
# 1 0.022988 -0.001984 -0.008710 0.000000 0.000000 0.000000
# 2 -0.001984 0.008839 -0.001880 0.000000 0.000000 0.000000
# 3 -0.008710 -0.001880 0.011561 0.000000 0.000000 0.000000
# 4 0.000000 0.000000 0.000000 0.034087 0.000000 0.000000
# 5 0.000000 0.000000 0.000000 0.000000 0.029856 0.000000
# 6 0.000000 0.000000 0.000000 0.000000 0.000000 0.015267
#
#
# Mechanical properties :
#
#
# Convention : Reuss Voigt Hill
#
# Bulk Modulus (GPa) = 54.82812 63.44139 59.13476
# Shear Modulus (GPa) = 32.50393 39.44417 35.97405
#
# Velocity S-wave (km/s) = 3.48752 3.84185 3.66896
# Velocity P-wave (km/s) = 6.06081 6.58932 6.33059
#
# Compressibility (1/GPa) = 0.01823882
#
# Stress axis : x y z
#
# Youngs Moduli (GPa) = 43.50067 113.13605 86.49520
#
# Poissons Ratio (x) = 0.22448 0.75342
# Poissons Ratio (y) = 0.08631 0.16263
# Poissons Ratio (z) = 0.37891 0.21272
#
# Static dielectric constant tensor:
#      x y z
#    x 5.045790 0.000000 0.000000 
#    y 0.000000 5.206930 0.000000 
#    z 0.000000 0.000000 4.867270 
# 
# 
# High freq. dielectric constant tensor:
#      x y z
#    x 2.080440 0.000000 0.000000 
#    y 0.000000 2.085650 0.000000 
#    z 0.000000 0.000000 2.074430 
# 
# From -- ./inp_files/5646.got.cif
#   From: 2010.03.12/outbox.cif.g09.slc.cpg/sg45_3_cif.got.tgz:5646.got - 2010.04.14 02:50:11.
