data_PCOD8190776
_publ_section_title
;
Structure prediction by ZEFSAII (Michael W. Deem and Ramdas Pophale) SiO2 
 PCOD8190776
Probable space group: I B A 2
;
_chemical_formula_sum "Si O2"
_cell_formula_units_Z 56
_cell_length_a 13.543509
_cell_length_b 10.738928
_cell_length_c 16.889551
_cell_angle_alpha 90.000000
_cell_angle_beta 90.000000
_cell_angle_gamma 90.000000
_cell_volume 2456.463048
_symmetry_space_group_name_H-M "I B A 2"
_symmetry_group_IT_number 45
_symmetry_cell_setting 'orthorhombic'
loop_
_space_group_symop_operation_xyz
x,y,z
-x,-y,z
-x,y,1/2+z
x,-y,1/2+z
1/2+x,1/2+y,1/2+z
1/2-x,1/2-y,1/2+z
1/2-x,1/2+y,z
1/2+x,1/2-y,z
loop_
_atom_site_type_symbol
_atom_site_label
_atom_site_fract_x
_atom_site_fract_y
_atom_site_fract_z
Si Si1 0.000000 0.000000 0.117370
Si Si2 0.000000 0.500000 0.383017
Si Si3 0.646200 0.438361 0.831109
Si Si4 0.535922 0.165385 0.022152
Si Si5 0.541193 0.333298 0.259329
Si Si6 0.148848 0.426917 0.261394
Si Si7 0.644792 0.947320 0.094252
Si Si8 0.154738 0.085061 0.014314
O O1 0.014245 0.121731 0.171360
O O2 0.097150 0.976609 0.062384
O O3 0.995521 0.625575 0.435652
O O4 0.098400 0.508123 0.329991
O O5 0.556836 0.342041 0.814351
O O6 0.622802 0.575981 0.798089
O O7 0.742025 0.385310 0.786667
O O8 0.670557 0.451336 0.923750
O O9 0.446009 0.149629 0.085009
O O10 0.577417 0.302402 0.020988
O O11 0.624819 0.071806 0.043795
O O12 0.581788 0.195012 0.248867
O O13 0.155374 0.515613 0.185445
O O14 0.743294 0.884186 0.058827
#
# Coordination Sequence:
#
# PCOD8190776 Si02
#       8
#     4   4   8   8   8   8   8   8
#     4  10  22  40  62  92 126 162 214 262 318 388
#     4  10  22  40  66  96 128 172 226 264 318 404
#     4  10  23  41  66  99 130 171 226 264 325 402
#     4  10  23  44  62  93 136 172 216 271 324 387
#     4  10  23  44  63  93 135 171 215 276 326 381
#     4  12  23  42  69  95 132 176 216 274 329 384
#     4  10  23  42  65  95 130 172 223 263 324 404
#     4  12  23  41  69  97 132 174 214 276 332 381
#
# _framework density 22.797006
#
# number of rings (size 3 to 8) (size 9 to 14) (size 15 to 20)
#    0.000    1.714    0.000    6.857    0.000    4.571 
#    0.000   11.429    0.000    0.000    0.000    0.000 
#    0.000    0.000    0.000    0.000    0.000    0.000 
#
# Total GULP energy -347197.350891 kJ/mol
# GULP energy per Si atom -12399.905389 kJ/mol
# Density = 2.274512 g / cm^3
# Si number density = 22.797006 Si / 1000 Ang^3
#
#
#
# Elastic Constant Matrix: (Units=GPa)
#
#
# Indices 1 2 3 4 5 6 
#
# 1 151.8062 43.7821 64.5966 0.0000 0.0000 0.0000
# 2 43.7821 73.5510 39.9706 0.0000 0.0000 0.0000
# 3 64.5966 39.9706 173.7012 0.0000 0.0000 0.0000
# 4 0.0000 0.0000 0.0000 19.8857 0.0000 0.0000
# 5 0.0000 0.0000 0.0000 0.0000 47.2545 0.0000
# 6 0.0000 0.0000 0.0000 0.0000 0.0000 32.0979
#
#
#
# Elastic Compliance Matrix: (Units=1/GPa)
#
#
# Indices 1 2 3 4 5 6 
#
# 1 0.008712 -0.003915 -0.002339 0.000000 0.000000 0.000000
# 2 -0.003915 0.017298 -0.002525 0.000000 0.000000 0.000000
# 3 -0.002339 -0.002525 0.007208 0.000000 0.000000 0.000000
# 4 0.000000 0.000000 0.000000 0.050287 0.000000 0.000000
# 5 0.000000 0.000000 0.000000 0.000000 0.021162 0.000000
# 6 0.000000 0.000000 0.000000 0.000000 0.000000 0.031155
#
#
# Mechanical properties :
#
#
# Convention : Reuss Voigt Hill
#
# Bulk Modulus (GPa) = 63.85236 77.30632 70.57934
# Shear Modulus (GPa) = 31.52614 36.56158 34.04386
#
# Velocity S-wave (km/s) = 3.72278 4.00908 3.86858
# Velocity P-wave (km/s) = 6.82266 7.44410 7.14014
#
# Compressibility (1/GPa) = 0.01566113
#
# Stress axis : x y z
#
# Youngs Moduli (GPa) = 114.78945 57.80921 138.73887
#
# Poissons Ratio (x) = 0.22630 0.32450
# Poissons Ratio (y) = 0.44936 0.35028
# Poissons Ratio (z) = 0.26848 0.14595
#
# Static dielectric constant tensor:
#      x y z
#    x 4.195880 0.000000 0.000000 
#    y 0.000000 3.739980 0.000000 
#    z 0.000000 0.000000 4.403360 
# 
# 
# High freq. dielectric constant tensor:
#      x y z
#    x 1.905750 0.000000 0.000000 
#    y 0.000000 1.873960 0.000000 
#    z 0.000000 0.000000 1.922290 
# 
# From -- ./inp_files/6538.got.cif
#   From: 2010.03.12/outbox.cif.g09.slc.cpg/sg45_4_cif.got.tgz:6538.got - 2010.04.14 02:50:11.
