data_PCOD8190323
_publ_section_title
;
Structure prediction by ZEFSAII (Michael W. Deem and Ramdas Pophale) SiO2 
 PCOD8190323
Probable space group: I M M 2
;
_chemical_formula_sum "Si O2"
_cell_formula_units_Z 56
_cell_length_a 10.038191
_cell_length_b 9.602289
_cell_length_c 36.006922
_cell_angle_alpha 90.000000
_cell_angle_beta 90.000000
_cell_angle_gamma 90.000000
_cell_volume 3470.693206
_symmetry_space_group_name_H-M "I M M 2"
_symmetry_group_IT_number 44
_symmetry_cell_setting 'orthorhombic'
loop_
_space_group_symop_operation_xyz
x,y,z
-x,-y,z
-x,y,z
x,-y,z
1/2+x,1/2+y,1/2+z
1/2-x,1/2-y,1/2+z
1/2-x,1/2+y,1/2+z
1/2+x,1/2-y,1/2+z
loop_
_atom_site_type_symbol
_atom_site_label
_atom_site_fract_x
_atom_site_fract_y
_atom_site_fract_z
Si Si1 0.850864 0.165720 0.439370
Si Si2 0.149085 0.665724 0.796154
Si Si3 0.158097 0.654467 0.081849
Si Si4 0.148757 0.334067 0.000107
Si Si5 0.351017 0.334278 0.856575
Si Si6 0.845769 0.163370 0.150233
Si Si7 0.350949 0.165404 0.213472
O O1 0.747709 0.229736 0.469150
O O2 0.809510 0.215269 0.397952
O O3 0.000000 0.218625 0.448705
O O4 0.847732 0.000000 0.441229
O O5 0.156693 0.500000 0.797059
O O6 0.250359 0.730967 0.826278
O O7 0.187023 0.719033 0.754790
O O8 0.000000 0.715016 0.806384
O O9 0.216599 0.500000 0.089939
O O10 0.207764 0.760762 0.113265
O O11 0.000000 0.646133 0.081646
O O12 0.202935 0.708620 0.041060
O O13 0.144277 0.500000 0.997783
O O14 0.000000 0.274419 0.992997
O O15 0.500000 0.281953 0.847228
O O16 0.346649 0.500000 0.854926
O O17 0.757917 0.221964 0.184368
O O18 0.000000 0.198576 0.158615
O O19 0.824771 0.000000 0.144042
O O20 0.500000 0.217224 0.202755
O O21 0.348570 0.000000 0.213389
#
# Coordination Sequence:
#
# PCOD8190323 Si02
#       7
#     8   8   8   8   8   8   8
#     4   8  13  20  28  40  61  86 110 140 177 209
#     4   8  13  20  29  41  58  83 115 145 170 202
#     4   8  14  25  39  54  74  98 121 149 187 222
#     4   8  13  21  33  46  59  82 116 144 167 205
#     4   8  13  19  26  38  58  84 111 139 173 208
#     4   9  16  25  39  58  74  91 122 158 184 212
#     4   8  14  24  35  47  67  94 119 145 182 222
#
# _framework density 16.135104999999999
#
# number of rings (size 3 to 8) (size 9 to 14) (size 15 to 20)
#    0.000    3.857    0.000    2.571    0.000    1.143 
#    0.000    6.429    0.000    1.286    0.000    0.000 
#    0.000    0.000    0.000    1.286    0.000   17.714 
#
# Total GULP energy -346908.037353 kJ/mol
# GULP energy per Si atom -12389.572763 kJ/mol
# Density = 1.609838 g / cm^3
# Si number density = 16.135105 Si / 1000 Ang^3
#
#
#
# Elastic Constant Matrix: (Units=GPa)
#
#
# Indices 1 2 3 4 5 6 
#
# 1 99.7025 14.2112 98.2507 0.0000 0.0000 0.0000
# 2 14.2112 11.6848 21.1441 0.0000 0.0000 0.0000
# 3 98.2507 21.1441 169.3216 0.0000 0.0000 0.0000
# 4 0.0000 0.0000 0.0000 13.0094 0.0000 0.0000
# 5 0.0000 0.0000 0.0000 0.0000 34.3382 0.0000
# 6 0.0000 0.0000 0.0000 0.0000 0.0000 4.6700
#
#
#
# Elastic Compliance Matrix: (Units=1/GPa)
#
#
# Indices 1 2 3 4 5 6 
#
# 1 0.023655 -0.005079 -0.013092 0.000000 0.000000 0.000000
# 2 -0.005079 0.111656 -0.010996 0.000000 0.000000 0.000000
# 3 -0.013092 -0.010996 0.014876 0.000000 0.000000 0.000000
# 4 0.000000 0.000000 0.000000 0.076867 0.000000 0.000000
# 5 0.000000 0.000000 0.000000 0.000000 0.029122 0.000000
# 6 0.000000 0.000000 0.000000 0.000000 0.000000 0.214133
#
#
# Mechanical properties :
#
#
# Convention : Reuss Voigt Hill
#
# Bulk Modulus (GPa) = 10.88693 60.88008 35.88351
# Shear Modulus (GPa) = 8.94037 20.21040 14.57538
#
# Velocity S-wave (km/s) = 2.35647 3.54301 3.00881
# Velocity P-wave (km/s) = 3.76377 7.38584 5.86159
#
# Compressibility (1/GPa) = 0.09185327
#
# Stress axis : x y z
#
# Youngs Moduli (GPa) = 42.27454 8.95604 67.22408
#
# Poissons Ratio (x) = 0.04549 0.88008
# Poissons Ratio (y) = 0.21473 0.73918
# Poissons Ratio (z) = 0.55345 0.09848
#
# Static dielectric constant tensor:
#      x y z
#    x 3.219230 0.000000 0.000000 
#    y 0.000000 2.402430 0.000000 
#    z 0.000000 0.000000 3.530840 
# 
# 
# High freq. dielectric constant tensor:
#      x y z
#    x 1.611320 0.000000 0.000000 
#    y 0.000000 1.536110 0.000000 
#    z 0.000000 0.000000 1.634400 
# 
# From -- ./inp_files/26410.got.cif
#   From: 2010.03.12/outbox.cif.g09.slc.cpg/sg44_14_cif.got.tgz:26410.got - 2010.04.14 02:36:11.
