data_PCOD8190112
_publ_section_title
;
Structure prediction by ZEFSAII (Michael W. Deem and Ramdas Pophale) SiO2 
 PCOD8190112
Probable space group: I M M 2
;
_chemical_formula_sum "Si O2"
_cell_formula_units_Z 58
_cell_length_a 24.801644
_cell_length_b 16.983175
_cell_length_c 6.812749
_cell_angle_alpha 90.000000
_cell_angle_beta 90.000000
_cell_angle_gamma 90.000000
_cell_volume 2869.602505
_symmetry_space_group_name_H-M "I M M 2"
_symmetry_group_IT_number 44
_symmetry_cell_setting 'orthorhombic'
loop_
_space_group_symop_operation_xyz
x,y,z
-x,-y,z
-x,y,z
x,-y,z
1/2+x,1/2+y,1/2+z
1/2-x,1/2-y,1/2+z
1/2-x,1/2+y,1/2+z
1/2+x,1/2-y,1/2+z
loop_
_atom_site_type_symbol
_atom_site_label
_atom_site_fract_x
_atom_site_fract_y
_atom_site_fract_z
Si Si1 0.061866 0.286221 0.437170
Si Si2 0.240806 0.591077 0.683990
Si Si3 0.000000 0.000000 0.157284
Si Si4 0.325233 0.326258 0.427061
Si Si5 0.437939 0.909556 0.610380
Si Si6 0.591575 0.624594 0.737519
Si Si7 0.865169 0.668660 0.791040
Si Si8 0.817380 0.913346 0.532112
O O1 0.077492 0.360918 0.304015
O O2 0.070467 0.208935 0.307691
O O3 0.099263 0.286079 0.628907
O O4 0.000000 0.290400 0.507529
O O5 0.249038 0.500000 0.620370
O O6 0.269471 0.649633 0.530487
O O7 0.177885 0.611826 0.686423
O O8 0.265647 0.606502 0.898934
O O9 0.956656 0.932544 0.194213
O O10 0.375460 0.367305 0.534355
O O11 0.333807 0.232243 0.426334
O O12 0.322247 0.350303 0.201521
O O13 0.500000 0.894924 0.552866
O O14 0.402899 0.884911 0.424456
O O15 0.426243 0.000000 0.660976
O O16 0.628892 0.587250 0.903404
O O17 0.811212 0.000000 0.626087
#
# Coordination Sequence:
#
# PCOD8190112 Si02
#       8
#     8   8   2   8   8   8   8   8
#     4  11  23  42  65  95 135 170 210 265 323 377
#     4  10  25  43  63  92 129 166 214 273 325 381
#     4  12  24  40  70  96 138 178 216 272 304 376
#     4  11  24  39  66  94 130 170 214 265 329 379
#     4  10  23  44  68  96 132 171 210 265 330 386
#     4  11  22  41  61  95 132 173 217 260 313 378
#     4  12  24  40  70  98 125 169 219 269 316 394
#     4  10  21  41  64  86 127 171 211 261 321 378
#
# _framework density 20.211857999999999
#
# number of rings (size 3 to 8) (size 9 to 14) (size 15 to 20)
#    0.000    1.241    4.138    1.241    3.862    2.207 
#    1.241    2.759    0.000    0.000    0.000    0.000 
#    0.000    0.000    0.000    0.000    0.000    0.000 
#
# Total GULP energy -359267.863067 kJ/mol
# GULP energy per Si atom -12388.547002 kJ/mol
# Density = 2.016585 g / cm^3
# Si number density = 20.211858 Si / 1000 Ang^3
#
#
#
# Elastic Constant Matrix: (Units=GPa)
#
#
# Indices 1 2 3 4 5 6 
#
# 1 109.8585 37.7826 34.3278 0.0000 0.0000 0.0000
# 2 37.7826 122.0286 33.8247 0.0000 0.0000 0.0000
# 3 34.3278 33.8247 72.9846 0.0000 0.0000 0.0000
# 4 0.0000 0.0000 0.0000 28.2794 0.0000 0.0000
# 5 0.0000 0.0000 0.0000 0.0000 21.3866 0.0000
# 6 0.0000 0.0000 0.0000 0.0000 0.0000 35.4252
#
#
#
# Elastic Compliance Matrix: (Units=1/GPa)
#
#
# Indices 1 2 3 4 5 6 
#
# 1 0.011209 -0.002305 -0.004204 0.000000 0.000000 0.000000
# 2 -0.002305 0.009877 -0.003493 0.000000 0.000000 0.000000
# 3 -0.004204 -0.003493 0.017298 0.000000 0.000000 0.000000
# 4 0.000000 0.000000 0.000000 0.035361 0.000000 0.000000
# 5 0.000000 0.000000 0.000000 0.000000 0.046758 0.000000
# 6 0.000000 0.000000 0.000000 0.000000 0.000000 0.028229
#
#
# Mechanical properties :
#
#
# Convention : Reuss Voigt Hill
#
# Bulk Modulus (GPa) = 54.40945 57.41575 55.91260
# Shear Modulus (GPa) = 28.59394 30.28068 29.43731
#
# Velocity S-wave (km/s) = 3.76535 3.87481 3.82047
# Velocity P-wave (km/s) = 6.77361 6.96330 6.86911
#
# Compressibility (1/GPa) = 0.01837916
#
# Stress axis : x y z
#
# Youngs Moduli (GPa) = 89.21395 101.24706 57.81165
#
# Poissons Ratio (x) = 0.23341 0.24302
# Poissons Ratio (y) = 0.20567 0.20194
# Poissons Ratio (z) = 0.37503 0.35367
#
# Static dielectric constant tensor:
#      x y z
#    x 4.239770 0.000000 0.000000 
#    y 0.000000 5.543050 0.000000 
#    z 0.000000 0.000000 3.474690 
# 
# 
# High freq. dielectric constant tensor:
#      x y z
#    x 1.804400 0.000000 0.000000 
#    y 0.000000 1.810500 0.000000 
#    z 0.000000 0.000000 1.770700 
# 
# From -- ./inp_files/3090.got.cif
#   From: 2010.03.12/outbox.cif.g09.slc.cpg/sg44_2_cif.got.tgz:3090.got - 2010.04.14 02:36:11.
