data_PCOD8190878
_publ_section_title
;
Structure prediction by ZEFSAII (Michael W. Deem and Ramdas Pophale) SiO2 
 PCOD8190878
Probable space group: I B A 2
;
_chemical_formula_sum "Si O2"
_cell_formula_units_Z 64
_cell_length_a 14.688740
_cell_length_b 9.157110
_cell_length_c 21.777304
_cell_angle_alpha 90.000000
_cell_angle_beta 90.000000
_cell_angle_gamma 90.000000
_cell_volume 2929.186936
_symmetry_space_group_name_H-M "I B A 2"
_symmetry_group_IT_number 45
_symmetry_cell_setting 'orthorhombic'
loop_
_space_group_symop_operation_xyz
x,y,z
-x,-y,z
-x,y,1/2+z
x,-y,1/2+z
1/2+x,1/2+y,1/2+z
1/2-x,1/2-y,1/2+z
1/2-x,1/2+y,z
1/2+x,1/2-y,z
loop_
_atom_site_type_symbol
_atom_site_label
_atom_site_fract_x
_atom_site_fract_y
_atom_site_fract_z
Si Si1 0.140954 0.241812 0.402060
Si Si2 0.588172 0.819043 0.766169
Si Si3 0.549866 0.862428 0.083463
Si Si4 0.980210 0.168560 0.482827
Si Si5 0.905840 0.357940 0.218211
Si Si6 0.735155 0.008072 0.082979
Si Si7 0.284904 0.720512 0.167867
Si Si8 0.296335 0.554266 0.953681
O O1 0.128945 0.284891 0.332011
O O2 0.208027 0.360683 0.431451
O O3 0.043456 0.257910 0.435519
O O4 0.177062 0.074440 0.406137
O O5 0.478487 0.787989 0.766413
O O6 0.636948 0.713821 0.718075
O O7 0.616230 0.981901 0.744413
O O8 0.533101 0.858688 0.156258
O O9 0.500000 0.000000 0.052905
O O10 0.657140 0.884831 0.071966
O O11 0.505780 0.721114 0.051384
O O12 0.873832 0.180189 0.463766
O O13 0.000000 0.000000 0.479060
O O14 0.812777 0.270256 0.204327
O O15 0.700645 0.154668 0.115780
O O16 0.800944 0.931404 0.132318
O O17 0.782664 0.034806 0.017798
#
# Coordination Sequence:
#
# PCOD8190878 Si02
#       8
#     8   8   8   8   8   8   8   8
#     4  11  26  46  66  98 136 187 235 285 343 415
#     4  11  23  46  68  95 140 184 238 284 341 420
#     4  11  20  40  68  99 133 170 225 281 346 417
#     4  10  25  44  65  99 142 177 224 283 349 412
#     4  10  23  43  68  99 137 180 228 285 350 416
#     4  11  23  39  68 101 146 167 227 285 356 413
#     4  11  22  41  69 106 134 182 223 291 349 420
#     4  11  25  44  69 100 140 183 229 293 348 415
#
# _framework density 21.849067000000002
#
# number of rings (size 3 to 8) (size 9 to 14) (size 15 to 20)
#    0.000    1.250    5.000    0.750   12.250    1.000 
#    4.500    3.125    0.000    0.000    0.000    0.000 
#    0.000    0.000    0.000    0.000    0.000    0.000 
#
# Total GULP energy -396553.873987 kJ/mol
# GULP energy per Si atom -12392.308562 kJ/mol
# Density = 2.179934 g / cm^3
# Si number density = 21.849067 Si / 1000 Ang^3
#
#
#
# Elastic Constant Matrix: (Units=GPa)
#
#
# Indices 1 2 3 4 5 6 
#
# 1 74.5677 4.7213 35.4663 0.0000 0.0000 0.0000
# 2 4.7213 41.6326 36.9961 0.0000 0.0000 0.0000
# 3 35.4663 36.9961 123.6876 0.0000 0.0000 0.0000
# 4 0.0000 0.0000 0.0000 37.3725 0.0000 0.0000
# 5 0.0000 0.0000 0.0000 0.0000 32.4182 0.0000
# 6 0.0000 0.0000 0.0000 0.0000 0.0000 37.7702
#
#
#
# Elastic Compliance Matrix: (Units=1/GPa)
#
#
# Indices 1 2 3 4 5 6 
#
# 1 0.015807 0.003044 -0.005443 0.000000 0.000000 0.000000
# 2 0.003044 0.033302 -0.010834 0.000000 0.000000 0.000000
# 3 -0.005443 -0.010834 0.012886 0.000000 0.000000 0.000000
# 4 0.000000 0.000000 0.000000 0.026758 0.000000 0.000000
# 5 0.000000 0.000000 0.000000 0.000000 0.030847 0.000000
# 6 0.000000 0.000000 0.000000 0.000000 0.000000 0.026476
#
#
# Mechanical properties :
#
#
# Convention : Reuss Voigt Hill
#
# Bulk Modulus (GPa) = 28.14559 43.80612 35.97586
# Shear Modulus (GPa) = 27.11747 32.35913 29.73830
#
# Velocity S-wave (km/s) = 3.52679 3.85259 3.69328
# Velocity P-wave (km/s) = 5.43085 6.31529 5.88969
#
# Compressibility (1/GPa) = 0.03552954
#
# Stress axis : x y z
#
# Youngs Moduli (GPa) = 63.26424 30.02852 77.60299
#
# Poissons Ratio (x) = -0.09142 0.42239
# Poissons Ratio (y) = -0.19260 0.84073
# Poissons Ratio (z) = 0.34435 0.32532
#
# Static dielectric constant tensor:
#      x y z
#    x 4.461290 0.000000 0.000000 
#    y 0.000000 3.790380 0.000000 
#    z 0.000000 0.000000 3.895920 
# 
# 
# High freq. dielectric constant tensor:
#      x y z
#    x 1.869620 0.000000 0.000000 
#    y 0.000000 1.842770 0.000000 
#    z 0.000000 0.000000 1.852520 
# 
# From -- ./inp_files/9778.got.cif
#   From: 2010.03.12/outbox.cif.g09.slc.cpg/sg45_5_cif.got.tgz:9778.got - 2010.04.14 02:50:11.
