data_PCOD8190643
_publ_section_title
;
Structure prediction by ZEFSAII (Michael W. Deem and Ramdas Pophale) SiO2 
 PCOD8190643
Probable space group: I B A 2
;
_chemical_formula_sum "Si O2"
_cell_formula_units_Z 60
_cell_length_a 22.526227
_cell_length_b 8.302580
_cell_length_c 14.183311
_cell_angle_alpha 90.000000
_cell_angle_beta 90.000000
_cell_angle_gamma 90.000000
_cell_volume 2652.645111
_symmetry_space_group_name_H-M "I B A 2"
_symmetry_group_IT_number 45
_symmetry_cell_setting 'orthorhombic'
loop_
_space_group_symop_operation_xyz
x,y,z
-x,-y,z
-x,y,1/2+z
x,-y,1/2+z
1/2+x,1/2+y,1/2+z
1/2-x,1/2-y,1/2+z
1/2-x,1/2+y,z
1/2+x,1/2-y,z
loop_
_atom_site_type_symbol
_atom_site_label
_atom_site_fract_x
_atom_site_fract_y
_atom_site_fract_z
Si Si1 0.570578 0.345148 0.625000
Si Si2 0.816679 0.964635 0.080449
Si Si3 0.295966 0.123681 0.500807
Si Si4 0.705540 0.225779 0.804918
Si Si5 0.860788 0.544752 0.652480
Si Si6 0.000000 0.000000 0.976564
Si Si7 0.833939 0.237619 0.759597
Si Si8 0.596868 0.535825 0.323701
O O1 0.623813 0.431914 0.567801
O O2 0.580999 0.155435 0.645791
O O3 0.516417 0.356846 0.550780
O O4 0.560732 0.432598 0.726094
O O5 0.813799 0.810977 0.012027
O O6 0.813972 0.904369 0.187860
O O7 0.765053 0.091199 0.056120
O O8 0.293763 0.091763 0.388834
O O9 0.343503 0.002162 0.546055
O O10 0.691171 0.146314 0.704041
O O11 0.771880 0.303008 0.803209
O O12 0.654904 0.353467 0.830198
O O13 0.871242 0.381329 0.711623
O O14 0.053074 0.066574 0.911242
O O15 0.879344 0.149561 0.831101
#
# Coordination Sequence:
#
# PCOD8190643 Si02
#       8
#     8   8   8   8   8   4   8   8
#     4  10  23  43  68  92 132 179 233 295 344 398
#     4  10  21  37  57  92 135 173 220 270 340 420
#     4  11  22  33  58  95 140 179 220 269 343 425
#     4  11  22  36  63  97 144 176 220 281 352 426
#     4  10  22  40  61  96 138 181 221 277 347 421
#     4  12  24  44  74  96 128 180 256 294 330 404
#     4  10  21  38  65  96 140 176 215 275 355 428
#     4  10  24  43  67 102 131 180 236 288 345 417
#
# _framework density 22.618932000000001
#
# number of rings (size 3 to 8) (size 9 to 14) (size 15 to 20)
#    0.000    1.600    1.333    2.800   13.067    1.067 
#    0.000    0.000    0.000   41.600    0.000    0.000 
#    0.000    0.000    0.000    0.000    0.000    0.000 
#
# Total GULP energy -371766.355742 kJ/mol
# GULP energy per Si atom -12392.211858 kJ/mol
# Density = 2.256745 g / cm^3
# Si number density = 22.618932 Si / 1000 Ang^3
#
#
#
# Elastic Constant Matrix: (Units=GPa)
#
#
# Indices 1 2 3 4 5 6 
#
# 1 90.3077 48.0340 52.1623 0.0000 0.0000 0.0000
# 2 48.0340 111.6374 40.6837 0.0000 0.0000 0.0000
# 3 52.1623 40.6837 120.3061 0.0000 0.0000 0.0000
# 4 0.0000 0.0000 0.0000 24.0631 0.0000 0.0000
# 5 0.0000 0.0000 0.0000 0.0000 39.3884 0.0000
# 6 0.0000 0.0000 0.0000 0.0000 0.0000 18.8280
#
#
#
# Elastic Compliance Matrix: (Units=1/GPa)
#
#
# Indices 1 2 3 4 5 6 
#
# 1 0.017167 -0.005331 -0.005640 0.000000 0.000000 0.000000
# 2 -0.005331 0.011872 -0.001703 0.000000 0.000000 0.000000
# 3 -0.005640 -0.001703 0.011334 0.000000 0.000000 0.000000
# 4 0.000000 0.000000 0.000000 0.041557 0.000000 0.000000
# 5 0.000000 0.000000 0.000000 0.000000 0.025388 0.000000
# 6 0.000000 0.000000 0.000000 0.000000 0.000000 0.053112
#
#
# Mechanical properties :
#
#
# Convention : Reuss Voigt Hill
#
# Bulk Modulus (GPa) = 66.56376 67.11236 66.83806
# Shear Modulus (GPa) = 26.20723 28.54732 27.37728
#
# Velocity S-wave (km/s) = 3.40758 3.55646 3.48281
# Velocity P-wave (km/s) = 6.70629 6.82641 6.76661
#
# Compressibility (1/GPa) = 0.01502319
#
# Stress axis : x y z
#
# Youngs Moduli (GPa) = 58.25289 84.23198 88.23210
#
# Poissons Ratio (x) = 0.44902 0.49766
# Poissons Ratio (y) = 0.31053 0.15030
# Poissons Ratio (z) = 0.32857 0.14348
#
# Static dielectric constant tensor:
#      x y z
#    x 3.833790 0.000000 0.000000 
#    y 0.000000 4.061270 0.000000 
#    z 0.000000 0.000000 4.328930 
# 
# 
# High freq. dielectric constant tensor:
#      x y z
#    x 1.858470 0.000000 0.000000 
#    y 0.000000 1.883230 0.000000 
#    z 0.000000 0.000000 1.905100 
# 
# From -- ./inp_files/7046.got.cif
#   From: 2010.03.12/outbox.cif.g09.slc.cpg/sg45_4_cif.got.tgz:7046.got - 2010.04.14 02:50:11.
