data_PCOD8190020
_publ_section_title
;
Structure prediction by ZEFSAII (Michael W. Deem and Ramdas Pophale) SiO2 
 PCOD8190020
Probable space group: I M M 2
;
_chemical_formula_sum "Si O2"
_cell_formula_units_Z 64
_cell_length_a 8.811852
_cell_length_b 14.439227
_cell_length_c 24.107074
_cell_angle_alpha 90.000000
_cell_angle_beta 90.000000
_cell_angle_gamma 90.000000
_cell_volume 3067.295655
_symmetry_space_group_name_H-M "I M M 2"
_symmetry_group_IT_number 44
_symmetry_cell_setting 'orthorhombic'
loop_
_space_group_symop_operation_xyz
x,y,z
-x,-y,z
-x,y,z
x,-y,z
1/2+x,1/2+y,1/2+z
1/2-x,1/2-y,1/2+z
1/2-x,1/2+y,1/2+z
1/2+x,1/2-y,1/2+z
loop_
_atom_site_type_symbol
_atom_site_label
_atom_site_fract_x
_atom_site_fract_y
_atom_site_fract_z
Si Si1 0.329039 0.390037 0.895900
Si Si2 0.176583 0.106710 0.743277
Si Si3 0.677876 0.892771 0.509220
Si Si4 0.820831 0.227068 0.187234
Si Si5 0.819760 0.603123 0.474671
Si Si6 0.675526 0.890358 0.283673
Si Si7 0.680238 0.764927 0.071836
Si Si8 0.331546 0.109799 0.853895
O O1 0.500000 0.350465 0.897879
O O2 0.329106 0.500000 0.893572
O O3 0.245804 0.351599 0.841089
O O4 0.241275 0.356150 0.950455
O O5 0.270501 0.167747 0.700032
O O6 0.216299 0.140351 0.805652
O O7 0.000000 0.122851 0.732897
O O8 0.223596 0.000000 0.734346
O O9 0.500000 0.874409 0.510913
O O10 0.759393 0.838102 0.558934
O O11 0.717844 0.000000 0.518085
O O12 0.762119 0.156150 0.233062
O O13 0.748873 0.197247 0.128895
O O14 0.000000 0.221307 0.183447
O O15 0.750871 0.500000 0.482804
O O16 0.757223 0.668258 0.523285
O O17 0.774398 0.646093 0.414178
O O18 0.000000 0.597475 0.477514
O O19 0.500000 0.861935 0.281707
O O20 0.697474 0.000000 0.278778
O O21 0.500000 0.764009 0.076013
O O22 0.500000 0.148385 0.839533
O O23 0.339565 0.000000 0.858984
#
# Coordination Sequence:
#
# PCOD8190020 Si02
#       8
#     8   8   8   8   8   8   8   8
#     4   9  17  32  57  89 121 151 187 232 284 344
#     4  10  21  38  60  86 116 149 187 234 287 341
#     4  10  21  38  59  83 115 155 195 237 288 344
#     4  12  26  42  59  81 113 152 197 243 287 346
#     4   8  16  33  58  86 114 145 180 219 268 329
#     4  10  21  39  63  89 118 152 190 236 290 345
#     4  11  23  39  59  83 112 147 193 244 289 338
#     4   8  14  29  55  85 115 146 181 221 271 335
#
# _framework density 20.865286000000001
#
# number of rings (size 3 to 8) (size 9 to 14) (size 15 to 20)
#    0.000    2.250    0.000    3.750    0.000    5.750 
#    0.000    6.250    0.000    2.625    0.000    0.000 
#    0.000    0.000    0.000    0.000    0.000    0.000 
#
# Total GULP energy -396837.347551 kJ/mol
# GULP energy per Si atom -12401.167111 kJ/mol
# Density = 2.081780 g / cm^3
# Si number density = 20.865286 Si / 1000 Ang^3
#
#
#
# Elastic Constant Matrix: (Units=GPa)
#
#
# Indices 1 2 3 4 5 6 
#
# 1 105.5511 15.8836 28.0752 0.0000 0.0000 0.0000
# 2 15.8836 29.4993 4.7972 0.0000 0.0000 0.0000
# 3 28.0752 4.7972 95.8636 0.0000 0.0000 0.0000
# 4 0.0000 0.0000 0.0000 30.8550 0.0000 0.0000
# 5 0.0000 0.0000 0.0000 0.0000 40.7402 0.0000
# 6 0.0000 0.0000 0.0000 0.0000 0.0000 23.4521
#
#
#
# Elastic Compliance Matrix: (Units=1/GPa)
#
#
# Indices 1 2 3 4 5 6 
#
# 1 0.011091 -0.005488 -0.002974 0.000000 0.000000 0.000000
# 2 -0.005488 0.036893 -0.000239 0.000000 0.000000 0.000000
# 3 -0.002974 -0.000239 0.011314 0.000000 0.000000 0.000000
# 4 0.000000 0.000000 0.000000 0.032410 0.000000 0.000000
# 5 0.000000 0.000000 0.000000 0.000000 0.024546 0.000000
# 6 0.000000 0.000000 0.000000 0.000000 0.000000 0.042640
#
#
# Mechanical properties :
#
#
# Convention : Reuss Voigt Hill
#
# Bulk Modulus (GPa) = 23.86804 36.49176 30.17990
# Shear Modulus (GPa) = 26.27973 31.15332 28.71652
#
# Velocity S-wave (km/s) = 3.55279 3.86822 3.71385
# Velocity P-wave (km/s) = 5.31918 6.12193 5.73462
#
# Compressibility (1/GPa) = 0.04189704
#
# Stress axis : x y z
#
# Youngs Moduli (GPa) = 90.16417 27.10536 88.38384
#
# Poissons Ratio (x) = 0.14876 0.26281
# Poissons Ratio (y) = 0.49484 0.02111
# Poissons Ratio (z) = 0.26810 0.00647
#
# Static dielectric constant tensor:
#      x y z
#    x 3.672550 0.000000 0.000000 
#    y 0.000000 3.739880 0.000000 
#    z 0.000000 0.000000 3.966100 
# 
# 
# High freq. dielectric constant tensor:
#      x y z
#    x 1.807540 0.000000 0.000000 
#    y 0.000000 1.813530 0.000000 
#    z 0.000000 0.000000 1.821420 
# 
# From -- ./inp_files/25083.got.cif
#   From: 2010.03.12/outbox.cif.g09.slc.cpg/sg44_13_cif.got.tgz:25083.got - 2010.04.14 02:36:11.
