data_PCOD8190101
_publ_section_title
;
Structure prediction by ZEFSAII (Michael W. Deem and Ramdas Pophale) SiO2 
 PCOD8190101
Probable space group: I M M 2
;
_chemical_formula_sum "Si O2"
_cell_formula_units_Z 64
_cell_length_a 30.416774
_cell_length_b 8.871173
_cell_length_c 11.883359
_cell_angle_alpha 90.000000
_cell_angle_beta 90.000000
_cell_angle_gamma 90.000000
_cell_volume 3206.516043
_symmetry_space_group_name_H-M "I M M 2"
_symmetry_group_IT_number 44
_symmetry_cell_setting 'orthorhombic'
loop_
_space_group_symop_operation_xyz
x,y,z
-x,-y,z
-x,y,z
x,-y,z
1/2+x,1/2+y,1/2+z
1/2-x,1/2-y,1/2+z
1/2-x,1/2+y,1/2+z
1/2+x,1/2-y,1/2+z
loop_
_atom_site_type_symbol
_atom_site_label
_atom_site_fract_x
_atom_site_fract_y
_atom_site_fract_z
Si Si1 0.875951 0.323447 0.607710
Si Si2 0.450648 0.327461 0.246821
Si Si3 0.571752 0.326193 0.496646
Si Si4 0.292983 0.172840 0.257722
Si Si5 0.450516 0.826632 0.722269
Si Si6 0.701739 0.827385 0.729299
Si Si7 0.874553 0.177888 0.365656
Si Si8 0.161372 0.329926 0.989488
O O1 0.876963 0.500000 0.582140
O O2 0.918567 0.283307 0.680917
O O3 0.832445 0.276724 0.675931
O O4 0.877364 0.234093 0.492294
O O5 0.500000 0.304533 0.200200
O O6 0.434976 0.500000 0.229594
O O7 0.451204 0.287081 0.378895
O O8 0.565236 0.500000 0.529360
O O9 0.550009 0.226073 0.593318
O O10 0.623122 0.291809 0.485457
O O11 0.251897 0.278841 0.237352
O O12 0.306525 0.197866 0.386029
O O13 0.279984 0.000000 0.234468
O O14 0.500000 0.805907 0.769598
O O15 0.416786 0.733229 0.796949
O O16 0.435647 0.000000 0.726894
O O17 0.670780 0.731228 0.810539
O O18 0.688931 0.802233 0.600960
O O19 0.697095 0.000000 0.766804
O O20 0.875244 0.000000 0.365187
O O21 0.141823 0.500000 0.985373
#
# Coordination Sequence:
#
# PCOD8190101 Si02
#       8
#     8   8   8   8   8   8   8   8
#     4  11  24  43  66  92 124 164 212 261 311 371
#     4  10  22  40  62  92 129 167 209 257 310 370
#     4  11  21  36  63  96 130 166 205 254 310 369
#     4  10  23  42  64  93 127 164 209 257 308 368
#     4  11  24  42  65  93 126 164 208 258 311 370
#     4  11  24  41  65  95 128 164 207 257 310 369
#     4  12  26  44  66  91 125 165 207 258 316 375
#     4  10  21  40  64  91 127 166 204 256 311 365
#
# _framework density 19.959358000000002
#
# number of rings (size 3 to 8) (size 9 to 14) (size 15 to 20)
#    0.000    1.250    2.500    3.000    1.750    4.750 
#    0.000    0.000    0.000    0.000    0.000    0.000 
#    0.000    0.000    0.000    0.000    0.000    0.000 
#
# Total GULP energy -396960.470002 kJ/mol
# GULP energy per Si atom -12405.014688 kJ/mol
# Density = 1.991393 g / cm^3
# Si number density = 19.959358 Si / 1000 Ang^3
#
#
#
# Elastic Constant Matrix: (Units=GPa)
#
#
# Indices 1 2 3 4 5 6 
#
# 1 120.8158 54.4656 31.6712 0.0000 0.0000 0.0000
# 2 54.4656 113.1064 48.1481 0.0000 0.0000 0.0000
# 3 31.6712 48.1481 79.0876 0.0000 0.0000 0.0000
# 4 0.0000 0.0000 0.0000 35.2930 0.0000 0.0000
# 5 0.0000 0.0000 0.0000 0.0000 22.1160 0.0000
# 6 0.0000 0.0000 0.0000 0.0000 0.0000 33.1606
#
#
#
# Elastic Compliance Matrix: (Units=1/GPa)
#
#
# Indices 1 2 3 4 5 6 
#
# 1 0.010711 -0.004498 -0.001551 0.000000 0.000000 0.000000
# 2 -0.004498 0.013822 -0.006614 0.000000 0.000000 0.000000
# 3 -0.001551 -0.006614 0.017292 0.000000 0.000000 0.000000
# 4 0.000000 0.000000 0.000000 0.028334 0.000000 0.000000
# 5 0.000000 0.000000 0.000000 0.000000 0.045216 0.000000
# 6 0.000000 0.000000 0.000000 0.000000 0.000000 0.030156
#
#
# Mechanical properties :
#
#
# Convention : Reuss Voigt Hill
#
# Bulk Modulus (GPa) = 60.60581 64.61993 62.61287
# Shear Modulus (GPa) = 28.35136 30.02889 29.19013
#
# Velocity S-wave (km/s) = 3.77298 3.88300 3.82839
# Velocity P-wave (km/s) = 7.02930 7.24911 7.14005
#
# Compressibility (1/GPa) = 0.01650007
#
# Stress axis : x y z
#
# Youngs Moduli (GPa) = 93.35928 72.34583 57.83019
#
# Poissons Ratio (x) = 0.32538 0.08971
# Poissons Ratio (y) = 0.41989 0.38249
# Poissons Ratio (z) = 0.14483 0.47849
#
# Static dielectric constant tensor:
#      x y z
#    x 3.632710 0.000000 0.000000 
#    y 0.000000 3.721360 0.000000 
#    z 0.000000 0.000000 3.756420 
# 
# 
# High freq. dielectric constant tensor:
#      x y z
#    x 1.787790 0.000000 0.000000 
#    y 0.000000 1.784600 0.000000 
#    z 0.000000 0.000000 1.786370 
# 
# From -- ./inp_files/11422.got.cif
#   From: 2010.03.12/outbox.cif.g09.slc.cpg/sg44_6_cif.got.tgz:11422.got - 2010.04.14 02:36:11.
