data_PCOD8190099
_publ_section_title
;
Structure prediction by ZEFSAII (Michael W. Deem and Ramdas Pophale) SiO2 
 PCOD8190099
Probable space group: I M M 2
;
_chemical_formula_sum "Si O2"
_cell_formula_units_Z 48
_cell_length_a 18.219871
_cell_length_b 8.610579
_cell_length_c 14.803918
_cell_angle_alpha 90.000000
_cell_angle_beta 90.000000
_cell_angle_gamma 90.000000
_cell_volume 2322.492522
_symmetry_space_group_name_H-M "I M M 2"
_symmetry_group_IT_number 44
_symmetry_cell_setting 'orthorhombic'
loop_
_space_group_symop_operation_xyz
x,y,z
-x,-y,z
-x,y,z
x,-y,z
1/2+x,1/2+y,1/2+z
1/2-x,1/2-y,1/2+z
1/2-x,1/2+y,1/2+z
1/2+x,1/2-y,1/2+z
loop_
_atom_site_type_symbol
_atom_site_label
_atom_site_fract_x
_atom_site_fract_y
_atom_site_fract_z
Si Si1 0.580987 0.823418 0.750000
Si Si2 0.155840 0.815157 0.661916
Si Si3 0.500000 0.675375 0.223808
Si Si4 0.764563 0.680625 0.500977
Si Si5 0.729715 0.319333 0.805188
Si Si6 0.000000 0.823322 0.936438
Si Si7 0.878654 0.676485 0.050182
O O1 0.500000 0.774657 0.786782
O O2 0.643684 0.713332 0.788982
O O3 0.576218 0.810825 0.642136
O O4 0.599161 0.000000 0.779235
O O5 0.075563 0.746633 0.688537
O O6 0.169754 0.749438 0.561423
O O7 0.217826 0.766380 0.734041
O O8 0.156534 0.000000 0.660032
O O9 0.500000 0.500000 0.188329
O O10 0.500000 0.681934 0.330295
O O11 0.778029 0.500000 0.484173
O O12 0.753109 0.766017 0.406293
O O13 0.691307 0.711428 0.558793
O O14 0.745294 0.500000 0.795118
O O15 0.071901 0.733616 0.968057
O O16 0.000000 0.000000 0.972978
O O17 0.852937 0.500000 0.031782
#
# Coordination Sequence:
#
# PCOD8190099 Si02
#       7
#     8   8   4   8   8   4   8
#     4  10  21  40  64  90 127 168 206 256 318 375
#     4  11  22  43  69  94 129 169 211 267 323 382
#     4   9  22  41  63  90 123 166 209 257 318 375
#     4  12  25  42  64  93 125 168 218 266 320 383
#     4  12  25  42  66  97 128 168 216 263 320 387
#     4  11  21  35  59  94 131 168 209 257 318 389
#     4  11  21  37  61  91 127 166 207 259 320 381
#
# _framework density 20.667449000000001
#
# number of rings (size 3 to 8) (size 9 to 14) (size 15 to 20)
#    0.000    1.000    2.500    5.250    0.000    2.333 
#    1.500    4.167    0.000    0.000    0.000    0.000 
#    0.000    0.000    0.000    0.000    0.000    0.000 
#
# Total GULP energy -297624.138168 kJ/mol
# GULP energy per Si atom -12401.005757 kJ/mol
# Density = 2.062041 g / cm^3
# Si number density = 20.667449 Si / 1000 Ang^3
#
#
#
# Elastic Constant Matrix: (Units=GPa)
#
#
# Indices 1 2 3 4 5 6 
#
# 1 122.5779 21.8641 18.2920 0.0000 0.0000 0.0000
# 2 21.8641 86.1169 16.5602 0.0000 0.0000 0.0000
# 3 18.2920 16.5602 64.2903 0.0000 0.0000 0.0000
# 4 0.0000 0.0000 0.0000 34.2842 0.0000 0.0000
# 5 0.0000 0.0000 0.0000 0.0000 24.6725 0.0000
# 6 0.0000 0.0000 0.0000 0.0000 0.0000 26.0546
#
#
#
# Elastic Compliance Matrix: (Units=1/GPa)
#
#
# Indices 1 2 3 4 5 6 
#
# 1 0.008789 -0.001842 -0.002026 0.000000 0.000000 0.000000
# 2 -0.001842 0.012603 -0.002722 0.000000 0.000000 0.000000
# 3 -0.002026 -0.002722 0.016832 0.000000 0.000000 0.000000
# 4 0.000000 0.000000 0.000000 0.029168 0.000000 0.000000
# 5 0.000000 0.000000 0.000000 0.000000 0.040531 0.000000
# 6 0.000000 0.000000 0.000000 0.000000 0.000000 0.038381
#
#
# Mechanical properties :
#
#
# Convention : Reuss Voigt Hill
#
# Bulk Modulus (GPa) = 39.93034 42.93531 41.43282
# Shear Modulus (GPa) = 29.79152 31.42017 30.60585
#
# Velocity S-wave (km/s) = 3.80079 3.90330 3.85238
# Velocity P-wave (km/s) = 6.21480 6.41356 6.31496
#
# Compressibility (1/GPa) = 0.02504361
#
# Stress axis : x y z
#
# Youngs Moduli (GPa) = 113.77908 79.34464 59.40996
#
# Poissons Ratio (x) = 0.14613 0.12038
# Poissons Ratio (y) = 0.20956 0.16174
# Poissons Ratio (z) = 0.23054 0.21601
#
# Static dielectric constant tensor:
#      x y z
#    x 4.098110 0.000000 0.000000 
#    y 0.000000 3.744630 0.000000 
#    z 0.000000 0.000000 3.670430 
# 
# 
# High freq. dielectric constant tensor:
#      x y z
#    x 1.819980 0.000000 0.000000 
#    y 0.000000 1.804590 0.000000 
#    z 0.000000 0.000000 1.804170 
# 
# From -- ./inp_files/18838.got.cif
#   From: 2010.03.12/outbox.cif.g09.slc.cpg/sg44_10_cif.got.tgz:18838.got - 2010.04.14 02:36:11.
