data_PCOD8190237
_publ_section_title
;
Structure prediction by ZEFSAII (Michael W. Deem and Ramdas Pophale) SiO2 
 PCOD8190237
Probable space group: I M M 2
;
_chemical_formula_sum "Si O2"
_cell_formula_units_Z 26
_cell_length_a 7.716264
_cell_length_b 16.771219
_cell_length_c 9.641513
_cell_angle_alpha 90.000000
_cell_angle_beta 90.000000
_cell_angle_gamma 90.000000
_cell_volume 1247.719318
_symmetry_space_group_name_H-M "I M M 2"
_symmetry_group_IT_number 44
_symmetry_cell_setting 'orthorhombic'
loop_
_space_group_symop_operation_xyz
x,y,z
-x,-y,z
-x,y,z
x,-y,z
1/2+x,1/2+y,1/2+z
1/2-x,1/2-y,1/2+z
1/2-x,1/2+y,1/2+z
1/2+x,1/2-y,1/2+z
loop_
_atom_site_type_symbol
_atom_site_label
_atom_site_fract_x
_atom_site_fract_y
_atom_site_fract_z
Si Si1 0.303828 0.197144 0.057080
Si Si2 0.500000 0.500000 0.188515
Si Si3 0.202094 0.162994 0.355640
Si Si4 0.000000 0.911850 0.953157
Si Si5 0.307779 0.000000 0.473616
O O1 0.500000 0.171998 0.018023
O O2 0.285168 0.205858 0.222270
O O3 0.174393 0.131132 0.999446
O O4 0.259227 0.282458 0.989327
O O5 0.500000 0.420747 0.285015
O O6 0.670753 0.500000 0.096670
O O7 0.287499 0.077127 0.376808
O O8 0.000000 0.150600 0.329137
O O9 0.000000 0.000000 0.022319
O O10 0.500000 0.000000 0.538848
#
# Coordination Sequence:
#
# PCOD8190237 Si02
#       5
#     8   2   8   4   4
#     4  11  26  43  70 103 138 182 229 283 341 413
#     4  10  26  46  70  96 150 170 226 288 338 418
#     4  11  25  45  71  99 142 182 229 285 346 403
#     4  10  26  45  70  98 141 180 218 293 339 411
#     4  12  26  43  71 102 135 188 229 282 343 415
#
# _framework density 20.838021000000001
#
# number of rings (size 3 to 8) (size 9 to 14) (size 15 to 20)
#    0.462    0.615    3.077    0.923   10.769    1.846 
#    0.000    0.000    0.000    0.000    0.000    0.000 
#    0.000    0.000    0.000    0.000    0.000    0.000 
#
# Total GULP energy -161236.168590 kJ/mol
# GULP energy per Si atom -12402.782199 kJ/mol
# Density = 2.079059 g / cm^3
# Si number density = 20.838021 Si / 1000 Ang^3
#
#
#
# Elastic Constant Matrix: (Units=GPa)
#
#
# Indices 1 2 3 4 5 6 
#
# 1 157.9995 65.4579 46.5471 -0.0002 0.0000 0.0001
# 2 65.4579 152.0111 63.0777 0.0007 -0.0001 -0.0002
# 3 46.5471 63.0777 148.0473 0.0003 0.0001 -0.0002
# 4 -0.0002 0.0007 0.0003 26.7113 0.0000 -0.0002
# 5 0.0000 -0.0001 0.0001 0.0000 30.4195 0.0000
# 6 0.0001 -0.0002 -0.0002 -0.0002 0.0000 27.2785
#
#
#
# Elastic Compliance Matrix: (Units=1/GPa)
#
#
# Indices 1 2 3 4 5 6 
#
# 1 0.007891 -0.002877 -0.001255 0.000000 0.000000 0.000000
# 2 -0.002877 0.009040 -0.002947 0.000000 0.000000 0.000000
# 3 -0.001255 -0.002947 0.008405 0.000000 0.000000 0.000000
# 4 0.000000 0.000000 0.000000 0.037437 0.000000 0.000000
# 5 0.000000 0.000000 0.000000 0.000000 0.032874 0.000000
# 6 0.000000 0.000000 0.000000 0.000000 0.000000 0.036659
#
#
# Mechanical properties :
#
#
# Convention : Reuss Voigt Hill
#
# Bulk Modulus (GPa) = 89.46698 89.80260 89.63479
# Shear Modulus (GPa) = 33.29106 35.74689 34.51898
#
# Velocity S-wave (km/s) = 4.00135 4.14631 4.07447
# Velocity P-wave (km/s) = 8.02343 8.13091 8.07735
#
# Compressibility (1/GPa) = 0.01117731
#
# Stress axis : x y z
#
# Youngs Moduli (GPa) = 126.72913 110.61551 118.97816
#
# Poissons Ratio (x) = 0.31825 0.14933
# Poissons Ratio (y) = 0.36461 0.35065
# Poissons Ratio (z) = 0.15906 0.32600
#
# Static dielectric constant tensor:
#      x y z
#    x 3.993330 0.000000 0.000000 
#    y 0.000000 3.762010 0.000000 
#    z 0.000000 0.000000 3.829240 
# 
# 
# High freq. dielectric constant tensor:
#      x y z
#    x 1.833120 0.000000 0.000000 
#    y 0.000000 1.816140 0.000000 
#    z 0.000000 0.000000 1.817810 
# 
# From -- ./inp_files/4076.got.cif
#   From: 2010.03.12/outbox.cif.g09.slc.cpg/sg44_3_cif.got.tgz:4076.got - 2010.04.14 02:36:11.
