data_PCOD8190447
_publ_section_title
;
Structure prediction by ZEFSAII (Michael W. Deem and Ramdas Pophale) SiO2 
 PCOD8190447
Probable space group: I B A 2
;
_chemical_formula_sum "Si O2"
_cell_formula_units_Z 60
_cell_length_a 11.063370
_cell_length_b 25.865088
_cell_length_c 9.155302
_cell_angle_alpha 90.000000
_cell_angle_beta 90.000000
_cell_angle_gamma 90.000000
_cell_volume 2619.835797
_symmetry_space_group_name_H-M "I B A 2"
_symmetry_group_IT_number 45
_symmetry_cell_setting 'orthorhombic'
loop_
_space_group_symop_operation_xyz
x,y,z
-x,-y,z
-x,y,1/2+z
x,-y,1/2+z
1/2+x,1/2+y,1/2+z
1/2-x,1/2-y,1/2+z
1/2-x,1/2+y,z
1/2+x,1/2-y,z
loop_
_atom_site_type_symbol
_atom_site_label
_atom_site_fract_x
_atom_site_fract_y
_atom_site_fract_z
Si Si1 0.912138 0.430388 0.169040
Si Si2 0.932295 0.206263 0.160052
Si Si3 0.500000 0.500000 0.020714
Si Si4 0.174458 0.978082 0.773932
Si Si5 0.644085 0.935436 0.837906
Si Si6 0.645012 0.181922 0.673820
Si Si7 0.283279 0.179095 0.863821
Si Si8 0.858031 0.208559 0.846214
O O1 0.791596 0.440983 0.266634
O O2 0.936640 0.368965 0.179175
O O3 0.033945 0.456010 0.235533
O O4 0.890188 0.449883 0.004652
O O5 0.939135 0.268460 0.153706
O O6 0.840129 0.185598 0.279312
O O7 0.060403 0.185414 0.216112
O O8 0.901205 0.185152 0.000207
O O9 0.593369 0.469852 0.127448
O O10 0.413788 0.465493 0.912752
O O11 0.230888 0.036155 0.790834
O O12 0.655309 0.874187 0.813895
O O13 0.739326 0.177420 0.538075
O O14 0.722072 0.188810 0.822143
O O15 0.368134 0.228967 0.835030
#
# Coordination Sequence:
#
# PCOD8190447 Si02
#       8
#     8   8   4   8   8   8   8   8
#     4  11  24  41  65  96 127 162 207 258 309 370
#     4  10  19  34  56  82 115 158 201 250 301 360
#     4  10  24  46  70  90 124 166 200 252 308 378
#     4  11  23  46  68  94 123 165 202 252 312 367
#     4  11  24  41  65  96 127 162 207 258 309 370
#     4   9  20  38  56  83 119 155 202 248 303 356
#     4   9  20  38  56  83 119 155 202 248 303 356
#     4  10  19  34  56  82 115 158 201 250 301 360
#
# _framework density 22.902200000000001
#
# number of rings (size 3 to 8) (size 9 to 14) (size 15 to 20)
#    0.000    1.867    1.333    2.000    1.867    3.200 
#    4.800    0.000    0.000    0.000    0.000    0.000 
#    0.000    0.000    0.000    0.000    0.000    0.000 
#
# Total GULP energy -371701.300785 kJ/mol
# GULP energy per Si atom -12390.043359 kJ/mol
# Density = 2.285007 g / cm^3
# Si number density = 22.902200 Si / 1000 Ang^3
#
#
#
# Elastic Constant Matrix: (Units=GPa)
#
#
# Indices 1 2 3 4 5 6 
#
# 1 96.5560 1.4842 33.6812 -0.0004 0.0001 0.0001
# 2 1.4842 41.5922 13.3769 0.0001 0.0003 0.0001
# 3 33.6812 13.3769 91.6136 0.0005 0.0001 0.0005
# 4 -0.0004 0.0001 0.0005 21.0479 0.0001 0.0000
# 5 0.0001 0.0003 0.0001 0.0001 50.3071 0.0000
# 6 0.0001 0.0001 0.0005 0.0000 0.0000 11.6429
#
#
#
# Elastic Compliance Matrix: (Units=1/GPa)
#
#
# Indices 1 2 3 4 5 6 
#
# 1 0.011922 0.001033 -0.004534 0.000000 0.000000 0.000000
# 2 0.001033 0.025317 -0.004076 0.000000 0.000000 0.000000
# 3 -0.004534 -0.004076 0.013178 0.000000 0.000000 -0.000001
# 4 0.000000 0.000000 0.000000 0.047511 0.000000 0.000000
# 5 0.000000 0.000000 0.000000 0.000000 0.019878 0.000000
# 6 0.000000 0.000000 -0.000001 0.000000 0.000000 0.085889
#
#
# Mechanical properties :
#
#
# Convention : Reuss Voigt Hill
#
# Bulk Modulus (GPa) = 28.35923 36.31627 32.33775
# Shear Modulus (GPa) = 21.68222 28.68089 25.18155
#
# Velocity S-wave (km/s) = 3.08024 3.54265 3.31951
# Velocity P-wave (km/s) = 5.00601 5.71186 5.37054
#
# Compressibility (1/GPa) = 0.03526189
#
# Stress axis : x y z
#
# Youngs Moduli (GPa) = 83.87584 39.49891 75.88690
#
# Poissons Ratio (x) = -0.04079 0.34407
# Poissons Ratio (y) = -0.08662 0.30934
# Poissons Ratio (z) = 0.38029 0.16101
#
# Static dielectric constant tensor:
#      x y z
#    x 3.968340 0.000000 0.000000 
#    y 0.000000 3.832520 0.000000 
#    z 0.000000 0.000000 4.290780 
# 
# 
# High freq. dielectric constant tensor:
#      x y z
#    x 1.902800 0.000000 0.000000 
#    y 0.000000 1.875850 0.000000 
#    z 0.000000 0.000000 1.912450 
# 
# From -- ./inp_files/1446.got.cif
#   From: 2010.03.12/outbox.cif.g09.slc.cpg/sg45_1_cif.got.tgz:1446.got - 2010.04.14 02:50:11.
