data_PCOD8190525
_publ_section_title
;
Structure prediction by ZEFSAII (Michael W. Deem and Ramdas Pophale) SiO2 
 PCOD8190525
Probable space group: I B A 2
;
_chemical_formula_sum "Si O2"
_cell_formula_units_Z 60
_cell_length_a 18.936263
_cell_length_b 12.520948
_cell_length_c 11.789297
_cell_angle_alpha 90.000000
_cell_angle_beta 90.000000
_cell_angle_gamma 90.000000
_cell_volume 2795.241898
_symmetry_space_group_name_H-M "I B A 2"
_symmetry_group_IT_number 45
_symmetry_cell_setting 'orthorhombic'
loop_
_space_group_symop_operation_xyz
x,y,z
-x,-y,z
-x,y,1/2+z
x,-y,1/2+z
1/2+x,1/2+y,1/2+z
1/2-x,1/2-y,1/2+z
1/2-x,1/2+y,z
1/2+x,1/2-y,z
loop_
_atom_site_type_symbol
_atom_site_label
_atom_site_fract_x
_atom_site_fract_y
_atom_site_fract_z
Si Si1 0.937652 0.826481 0.960430
Si Si2 0.131648 0.666728 0.747972
Si Si3 0.388175 0.848670 0.811872
Si Si4 0.004355 0.657298 0.118335
Si Si5 0.500000 0.500000 0.304682
Si Si6 0.389643 0.951553 0.465891
Si Si7 0.713822 0.022137 0.663715
Si Si8 0.129813 0.908232 0.670580
O O1 0.880182 0.753448 0.893643
O O2 0.986418 0.895539 0.878797
O O3 0.890602 0.901704 0.039094
O O4 0.991755 0.759417 0.038679
O O5 0.117591 0.649662 0.881636
O O6 0.198999 0.596329 0.712124
O O7 0.140701 0.791778 0.726256
O O8 0.070043 0.615758 0.668379
O O9 0.449856 0.811020 0.727592
O O10 0.318370 0.883789 0.743770
O O11 0.411638 0.945380 0.893390
O O12 0.045587 0.565456 0.051372
O O13 0.569615 0.476867 0.231506
O O14 0.316429 0.965720 0.535890
O O15 0.797419 0.028537 0.671324
#
# Coordination Sequence:
#
# PCOD8190525 Si02
#       8
#     8   8   8   8   4   8   8   8
#     4  11  23  41  63  90 123 163 210 266 317 375
#     4  10  22  40  62  90 128 166 206 258 310 369
#     4  10  22  37  62  95 128 167 207 254 315 372
#     4  10  20  36  61  95 129 161 206 258 311 375
#     4  12  26  46  68  90 118 160 214 266 324 382
#     4  10  20  36  61  95 129 167 206 253 315 371
#     4  10  24  40  60  93 130 166 209 258 313 378
#     4  11  25  45  65  90 122 161 210 261 313 379
#
# _framework density 21.465049
#
# number of rings (size 3 to 8) (size 9 to 14) (size 15 to 20)
#    0.000    1.600    0.000    5.200    0.000   16.000 
#    0.000    2.667    0.000    0.000    0.000    0.000 
#    0.000    0.000    0.000    0.000    0.000    0.000 
#
# Total GULP energy -371962.825510 kJ/mol
# GULP energy per Si atom -12398.760850 kJ/mol
# Density = 2.141619 g / cm^3
# Si number density = 21.465049 Si / 1000 Ang^3
#
#
#
# Elastic Constant Matrix: (Units=GPa)
#
#
# Indices 1 2 3 4 5 6 
#
# 1 151.5496 51.0889 52.9110 0.0000 0.0000 0.0000
# 2 51.0889 74.9562 42.8840 0.0000 0.0000 0.0000
# 3 52.9110 42.8840 128.6170 0.0000 0.0000 0.0000
# 4 0.0000 0.0000 0.0000 39.2789 0.0000 0.0000
# 5 0.0000 0.0000 0.0000 0.0000 15.1026 0.0000
# 6 0.0000 0.0000 0.0000 0.0000 0.0000 27.8486
#
#
#
# Elastic Compliance Matrix: (Units=1/GPa)
#
#
# Indices 1 2 3 4 5 6 
#
# 1 0.008982 -0.004952 -0.002044 0.000000 0.000000 0.000000
# 2 -0.004952 0.019217 -0.004370 0.000000 0.000000 0.000000
# 3 -0.002044 -0.004370 0.010073 0.000000 0.000000 0.000000
# 4 0.000000 0.000000 0.000000 0.025459 0.000000 0.000000
# 5 0.000000 0.000000 0.000000 0.000000 0.066214 0.000000
# 6 0.000000 0.000000 0.000000 0.000000 0.000000 0.035908
#
#
# Mechanical properties :
#
#
# Convention : Reuss Voigt Hill
#
# Bulk Modulus (GPa) = 64.35407 72.09895 68.22651
# Shear Modulus (GPa) = 25.80461 30.32862 28.06661
#
# Velocity S-wave (km/s) = 3.47099 3.76297 3.61993
# Velocity P-wave (km/s) = 6.79041 7.24858 7.02323
#
# Compressibility (1/GPa) = 0.01553903
#
# Stress axis : x y z
#
# Youngs Moduli (GPa) = 111.33986 52.03779 99.27760
#
# Poissons Ratio (x) = 0.25772 0.20288
# Poissons Ratio (y) = 0.55141 0.43384
# Poissons Ratio (z) = 0.22753 0.22740
#
# Static dielectric constant tensor:
#      x y z
#    x 3.649700 0.000000 0.000000 
#    y 0.000000 3.704260 0.000000 
#    z 0.000000 0.000000 4.348320 
# 
# 
# High freq. dielectric constant tensor:
#      x y z
#    x 1.821450 0.000000 0.000000 
#    y 0.000000 1.835730 0.000000 
#    z 0.000000 0.000000 1.867070 
# 
# From -- ./inp_files/4675.got.cif
#   From: 2010.03.12/outbox.cif.g09.slc.cpg/sg45_3_cif.got.tgz:4675.got - 2010.04.14 02:50:11.
