data_PCOD8190678
_publ_section_title
;
Structure prediction by ZEFSAII (Michael W. Deem and Ramdas Pophale) SiO2 
 PCOD8190678
Probable space group: I B A 2
;
_chemical_formula_sum "Si O2"
_cell_formula_units_Z 48
_cell_length_a 15.600645
_cell_length_b 4.919613
_cell_length_c 28.625992
_cell_angle_alpha 90.000000
_cell_angle_beta 90.000000
_cell_angle_gamma 90.000000
_cell_volume 2197.020152
_symmetry_space_group_name_H-M "I B A 2"
_symmetry_group_IT_number 45
_symmetry_cell_setting 'orthorhombic'
loop_
_space_group_symop_operation_xyz
x,y,z
-x,-y,z
-x,y,1/2+z
x,-y,1/2+z
1/2+x,1/2+y,1/2+z
1/2-x,1/2-y,1/2+z
1/2-x,1/2+y,z
1/2+x,1/2-y,z
loop_
_atom_site_type_symbol
_atom_site_label
_atom_site_fract_x
_atom_site_fract_y
_atom_site_fract_z
Si Si1 0.193121 0.797343 0.562450
Si Si2 0.695583 0.013405 0.310777
Si Si3 0.306879 0.297344 0.668709
Si Si4 0.556261 0.754256 0.744223
Si Si5 0.056261 0.254256 0.986936
Si Si6 0.804417 0.486595 0.420381
O O1 0.227344 0.496133 0.552245
O O2 0.160748 0.833604 0.615579
O O3 0.114771 0.861155 0.528473
O O4 0.726411 0.713954 0.295606
O O5 0.677508 1.000000 0.365579
O O6 0.608841 0.112912 0.286825
O O7 0.227344 0.496134 0.678914
O O8 0.385229 0.361156 0.702686
O O9 0.500000 0.500000 0.762798
O O10 0.500000 0.000000 0.723432
O O11 0.108841 0.387086 0.944334
O O12 0.000000 0.500000 0.007726
O O13 0.000000 0.000000 0.968361
O O14 0.773590 0.786049 0.435552
#
# Coordination Sequence:
#
# PCOD8190678 Si02
#       6
#     8   8   8   8   8   8
#     4  10  21  39  62  85 115 160 207 245 285 347
#     4  10  21  40  63  83 109 152 201 242 285 348
#     4  10  21  39  62  85 115 160 207 245 285 347
#     4  12  24  37  58  90 125 155 189 245 309 358
#     4  12  24  37  58  90 125 155 189 245 309 358
#     4  10  21  40  63  83 109 152 201 242 285 348
#
# _framework density 21.847773
#
# number of rings (size 3 to 8) (size 9 to 14) (size 15 to 20)
#    0.000    1.333    0.000    6.000    0.000    2.000 
#    0.000    1.667    0.000    0.000    0.000    0.000 
#    0.000    0.000    0.000    0.000    0.000    0.000 
#
# Total GULP energy -297681.606967 kJ/mol
# GULP energy per Si atom -12403.400290 kJ/mol
# Density = 2.179805 g / cm^3
# Si number density = 21.847773 Si / 1000 Ang^3
#
#
#
# Elastic Constant Matrix: (Units=GPa)
#
#
# Indices 1 2 3 4 5 6 
#
# 1 103.0793 29.8856 62.3993 0.0000 0.0000 0.0000
# 2 29.8856 101.6615 40.3724 0.0000 0.0000 0.0000
# 3 62.3993 40.3724 87.3277 0.0000 0.0000 0.0000
# 4 0.0000 0.0000 0.0000 29.3877 0.0000 0.0000
# 5 0.0000 0.0000 0.0000 0.0000 13.5938 0.0000
# 6 0.0000 0.0000 0.0000 0.0000 0.0000 40.9495
#
#
#
# Elastic Compliance Matrix: (Units=1/GPa)
#
#
# Indices 1 2 3 4 5 6 
#
# 1 0.017100 -0.000214 -0.012120 0.000000 0.000000 0.000000
# 2 -0.000214 0.012051 -0.005419 0.000000 0.000000 0.000000
# 3 -0.012120 -0.005419 0.022616 0.000000 0.000000 0.000000
# 4 0.000000 0.000000 0.000000 0.034028 0.000000 0.000000
# 5 0.000000 0.000000 0.000000 0.000000 0.073563 0.000000
# 6 0.000000 0.000000 0.000000 0.000000 0.000000 0.024420
#
#
# Mechanical properties :
#
#
# Convention : Reuss Voigt Hill
#
# Bulk Modulus (GPa) = 61.48903 61.93148 61.71025
# Shear Modulus (GPa) = 22.25143 27.41359 24.83251
#
# Velocity S-wave (km/s) = 3.19482 3.54609 3.37503
# Velocity P-wave (km/s) = 6.46642 6.72122 6.59505
#
# Compressibility (1/GPa) = 0.01626306
#
# Stress axis : x y z
#
# Youngs Moduli (GPa) = 58.47936 82.97849 44.21580
#
# Poissons Ratio (x) = 0.01774 0.53589
# Poissons Ratio (y) = 0.01250 0.23959
# Poissons Ratio (z) = 0.70876 0.44963
#
# Static dielectric constant tensor:
#      x y z
#    x 3.770070 0.000000 0.000000 
#    y 0.000000 4.183510 0.000000 
#    z 0.000000 0.000000 3.863760 
# 
# 
# High freq. dielectric constant tensor:
#      x y z
#    x 1.847190 0.000000 0.000000 
#    y 0.000000 1.881220 0.000000 
#    z 0.000000 0.000000 1.858130 
# 
# From -- ./inp_files/10059.got.cif
#   From: 2010.03.12/outbox.cif.g09.slc.cpg/sg45_6_cif.got.tgz:10059.got - 2010.04.14 02:50:11.
