data_PCOD8190765
_publ_section_title
;
Structure prediction by ZEFSAII (Michael W. Deem and Ramdas Pophale) SiO2 
 PCOD8190765
Probable space group: I B A 2
;
_chemical_formula_sum "Si O2"
_cell_formula_units_Z 60
_cell_length_a 28.455775
_cell_length_b 8.637132
_cell_length_c 12.130623
_cell_angle_alpha 90.000000
_cell_angle_beta 90.000000
_cell_angle_gamma 90.000000
_cell_volume 2981.419454
_symmetry_space_group_name_H-M "I B A 2"
_symmetry_group_IT_number 45
_symmetry_cell_setting 'orthorhombic'
loop_
_space_group_symop_operation_xyz
x,y,z
-x,-y,z
-x,y,1/2+z
x,-y,1/2+z
1/2+x,1/2+y,1/2+z
1/2-x,1/2-y,1/2+z
1/2-x,1/2+y,z
1/2+x,1/2-y,z
loop_
_atom_site_type_symbol
_atom_site_label
_atom_site_fract_x
_atom_site_fract_y
_atom_site_fract_z
Si Si1 0.742759 0.646361 0.248920
Si Si2 0.306104 0.921228 0.838687
Si Si3 0.681310 0.816001 0.576814
Si Si4 0.500000 0.500000 0.706645
Si Si5 0.606558 0.001178 0.203511
Si Si6 0.574931 0.297401 0.324459
Si Si7 0.150382 0.981248 0.691852
Si Si8 0.423663 0.298127 0.087894
O O1 0.729468 0.825406 0.260756
O O2 0.780173 0.588985 0.343731
O O3 0.771120 0.628141 0.135460
O O4 0.694892 0.550189 0.254131
O O5 0.358968 0.928622 0.794567
O O6 0.308248 0.827552 0.949800
O O7 0.637645 0.925866 0.606350
O O8 0.667560 0.640495 0.601414
O O9 0.471723 0.386357 0.787070
O O10 0.532096 0.398963 0.625611
O O11 0.574717 0.129810 0.264664
O O12 0.574138 0.869192 0.148203
O O13 0.619722 0.397292 0.285966
O O14 0.575636 0.276658 0.456153
O O15 0.123586 0.115822 0.626028
#
# Coordination Sequence:
#
# PCOD8190765 Si02
#       8
#     8   8   8   4   8   8   8   8
#     4  11  22  38  51  86 121 158 214 257 290 361
#     4  11  23  36  58  82 124 167 206 254 305 344
#     4  10  23  38  55  83 125 164 206 256 306 347
#     4  10  24  44  66 102 126 146 204 248 304 400
#     4  10  22  42  60  93 124 155 213 246 296 376
#     4  10  23  43  66  93 125 159 198 254 314 372
#     4  10  22  39  58  88 121 158 213 258 295 375
#     4  11  22  41  71  90 124 163 195 254 319 367
#
# _framework density 20.124642000000001
#
# number of rings (size 3 to 8) (size 9 to 14) (size 15 to 20)
#    0.000    1.600    2.667    1.200    3.733    0.533 
#    0.000    5.333    0.000    0.000    0.000    0.000 
#    0.000    0.000    0.000    0.000    0.000    0.000 
#
# Total GULP energy -371960.292415 kJ/mol
# GULP energy per Si atom -12398.676414 kJ/mol
# Density = 2.007884 g / cm^3
# Si number density = 20.124642 Si / 1000 Ang^3
#
#
#
# Elastic Constant Matrix: (Units=GPa)
#
#
# Indices 1 2 3 4 5 6 
#
# 1 100.5658 46.3808 45.6489 0.0000 0.0000 0.0000
# 2 46.3808 117.0731 50.6088 0.0000 0.0000 0.0000
# 3 45.6489 50.6088 114.0248 0.0000 0.0000 0.0000
# 4 0.0000 0.0000 0.0000 21.1024 0.0000 0.0000
# 5 0.0000 0.0000 0.0000 0.0000 16.6840 0.0000
# 6 0.0000 0.0000 0.0000 0.0000 0.0000 40.5756
#
#
#
# Elastic Compliance Matrix: (Units=1/GPa)
#
#
# Indices 1 2 3 4 5 6 
#
# 1 0.013319 -0.003677 -0.003700 0.000000 0.000000 0.000000
# 2 -0.003677 0.011585 -0.003670 0.000000 0.000000 0.000000
# 3 -0.003700 -0.003670 0.011880 0.000000 0.000000 0.000000
# 4 0.000000 0.000000 0.000000 0.047388 0.000000 0.000000
# 5 0.000000 0.000000 0.000000 0.000000 0.059937 0.000000
# 6 0.000000 0.000000 0.000000 0.000000 0.000000 0.024645
#
#
# Mechanical properties :
#
#
# Convention : Reuss Voigt Hill
#
# Bulk Modulus (GPa) = 68.07299 68.54897 68.31098
# Shear Modulus (GPa) = 25.54336 28.27409 26.90872
#
# Velocity S-wave (km/s) = 3.56653 3.75233 3.66061
# Velocity P-wave (km/s) = 7.13157 7.27389 7.20308
#
# Compressibility (1/GPa) = 0.01469012
#
# Stress axis : x y z
#
# Youngs Moduli (GPa) = 75.07950 86.32011 84.17428
#
# Poissons Ratio (x) = 0.31741 0.31146
# Poissons Ratio (y) = 0.27608 0.30889
# Poissons Ratio (z) = 0.27781 0.31677
#
# Static dielectric constant tensor:
#      x y z
#    x 3.651630 0.000000 0.000000 
#    y 0.000000 3.954590 0.000000 
#    z 0.000000 0.000000 3.394980 
# 
# 
# High freq. dielectric constant tensor:
#      x y z
#    x 1.785730 0.000000 0.000000 
#    y 0.000000 1.803040 0.000000 
#    z 0.000000 0.000000 1.773110 
# 
# From -- ./inp_files/3336.got.cif
#   From: 2010.03.12/outbox.cif.g09.slc.cpg/sg45_2_cif.got.tgz:3336.got - 2010.04.14 02:50:11.
