data_PCOD8190663
_publ_section_title
;
Structure prediction by ZEFSAII (Michael W. Deem and Ramdas Pophale) SiO2 
 PCOD8190663
Probable space group: I B A 2
;
_chemical_formula_sum "Si O2"
_cell_formula_units_Z 60
_cell_length_a 31.686454
_cell_length_b 5.452651
_cell_length_c 11.840042
_cell_angle_alpha 90.000000
_cell_angle_beta 90.000000
_cell_angle_gamma 90.000000
_cell_volume 2045.665330
_symmetry_space_group_name_H-M "I B A 2"
_symmetry_group_IT_number 45
_symmetry_cell_setting 'orthorhombic'
loop_
_space_group_symop_operation_xyz
x,y,z
-x,-y,z
-x,y,1/2+z
x,-y,1/2+z
1/2+x,1/2+y,1/2+z
1/2-x,1/2-y,1/2+z
1/2-x,1/2+y,z
1/2+x,1/2-y,z
loop_
_atom_site_type_symbol
_atom_site_label
_atom_site_fract_x
_atom_site_fract_y
_atom_site_fract_z
Si Si1 0.484777 0.751494 0.979750
Si Si2 0.130841 0.896688 0.230612
Si Si3 0.266926 0.327568 0.938624
Si Si4 0.886769 0.166406 0.492722
Si Si5 0.091635 0.401490 0.251318
Si Si6 0.858495 0.662304 0.475566
Si Si7 0.000000 0.500000 0.189696
Si Si8 0.769944 0.888936 0.698039
O O1 0.500000 0.500000 0.917716
O O2 0.435047 0.745902 0.998094
O O3 0.500000 0.000000 0.911775
O O4 0.506964 0.767897 0.103783
O O5 0.125706 0.914102 0.365631
O O6 0.110304 0.640344 0.188432
O O7 0.179891 0.883328 0.199361
O O8 0.106290 0.150716 0.183964
O O9 0.264111 0.609060 0.887164
O O10 0.254401 0.375163 0.068396
O O11 0.313418 0.217965 0.921767
O O12 0.858077 0.395580 0.537449
O O13 0.873727 0.900291 0.553308
O O14 0.107000 0.385227 0.379102
O O15 0.041531 0.444423 0.262451
O O16 0.747590 0.645091 0.753581
#
# Coordination Sequence:
#
# PCOD8190663 Si02
#       8
#     8   8   8   8   8   8   4   8
#     4  10  23  41  65  91 122 162 214 271 323 383
#     4  10  22  41  62  94 131 169 213 265 325 390
#     4  10  21  38  63  93 129 166 209 260 314 382
#     4  10  21  41  59  90 126 162 213 257 327 376
#     4  10  23  41  61  90 130 168 216 266 330 382
#     4  10  21  40  62  94 126 171 210 263 322 384
#     4  10  26  42  68  90 130 166 226 270 330 390
#     4  10  21  39  65  95 129 170 212 259 322 390
#
# _framework density 29.330307999999999
#
# number of rings (size 3 to 8) (size 9 to 14) (size 15 to 20)
#    0.400    1.600    0.000    2.400    1.867    2.133 
#   14.400   16.000    0.000    0.000    0.000    0.000 
#    0.000    0.000    0.000    0.000    0.000    0.000 
#
# Total GULP energy -371917.970367 kJ/mol
# GULP energy per Si atom -12397.265679 kJ/mol
# Density = 2.926355 g / cm^3
# Si number density = 29.330308 Si / 1000 Ang^3
#
#
#
# Elastic Constant Matrix: (Units=GPa)
#
#
# Indices 1 2 3 4 5 6 
#
# 1 204.3978 120.8379 27.1585 0.0000 0.0000 0.0000
# 2 120.8379 335.9807 84.1762 0.0000 0.0000 0.0000
# 3 27.1585 84.1762 107.6066 0.0000 0.0000 0.0000
# 4 0.0000 0.0000 0.0000 55.1399 0.0000 0.0000
# 5 0.0000 0.0000 0.0000 0.0000 45.7002 0.0000
# 6 0.0000 0.0000 0.0000 0.0000 0.0000 53.1661
#
#
#
# Elastic Compliance Matrix: (Units=1/GPa)
#
#
# Indices 1 2 3 4 5 6 
#
# 1 0.006218 -0.002292 0.000224 0.000000 0.000000 0.000000
# 2 -0.002292 0.004547 -0.002978 0.000000 0.000000 0.000000
# 3 0.000224 -0.002978 0.011566 0.000000 0.000000 0.000000
# 4 0.000000 0.000000 0.000000 0.018136 0.000000 0.000000
# 5 0.000000 0.000000 0.000000 0.000000 0.021882 0.000000
# 6 0.000000 0.000000 0.000000 0.000000 0.000000 0.018809
#
#
# Mechanical properties :
#
#
# Convention : Reuss Voigt Hill
#
# Bulk Modulus (GPa) = 81.71472 123.59225 102.65349
# Shear Modulus (GPa) = 52.44894 58.52208 55.48551
#
# Velocity S-wave (km/s) = 4.23332 4.47170 4.35414
# Velocity P-wave (km/s) = 7.19828 8.30006 7.76873
#
# Compressibility (1/GPa) = 0.01223770
#
# Stress axis : x y z
#
# Youngs Moduli (GPa) = 160.82530 219.92265 86.45691
#
# Poissons Ratio (x) = 0.50416 -0.01936
# Poissons Ratio (y) = 0.36868 0.25750
# Poissons Ratio (z) = -0.03602 0.65502
#
# Static dielectric constant tensor:
#      x y z
#    x 4.816590 0.000000 0.000000 
#    y 0.000000 7.119380 0.000000 
#    z 0.000000 0.000000 6.366310 
# 
# 
# High freq. dielectric constant tensor:
#      x y z
#    x 2.170210 0.000000 0.000000 
#    y 0.000000 2.245400 0.000000 
#    z 0.000000 0.000000 2.272550 
# 
# From -- ./inp_files/8546.got.cif
#   From: 2010.03.12/outbox.cif.g09.slc.cpg/sg45_5_cif.got.tgz:8546.got - 2010.04.14 02:50:11.
