data_PCOD8190150
_publ_section_title
;
Structure prediction by ZEFSAII (Michael W. Deem and Ramdas Pophale) SiO2 
 PCOD8190150
Probable space group: I M M 2
;
_chemical_formula_sum "Si O2"
_cell_formula_units_Z 48
_cell_length_a 8.907927
_cell_length_b 20.096642
_cell_length_c 14.387478
_cell_angle_alpha 90.000000
_cell_angle_beta 90.000000
_cell_angle_gamma 90.000000
_cell_volume 2575.637965
_symmetry_space_group_name_H-M "I M M 2"
_symmetry_group_IT_number 44
_symmetry_cell_setting 'orthorhombic'
loop_
_space_group_symop_operation_xyz
x,y,z
-x,-y,z
-x,y,z
x,-y,z
1/2+x,1/2+y,1/2+z
1/2-x,1/2-y,1/2+z
1/2-x,1/2+y,1/2+z
1/2+x,1/2-y,1/2+z
loop_
_atom_site_type_symbol
_atom_site_label
_atom_site_fract_x
_atom_site_fract_y
_atom_site_fract_z
Si Si1 0.676751 0.626457 0.040680
Si Si2 0.172224 0.575205 0.862544
Si Si3 0.172902 0.922778 0.742529
Si Si4 0.823644 0.317042 0.367654
Si Si5 0.176727 0.769203 0.044880
Si Si6 0.824393 0.811891 0.249915
O O1 0.500000 0.631926 0.028486
O O2 0.722971 0.593143 0.137627
O O3 0.744009 0.699208 0.031277
O O4 0.739921 0.580694 0.959188
O O5 0.189626 0.500000 0.825508
O O6 0.237125 0.623534 0.784171
O O7 0.000000 0.594010 0.880599
O O8 0.278355 0.882761 0.812104
O O9 0.000000 0.902059 0.757821
O O10 0.198214 0.000000 0.762842
O O11 0.735756 0.318420 0.465078
O O12 0.774920 0.252322 0.309035
O O13 0.000000 0.318117 0.386535
O O14 0.221474 0.800401 0.143470
O O15 0.000000 0.758760 0.036698
O O16 0.000000 0.825162 0.261324
#
# Coordination Sequence:
#
# PCOD8190150 Si02
#       6
#     8   8   8   8   8   8
#     4  11  21  35  59  89 121 155 191 238 292 347
#     4  11  24  39  58  87 121 157 196 239 292 350
#     4  10  22  39  59  86 120 159 199 238 289 349
#     4  11  22  38  60  89 119 151 196 243 290 346
#     4  11  22  38  60  88 119 152 195 243 288 343
#     4  10  22  39  60  86 117 153 196 241 289 346
#
# _framework density 18.63616
#
# number of rings (size 3 to 8) (size 9 to 14) (size 15 to 20)
#    0.000    1.333    3.333    2.500    0.000    5.000 
#    0.000    0.833    0.000    1.000    0.000    0.000 
#    0.000    0.000    0.000    0.000    0.000    0.000 
#
# Total GULP energy -297746.476752 kJ/mol
# GULP energy per Si atom -12406.103198 kJ/mol
# Density = 1.859374 g / cm^3
# Si number density = 18.636160 Si / 1000 Ang^3
#
#
#
# Elastic Constant Matrix: (Units=GPa)
#
#
# Indices 1 2 3 4 5 6 
#
# 1 53.4215 21.4504 39.8756 0.0000 0.0000 0.0000
# 2 21.4504 85.5614 37.8981 0.0001 0.0000 0.0000
# 3 39.8756 37.8981 124.9367 0.0002 0.0000 0.0000
# 4 0.0000 0.0001 0.0002 34.0413 0.0000 0.0000
# 5 0.0000 0.0000 0.0000 0.0000 30.6754 0.0000
# 6 0.0000 0.0000 0.0000 0.0000 0.0000 31.0810
#
#
#
# Elastic Compliance Matrix: (Units=1/GPa)
#
#
# Indices 1 2 3 4 5 6 
#
# 1 0.025308 -0.003196 -0.007108 0.000000 0.000000 0.000000
# 2 -0.003196 0.013905 -0.003198 0.000000 0.000000 0.000000
# 3 -0.007108 -0.003198 0.011243 0.000000 0.000000 0.000000
# 4 0.000000 0.000000 0.000000 0.029376 0.000000 0.000000
# 5 0.000000 0.000000 0.000000 0.000000 0.032599 0.000000
# 6 0.000000 0.000000 0.000000 0.000000 0.000000 0.032174
#
#
# Mechanical properties :
#
#
# Convention : Reuss Voigt Hill
#
# Bulk Modulus (GPa) = 42.64072 51.37420 47.00746
# Shear Modulus (GPa) = 27.86647 30.13925 29.00286
#
# Velocity S-wave (km/s) = 3.87109 4.02586 3.94924
# Velocity P-wave (km/s) = 6.55063 7.01690 6.78777
#
# Compressibility (1/GPa) = 0.02345176
#
# Stress axis : x y z
#
# Youngs Moduli (GPa) = 39.51299 71.91511 88.94682
#
# Poissons Ratio (x) = 0.22987 0.63223
# Poissons Ratio (y) = 0.12630 0.28443
# Poissons Ratio (z) = 0.28085 0.22997
#
# Static dielectric constant tensor:
#      x y z
#    x 3.490630 0.000000 0.000000 
#    y 0.000000 3.319770 0.000000 
#    z 0.000000 0.000000 3.563390 
# 
# 
# High freq. dielectric constant tensor:
#      x y z
#    x 1.732810 0.000000 0.000000 
#    y 0.000000 1.719240 0.000000 
#    z 0.000000 0.000000 1.728350 
# 
# From -- ./inp_files/16071.got.cif
#   From: 2010.03.12/outbox.cif.g09.slc.cpg/sg44_9_cif.got.tgz:16071.got - 2010.04.14 02:36:11.
