data_PCOD8190641
_publ_section_title
;
Structure prediction by ZEFSAII (Michael W. Deem and Ramdas Pophale) SiO2 
 PCOD8190641
Probable space group: I B A 2
;
_chemical_formula_sum "Si O2"
_cell_formula_units_Z 60
_cell_length_a 32.544041
_cell_length_b 5.335837
_cell_length_c 15.685550
_cell_angle_alpha 90.000000
_cell_angle_beta 90.000000
_cell_angle_gamma 90.000000
_cell_volume 2723.791022
_symmetry_space_group_name_H-M "I B A 2"
_symmetry_group_IT_number 45
_symmetry_cell_setting 'orthorhombic'
loop_
_space_group_symop_operation_xyz
x,y,z
-x,-y,z
-x,y,1/2+z
x,-y,1/2+z
1/2+x,1/2+y,1/2+z
1/2-x,1/2-y,1/2+z
1/2-x,1/2+y,z
1/2+x,1/2-y,z
loop_
_atom_site_type_symbol
_atom_site_label
_atom_site_fract_x
_atom_site_fract_y
_atom_site_fract_z
Si Si1 0.406221 0.114880 0.076470
Si Si2 0.729265 0.613571 0.547916
Si Si3 0.926508 0.254403 0.895936
Si Si4 0.228002 0.875245 0.346366
Si Si5 0.863387 0.020839 0.298284
Si Si6 0.939715 0.361442 0.252601
Si Si7 0.359896 0.625073 0.113554
Si Si8 0.500000 0.500000 0.831750
O O1 0.438685 0.063088 0.152434
O O2 0.389218 0.397377 0.084907
O O3 0.372586 0.894823 0.076647
O O4 0.427166 0.091016 0.983472
O O5 0.744332 0.880325 0.585247
O O6 0.732894 0.620416 0.446918
O O7 0.683659 0.555290 0.576032
O O8 0.881081 0.138747 0.878391
O O9 0.941288 0.399272 0.812095
O O10 0.962984 0.052991 0.898176
O O11 0.248817 0.129226 0.308601
O O12 0.179984 0.856290 0.322617
O O13 0.857848 0.845255 0.215669
O O14 0.896670 0.229524 0.275304
O O15 0.981650 0.209079 0.267867
#
# Coordination Sequence:
#
# PCOD8190641 Si02
#       8
#     8   8   8   8   8   8   8   4
#     4  11  25  41  70  99 132 177 224 277 331 404
#     4  10  21  37  56  86 129 172 218 278 336 393
#     4  11  23  43  71  97 136 176 225 274 343 403
#     4  10  23  37  58  93 129 172 225 275 333 393
#     4  10  23  40  66  93 134 175 229 281 335 404
#     4  10  23  45  66 101 135 174 224 276 340 400
#     4  11  23  42  62  97 130 173 233 278 336 399
#     4  10  24  44  68 102 136 176 216 280 334 412
#
# _framework density 22.028120999999999
#
# number of rings (size 3 to 8) (size 9 to 14) (size 15 to 20)
#    0.000    1.600    1.333    2.000    7.467    2.667 
#    0.000    2.667    0.000    0.000    0.000    0.000 
#    0.000    0.000    0.000    0.000    0.000    0.000 
#
# Total GULP energy -371874.803805 kJ/mol
# GULP energy per Si atom -12395.826794 kJ/mol
# Density = 2.197798 g / cm^3
# Si number density = 22.028121 Si / 1000 Ang^3
#
#
#
# Elastic Constant Matrix: (Units=GPa)
#
#
# Indices 1 2 3 4 5 6 
#
# 1 101.0287 28.3205 0.0022 0.0000 0.0000 0.0000
# 2 28.3205 93.3752 32.7841 0.0000 0.0000 0.0000
# 3 0.0022 32.7841 67.7179 0.0000 0.0000 0.0000
# 4 0.0000 0.0000 0.0000 17.0292 0.0000 0.0000
# 5 0.0000 0.0000 0.0000 0.0000 22.4433 0.0000
# 6 0.0000 0.0000 0.0000 0.0000 0.0000 12.0942
#
#
#
# Elastic Compliance Matrix: (Units=1/GPa)
#
#
# Indices 1 2 3 4 5 6 
#
# 1 0.011028 -0.004029 0.001950 0.000000 0.000000 0.000000
# 2 -0.004029 0.014375 -0.006959 0.000000 0.000000 0.000000
# 3 0.001950 -0.006959 0.018136 0.000000 0.000000 0.000000
# 4 0.000000 0.000000 0.000000 0.058723 0.000000 0.000000
# 5 0.000000 0.000000 0.000000 0.000000 0.044557 0.000000
# 6 0.000000 0.000000 0.000000 0.000000 0.000000 0.082684
#
#
# Mechanical properties :
#
#
# Convention : Reuss Voigt Hill
#
# Bulk Modulus (GPa) = 39.27359 42.70393 40.98876
# Shear Modulus (GPa) = 19.52617 23.71433 21.62025
#
# Velocity S-wave (km/s) = 2.98051 3.28464 3.13626
# Velocity P-wave (km/s) = 5.45088 5.81492 5.63584
#
# Compressibility (1/GPa) = 0.02546240
#
# Stress axis : x y z
#
# Youngs Moduli (GPa) = 90.68089 69.56524 55.13827
#
# Poissons Ratio (x) = 0.28031 -0.10754
# Poissons Ratio (y) = 0.36540 0.38372
# Poissons Ratio (z) = -0.17687 0.48412
#
# Static dielectric constant tensor:
#      x y z
#    x 3.957050 0.000000 0.000000 
#    y 0.000000 4.313970 0.000000 
#    z 0.000000 0.000000 4.031030 
# 
# 
# High freq. dielectric constant tensor:
#      x y z
#    x 1.866780 0.000000 0.000000 
#    y 0.000000 1.870650 0.000000 
#    z 0.000000 0.000000 1.861330 
# 
# From -- ./inp_files/8544.got.cif
#   From: 2010.03.12/outbox.cif.g09.slc.cpg/sg45_5_cif.got.tgz:8544.got - 2010.04.14 02:50:11.
