data_PCOD8190939
_publ_section_title
;
Structure prediction by ZEFSAII (Michael W. Deem and Ramdas Pophale) SiO2 
 PCOD8190939
Probable space group: I B A 2
;
_chemical_formula_sum "Si O2"
_cell_formula_units_Z 56
_cell_length_a 8.957303
_cell_length_b 20.319544
_cell_length_c 14.074411
_cell_angle_alpha 90.000000
_cell_angle_beta 90.000000
_cell_angle_gamma 90.000000
_cell_volume 2561.659795
_symmetry_space_group_name_H-M "I B A 2"
_symmetry_group_IT_number 45
_symmetry_cell_setting 'orthorhombic'
loop_
_space_group_symop_operation_xyz
x,y,z
-x,-y,z
-x,y,1/2+z
x,-y,1/2+z
1/2+x,1/2+y,1/2+z
1/2-x,1/2-y,1/2+z
1/2-x,1/2+y,z
1/2+x,1/2-y,z
loop_
_atom_site_type_symbol
_atom_site_label
_atom_site_fract_x
_atom_site_fract_y
_atom_site_fract_z
Si Si1 0.264460 0.280820 0.272660
Si Si2 0.556211 0.839480 0.254907
Si Si3 0.160010 0.026867 0.520348
Si Si4 0.374780 0.326147 0.083200
Si Si5 0.308693 0.710667 0.995467
Si Si6 0.579117 0.059790 0.908193
Si Si7 0.866062 0.412424 0.074599
O O1 0.294746 0.204389 0.248189
O O2 0.369220 0.319346 0.197563
O O3 0.314294 0.294986 0.380708
O O4 0.092306 0.295410 0.249372
O O5 0.556576 0.871550 0.357943
O O6 0.564943 0.896940 0.177430
O O7 0.149942 0.096355 0.572647
O O8 0.248222 0.039866 0.421988
O O9 0.242922 0.970511 0.582948
O O10 0.000000 0.000000 0.490518
O O11 0.528257 0.301059 0.038079
O O12 0.246315 0.282542 0.031123
O O13 0.199825 0.654210 0.031499
O O14 0.500000 0.000000 0.850803
O O15 0.504530 0.064413 0.011943
#
# Coordination Sequence:
#
# PCOD8190939 Si02
#       7
#     8   8   8   8   8   8   8
#     4  12  26  42  73 107 147 188 245 299 363 435
#     4  12  25  44  71 108 141 187 244 294 364 430
#     4  11  24  47  71 103 145 192 237 304 364 428
#     4  12  26  45  74 103 148 186 240 298 366 426
#     4  12  25  46  74 105 144 191 238 303 362 430
#     4  10  24  45  70 100 137 188 242 291 360 434
#     4  11  24  48  71 100 143 188 237 297 359 433
#
# _framework density 21.860825999999999
#
# number of rings (size 3 to 8) (size 9 to 14) (size 15 to 20)
#    0.000    0.571    4.286    3.429    2.000    2.857 
#    0.000    0.714    0.000    0.000    0.000    0.000 
#    0.000    0.000    0.000    0.000    0.000    0.000 
#
# Total GULP energy -347108.369505 kJ/mol
# GULP energy per Si atom -12396.727482 kJ/mol
# Density = 2.181107 g / cm^3
# Si number density = 21.860826 Si / 1000 Ang^3
#
#
#
# Elastic Constant Matrix: (Units=GPa)
#
#
# Indices 1 2 3 4 5 6 
#
# 1 146.2608 62.9663 54.6042 0.0000 0.0000 0.0000
# 2 62.9663 142.8376 39.5526 -0.0001 0.0000 0.0000
# 3 54.6042 39.5526 121.2658 0.0000 0.0000 0.0000
# 4 0.0000 -0.0001 0.0000 32.7497 0.0000 0.0000
# 5 0.0000 0.0000 0.0000 0.0000 25.1946 0.0000
# 6 0.0000 0.0000 0.0000 0.0000 0.0000 41.4586
#
#
#
# Elastic Compliance Matrix: (Units=1/GPa)
#
#
# Indices 1 2 3 4 5 6 
#
# 1 0.009436 -0.003279 -0.003179 0.000000 0.000000 0.000000
# 2 -0.003279 0.008836 -0.001405 0.000000 0.000000 0.000000
# 3 -0.003179 -0.001405 0.010136 0.000000 0.000000 0.000000
# 4 0.000000 0.000000 0.000000 0.030535 0.000000 0.000000
# 5 0.000000 0.000000 0.000000 0.000000 0.039691 0.000000
# 6 0.000000 0.000000 0.000000 0.000000 0.000000 0.024120
#
#
# Mechanical properties :
#
#
# Convention : Reuss Voigt Hill
#
# Bulk Modulus (GPa) = 78.86283 80.51224 79.68754
# Shear Modulus (GPa) = 35.03663 36.76333 35.89998
#
# Velocity S-wave (km/s) = 4.00773 4.10530 4.05681
# Velocity P-wave (km/s) = 7.58743 7.70589 7.64689
#
# Compressibility (1/GPa) = 0.01268024
#
# Stress axis : x y z
#
# Youngs Moduli (GPa) = 105.98041 113.17815 98.65564
#
# Poissons Ratio (x) = 0.37113 0.31365
# Poissons Ratio (y) = 0.34753 0.13864
# Poissons Ratio (z) = 0.33693 0.15905
#
# Static dielectric constant tensor:
#      x y z
#    x 4.142230 0.000000 0.000000 
#    y 0.000000 4.281950 0.000000 
#    z 0.000000 0.000000 3.970840 
# 
# 
# High freq. dielectric constant tensor:
#      x y z
#    x 1.866840 0.000000 0.000000 
#    y 0.000000 1.880470 0.000000 
#    z 0.000000 0.000000 1.849860 
# 
# From -- ./inp_files/5731.got.cif
#   From: 2010.03.12/outbox.cif.g09.slc.cpg/sg45_3_cif.got.tgz:5731.got - 2010.04.14 02:50:11.
