data_PCOD8190132
_publ_section_title
;
Structure prediction by ZEFSAII (Michael W. Deem and Ramdas Pophale) SiO2 
 PCOD8190132
Probable space group: I M M 2
;
_chemical_formula_sum "Si O2"
_cell_formula_units_Z 40
_cell_length_a 25.887067
_cell_length_b 8.742173
_cell_length_c 9.140234
_cell_angle_alpha 90.000000
_cell_angle_beta 90.000000
_cell_angle_gamma 90.000000
_cell_volume 2068.519210
_symmetry_space_group_name_H-M "I M M 2"
_symmetry_group_IT_number 44
_symmetry_cell_setting 'orthorhombic'
loop_
_space_group_symop_operation_xyz
x,y,z
-x,-y,z
-x,y,z
x,-y,z
1/2+x,1/2+y,1/2+z
1/2-x,1/2-y,1/2+z
1/2-x,1/2+y,1/2+z
1/2+x,1/2-y,1/2+z
loop_
_atom_site_type_symbol
_atom_site_label
_atom_site_fract_x
_atom_site_fract_y
_atom_site_fract_z
Si Si1 0.000000 0.666919 0.830271
Si Si2 0.790889 0.322360 0.671075
Si Si3 0.803259 0.677009 0.332358
Si Si4 0.000000 0.668902 0.177010
Si Si5 0.389985 0.181845 0.353175
Si Si6 0.894475 0.820566 0.166019
O O1 0.054704 0.748748 0.790159
O O2 0.000000 0.500000 0.755589
O O3 0.000000 0.653452 0.004244
O O4 0.779002 0.500000 0.703453
O O5 0.792085 0.286837 0.500460
O O6 0.747101 0.217954 0.740139
O O7 0.845604 0.272971 0.740092
O O8 0.816992 0.500000 0.307255
O O9 0.851257 0.779525 0.284147
O O10 0.051224 0.757930 0.227404
O O11 0.000000 0.500000 0.249179
O O12 0.377099 0.250677 0.511023
O O13 0.395484 0.000000 0.372840
O O14 0.898967 0.000000 0.146497
#
# Coordination Sequence:
#
# PCOD8190132 Si02
#       6
#     4   8   8   4   8   8
#     4   7  12  25  50  79 104 136 174 210 252 307
#     4  10  22  38  56  80 107 140 185 231 275 327
#     4  11  23  38  55  77 107 143 182 226 278 331
#     4   9  17  33  56  81 110 146 184 220 264 315
#     4   9  17  33  56  81 111 145 182 224 270 319
#     4  11  21  34  55  84 114 144 181 223 268 320
#
# _framework density 19.337506000000001
#
# number of rings (size 3 to 8) (size 9 to 14) (size 15 to 20)
#    0.000    2.200    0.000    5.100    0.000    5.600 
#    0.000    1.000    0.000    3.600    0.000    2.800 
#    0.000    0.000    0.000    0.000    0.000    0.000 
#
# Total GULP energy -247947.967796 kJ/mol
# GULP energy per Si atom -12397.398390 kJ/mol
# Density = 1.929349 g / cm^3
# Si number density = 19.337506 Si / 1000 Ang^3
#
#
#
# Elastic Constant Matrix: (Units=GPa)
#
#
# Indices 1 2 3 4 5 6 
#
# 1 155.0686 40.5342 49.2174 0.0000 0.0000 0.0000
# 2 40.5342 73.2691 29.2194 0.0000 0.0000 0.0000
# 3 49.2174 29.2194 78.2399 0.0000 0.0000 0.0000
# 4 0.0000 0.0000 0.0000 21.1149 0.0000 0.0000
# 5 0.0000 0.0000 0.0000 0.0000 29.7118 0.0000
# 6 0.0000 0.0000 0.0000 0.0000 0.0000 32.6689
#
#
#
# Elastic Compliance Matrix: (Units=1/GPa)
#
#
# Indices 1 2 3 4 5 6 
#
# 1 0.008603 -0.003056 -0.004270 0.000000 0.000000 0.000000
# 2 -0.003056 0.017123 -0.004472 0.000000 0.000000 0.000000
# 3 -0.004270 -0.004472 0.017138 0.000000 0.000000 0.000000
# 4 0.000000 0.000000 0.000000 0.047360 0.000000 0.000000
# 5 0.000000 0.000000 0.000000 0.000000 0.033657 0.000000
# 6 0.000000 0.000000 0.000000 0.000000 0.000000 0.030610
#
#
# Mechanical properties :
#
#
# Convention : Reuss Voigt Hill
#
# Bulk Modulus (GPa) = 51.90539 60.50217 56.20378
# Shear Modulus (GPa) = 27.09890 29.20622 28.15256
#
# Velocity S-wave (km/s) = 3.74754 3.89053 3.81970
# Velocity P-wave (km/s) = 6.75467 7.17893 6.97003
#
# Compressibility (1/GPa) = 0.01926582
#
# Stress axis : x y z
#
# Youngs Moduli (GPa) = 116.23757 58.40236 58.35123
#
# Poissons Ratio (x) = 0.17850 0.24918
# Poissons Ratio (y) = 0.35527 0.26094
# Poissons Ratio (z) = 0.49638 0.26117
#
# Static dielectric constant tensor:
#      x y z
#    x 4.092860 0.000000 0.000000 
#    y 0.000000 3.432740 0.000000 
#    z 0.000000 0.000000 3.256250 
# 
# 
# High freq. dielectric constant tensor:
#      x y z
#    x 1.778360 0.000000 0.000000 
#    y 0.000000 1.740000 0.000000 
#    z 0.000000 0.000000 1.724020 
# 
# From -- ./inp_files/9624.got.cif
#   From: 2010.03.12/outbox.cif.g09.slc.cpg/sg44_5_cif.got.tgz:9624.got - 2010.04.14 02:36:11.
