data_PCOD8190363
_publ_section_title
;
Structure prediction by ZEFSAII (Michael W. Deem and Ramdas Pophale) SiO2 
 PCOD8190363
Probable space group: I B A 2
;
_chemical_formula_sum "Si O2"
_cell_formula_units_Z 60
_cell_length_a 13.940022
_cell_length_b 12.355577
_cell_length_c 16.697431
_cell_angle_alpha 90.000000
_cell_angle_beta 90.000000
_cell_angle_gamma 90.000000
_cell_volume 2875.915677
_symmetry_space_group_name_H-M "I B A 2"
_symmetry_group_IT_number 45
_symmetry_cell_setting 'orthorhombic'
loop_
_space_group_symop_operation_xyz
x,y,z
-x,-y,z
-x,y,1/2+z
x,-y,1/2+z
1/2+x,1/2+y,1/2+z
1/2-x,1/2-y,1/2+z
1/2-x,1/2+y,z
1/2+x,1/2-y,z
loop_
_atom_site_type_symbol
_atom_site_label
_atom_site_fract_x
_atom_site_fract_y
_atom_site_fract_z
Si Si1 0.500000 0.000000 0.437460
Si Si2 0.231872 0.547826 0.257309
Si Si3 0.903111 0.061431 0.185185
Si Si4 0.888349 0.637990 0.310474
Si Si5 0.800542 0.172981 0.902230
Si Si6 0.894251 0.702354 0.965854
Si Si7 0.084025 0.725205 0.276632
Si Si8 0.032205 0.119548 0.515504
O O1 0.424349 0.936158 0.383240
O O2 0.556801 0.912072 0.491941
O O3 0.318043 0.527716 0.193715
O O4 0.171276 0.438069 0.251795
O O5 0.273031 0.569466 0.347305
O O6 0.161219 0.646447 0.233393
O O7 0.891214 0.154096 0.250803
O O8 0.908595 0.117716 0.098161
O O9 0.000000 0.000000 0.203768
O O10 0.813138 0.726772 0.341983
O O11 0.974486 0.689873 0.257232
O O12 0.721489 0.195937 0.972327
O O13 0.902043 0.159045 0.943814
O O14 0.910800 0.719810 0.871868
O O15 0.940128 0.799477 0.018502
O O16 0.000000 0.000000 0.493588
#
# Coordination Sequence:
#
# PCOD8190363 Si02
#       8
#     4   8   8   8   8   8   8   8
#     4  10  16  36  60  90 134 150 204 288 316 354
#     4  11  21  38  65  99 122 163 222 267 318 393
#     4  11  26  44  58  90 135 173 207 265 328 392
#     4  11  18  36  64  98 125 149 215 282 317 374
#     4  11  22  35  67 100 118 173 218 267 326 388
#     4  10  21  39  66  96 124 168 221 268 318 389
#     4  10  20  39  66  93 121 167 213 266 326 380
#     4  11  26  44  59  93 137 170 208 266 330 395
#
# _framework density 20.862919000000002
#
# number of rings (size 3 to 8) (size 9 to 14) (size 15 to 20)
#    0.000    1.333    6.667    2.400    3.733    0.000 
#    7.200    0.000    0.000    0.000    0.000    0.000 
#    0.000    0.000    0.000    0.000    0.000    0.000 
#
# Total GULP energy -371879.496929 kJ/mol
# GULP energy per Si atom -12395.983231 kJ/mol
# Density = 2.081543 g / cm^3
# Si number density = 20.862919 Si / 1000 Ang^3
#
#
#
# Elastic Constant Matrix: (Units=GPa)
#
#
# Indices 1 2 3 4 5 6 
#
# 1 101.1943 30.9091 9.8147 0.0000 0.0000 0.0000
# 2 30.9091 111.9404 16.0937 0.0000 0.0000 0.0000
# 3 9.8147 16.0937 35.3865 0.0000 0.0000 0.0000
# 4 0.0000 0.0000 0.0000 18.6377 0.0000 0.0000
# 5 0.0000 0.0000 0.0000 0.0000 23.9013 0.0000
# 6 0.0000 0.0000 0.0000 0.0000 0.0000 43.6947
#
#
#
# Elastic Compliance Matrix: (Units=1/GPa)
#
#
# Indices 1 2 3 4 5 6 
#
# 1 0.010895 -0.002754 -0.001769 0.000000 0.000000 0.000000
# 2 -0.002754 0.010254 -0.003900 0.000000 0.000000 0.000000
# 3 -0.001769 -0.003900 0.030524 0.000000 0.000000 0.000000
# 4 0.000000 0.000000 0.000000 0.053655 0.000000 0.000000
# 5 0.000000 0.000000 0.000000 0.000000 0.041839 0.000000
# 6 0.000000 0.000000 0.000000 0.000000 0.000000 0.022886
#
#
# Mechanical properties :
#
#
# Convention : Reuss Voigt Hill
#
# Bulk Modulus (GPa) = 28.71355 40.23960 34.47657
# Shear Modulus (GPa) = 25.18796 30.02696 27.60746
#
# Velocity S-wave (km/s) = 3.47840 3.79786 3.64164
# Velocity P-wave (km/s) = 5.47039 6.20976 5.85177
#
# Compressibility (1/GPa) = 0.03482677
#
# Stress axis : x y z
#
# Youngs Moduli (GPa) = 91.78738 97.51892 32.76142
#
# Poissons Ratio (x) = 0.26856 0.05796
# Poissons Ratio (y) = 0.25277 0.12777
# Poissons Ratio (z) = 0.16240 0.38031
#
# Static dielectric constant tensor:
#      x y z
#    x 4.409820 0.000000 0.000000 
#    y 0.000000 4.119470 0.000000 
#    z 0.000000 0.000000 3.226510 
# 
# 
# High freq. dielectric constant tensor:
#      x y z
#    x 1.839510 0.000000 0.000000 
#    y 0.000000 1.831100 0.000000 
#    z 0.000000 0.000000 1.755340 
# 
# From -- ./inp_files/8217.got.cif
#   From: 2010.03.12/outbox.cif.g09.slc.cpg/sg45_5_cif.got.tgz:8217.got - 2010.04.14 02:50:11.
