data_PCOD8190189
_publ_section_title
;
Structure prediction by ZEFSAII (Michael W. Deem and Ramdas Pophale) SiO2 
 PCOD8190189
Probable space group: I M M 2
;
_chemical_formula_sum "Si O2"
_cell_formula_units_Z 56
_cell_length_a 13.216732
_cell_length_b 9.104107
_cell_length_c 24.429813
_cell_angle_alpha 90.000000
_cell_angle_beta 90.000000
_cell_angle_gamma 90.000000
_cell_volume 2939.554928
_symmetry_space_group_name_H-M "I M M 2"
_symmetry_group_IT_number 44
_symmetry_cell_setting 'orthorhombic'
loop_
_space_group_symop_operation_xyz
x,y,z
-x,-y,z
-x,y,z
x,-y,z
1/2+x,1/2+y,1/2+z
1/2-x,1/2-y,1/2+z
1/2-x,1/2+y,1/2+z
1/2+x,1/2-y,1/2+z
loop_
_atom_site_type_symbol
_atom_site_label
_atom_site_fract_x
_atom_site_fract_y
_atom_site_fract_z
Si Si1 0.000000 0.674585 0.277840
Si Si2 0.704464 0.825327 0.960144
Si Si3 0.616471 0.173142 0.395924
Si Si4 0.381671 0.164547 0.271550
Si Si5 0.000000 0.326495 0.402362
Si Si6 0.205584 0.169773 0.670033
Si Si7 0.614386 0.670170 0.056729
Si Si8 0.390448 0.334223 0.691224
O O1 0.900496 0.745042 0.248914
O O2 0.000000 0.500000 0.271128
O O3 0.000000 0.726037 0.340096
O O4 0.806689 0.760138 0.934687
O O5 0.603454 0.766008 0.929377
O O6 0.712981 0.000000 0.958921
O O7 0.692949 0.768832 0.022454
O O8 0.500000 0.216480 0.409920
O O9 0.641821 0.217260 0.333297
O O10 0.631328 0.000000 0.404420
O O11 0.500000 0.166449 0.261220
O O12 0.331687 0.273240 0.228433
O O13 0.339598 0.000000 0.262332
O O14 0.000000 0.500000 0.407681
O O15 0.127018 0.201252 0.621423
O O16 0.308861 0.253303 0.653492
O O17 0.229440 0.000000 0.676311
O O18 0.500000 0.714371 0.041276
O O19 0.635956 0.500000 0.043750
O O20 0.500000 0.331687 0.660835
O O21 0.356090 0.500000 0.703887
#
# Coordination Sequence:
#
# PCOD8190189 Si02
#       8
#     4   8   8   8   4   8   8   8
#     4   9  17  33  55  79 115 153 183 226 283 336
#     4  11  22  38  60  87 117 150 193 241 290 342
#     4   9  20  39  60  84 118 156 193 235 283 342
#     4   9  19  36  57  84 117 151 187 228 279 339
#     4   9  20  35  53  85 121 149 185 236 291 340
#     4  11  22  35  57  84 112 148 189 235 285 336
#     4  10  22  41  60  82 112 147 189 234 282 341
#     4   9  20  36  52  77 113 148 188 232 274 332
#
# _framework density 19.050502999999999
#
# number of rings (size 3 to 8) (size 9 to 14) (size 15 to 20)
#    0.429    1.857    0.714    2.571    2.000    2.857 
#    0.000    4.286    0.000    0.857    0.000    0.000 
#    0.000    0.000    0.000    0.000    0.000    0.000 
#
# Total GULP energy -347058.960449 kJ/mol
# GULP energy per Si atom -12394.962873 kJ/mol
# Density = 1.900714 g / cm^3
# Si number density = 19.050503 Si / 1000 Ang^3
#
#
#
# Elastic Constant Matrix: (Units=GPa)
#
#
# Indices 1 2 3 4 5 6 
#
# 1 110.0843 53.0965 53.5003 0.0000 0.0000 0.0000
# 2 53.0965 103.5036 55.0983 0.0000 0.0000 0.0000
# 3 53.5003 55.0983 86.1501 0.0000 0.0000 0.0000
# 4 0.0000 0.0000 0.0000 29.6740 0.0000 0.0000
# 5 0.0000 0.0000 0.0000 0.0000 29.6766 0.0000
# 6 0.0000 0.0000 0.0000 0.0000 0.0000 33.3831
#
#
#
# Elastic Compliance Matrix: (Units=1/GPa)
#
#
# Indices 1 2 3 4 5 6 
#
# 1 0.013959 -0.003861 -0.006200 0.000000 0.000000 0.000000
# 2 -0.003861 0.015717 -0.007654 0.000000 0.000000 0.000000
# 3 -0.006200 -0.007654 0.020353 0.000000 0.000000 0.000000
# 4 0.000000 0.000000 0.000000 0.033699 0.000000 0.000000
# 5 0.000000 0.000000 0.000000 0.000000 0.033697 0.000000
# 6 0.000000 0.000000 0.000000 0.000000 0.000000 0.029955
#
#
# Mechanical properties :
#
#
# Convention : Reuss Voigt Hill
#
# Bulk Modulus (GPa) = 68.49456 69.23647 68.86551
# Shear Modulus (GPa) = 26.64175 27.74961 27.19568
#
# Velocity S-wave (km/s) = 3.74368 3.82073 3.78240
# Velocity P-wave (km/s) = 7.39724 7.47573 7.43659
#
# Compressibility (1/GPa) = 0.01459970
#
# Stress axis : x y z
#
# Youngs Moduli (GPa) = 71.63841 63.62718 49.13270
#
# Poissons Ratio (x) = 0.24564 0.30460
# Poissons Ratio (y) = 0.27657 0.37607
# Poissons Ratio (z) = 0.44413 0.48702
#
# Static dielectric constant tensor:
#      x y z
#    x 3.556920 0.000000 0.000000 
#    y 0.000000 3.394730 0.000000 
#    z 0.000000 0.000000 3.325560 
# 
# 
# High freq. dielectric constant tensor:
#      x y z
#    x 1.744680 0.000000 0.000000 
#    y 0.000000 1.738510 0.000000 
#    z 0.000000 0.000000 1.724880 
# 
# From -- ./inp_files/24167.got.cif
#   From: 2010.03.12/outbox.cif.g09.slc.cpg/sg44_13_cif.got.tgz:24167.got - 2010.04.14 02:36:11.
