data_PCOD8190291
_publ_section_title
;
Structure prediction by ZEFSAII (Michael W. Deem and Ramdas Pophale) SiO2 
 PCOD8190291
Probable space group: I M M 2
;
_chemical_formula_sum "Si O2"
_cell_formula_units_Z 64
_cell_length_a 14.755640
_cell_length_b 19.531442
_cell_length_c 10.755249
_cell_angle_alpha 90.000000
_cell_angle_beta 90.000000
_cell_angle_gamma 90.000000
_cell_volume 3099.651220
_symmetry_space_group_name_H-M "I M M 2"
_symmetry_group_IT_number 44
_symmetry_cell_setting 'orthorhombic'
loop_
_space_group_symop_operation_xyz
x,y,z
-x,-y,z
-x,y,z
x,-y,z
1/2+x,1/2+y,1/2+z
1/2-x,1/2-y,1/2+z
1/2-x,1/2+y,1/2+z
1/2+x,1/2-y,1/2+z
loop_
_atom_site_type_symbol
_atom_site_label
_atom_site_fract_x
_atom_site_fract_y
_atom_site_fract_z
Si Si1 0.395832 0.197484 0.907440
Si Si2 0.397894 0.579108 0.419543
Si Si3 0.397957 0.799971 0.383042
Si Si4 0.900378 0.148676 0.451550
Si Si5 0.849050 0.174365 0.707227
Si Si6 0.747377 0.633871 0.590553
Si Si7 0.270302 0.077728 0.343615
Si Si8 0.167999 0.726087 0.144618
O O1 0.500000 0.181555 0.948567
O O2 0.389944 0.192984 0.757479
O O3 0.364190 0.274503 0.931934
O O4 0.324786 0.150794 0.985973
O O5 0.500000 0.608318 0.436215
O O6 0.401023 0.500000 0.386759
O O7 0.345394 0.617504 0.311362
O O8 0.339127 0.593221 0.540243
O O9 0.500000 0.821815 0.356358
O O10 0.369941 0.748299 0.271500
O O11 0.340834 0.868863 0.400560
O O12 0.389203 0.764584 0.518036
O O13 0.916303 0.146275 0.601270
O O14 0.831624 0.094523 0.391192
O O15 0.000000 0.136667 0.390571
O O16 0.753599 0.175613 0.634566
O O17 0.785593 0.583134 0.695031
O O18 0.709692 0.698669 0.668461
O O19 0.292814 0.000000 0.384660
#
# Coordination Sequence:
#
# PCOD8190291 Si02
#       8
#     8   8   8   8   8   8   8   8
#     4  11  22  38  65  99 129 161 210 270 329 385
#     4  11  25  42  64  96 129 167 212 261 326 397
#     4  12  24  41  68 100 127 166 218 270 324 383
#     4  11  22  39  61  94 133 168 211 266 325 384
#     4  12  21  40  68  96 127 165 213 269 324 384
#     4  12  22  41  65  94 131 169 211 266 322 390
#     4  12  26  44  63  90 130 179 222 266 321 384
#     4  12  20  39  68  97 128 161 210 265 325 384
#
# _framework density 20.647483000000001
#
# number of rings (size 3 to 8) (size 9 to 14) (size 15 to 20)
#    0.000    0.375    7.500    1.875    0.000    3.500 
#    0.000    0.000    0.000    1.125    0.000    0.000 
#    0.000    0.000    0.000    0.000    0.000    0.000 
#
# Total GULP energy -396484.026676 kJ/mol
# GULP energy per Si atom -12390.125834 kJ/mol
# Density = 2.060049 g / cm^3
# Si number density = 20.647483 Si / 1000 Ang^3
#
#
#
# Elastic Constant Matrix: (Units=GPa)
#
#
# Indices 1 2 3 4 5 6 
#
# 1 102.2271 35.0458 20.1903 0.0000 0.0000 0.0000
# 2 35.0458 79.5321 17.9258 0.0000 0.0000 0.0000
# 3 20.1903 17.9258 74.1598 0.0000 0.0000 0.0000
# 4 0.0000 0.0000 0.0000 23.0054 0.0000 0.0000
# 5 0.0000 0.0000 0.0000 0.0000 19.5138 0.0000
# 6 0.0000 0.0000 0.0000 0.0000 0.0000 22.2533
#
#
#
# Elastic Compliance Matrix: (Units=1/GPa)
#
#
# Indices 1 2 3 4 5 6 
#
# 1 0.011816 -0.004740 -0.002071 0.000000 0.000000 0.000000
# 2 -0.004740 0.015199 -0.002384 0.000000 0.000000 0.000000
# 3 -0.002071 -0.002384 0.014624 0.000000 0.000000 0.000000
# 4 0.000000 0.000000 0.000000 0.043468 0.000000 0.000000
# 5 0.000000 0.000000 0.000000 0.000000 0.051246 0.000000
# 6 0.000000 0.000000 0.000000 0.000000 0.000000 0.044937
#
#
# Mechanical properties :
#
#
# Convention : Reuss Voigt Hill
#
# Bulk Modulus (GPa) = 43.00968 44.69365 43.85167
# Shear Modulus (GPa) = 24.10441 25.13829 24.62135
#
# Velocity S-wave (km/s) = 3.42047 3.49305 3.45695
# Velocity P-wave (km/s) = 6.03947 6.16130 6.10069
#
# Compressibility (1/GPa) = 0.02325058
#
# Stress axis : x y z
#
# Youngs Moduli (GPa) = 84.62960 65.79193 68.37865
#
# Poissons Ratio (x) = 0.31185 0.14163
# Poissons Ratio (y) = 0.40114 0.16298
# Poissons Ratio (z) = 0.17529 0.15682
#
# Static dielectric constant tensor:
#      x y z
#    x 3.820050 0.000000 0.000000 
#    y 0.000000 3.463370 0.000000 
#    z 0.000000 0.000000 4.039510 
# 
# 
# High freq. dielectric constant tensor:
#      x y z
#    x 1.813630 0.000000 0.000000 
#    y 0.000000 1.771890 0.000000 
#    z 0.000000 0.000000 1.821310 
# 
# From -- ./inp_files/13448.got.cif
#   From: 2010.03.12/outbox.cif.g09.slc.cpg/sg44_7_cif.got.tgz:13448.got - 2010.04.14 02:36:11.
