data_PCOD8190616
_publ_section_title
;
Structure prediction by ZEFSAII (Michael W. Deem and Ramdas Pophale) SiO2 
 PCOD8190616
Probable space group: I B A 2
;
_chemical_formula_sum "Si O2"
_cell_formula_units_Z 60
_cell_length_a 17.485182
_cell_length_b 21.821979
_cell_length_c 9.009649
_cell_angle_alpha 90.000000
_cell_angle_beta 90.000000
_cell_angle_gamma 90.000000
_cell_volume 3437.733154
_symmetry_space_group_name_H-M "I B A 2"
_symmetry_group_IT_number 45
_symmetry_cell_setting 'orthorhombic'
loop_
_space_group_symop_operation_xyz
x,y,z
-x,-y,z
-x,y,1/2+z
x,-y,1/2+z
1/2+x,1/2+y,1/2+z
1/2-x,1/2-y,1/2+z
1/2-x,1/2+y,z
1/2+x,1/2-y,z
loop_
_atom_site_type_symbol
_atom_site_label
_atom_site_fract_x
_atom_site_fract_y
_atom_site_fract_z
Si Si1 0.812004 0.199201 0.384260
Si Si2 0.836547 0.385882 0.369543
Si Si3 0.894008 0.478420 0.922609
Si Si4 0.553031 0.225106 0.814582
Si Si5 0.500000 0.000000 0.173956
Si Si6 0.595759 0.769103 0.989703
Si Si7 0.269403 0.307686 0.047101
Si Si8 0.792912 0.619757 0.531924
O O1 0.902158 0.212369 0.362280
O O2 0.784063 0.255411 0.482409
O O3 0.768859 0.195457 0.225474
O O4 0.793469 0.137222 0.478330
O O5 0.875037 0.449746 0.415601
O O6 0.903623 0.335393 0.374855
O O7 0.767333 0.370965 0.485048
O O8 0.797456 0.390012 0.207619
O O9 0.944834 0.458788 0.779452
O O10 0.816417 0.440435 0.938498
O O11 0.944703 0.460241 0.067871
O O12 0.547899 0.222279 0.638578
O O13 0.465002 0.229405 0.858694
O O14 0.643862 0.705232 0.988919
O O15 0.654597 0.824930 0.973850
#
# Coordination Sequence:
#
# PCOD8190616 Si02
#       8
#     8   8   8   8   4   8   8   8
#     4   9  18  33  49  69  95 125 163 204 244 290
#     4  10  21  34  49  69  99 132 170 204 239 288
#     4  11  22  36  48  72 101 136 172 202 245 286
#     4   9  19  31  47  71  96 124 159 198 242 289
#     4  10  24  34  48  66 108 134 170 210 236 280
#     4   9  19  31  47  71  96 124 159 198 242 289
#     4   9  18  33  49  69  95 125 163 204 244 290
#     4  10  21  34  49  69  99 132 170 204 239 288
#
# _framework density 17.45336
#
# number of rings (size 3 to 8) (size 9 to 14) (size 15 to 20)
#    0.000    2.400    1.333    2.400    5.600    5.333 
#    0.000    0.000    0.000    0.000    0.000    0.933 
#    0.000    6.400    0.000    0.000    0.000    0.000 
#
# Total GULP energy -371673.433616 kJ/mol
# GULP energy per Si atom -12389.114454 kJ/mol
# Density = 1.741364 g / cm^3
# Si number density = 17.453360 Si / 1000 Ang^3
#
#
#
# Elastic Constant Matrix: (Units=GPa)
#
#
# Indices 1 2 3 4 5 6 
#
# 1 31.1206 20.7828 4.4527 0.0000 0.0000 0.0000
# 2 20.7828 61.6269 14.4973 0.0000 0.0000 0.0000
# 3 4.4527 14.4973 63.0720 0.0000 0.0000 0.0000
# 4 0.0000 0.0000 0.0000 16.5964 0.0000 0.0000
# 5 0.0000 0.0000 0.0000 0.0000 31.9256 0.0000
# 6 0.0000 0.0000 0.0000 0.0000 0.0000 18.1827
#
#
#
# Elastic Compliance Matrix: (Units=1/GPa)
#
#
# Indices 1 2 3 4 5 6 
#
# 1 0.041479 -0.014059 0.000303 0.000000 0.000000 0.000000
# 2 -0.014059 0.021920 -0.004046 0.000000 0.000000 0.000000
# 3 0.000303 -0.004046 0.016763 0.000000 0.000000 0.000000
# 4 0.000000 0.000000 0.000000 0.060254 0.000000 0.000000
# 5 0.000000 0.000000 0.000000 0.000000 0.031323 0.000000
# 6 0.000000 0.000000 0.000000 0.000000 0.000000 0.054997
#
#
# Mechanical properties :
#
#
# Convention : Reuss Voigt Hill
#
# Bulk Modulus (GPa) = 22.44260 26.14278 24.29269
# Shear Modulus (GPa) = 18.03801 21.08006 19.55903
#
# Velocity S-wave (km/s) = 3.21829 3.47910 3.35124
# Velocity P-wave (km/s) = 5.16686 5.58122 5.37803
#
# Compressibility (1/GPa) = 0.04455812
#
# Stress axis : x y z
#
# Youngs Moduli (GPa) = 24.10876 45.62097 59.65371
#
# Poissons Ratio (x) = 0.64141 -0.01810
# Poissons Ratio (y) = 0.33896 0.24134
# Poissons Ratio (z) = -0.00731 0.18457
#
# Static dielectric constant tensor:
#      x y z
#    x 3.358020 0.000000 0.000000 
#    y 0.000000 3.197730 0.000000 
#    z 0.000000 0.000000 3.484450 
# 
# 
# High freq. dielectric constant tensor:
#      x y z
#    x 1.654330 0.000000 0.000000 
#    y 0.000000 1.634570 0.000000 
#    z 0.000000 0.000000 1.692860 
# 
# From -- ./inp_files/1886.got.cif
#   From: 2010.03.12/outbox.cif.g09.slc.cpg/sg45_1_cif.got.tgz:1886.got - 2010.04.14 02:50:11.
