data_PCOD8190162
_publ_section_title
;
Structure prediction by ZEFSAII (Michael W. Deem and Ramdas Pophale) SiO2 
 PCOD8190162
Probable space group: I M M 2
;
_chemical_formula_sum "Si O2"
_cell_formula_units_Z 48
_cell_length_a 7.632839
_cell_length_b 9.181140
_cell_length_c 34.911105
_cell_angle_alpha 90.000000
_cell_angle_beta 90.000000
_cell_angle_gamma 90.000000
_cell_volume 2446.506123
_symmetry_space_group_name_H-M "I M M 2"
_symmetry_group_IT_number 44
_symmetry_cell_setting 'orthorhombic'
loop_
_space_group_symop_operation_xyz
x,y,z
-x,-y,z
-x,y,z
x,-y,z
1/2+x,1/2+y,1/2+z
1/2-x,1/2-y,1/2+z
1/2-x,1/2+y,1/2+z
1/2+x,1/2-y,1/2+z
loop_
_atom_site_type_symbol
_atom_site_label
_atom_site_fract_x
_atom_site_fract_y
_atom_site_fract_z
Si Si1 0.294004 0.328704 0.349070
Si Si2 0.500000 0.327404 0.713540
Si Si3 0.295590 0.660518 0.006242
Si Si4 0.500000 0.325572 0.801410
Si Si5 0.705181 0.162744 0.423937
Si Si6 0.792015 0.660403 0.576365
Si Si7 0.194527 0.674128 0.660343
O O1 0.500000 0.296676 0.341378
O O2 0.254186 0.500000 0.346904
O O3 0.177774 0.242464 0.318339
O O4 0.230727 0.270211 0.390479
O O5 0.500000 0.500000 0.710342
O O6 0.500000 0.277749 0.757202
O O7 0.672332 0.264921 0.692225
O O8 0.500000 0.650702 0.013888
O O9 0.209954 0.500000 0.005632
O O10 0.208471 0.747822 0.041412
O O11 0.259810 0.733314 0.964744
O O12 0.500000 0.500000 0.806972
O O13 0.500000 0.148599 0.421559
O O14 0.788947 0.000000 0.419029
O O15 0.709488 0.500000 0.573010
O O16 0.745812 0.729289 0.617990
O O17 0.000000 0.651034 0.572479
O O18 0.191889 0.500000 0.659219
O O19 0.000000 0.732617 0.670507
#
# Coordination Sequence:
#
# PCOD8190162 Si02
#       7
#     8   4   8   4   8   8   8
#     4  10  22  40  60  82 111 148 187 230 282 339
#     4   9  18  31  49  79 109 133 171 221 269 323
#     4   9  17  28  44  68  98 132 170 215 262 312
#     4  11  23  37  59  89 117 145 183 233 287 347
#     4   9  18  33  51  72 101 137 177 222 271 323
#     4   8  14  26  44  66  94 130 169 207 253 309
#     4   8  14  27  47  69  98 135 171 213 263 310
#
# _framework density 19.619816
#
# number of rings (size 3 to 8) (size 9 to 14) (size 15 to 20)
#    0.000    3.000    0.000    1.750    1.167    2.333 
#    1.500    1.667    0.000    2.000    0.000    2.333 
#    0.000    0.000    0.000    0.000    0.000    0.000 
#
# Total GULP energy -297417.825024 kJ/mol
# GULP energy per Si atom -12392.409376 kJ/mol
# Density = 1.957516 g / cm^3
# Si number density = 19.619816 Si / 1000 Ang^3
#
#
#
# Elastic Constant Matrix: (Units=GPa)
#
#
# Indices 1 2 3 4 5 6 
#
# 1 75.0735 31.0598 66.0008 0.0000 0.0000 0.0000
# 2 31.0598 72.8074 62.9855 0.0000 0.0000 0.0000
# 3 66.0008 62.9855 201.1656 0.0000 0.0000 0.0000
# 4 0.0000 0.0000 0.0000 25.2650 0.0000 0.0000
# 5 0.0000 0.0000 0.0000 0.0000 15.8959 0.0000
# 6 0.0000 0.0000 0.0000 0.0000 0.0000 17.4214
#
#
#
# Elastic Compliance Matrix: (Units=1/GPa)
#
#
# Indices 1 2 3 4 5 6 
#
# 1 0.019461 -0.003811 -0.005192 0.000000 0.000000 0.000000
# 2 -0.003811 0.019583 -0.004881 0.000000 0.000000 0.000000
# 3 -0.005192 -0.004881 0.008203 0.000000 0.000000 0.000000
# 4 0.000000 0.000000 0.000000 0.039580 0.000000 0.000000
# 5 0.000000 0.000000 0.000000 0.000000 0.062909 0.000000
# 6 0.000000 0.000000 0.000000 0.000000 0.000000 0.057401
#
#
# Mechanical properties :
#
#
# Convention : Reuss Voigt Hill
#
# Bulk Modulus (GPa) = 51.33591 74.34874 62.84232
# Shear Modulus (GPa) = 20.71258 24.31649 22.51454
#
# Velocity S-wave (km/s) = 3.25267 3.52431 3.39121
# Velocity P-wave (km/s) = 6.35048 7.38498 6.88719
#
# Compressibility (1/GPa) = 0.01947954
#
# Stress axis : x y z
#
# Youngs Moduli (GPa) = 51.38379 51.06376 121.90889
#
# Poissons Ratio (x) = 0.19459 0.63295
# Poissons Ratio (y) = 0.19581 0.59508
# Poissons Ratio (z) = 0.26678 0.24926
#
# Static dielectric constant tensor:
#      x y z
#    x 3.473940 0.000000 0.000000 
#    y 0.000000 3.537530 0.000000 
#    z 0.000000 0.000000 3.841500 
# 
# 
# High freq. dielectric constant tensor:
#      x y z
#    x 1.756980 0.000000 0.000000 
#    y 0.000000 1.724130 0.000000 
#    z 0.000000 0.000000 1.771100 
# 
# From -- ./inp_files/26943.got.cif
#   From: 2010.03.12/outbox.cif.g09.slc.cpg/sg44_14_cif.got.tgz:26943.got - 2010.04.14 02:36:11.
