data_PCOD8190078
_publ_section_title
;
Structure prediction by ZEFSAII (Michael W. Deem and Ramdas Pophale) SiO2 
 PCOD8190078
Probable space group: I M M 2
;
_chemical_formula_sum "Si O2"
_cell_formula_units_Z 48
_cell_length_a 18.186885
_cell_length_b 7.946181
_cell_length_c 16.558195
_cell_angle_alpha 90.000000
_cell_angle_beta 90.000000
_cell_angle_gamma 90.000000
_cell_volume 2392.928746
_symmetry_space_group_name_H-M "I M M 2"
_symmetry_group_IT_number 44
_symmetry_cell_setting 'orthorhombic'
loop_
_space_group_symop_operation_xyz
x,y,z
-x,-y,z
-x,y,z
x,-y,z
1/2+x,1/2+y,1/2+z
1/2-x,1/2-y,1/2+z
1/2-x,1/2+y,1/2+z
1/2+x,1/2-y,1/2+z
loop_
_atom_site_type_symbol
_atom_site_label
_atom_site_fract_x
_atom_site_fract_y
_atom_site_fract_z
Si Si1 0.685389 0.691218 0.493650
Si Si2 0.342185 0.689400 0.309869
Si Si3 0.326003 0.193675 0.793481
Si Si4 0.915876 0.699253 0.138305
Si Si5 0.913759 0.500000 0.548267
Si Si6 0.158875 0.814855 0.468665
Si Si7 0.085991 0.500000 0.726062
O O1 0.712564 0.500000 0.502034
O O2 0.652053 0.721268 0.405391
O O3 0.623157 0.730847 0.558753
O O4 0.758244 0.802989 0.503647
O O5 0.370245 0.500000 0.289454
O O6 0.260221 0.711458 0.274668
O O7 0.392590 0.828967 0.270322
O O8 0.372828 0.263796 0.717827
O O9 0.344122 0.302994 0.871791
O O10 0.346165 0.000000 0.812000
O O11 0.913362 0.500000 0.134839
O O12 0.000000 0.764980 0.140920
O O13 0.891574 0.329929 0.503726
O O14 0.877936 0.500000 0.637249
O O15 0.000000 0.500000 0.553250
O O16 0.129048 0.000000 0.493097
O O17 0.000000 0.500000 0.718971
#
# Coordination Sequence:
#
# PCOD8190078 Si02
#       7
#     8   8   8   8   4   8   4
#     4  10  21  39  62  91 128 167 209 258 305 367
#     4   9  21  40  64  92 121 160 213 260 306 366
#     4   9  19  38  60  93 128 166 209 254 304 369
#     4  10  22  37  58  93 133 171 207 253 315 378
#     4  11  26  46  62  91 129 161 207 265 322 374
#     4  11  22  40  68  95 121 165 214 259 311 368
#     4  11  26  42  64  91 117 163 209 255 328 374
#
# _framework density 20.059101999999999
#
# number of rings (size 3 to 8) (size 9 to 14) (size 15 to 20)
#    0.000    2.000    1.667    1.500    8.167    3.667 
#    0.000    3.333    0.000    0.000    0.000    0.000 
#    0.000    0.000    0.000    0.000    0.000    0.000 
#
# Total GULP energy -297585.119317 kJ/mol
# GULP energy per Si atom -12399.379972 kJ/mol
# Density = 2.001345 g / cm^3
# Si number density = 20.059102 Si / 1000 Ang^3
#
#
#
# Elastic Constant Matrix: (Units=GPa)
#
#
# Indices 1 2 3 4 5 6 
#
# 1 83.3048 34.8595 64.1211 0.0000 0.0000 0.0000
# 2 34.8595 128.5105 45.3369 0.0000 0.0000 0.0000
# 3 64.1211 45.3369 115.0241 0.0000 0.0000 0.0000
# 4 0.0000 0.0000 0.0000 20.9809 0.0000 0.0000
# 5 0.0000 0.0000 0.0000 0.0000 25.6096 0.0000
# 6 0.0000 0.0000 0.0000 0.0000 0.0000 7.1976
#
#
#
# Elastic Compliance Matrix: (Units=1/GPa)
#
#
# Indices 1 2 3 4 5 6 
#
# 1 0.021400 -0.001854 -0.011199 0.000000 0.000000 0.000000
# 2 -0.001854 0.009199 -0.002592 0.000000 0.000000 0.000000
# 3 -0.011199 -0.002592 0.015958 0.000000 0.000000 0.000000
# 4 0.000000 0.000000 0.000000 0.047662 0.000000 0.000000
# 5 0.000000 0.000000 0.000000 0.000000 0.039048 0.000000
# 6 0.000000 0.000000 0.000000 0.000000 0.000000 0.138935
#
#
# Mechanical properties :
#
#
# Convention : Reuss Voigt Hill
#
# Bulk Modulus (GPa) = 65.50032 68.38603 66.94318
# Shear Modulus (GPa) = 16.20322 22.92575 19.56449
#
# Velocity S-wave (km/s) = 2.84522 3.38436 3.12643
# Velocity P-wave (km/s) = 6.59684 7.03123 6.81749
#
# Compressibility (1/GPa) = 0.01526710
#
# Stress axis : x y z
#
# Youngs Moduli (GPa) = 46.72944 108.70869 62.66321
#
# Poissons Ratio (x) = 0.20156 0.70174
# Poissons Ratio (y) = 0.08664 0.16243
# Poissons Ratio (z) = 0.52331 0.28179
#
# Static dielectric constant tensor:
#      x y z
#    x 3.531810 0.000000 0.000000 
#    y 0.000000 3.635470 0.000000 
#    z 0.000000 0.000000 3.867660 
# 
# 
# High freq. dielectric constant tensor:
#      x y z
#    x 1.768750 0.000000 0.000000 
#    y 0.000000 1.788490 0.000000 
#    z 0.000000 0.000000 1.787740 
# 
# From -- ./inp_files/16212.got.cif
#   From: 2010.03.12/outbox.cif.g09.slc.cpg/sg44_9_cif.got.tgz:16212.got - 2010.04.14 02:36:11.
