data_PCOD8190596
_publ_section_title
;
Structure prediction by ZEFSAII (Michael W. Deem and Ramdas Pophale) SiO2 
 PCOD8190596
Probable space group: I B A 2
;
_chemical_formula_sum "Si O2"
_cell_formula_units_Z 60
_cell_length_a 17.661835
_cell_length_b 8.487687
_cell_length_c 19.815230
_cell_angle_alpha 90.000000
_cell_angle_beta 90.000000
_cell_angle_gamma 90.000000
_cell_volume 2970.464022
_symmetry_space_group_name_H-M "I B A 2"
_symmetry_group_IT_number 45
_symmetry_cell_setting 'orthorhombic'
loop_
_space_group_symop_operation_xyz
x,y,z
-x,-y,z
-x,y,1/2+z
x,-y,1/2+z
1/2+x,1/2+y,1/2+z
1/2-x,1/2-y,1/2+z
1/2-x,1/2+y,z
1/2+x,1/2-y,z
loop_
_atom_site_type_symbol
_atom_site_label
_atom_site_fract_x
_atom_site_fract_y
_atom_site_fract_z
Si Si1 0.834694 0.065526 0.438880
Si Si2 0.824905 0.098811 0.154006
Si Si3 0.462682 0.253206 0.107014
Si Si4 0.201883 0.576781 0.760215
Si Si5 0.748578 0.685638 0.856263
Si Si6 0.217700 0.798628 0.576295
Si Si7 0.500000 0.500000 0.993515
Si Si8 0.604316 0.074877 0.131022
O O1 0.814195 0.198641 0.384347
O O2 0.788458 0.114721 0.505523
O O3 0.925682 0.048355 0.449411
O O4 0.798571 0.899932 0.415417
O O5 0.914640 0.135145 0.158185
O O6 0.781937 0.121715 0.224326
O O7 0.799819 0.230171 0.097019
O O8 0.810247 0.919324 0.133357
O O9 0.541866 0.210852 0.141718
O O10 0.423368 0.083624 0.094860
O O11 0.476460 0.348190 0.037641
O O12 0.205281 0.427066 0.807536
O O13 0.186228 0.722659 0.810628
O O14 0.137347 0.544120 0.705453
O O15 0.166589 0.641298 0.579539
#
# Coordination Sequence:
#
# PCOD8190596 Si02
#       8
#     8   8   8   8   8   8   4   8
#     4  11  23  43  63  90 127 169 219 261 308 381
#     4  11  20  33  64  93 124 154 199 262 334 371
#     4  11  21  37  57  96 127 162 187 253 343 393
#     4  10  20  41  61  91 123 156 215 265 299 376
#     4  10  23  41  65  86 120 177 222 257 295 362
#     4  11  20  36  58  95 121 159 201 264 317 378
#     4  12  24  44  60  90 144 160 206 266 326 400
#     4  10  21  37  61  92 129 156 198 254 334 384
#
# _framework density 20.198865000000001
#
# number of rings (size 3 to 8) (size 9 to 14) (size 15 to 20)
#    0.000    1.333    2.667    4.800    0.000    0.000 
#    2.400    5.333    0.000    0.000    0.000    0.000 
#    0.000    0.000    0.000    0.000    0.000    0.000 
#
# Total GULP energy -371738.000062 kJ/mol
# GULP energy per Si atom -12391.266669 kJ/mol
# Density = 2.015289 g / cm^3
# Si number density = 20.198865 Si / 1000 Ang^3
#
#
#
# Elastic Constant Matrix: (Units=GPa)
#
#
# Indices 1 2 3 4 5 6 
#
# 1 89.6178 16.3351 31.4729 0.0000 0.0000 0.0000
# 2 16.3351 95.4538 40.6651 0.0000 0.0000 0.0000
# 3 31.4729 40.6651 96.4058 0.0000 0.0000 0.0000
# 4 0.0000 0.0000 0.0000 22.6469 0.0000 0.0000
# 5 0.0000 0.0000 0.0000 0.0000 23.4321 0.0000
# 6 0.0000 0.0000 0.0000 0.0000 0.0000 34.3139
#
#
#
# Elastic Compliance Matrix: (Units=1/GPa)
#
#
# Indices 1 2 3 4 5 6 
#
# 1 0.012623 -0.000493 -0.003913 0.000000 0.000000 0.000000
# 2 -0.000493 0.012791 -0.005234 0.000000 0.000000 0.000000
# 3 -0.003913 -0.005234 0.013858 0.000000 0.000000 0.000000
# 4 0.000000 0.000000 0.000000 0.044156 0.000000 0.000000
# 5 0.000000 0.000000 0.000000 0.000000 0.042676 0.000000
# 6 0.000000 0.000000 0.000000 0.000000 0.000000 0.029143
#
#
# Mechanical properties :
#
#
# Convention : Reuss Voigt Hill
#
# Bulk Modulus (GPa) = 50.02297 50.93596 50.47946
# Shear Modulus (GPa) = 27.59532 28.94555 28.27043
#
# Velocity S-wave (km/s) = 3.70020 3.78964 3.74519
# Velocity P-wave (km/s) = 6.56310 6.66487 6.61418
#
# Compressibility (1/GPa) = 0.01999082
#
# Stress axis : x y z
#
# Youngs Moduli (GPa) = 79.22350 78.18274 72.16034
#
# Poissons Ratio (x) = 0.03856 0.28234
# Poissons Ratio (y) = 0.03907 0.37770
# Poissons Ratio (z) = 0.30998 0.40922
#
# Static dielectric constant tensor:
#      x y z
#    x 3.855520 0.000000 0.000000 
#    y 0.000000 4.109340 0.000000 
#    z 0.000000 0.000000 3.568710 
# 
# 
# High freq. dielectric constant tensor:
#      x y z
#    x 1.779420 0.000000 0.000000 
#    y 0.000000 1.819840 0.000000 
#    z 0.000000 0.000000 1.766060 
# 
# From -- ./inp_files/8355.got.cif
#   From: 2010.03.12/outbox.cif.g09.slc.cpg/sg45_5_cif.got.tgz:8355.got - 2010.04.14 02:50:11.
