data_PCOD8190225
_publ_section_title
;
Structure prediction by ZEFSAII (Michael W. Deem and Ramdas Pophale) SiO2 
 PCOD8190225
Probable space group: I M M 2
;
_chemical_formula_sum "Si O2"
_cell_formula_units_Z 48
_cell_length_a 18.231179
_cell_length_b 8.532799
_cell_length_c 14.977861
_cell_angle_alpha 90.000000
_cell_angle_beta 90.000000
_cell_angle_gamma 90.000000
_cell_volume 2330.000780
_symmetry_space_group_name_H-M "I M M 2"
_symmetry_group_IT_number 44
_symmetry_cell_setting 'orthorhombic'
loop_
_space_group_symop_operation_xyz
x,y,z
-x,-y,z
-x,y,z
x,-y,z
1/2+x,1/2+y,1/2+z
1/2-x,1/2-y,1/2+z
1/2-x,1/2+y,1/2+z
1/2+x,1/2-y,1/2+z
loop_
_atom_site_type_symbol
_atom_site_label
_atom_site_fract_x
_atom_site_fract_y
_atom_site_fract_z
Si Si1 0.107590 0.179342 0.336380
Si Si2 0.777359 0.816394 0.075711
Si Si3 0.654055 0.814591 0.218037
Si Si4 0.920457 0.321603 0.154826
Si Si5 0.000000 0.182251 0.657027
Si Si6 0.000000 0.320583 0.469129
Si Si7 0.757440 0.183064 0.870352
O O1 0.072013 0.213302 0.241440
O O2 0.072728 0.289865 0.411711
O O3 0.192892 0.216493 0.326424
O O4 0.093280 0.000000 0.362512
O O5 0.711453 0.758134 0.140587
O O6 0.854244 0.731976 0.092917
O O7 0.789465 0.000000 0.088342
O O8 0.760238 0.771367 0.974034
O O9 0.572156 0.763698 0.195501
O O10 0.671671 0.734361 0.313434
O O11 0.657345 0.000000 0.227675
O O12 0.906046 0.500000 0.184948
O O13 0.000000 0.307682 0.104960
O O14 0.000000 0.203035 0.551250
O O15 0.000000 0.000000 0.681881
O O16 0.000000 0.500000 0.502636
O O17 0.743085 0.000000 0.858079
#
# Coordination Sequence:
#
# PCOD8190225 Si02
#       7
#     8   8   8   8   4   4   8
#     4  12  23  37  61  93 128 166 209 259 321 387
#     4  10  23  42  66  94 127 168 213 262 322 384
#     4  11  23  43  68  95 130 172 216 267 323 384
#     4  11  23  39  62  92 128 168 209 259 320 379
#     4  12  26  44  66  95 128 169 218 266 326 388
#     4  12  24  40  62  93 130 167 210 266 328 386
#     4  11  23  41  65  95 128 169 216 266 322 384
#
# _framework density 20.600850000000001
#
# number of rings (size 3 to 8) (size 9 to 14) (size 15 to 20)
#    0.000    0.833    2.500    5.500    0.000    4.333 
#    1.500    0.000    0.000    0.000    0.000    0.000 
#    0.000    0.000    0.000    0.000    0.000    0.000 
#
# Total GULP energy -297651.940617 kJ/mol
# GULP energy per Si atom -12402.164192 kJ/mol
# Density = 2.055396 g / cm^3
# Si number density = 20.600850 Si / 1000 Ang^3
#
#
#
# Elastic Constant Matrix: (Units=GPa)
#
#
# Indices 1 2 3 4 5 6 
#
# 1 149.8369 34.8472 42.6781 0.0000 0.0000 0.0000
# 2 34.8472 86.6919 34.5933 0.0000 0.0000 0.0000
# 3 42.6781 34.5933 92.6846 0.0000 0.0000 0.0000
# 4 0.0000 0.0000 0.0000 32.0836 0.0000 0.0000
# 5 0.0000 0.0000 0.0000 0.0000 8.9113 0.0000
# 6 0.0000 0.0000 0.0000 0.0000 0.0000 53.0341
#
#
#
# Elastic Compliance Matrix: (Units=1/GPa)
#
#
# Indices 1 2 3 4 5 6 
#
# 1 0.007979 -0.002046 -0.002910 0.000000 0.000000 0.000000
# 2 -0.002046 0.014078 -0.004313 0.000000 0.000000 0.000000
# 3 -0.002910 -0.004313 0.013739 0.000000 0.000000 0.000000
# 4 0.000000 0.000000 0.000000 0.031169 0.000000 0.000000
# 5 0.000000 0.000000 0.000000 0.000000 0.112217 0.000000
# 6 0.000000 0.000000 0.000000 0.000000 0.000000 0.018856
#
#
# Mechanical properties :
#
#
# Convention : Reuss Voigt Hill
#
# Bulk Modulus (GPa) = 57.94207 61.49453 59.71830
# Shear Modulus (GPa) = 22.48937 33.27879 27.88408
#
# Velocity S-wave (km/s) = 3.30763 4.02358 3.68304
# Velocity P-wave (km/s) = 6.54021 7.17641 6.86568
#
# Compressibility (1/GPa) = 0.01725862
#
# Stress axis : x y z
#
# Youngs Moduli (GPa) = 125.33431 71.03129 72.78565
#
# Poissons Ratio (x) = 0.14532 0.21183
# Poissons Ratio (y) = 0.25641 0.31389
# Poissons Ratio (z) = 0.36476 0.30632
#
# Static dielectric constant tensor:
#      x y z
#    x 4.014410 0.000000 0.000000 
#    y 0.000000 3.698060 0.000000 
#    z 0.000000 0.000000 3.672810 
# 
# 
# High freq. dielectric constant tensor:
#      x y z
#    x 1.819330 0.000000 0.000000 
#    y 0.000000 1.813110 0.000000 
#    z 0.000000 0.000000 1.795200 
# 
# From -- ./inp_files/18844.got.cif
#   From: 2010.03.12/outbox.cif.g09.slc.cpg/sg44_10_cif.got.tgz:18844.got - 2010.04.14 02:36:11.
