data_PCOD8190347
_publ_section_title
;
Structure prediction by ZEFSAII (Michael W. Deem and Ramdas Pophale) SiO2 
 PCOD8190347
Probable space group: I M M 2
;
_chemical_formula_sum "Si O2"
_cell_formula_units_Z 64
_cell_length_a 14.884480
_cell_length_b 16.698371
_cell_length_c 14.153013
_cell_angle_alpha 90.000000
_cell_angle_beta 90.000000
_cell_angle_gamma 90.000000
_cell_volume 3517.682825
_symmetry_space_group_name_H-M "I M M 2"
_symmetry_group_IT_number 44
_symmetry_cell_setting 'orthorhombic'
loop_
_space_group_symop_operation_xyz
x,y,z
-x,-y,z
-x,y,z
x,-y,z
1/2+x,1/2+y,1/2+z
1/2-x,1/2-y,1/2+z
1/2-x,1/2+y,1/2+z
1/2+x,1/2-y,1/2+z
loop_
_atom_site_type_symbol
_atom_site_label
_atom_site_fract_x
_atom_site_fract_y
_atom_site_fract_z
Si Si1 0.402948 0.804117 0.140520
Si Si2 0.397770 0.257306 0.343040
Si Si3 0.712512 0.331015 0.609458
Si Si4 0.896201 0.910734 0.955828
Si Si5 0.787488 0.668985 0.989264
Si Si6 0.897770 0.257306 0.255682
Si Si7 0.603799 0.089266 0.642895
Si Si8 0.402948 0.695883 0.958203
O O1 0.500000 0.850057 0.152953
O O2 0.385797 0.746553 0.230552
O O3 0.315262 0.861011 0.130201
O O4 0.411163 0.750000 0.049361
O O5 0.500000 0.241327 0.374330
O O6 0.367999 0.346497 0.375839
O O7 0.337958 0.188070 0.391239
O O8 0.660976 0.399179 0.551583
O O9 0.714260 0.250000 0.549361
O O10 0.662042 0.311930 0.707484
O O11 0.000000 0.900043 0.983798
O O12 0.877405 0.000000 0.916328
O O13 0.684738 0.638989 0.968521
O O14 0.839024 0.600821 0.047140
O O15 0.867999 0.346497 0.222884
O O16 0.885797 0.253447 0.368171
O O17 0.000000 0.241327 0.224393
O O18 0.500000 0.099957 0.614924
O O19 0.622595 0.000000 0.682394
O O20 0.500000 0.649943 0.945770
#
# Coordination Sequence:
#
# PCOD8190347 Si02
#       8
#     8   8   8   8   8   8   8   8
#     4   9  17  28  44  65  88 119 161 201 230 262
#     4   9  16  27  46  71  95 120 154 195 238 282
#     4   9  16  27  46  68  93 120 151 191 236 280
#     4   9  17  29  47  74 103 124 146 185 241 297
#     4   9  16  27  46  68  93 120 151 191 236 280
#     4   9  16  27  46  71  95 120 154 195 238 282
#     4   9  17  29  47  74 103 124 146 185 241 297
#     4   9  17  28  44  65  88 119 161 201 230 262
#
# _framework density 18.193795999999999
#
# number of rings (size 3 to 8) (size 9 to 14) (size 15 to 20)
#    0.000    3.000    0.000    1.500    0.000    3.000 
#    0.000    0.000    0.000   30.750    0.000   14.000 
#    0.000    0.000    0.000    0.000    0.000    0.000 
#
# Total GULP energy -396441.545629 kJ/mol
# GULP energy per Si atom -12388.798301 kJ/mol
# Density = 1.815239 g / cm^3
# Si number density = 18.193796 Si / 1000 Ang^3
#
#
#
# Elastic Constant Matrix: (Units=GPa)
#
#
# Indices 1 2 3 4 5 6 
#
# 1 111.8948 17.0539 34.5563 0.0000 0.0000 0.0000
# 2 17.0539 28.5754 15.7394 0.0000 0.0000 0.0000
# 3 34.5563 15.7394 112.6298 0.0000 0.0000 0.0000
# 4 0.0000 0.0000 0.0000 12.8351 0.0000 0.0000
# 5 0.0000 0.0000 0.0000 0.0000 -9.2060 0.0000
# 6 0.0000 0.0000 0.0000 0.0000 0.0000 10.7283
#
#
#
# Elastic Compliance Matrix: (Units=1/GPa)
#
#
# Indices 1 2 3 4 5 6 
#
# 1 0.010457 -0.004847 -0.002531 0.000000 0.000000 0.000000
# 2 -0.004847 0.040160 -0.004125 0.000000 0.000000 0.000000
# 3 -0.002531 -0.004125 0.010232 0.000000 0.000000 0.000000
# 4 0.000000 0.000000 0.000000 0.077912 0.000000 0.000000
# 5 0.000000 0.000000 0.000000 0.000000 -0.108624 0.000000
# 6 0.000000 0.000000 0.000000 0.000000 0.000000 0.093211
#
#
# Mechanical properties :
#
#
# Convention : Reuss Voigt Hill
#
# Bulk Modulus (GPa) = 26.42509 43.08880 34.75695
# Shear Modulus (GPa) = 31.45300 15.25484 23.35392
#
# Velocity S-wave (km/s) = 4.16237 2.89877 3.58665
# Velocity P-wave (km/s) = 6.13646 5.91087 6.02472
#
# Compressibility (1/GPa) = 0.03784282
#
# Stress axis : x y z
#
# Youngs Moduli (GPa) = 95.62653 24.90053 97.73559
#
# Poissons Ratio (x) = 0.12069 0.24738
# Poissons Ratio (y) = 0.46348 0.40316
# Poissons Ratio (z) = 0.24204 0.10272
#
# Static dielectric constant tensor:
#      x y z
#    x 4.137160 0.000000 0.000000 
#    y 0.000000 2.849970 0.000000 
#    z 0.000000 0.000000 3.360360 
# 
# 
# High freq. dielectric constant tensor:
#      x y z
#    x 1.730550 0.000000 0.000000 
#    y 0.000000 1.632770 0.000000 
#    z 0.000000 0.000000 1.706940 
# 
# From -- ./inp_files/18612.got.cif
#   From: 2010.03.12/outbox.cif.g09.slc.cpg/sg44_10_cif.got.tgz:18612.got - 2010.04.14 02:36:11.
