data_PCOD8190437
_publ_section_title
;
Structure prediction by ZEFSAII (Michael W. Deem and Ramdas Pophale) SiO2 
 PCOD8190437
Probable space group: I B A 2
;
_chemical_formula_sum "Si O2"
_cell_formula_units_Z 56
_cell_length_a 24.779336
_cell_length_b 24.705582
_cell_length_c 5.055066
_cell_angle_alpha 90.000000
_cell_angle_beta 90.000000
_cell_angle_gamma 90.000000
_cell_volume 3094.650327
_symmetry_space_group_name_H-M "I B A 2"
_symmetry_group_IT_number 45
_symmetry_cell_setting 'orthorhombic'
loop_
_space_group_symop_operation_xyz
x,y,z
-x,-y,z
-x,y,1/2+z
x,-y,1/2+z
1/2+x,1/2+y,1/2+z
1/2-x,1/2-y,1/2+z
1/2-x,1/2+y,z
1/2+x,1/2-y,z
loop_
_atom_site_type_symbol
_atom_site_label
_atom_site_fract_x
_atom_site_fract_y
_atom_site_fract_z
Si Si1 0.358116 0.805984 0.838330
Si Si2 0.626816 0.463639 0.896002
Si Si3 0.963299 0.125330 0.359994
Si Si4 0.693697 0.141570 0.338779
Si Si5 0.034411 0.248876 0.824385
Si Si6 0.772906 0.773211 0.938433
Si Si7 0.750141 0.965672 0.920763
O O1 0.346190 0.834296 0.559495
O O2 0.421147 0.795120 0.876741
O O3 0.332684 0.745120 0.853522
O O4 0.333451 0.845384 0.059064
O O5 0.613990 0.507783 0.672688
O O6 0.590140 0.410905 0.861130
O O7 0.688930 0.443522 0.881691
O O8 0.943515 0.187734 0.359722
O O9 0.000125 0.111644 0.609647
O O10 0.754616 0.166145 0.366283
O O11 0.703528 0.077997 0.362763
O O12 0.014302 0.258239 0.526837
O O13 0.733810 0.735666 0.753079
O O14 0.741127 0.015270 0.720496
#
# Coordination Sequence:
#
# PCOD8190437 Si02
#       7
#     8   8   8   8   8   8   8
#     4  10  19  33  53  77 103 133 171 209 250 305
#     4  10  21  35  51  72  97 135 180 222 267 301
#     4  10  21  35  51  72  97 135 180 222 267 301
#     4  10  19  33  53  77 103 133 171 209 250 305
#     4  10  21  36  52  75 108 139 168 210 261 312
#     4   8  16  28  44  72 100 126 161 202 247 288
#     4  10  21  36  52  75 108 139 168 210 261 312
#
# _framework density 18.095745000000001
#
# number of rings (size 3 to 8) (size 9 to 14) (size 15 to 20)
#    0.000    2.286    0.000    2.571    2.000    1.714 
#    0.000    0.000    0.000    0.000    0.000    0.000 
#    0.000   40.000    0.000    0.000    0.000    0.000 
#
# Total GULP energy -347037.663659 kJ/mol
# GULP energy per Si atom -12394.202274 kJ/mol
# Density = 1.805456 g / cm^3
# Si number density = 18.095745 Si / 1000 Ang^3
#
#
#
# Elastic Constant Matrix: (Units=GPa)
#
#
# Indices 1 2 3 4 5 6 
#
# 1 68.8428 42.7504 11.5161 0.0000 0.0000 0.0000
# 2 42.7504 63.4389 9.3946 0.0000 0.0000 0.0000
# 3 11.5161 9.3946 87.1691 0.0000 0.0000 0.0000
# 4 0.0000 0.0000 0.0000 19.4504 0.0000 0.0000
# 5 0.0000 0.0000 0.0000 0.0000 15.6127 0.0000
# 6 0.0000 0.0000 0.0000 0.0000 0.0000 31.5147
#
#
#
# Elastic Compliance Matrix: (Units=1/GPa)
#
#
# Indices 1 2 3 4 5 6 
#
# 1 0.025176 -0.016740 -0.001522 0.000000 0.000000 0.000000
# 2 -0.016740 0.027150 -0.000714 0.000000 0.000000 0.000000
# 3 -0.001522 -0.000714 0.011750 0.000000 0.000000 0.000000
# 4 0.000000 0.000000 0.000000 0.051413 0.000000 0.000000
# 5 0.000000 0.000000 0.000000 0.000000 0.064051 0.000000
# 6 0.000000 0.000000 0.000000 0.000000 0.000000 0.031731
#
#
# Mechanical properties :
#
#
# Convention : Reuss Voigt Hill
#
# Bulk Modulus (GPa) = 38.28088 38.53032 38.40560
# Shear Modulus (GPa) = 19.38501 23.70153 21.54327
#
# Velocity S-wave (km/s) = 3.27654 3.62302 3.45413
# Velocity P-wave (km/s) = 5.95943 6.23221 6.09735
#
# Compressibility (1/GPa) = 0.02612270
#
# Stress axis : x y z
#
# Youngs Moduli (GPa) = 39.72058 36.83247 85.10627
#
# Poissons Ratio (x) = 0.61658 0.12952
# Poissons Ratio (y) = 0.66493 0.06081
# Poissons Ratio (z) = 0.06045 0.02632
#
# Static dielectric constant tensor:
#      x y z
#    x 3.037380 0.000000 0.000000 
#    y 0.000000 3.032620 0.000000 
#    z 0.000000 0.000000 3.513310 
# 
# 
# High freq. dielectric constant tensor:
#      x y z
#    x 1.674480 0.000000 0.000000 
#    y 0.000000 1.674010 0.000000 
#    z 0.000000 0.000000 1.724910 
# 
# From -- ./inp_files/427.got.cif
#   From: 2010.03.12/outbox.cif.g09.slc.cpg/sg45_1_cif.got.tgz:427.got - 2010.04.14 02:50:11.
