data_PCOD8190959
_publ_section_title
;
Structure prediction by ZEFSAII (Michael W. Deem and Ramdas Pophale) SiO2 
 PCOD8190959
Probable space group: I B A 2
;
_chemical_formula_sum "Si O2"
_cell_formula_units_Z 32
_cell_length_a 26.737139
_cell_length_b 5.092918
_cell_length_c 8.881645
_cell_angle_alpha 90.000000
_cell_angle_beta 90.000000
_cell_angle_gamma 90.000000
_cell_volume 1209.414101
_symmetry_space_group_name_H-M "I B A 2"
_symmetry_group_IT_number 45
_symmetry_cell_setting 'orthorhombic'
loop_
_space_group_symop_operation_xyz
x,y,z
-x,-y,z
-x,y,1/2+z
x,-y,1/2+z
1/2+x,1/2+y,1/2+z
1/2-x,1/2-y,1/2+z
1/2-x,1/2+y,z
1/2+x,1/2-y,z
loop_
_atom_site_type_symbol
_atom_site_label
_atom_site_fract_x
_atom_site_fract_y
_atom_site_fract_z
Si Si1 0.500000 0.000000 0.203430
Si Si2 0.915895 0.309991 0.032461
Si Si3 0.000000 0.000000 0.904102
Si Si4 0.283217 0.769770 0.048595
Si Si5 0.650947 0.039526 0.782738
O O1 0.451993 0.956472 0.094549
O O2 0.488098 0.250295 0.303373
O O3 0.872429 0.261714 0.157176
O O4 0.892982 0.393382 0.872913
O O5 0.950944 0.054288 0.007746
O O6 0.262644 0.474866 0.051893
O O7 0.317123 0.818134 0.195467
O O8 0.314656 0.793968 0.894940
#
# Coordination Sequence:
#
# PCOD8190959 Si02
#       5
#     4   8   4   8   8
#     4  12  26  50  74 108 156 210 262 324 394 464
#     4  11  24  51  75 116 156 211 266 326 392 461
#     4  12  26  50  78 106 158 210 264 324 396 462
#     4  11  24  50  77 114 156 201 253 328 413 472
#     4  10  24  48  80 116 155 205 268 327 386 495
#
# _framework density 26.459092999999999
#
# number of rings (size 3 to 8) (size 9 to 14) (size 15 to 20)
#    0.000    1.000    2.500    3.000    0.000    0.000 
#   18.000    0.000    0.000    0.000    0.000    0.000 
#    0.000    0.000    0.000    0.000    0.000    0.000 
#
# Total GULP energy -198395.327191 kJ/mol
# GULP energy per Si atom -12399.707949 kJ/mol
# Density = 2.639887 g / cm^3
# Si number density = 26.459093 Si / 1000 Ang^3
#
#
#
# Elastic Constant Matrix: (Units=GPa)
#
#
# Indices 1 2 3 4 5 6 
#
# 1 139.0838 25.2220 64.8652 0.0000 0.0000 0.0000
# 2 25.2220 81.7363 33.6886 0.0000 0.0000 0.0000
# 3 64.8652 33.6886 175.6662 0.0000 0.0000 0.0000
# 4 0.0000 0.0000 0.0000 32.8190 0.0000 0.0000
# 5 0.0000 0.0000 0.0000 0.0000 55.5976 0.0000
# 6 0.0000 0.0000 0.0000 0.0000 0.0000 38.9316
#
#
#
# Elastic Compliance Matrix: (Units=1/GPa)
#
#
# Indices 1 2 3 4 5 6 
#
# 1 0.008853 -0.001503 -0.002981 0.000000 0.000000 0.000000
# 2 -0.001503 0.013540 -0.002042 0.000000 0.000000 0.000000
# 3 -0.002981 -0.002042 0.007185 0.000000 0.000000 0.000000
# 4 0.000000 0.000000 0.000000 0.030470 0.000000 0.000000
# 5 0.000000 0.000000 0.000000 0.000000 0.017986 0.000000
# 6 0.000000 0.000000 0.000000 0.000000 0.000000 0.025686
#
#
# Mechanical properties :
#
#
# Convention : Reuss Voigt Hill
#
# Bulk Modulus (GPa) = 60.50921 71.55977 66.03449
# Shear Modulus (GPa) = 40.89005 43.65033 42.27019
#
# Velocity S-wave (km/s) = 3.93543 4.06609 4.00129
# Velocity P-wave (km/s) = 6.60066 7.01058 6.80871
#
# Compressibility (1/GPa) = 0.01652641
#
# Stress axis : x y z
#
# Youngs Moduli (GPa) = 112.96158 73.85653 139.18454
#
# Poissons Ratio (x) = 0.11102 0.41485
# Poissons Ratio (y) = 0.16981 0.28415
# Poissons Ratio (z) = 0.33669 0.15078
#
# Static dielectric constant tensor:
#      x y z
#    x 5.305170 0.000000 0.000000 
#    y 0.000000 4.470890 0.000000 
#    z 0.000000 0.000000 5.391750 
# 
# 
# High freq. dielectric constant tensor:
#      x y z
#    x 2.081570 0.000000 0.000000 
#    y 0.000000 2.025390 0.000000 
#    z 0.000000 0.000000 2.096100 
# 
# From -- ./inp_files/766.got.cif
#   From: 2010.03.12/outbox.cif.g09.slc.cpg/sg45_1_cif.got.tgz:766.got - 2010.04.14 02:50:11.
