data_PCOD8190232
_publ_section_title
;
Structure prediction by ZEFSAII (Michael W. Deem and Ramdas Pophale) SiO2 
 PCOD8190232
Probable space group: I M M 2
;
_chemical_formula_sum "Si O2"
_cell_formula_units_Z 26
_cell_length_a 7.653546
_cell_length_b 16.599450
_cell_length_c 9.796632
_cell_angle_alpha 90.000000
_cell_angle_beta 90.000000
_cell_angle_gamma 90.000000
_cell_volume 1244.609724
_symmetry_space_group_name_H-M "I M M 2"
_symmetry_group_IT_number 44
_symmetry_cell_setting 'orthorhombic'
loop_
_space_group_symop_operation_xyz
x,y,z
-x,-y,z
-x,y,z
x,-y,z
1/2+x,1/2+y,1/2+z
1/2-x,1/2-y,1/2+z
1/2-x,1/2+y,1/2+z
1/2+x,1/2-y,1/2+z
loop_
_atom_site_type_symbol
_atom_site_label
_atom_site_fract_x
_atom_site_fract_y
_atom_site_fract_z
Si Si1 0.700553 0.500000 0.827330
Si Si2 0.000000 0.500000 0.043436
Si Si3 0.303119 0.694332 0.421110
Si Si4 0.000000 0.411250 0.304057
Si Si5 0.201669 0.826553 0.225983
O O1 0.500000 0.500000 0.878745
O O2 0.823549 0.500000 0.957680
O O3 0.740392 0.421786 0.735300
O O4 0.000000 0.420242 0.139185
O O5 0.500000 0.658587 0.421429
O O6 0.176368 0.633961 0.343346
O O7 0.306102 0.780297 0.344646
O O8 0.237514 0.704206 0.577107
O O9 0.000000 0.500000 0.373746
O O10 0.000000 0.806055 0.250345
#
# Coordination Sequence:
#
# PCOD8190232 Si02
#       5
#     4   2   8   4   8
#     4  10  24  43  67  99 135 181 217 276 333 394
#     4  10  26  42  70  94 142 164 226 276 322 416
#     4  11  25  42  68  98 135 178 218 276 335 394
#     4  10  26  45  64  98 137 166 222 285 321 407
#     4  10  24  44  67  99 138 171 229 273 328 401
#
# _framework density 20.890083000000001
#
# number of rings (size 3 to 8) (size 9 to 14) (size 15 to 20)
#    0.462    1.231    1.538    0.000   10.769    1.846 
#    0.000    0.000    0.000    0.000    0.000    0.000 
#    0.000    0.000    0.000    0.000    0.000    0.000 
#
# Total GULP energy -161208.972098 kJ/mol
# GULP energy per Si atom -12400.690161 kJ/mol
# Density = 2.084254 g / cm^3
# Si number density = 20.890083 Si / 1000 Ang^3
#
#
#
# Elastic Constant Matrix: (Units=GPa)
#
#
# Indices 1 2 3 4 5 6 
#
# 1 100.1635 38.2326 52.3471 0.0000 0.0000 0.0000
# 2 38.2326 129.2977 68.5842 0.0001 0.0000 0.0000
# 3 52.3471 68.5842 179.4237 0.0002 0.0000 -0.0001
# 4 0.0000 0.0001 0.0002 42.9494 0.0000 -0.0001
# 5 0.0000 0.0000 0.0000 0.0000 36.4075 0.0000
# 6 0.0000 0.0000 -0.0001 -0.0001 0.0000 21.6893
#
#
#
# Elastic Compliance Matrix: (Units=1/GPa)
#
#
# Indices 1 2 3 4 5 6 
#
# 1 0.012244 -0.002165 -0.002745 0.000000 0.000000 0.000000
# 2 -0.002165 0.010084 -0.003223 0.000000 0.000000 0.000000
# 3 -0.002745 -0.003223 0.007606 0.000000 0.000000 0.000000
# 4 0.000000 0.000000 0.000000 0.023283 0.000000 0.000000
# 5 0.000000 0.000000 0.000000 0.000000 0.027467 0.000000
# 6 0.000000 0.000000 0.000000 0.000000 0.000000 0.046106
#
#
# Mechanical properties :
#
#
# Convention : Reuss Voigt Hill
#
# Bulk Modulus (GPa) = 73.15601 80.80142 76.97871
# Shear Modulus (GPa) = 33.87266 36.85728 35.36497
#
# Velocity S-wave (km/s) = 4.03112 4.20497 4.11896
# Velocity P-wave (km/s) = 7.53406 7.89550 7.71690
#
# Compressibility (1/GPa) = 0.01366942
#
# Stress axis : x y z
#
# Youngs Moduli (GPa) = 81.66958 99.16969 131.47173
#
# Poissons Ratio (x) = 0.21466 0.36088
# Poissons Ratio (y) = 0.17678 0.42373
# Poissons Ratio (z) = 0.22418 0.31962
#
# Static dielectric constant tensor:
#      x y z
#    x 3.812450 0.000000 0.000000 
#    y 0.000000 3.802430 0.000000 
#    z 0.000000 0.000000 3.763550 
# 
# 
# High freq. dielectric constant tensor:
#      x y z
#    x 1.824510 0.000000 0.000000 
#    y 0.000000 1.817120 0.000000 
#    z 0.000000 0.000000 1.818560 
# 
# From -- ./inp_files/4026.got.cif
#   From: 2010.03.12/outbox.cif.g09.slc.cpg/sg44_3_cif.got.tgz:4026.got - 2010.04.14 02:36:11.
