data_PCOD8190375
_publ_section_title
;
Structure prediction by ZEFSAII (Michael W. Deem and Ramdas Pophale) SiO2 
 PCOD8190375
Probable space group: I B A 2
;
_chemical_formula_sum "Si O2"
_cell_formula_units_Z 56
_cell_length_a 15.121315
_cell_length_b 13.624449
_cell_length_c 14.585003
_cell_angle_alpha 90.000000
_cell_angle_beta 90.000000
_cell_angle_gamma 90.000000
_cell_volume 3004.796266
_symmetry_space_group_name_H-M "I B A 2"
_symmetry_group_IT_number 45
_symmetry_cell_setting 'orthorhombic'
loop_
_space_group_symop_operation_xyz
x,y,z
-x,-y,z
-x,y,1/2+z
x,-y,1/2+z
1/2+x,1/2+y,1/2+z
1/2-x,1/2-y,1/2+z
1/2-x,1/2+y,z
1/2+x,1/2-y,z
loop_
_atom_site_type_symbol
_atom_site_label
_atom_site_fract_x
_atom_site_fract_y
_atom_site_fract_z
Si Si1 0.951985 0.096176 0.738820
Si Si2 0.522787 0.706447 0.395276
Si Si3 0.254912 0.475784 0.045788
Si Si4 0.325598 0.842403 0.895271
Si Si5 0.245089 0.024214 0.244753
Si Si6 0.205339 0.128028 0.895271
Si Si7 0.451986 0.596178 0.551737
O O1 0.848938 0.074876 0.724758
O O2 0.961853 0.188957 0.806436
O O3 0.000004 0.126360 0.645282
O O4 0.000000 0.000000 0.779657
O O5 0.569414 0.813893 0.395271
O O6 0.599006 0.622838 0.395268
O O7 0.461866 0.688961 0.484127
O O8 0.211869 0.499999 0.145270
O O9 0.348937 0.425119 0.065783
O O10 0.193952 0.401466 0.988237
O O11 0.260966 0.575499 0.987352
O O12 0.306047 0.901463 0.802302
O O13 0.265610 0.742791 0.895272
O O14 0.239038 0.924502 0.303192
O O15 0.500000 0.500000 0.510902
#
# Coordination Sequence:
#
# PCOD8190375 Si02
#       7
#     8   8   8   8   8   8   8
#     4  11  17  28  50  80 103 136 170 217 280 316
#     4  10  17  32  46  69 116 136 168 216 252 340
#     4  11  19  32  53  79 111 140 180 221 272 328
#     4   9  22  33  47  77 110 152 174 209 281 326
#     4  11  19  32  53  79 111 140 180 221 272 328
#     4   9  18  32  45  72 108 144 172 212 266 321
#     4  11  17  28  50  80 103 136 170 217 280 316
#
# _framework density 18.636869999999998
#
# number of rings (size 3 to 8) (size 9 to 14) (size 15 to 20)
#    0.857    0.857    5.714    2.143    0.000    1.143 
#    0.000    0.000    0.000    0.000    0.000   16.000 
#    0.000    0.000    0.000    0.000    0.000    0.000 
#
# Total GULP energy -346916.802227 kJ/mol
# GULP energy per Si atom -12389.885794 kJ/mol
# Density = 1.859445 g / cm^3
# Si number density = 18.636870 Si / 1000 Ang^3
#
#
#
# Elastic Constant Matrix: (Units=GPa)
#
#
# Indices 1 2 3 4 5 6 
#
# 1 31.9814 17.7913 24.2936 0.0000 0.0000 0.0000
# 2 17.7913 88.9079 59.5988 0.0000 0.0000 0.0000
# 3 24.2936 59.5988 167.7122 0.0000 0.0000 0.0000
# 4 0.0000 0.0000 0.0000 16.1520 0.0000 0.0000
# 5 0.0000 0.0000 0.0000 0.0000 7.7222 0.0000
# 6 0.0000 0.0000 0.0000 0.0000 0.0000 27.9720
#
#
#
# Elastic Compliance Matrix: (Units=1/GPa)
#
#
# Indices 1 2 3 4 5 6 
#
# 1 0.036732 -0.004967 -0.003556 0.000000 0.000000 0.000000
# 2 -0.004967 0.015436 -0.004766 0.000000 0.000000 0.000000
# 3 -0.003556 -0.004766 0.008171 0.000000 0.000000 0.000000
# 4 0.000000 0.000000 0.000000 0.061912 0.000000 0.000000
# 5 0.000000 0.000000 0.000000 0.000000 0.129497 0.000000
# 6 0.000000 0.000000 0.000000 0.000000 0.000000 0.035750
#
#
# Mechanical properties :
#
#
# Convention : Reuss Voigt Hill
#
# Bulk Modulus (GPa) = 29.61857 54.66323 42.14090
# Shear Modulus (GPa) = 15.36898 22.83042 19.09970
#
# Velocity S-wave (km/s) = 2.87479 3.50382 3.20478
# Velocity P-wave (km/s) = 5.19098 6.76486 6.02949
#
# Compressibility (1/GPa) = 0.03376260
#
# Stress axis : x y z
#
# Youngs Moduli (GPa) = 27.22406 64.78190 122.37893
#
# Poissons Ratio (x) = 0.32176 0.43515
# Poissons Ratio (y) = 0.13522 0.58327
# Poissons Ratio (z) = 0.09680 0.30876
#
# Static dielectric constant tensor:
#      x y z
#    x 3.042920 0.000000 0.000000 
#    y 0.000000 3.153870 0.000000 
#    z 0.000000 0.000000 3.473700 
# 
# 
# High freq. dielectric constant tensor:
#      x y z
#    x 1.682800 0.000000 0.000000 
#    y 0.000000 1.693930 0.000000 
#    z 0.000000 0.000000 1.737970 
# 
# From -- ./inp_files/6623.got.cif
#   From: 2010.03.12/outbox.cif.g09.slc.cpg/sg45_4_cif.got.tgz:6623.got - 2010.04.14 02:50:11.
