data_PCOD8190141
_publ_section_title
;
Structure prediction by ZEFSAII (Michael W. Deem and Ramdas Pophale) SiO2 
 PCOD8190141
Probable space group: I M M 2
;
_chemical_formula_sum "Si O2"
_cell_formula_units_Z 48
_cell_length_a 8.895849
_cell_length_b 16.950502
_cell_length_c 16.609726
_cell_angle_alpha 90.000000
_cell_angle_beta 90.000000
_cell_angle_gamma 90.000000
_cell_volume 2504.565739
_symmetry_space_group_name_H-M "I M M 2"
_symmetry_group_IT_number 44
_symmetry_cell_setting 'orthorhombic'
loop_
_space_group_symop_operation_xyz
x,y,z
-x,-y,z
-x,y,z
x,-y,z
1/2+x,1/2+y,1/2+z
1/2-x,1/2-y,1/2+z
1/2-x,1/2+y,1/2+z
1/2+x,1/2-y,1/2+z
loop_
_atom_site_type_symbol
_atom_site_label
_atom_site_fract_x
_atom_site_fract_y
_atom_site_fract_z
Si Si1 0.824799 0.500000 0.216440
Si Si2 0.326433 0.851207 0.822289
Si Si3 0.824909 0.408374 0.631401
Si Si4 0.822211 0.000000 0.545872
Si Si5 0.172206 0.177783 0.275172
Si Si6 0.177281 0.182275 0.986549
Si Si7 0.176186 0.844659 0.458719
O O1 0.778865 0.423426 0.266696
O O2 0.726928 0.500000 0.137237
O O3 0.000000 0.500000 0.194016
O O4 0.500000 0.856010 0.849329
O O5 0.297346 0.771520 0.772030
O O6 0.227866 0.855492 0.902406
O O7 0.784037 0.500000 0.640101
O O8 0.782246 0.365094 0.713941
O O9 0.732013 0.373164 0.557990
O O10 0.000000 0.395346 0.614531
O O11 0.758909 0.922418 0.501656
O O12 0.000000 0.000000 0.539894
O O13 0.210449 0.146712 0.364237
O O14 0.000000 0.158757 0.252063
O O15 0.241888 0.269942 0.997763
O O16 0.000000 0.187396 0.989350
O O17 0.000000 0.832369 0.473555
#
# Coordination Sequence:
#
# PCOD8190141 Si02
#       7
#     4   8   8   4   8   8   8
#     4  10  22  38  60  89 122 157 194 237 288 347
#     4   9  20  40  62  86 119 158 194 235 293 351
#     4  11  25  41  59  85 119 156 196 242 296 350
#     4  10  22  38  60  91 122 155 196 241 286 339
#     4   9  19  37  62  87 116 153 197 241 289 347
#     4  11  23  39  62  89 117 152 197 245 293 347
#     4   9  20  40  63  88 120 158 194 236 294 349
#
# _framework density 19.164999000000002
#
# number of rings (size 3 to 8) (size 9 to 14) (size 15 to 20)
#    0.000    2.167    0.000    3.000    4.667    5.333 
#    0.000    0.000    0.000    0.000    0.000    0.000 
#    0.000    0.000    0.000    0.000    0.000    0.000 
#
# Total GULP energy -297698.945577 kJ/mol
# GULP energy per Si atom -12404.122732 kJ/mol
# Density = 1.912138 g / cm^3
# Si number density = 19.164999 Si / 1000 Ang^3
#
#
#
# Elastic Constant Matrix: (Units=GPa)
#
#
# Indices 1 2 3 4 5 6 
#
# 1 76.0352 47.5937 41.0534 0.0000 0.0000 0.0000
# 2 47.5937 153.0728 80.6156 0.0000 0.0000 0.0000
# 3 41.0534 80.6156 100.1554 0.0000 0.0000 0.0000
# 4 0.0000 0.0000 0.0000 30.7438 0.0000 0.0000
# 5 0.0000 0.0000 0.0000 0.0000 37.6090 0.0000
# 6 0.0000 0.0000 0.0000 0.0000 0.0000 25.5423
#
#
#
# Elastic Compliance Matrix: (Units=1/GPa)
#
#
# Indices 1 2 3 4 5 6 
#
# 1 0.017603 -0.002904 -0.004878 0.000000 0.000000 0.000000
# 2 -0.002904 0.011819 -0.008323 0.000000 0.000000 0.000000
# 3 -0.004878 -0.008323 0.018683 0.000000 0.000000 0.000000
# 4 0.000000 0.000000 0.000000 0.032527 0.000000 0.000000
# 5 0.000000 0.000000 0.000000 0.000000 0.026589 0.000000
# 6 0.000000 0.000000 0.000000 0.000000 0.000000 0.039151
#
#
# Mechanical properties :
#
#
# Convention : Reuss Voigt Hill
#
# Bulk Modulus (GPa) = 62.91089 74.19875 68.55482
# Shear Modulus (GPa) = 27.19156 29.44575 28.31865
#
# Velocity S-wave (km/s) = 3.77080 3.92399 3.84816
# Velocity P-wave (km/s) = 7.20110 7.70260 7.45607
#
# Compressibility (1/GPa) = 0.01589550
#
# Stress axis : x y z
#
# Youngs Moduli (GPa) = 56.80704 84.60945 53.52495
#
# Poissons Ratio (x) = 0.24574 0.26109
# Poissons Ratio (y) = 0.16499 0.44547
# Poissons Ratio (z) = 0.27710 0.70418
#
# Static dielectric constant tensor:
#      x y z
#    x 3.391910 0.000000 0.000000 
#    y 0.000000 3.812630 0.000000 
#    z 0.000000 0.000000 3.469720 
# 
# 
# High freq. dielectric constant tensor:
#      x y z
#    x 1.737920 0.000000 0.000000 
#    y 0.000000 1.758740 0.000000 
#    z 0.000000 0.000000 1.749560 
# 
# From -- ./inp_files/16117.got.cif
#   From: 2010.03.12/outbox.cif.g09.slc.cpg/sg44_9_cif.got.tgz:16117.got - 2010.04.14 02:36:11.
