data_PCOD8190172
_publ_section_title
;
Structure prediction by ZEFSAII (Michael W. Deem and Ramdas Pophale) SiO2 
 PCOD8190172
Probable space group: I M M 2
;
_chemical_formula_sum "Si O2"
_cell_formula_units_Z 48
_cell_length_a 16.085095
_cell_length_b 15.879212
_cell_length_c 8.809286
_cell_angle_alpha 90.000000
_cell_angle_beta 90.000000
_cell_angle_gamma 90.000000
_cell_volume 2250.055793
_symmetry_space_group_name_H-M "I M M 2"
_symmetry_group_IT_number 44
_symmetry_cell_setting 'orthorhombic'
loop_
_space_group_symop_operation_xyz
x,y,z
-x,-y,z
-x,y,z
x,-y,z
1/2+x,1/2+y,1/2+z
1/2-x,1/2-y,1/2+z
1/2-x,1/2+y,1/2+z
1/2+x,1/2-y,1/2+z
loop_
_atom_site_type_symbol
_atom_site_label
_atom_site_fract_x
_atom_site_fract_y
_atom_site_fract_z
Si Si1 0.657401 0.908107 0.389140
Si Si2 0.842599 0.091893 0.519876
Si Si3 0.659441 0.756672 0.882591
Si Si4 0.840559 0.243328 0.026426
Si Si5 0.094412 0.093663 0.843680
Si Si6 0.405588 0.093663 0.065336
O O1 0.750000 0.910619 0.454508
O O2 0.612067 0.828373 0.467808
O O3 0.656120 0.891420 0.207714
O O4 0.615000 0.000000 0.421929
O O5 0.887933 0.171627 0.441208
O O6 0.843880 0.108580 0.701303
O O7 0.885000 0.000000 0.487087
O O8 0.665415 0.750000 0.704508
O O9 0.750000 0.761584 0.954508
O O10 0.609770 0.839710 0.931701
O O11 0.890230 0.160290 0.977315
O O12 0.000000 0.102985 0.784482
O O13 0.109456 0.000000 0.911414
O O14 0.500000 0.102985 0.124535
O O15 0.390544 0.000000 0.997602
#
# Coordination Sequence:
#
# PCOD8190172 Si02
#       6
#     8   8   8   8   8   8
#     4   9  18  35  58  83 113 149 191 236 282 339
#     4   9  18  35  58  83 113 149 191 236 282 339
#     4  11  22  36  58  87 118 154 196 241 288 343
#     4  11  22  36  58  87 118 154 196 241 288 343
#     4  10  22  40  61  86 117 154 195 240 292 346
#     4  10  22  40  61  86 117 154 195 240 292 346
#
# _framework density 21.332803999999999
#
# number of rings (size 3 to 8) (size 9 to 14) (size 15 to 20)
#    0.000    2.000    0.000    5.000    0.000    5.333 
#    0.000    0.000    0.000    4.000    0.000    0.000 
#    0.000    0.000    0.000    0.000    0.000    0.000 
#
# Total GULP energy -297371.853828 kJ/mol
# GULP energy per Si atom -12390.493910 kJ/mol
# Density = 2.128425 g / cm^3
# Si number density = 21.332804 Si / 1000 Ang^3
#
#
#
# Elastic Constant Matrix: (Units=GPa)
#
#
# Indices 1 2 3 4 5 6 
#
# 1 55.8366 29.4158 39.9353 0.0000 0.0000 0.0000
# 2 29.4158 224.7471 95.7481 0.0000 0.0000 0.0000
# 3 39.9353 95.7481 162.0115 0.0000 0.0000 0.0000
# 4 0.0000 0.0000 0.0000 25.2126 0.0000 0.0000
# 5 0.0000 0.0000 0.0000 0.0000 18.0607 0.0000
# 6 0.0000 0.0000 0.0000 0.0000 0.0000 62.3518
#
#
#
# Elastic Compliance Matrix: (Units=1/GPa)
#
#
# Indices 1 2 3 4 5 6 
#
# 1 0.021838 -0.000755 -0.004937 0.000000 0.000000 0.000000
# 2 -0.000755 0.005973 -0.003344 0.000000 0.000000 0.000000
# 3 -0.004937 -0.003344 0.009365 0.000000 0.000000 0.000000
# 4 0.000000 0.000000 0.000000 0.039663 0.000000 0.000000
# 5 0.000000 0.000000 0.000000 0.000000 0.055369 0.000000
# 6 0.000000 0.000000 0.000000 0.000000 0.000000 0.016038
#
#
# Mechanical properties :
#
#
# Convention : Reuss Voigt Hill
#
# Bulk Modulus (GPa) = 52.34211 85.86596 69.10404
# Shear Modulus (GPa) = 28.95438 39.62476 34.28957
#
# Velocity S-wave (km/s) = 3.68811 4.31450 4.01354
# Velocity P-wave (km/s) = 6.53647 8.07204 7.34450
#
# Compressibility (1/GPa) = 0.01910508
#
# Stress axis : x y z
#
# Youngs Moduli (GPa) = 45.79166 167.42536 106.77532
#
# Poissons Ratio (x) = 0.12642 0.52713
# Poissons Ratio (y) = 0.03458 0.35703
# Poissons Ratio (z) = 0.22606 0.55983
#
# Static dielectric constant tensor:
#      x y z
#    x 3.558900 0.000000 0.000000 
#    y 0.000000 5.299060 0.000000 
#    z 0.000000 0.000000 3.633950 
# 
# 
# High freq. dielectric constant tensor:
#      x y z
#    x 1.797060 0.000000 0.000000 
#    y 0.000000 1.877390 0.000000 
#    z 0.000000 0.000000 1.822880 
# 
# From -- ./inp_files/8123.got.cif
#   From: 2010.03.12/outbox.cif.g09.slc.cpg/sg44_5_cif.got.tgz:8123.got - 2010.04.14 02:36:11.
