data_PCOD8190859
_publ_section_title
;
Structure prediction by ZEFSAII (Michael W. Deem and Ramdas Pophale) SiO2 
 PCOD8190859
Probable space group: I B A 2
;
_chemical_formula_sum "Si O2"
_cell_formula_units_Z 56
_cell_length_a 8.701710
_cell_length_b 14.916600
_cell_length_c 19.284759
_cell_angle_alpha 90.000000
_cell_angle_beta 90.000000
_cell_angle_gamma 90.000000
_cell_volume 2503.160318
_symmetry_space_group_name_H-M "I B A 2"
_symmetry_group_IT_number 45
_symmetry_cell_setting 'orthorhombic'
loop_
_space_group_symop_operation_xyz
x,y,z
-x,-y,z
-x,y,1/2+z
x,-y,1/2+z
1/2+x,1/2+y,1/2+z
1/2-x,1/2-y,1/2+z
1/2-x,1/2+y,z
1/2+x,1/2-y,z
loop_
_atom_site_type_symbol
_atom_site_label
_atom_site_fract_x
_atom_site_fract_y
_atom_site_fract_z
Si Si1 0.293566 0.658469 0.012370
Si Si2 0.457142 0.247703 0.923297
Si Si3 0.326853 0.967939 0.022443
Si Si4 0.709406 0.127419 0.880520
Si Si5 0.328491 0.529157 0.255037
Si Si6 0.091339 0.806921 0.660896
Si Si7 0.744204 0.131986 0.162860
O O1 0.288202 0.551947 0.024181
O O2 0.329685 0.701529 0.086034
O O3 0.424244 0.682325 0.956966
O O4 0.131165 0.695766 0.984767
O O5 0.544941 0.176298 0.874165
O O6 0.345834 0.300392 0.870963
O O7 0.310134 0.907343 0.089901
O O8 0.500000 0.000000 0.013374
O O9 0.274549 0.908570 0.958133
O O10 0.728978 0.050183 0.823575
O O11 0.500000 0.500000 0.276264
O O12 0.328099 0.615576 0.205500
O O13 0.241876 0.447873 0.218156
O O14 0.126915 0.707903 0.691769
O O15 0.911694 0.824550 0.654852
#
# Coordination Sequence:
#
# PCOD8190859 Si02
#       7
#     8   8   8   8   8   8   8
#     4  11  21  41  68 101 137 174 226 287 343 405
#     4  10  23  41  67 101 131 180 229 280 346 409
#     4  12  25  41  69 105 140 174 231 292 344 400
#     4  11  24  44  67  99 138 178 229 284 342 409
#     4  10  25  46  66 102 140 182 236 282 345 417
#     4  11  23  43  72 101 139 183 227 288 349 408
#     4  11  25  46  73 103 140 181 234 285 345 412
#
# _framework density 22.37172
#
# number of rings (size 3 to 8) (size 9 to 14) (size 15 to 20)
#    0.000    1.143    2.857    3.429    4.000    3.429 
#    2.571    2.143    0.000    0.000    0.000    0.000 
#    0.000    0.000    0.000    0.000    0.000    0.000 
#
# Total GULP energy -347320.108094 kJ/mol
# GULP energy per Si atom -12404.289575 kJ/mol
# Density = 2.232080 g / cm^3
# Si number density = 22.371720 Si / 1000 Ang^3
#
#
#
# Elastic Constant Matrix: (Units=GPa)
#
#
# Indices 1 2 3 4 5 6 
#
# 1 81.4930 39.8772 43.3580 0.0000 0.0000 0.0000
# 2 39.8772 143.2960 41.1408 0.0000 0.0000 0.0000
# 3 43.3580 41.1408 99.8442 0.0000 0.0000 0.0000
# 4 0.0000 0.0000 0.0000 36.5380 0.0000 0.0000
# 5 0.0000 0.0000 0.0000 0.0000 15.8864 0.0000
# 6 0.0000 0.0000 0.0000 0.0000 0.0000 39.3895
#
#
#
# Elastic Compliance Matrix: (Units=1/GPa)
#
#
# Indices 1 2 3 4 5 6 
#
# 1 0.016998 -0.002961 -0.006161 0.000000 0.000000 0.000000
# 2 -0.002961 0.008431 -0.002188 0.000000 0.000000 0.000000
# 3 -0.006161 -0.002188 0.013593 0.000000 0.000000 0.000000
# 4 0.000000 0.000000 0.000000 0.027369 0.000000 0.000000
# 5 0.000000 0.000000 0.000000 0.000000 0.062947 0.000000
# 6 0.000000 0.000000 0.000000 0.000000 0.000000 0.025387
#
#
# Mechanical properties :
#
#
# Convention : Reuss Voigt Hill
#
# Bulk Modulus (GPa) = 60.97392 63.70949 62.34170
# Shear Modulus (GPa) = 27.35035 31.71328 29.53182
#
# Velocity S-wave (km/s) = 3.50028 3.76914 3.63719
# Velocity P-wave (km/s) = 6.60682 6.89067 6.75024
#
# Compressibility (1/GPa) = 0.01640046
#
# Stress axis : x y z
#
# Youngs Moduli (GPa) = 58.82970 118.61220 73.56870
#
# Poissons Ratio (x) = 0.35126 0.45328
# Poissons Ratio (y) = 0.17422 0.16096
# Poissons Ratio (z) = 0.36247 0.25951
#
# Static dielectric constant tensor:
#      x y z
#    x 4.063200 0.000000 0.000000 
#    y 0.000000 4.398410 0.000000 
#    z 0.000000 0.000000 3.793850 
# 
# 
# High freq. dielectric constant tensor:
#      x y z
#    x 1.883230 0.000000 0.000000 
#    y 0.000000 1.902120 0.000000 
#    z 0.000000 0.000000 1.867690 
# 
# From -- ./inp_files/8871.got.cif
#   From: 2010.03.12/outbox.cif.g09.slc.cpg/sg45_5_cif.got.tgz:8871.got - 2010.04.14 02:50:11.
