data_PCOD8190531
_publ_section_title
;
Structure prediction by ZEFSAII (Michael W. Deem and Ramdas Pophale) SiO2 
 PCOD8190531
Probable space group: I B A 2
;
_chemical_formula_sum "Si O2"
_cell_formula_units_Z 52
_cell_length_a 13.808418
_cell_length_b 9.629348
_cell_length_c 18.057318
_cell_angle_alpha 90.000000
_cell_angle_beta 90.000000
_cell_angle_gamma 90.000000
_cell_volume 2401.010469
_symmetry_space_group_name_H-M "I B A 2"
_symmetry_group_IT_number 45
_symmetry_cell_setting 'orthorhombic'
loop_
_space_group_symop_operation_xyz
x,y,z
-x,-y,z
-x,y,1/2+z
x,-y,1/2+z
1/2+x,1/2+y,1/2+z
1/2-x,1/2-y,1/2+z
1/2-x,1/2+y,z
1/2+x,1/2-y,z
loop_
_atom_site_type_symbol
_atom_site_label
_atom_site_fract_x
_atom_site_fract_y
_atom_site_fract_z
Si Si1 0.871149 0.114456 0.373000
Si Si2 0.500000 0.000000 0.937470
Si Si3 0.704191 0.322829 0.369290
Si Si4 0.500000 0.500000 0.001438
Si Si5 0.519843 0.214524 0.310128
Si Si6 0.500000 0.000000 0.685894
Si Si7 0.346655 0.021458 0.064725
Si Si8 0.834095 0.171124 0.037221
O O1 0.810812 0.258365 0.368741
O O2 0.959373 0.140545 0.315314
O O3 0.798710 0.988360 0.350810
O O4 0.919577 0.083371 0.452904
O O5 0.493564 0.866061 0.885676
O O6 0.595606 0.999413 0.988383
O O7 0.634418 0.246975 0.309693
O O8 0.661308 0.298503 0.450191
O O9 0.559978 0.604592 0.054754
O O10 0.486967 0.134639 0.236998
O O11 0.593046 0.971736 0.635442
O O12 0.320689 0.182870 0.078461
O O13 0.249604 0.932766 0.061967
#
# Coordination Sequence:
#
# PCOD8190531 Si02
#       8
#     8   4   8   4   8   4   8   8
#     4  11  21  38  61 102 144 162 223 278 361 403
#     4  10  20  36  70  96 126 170 218 290 334 402
#     4  11  22  36  67 109 126 174 215 295 344 419
#     4  10  20  36  66 110 138 166 220 306 356 410
#     4  11  21  43  65  99 135 179 227 286 351 413
#     4  10  28  44  66  92 142 190 230 286 350 436
#     4  11  23  44  64  98 133 177 231 282 352 419
#     4  11  21  38  69  96 134 171 226 286 350 413
#
# _framework density 21.657547999999998
#
# number of rings (size 3 to 8) (size 9 to 14) (size 15 to 20)
#    0.000    1.231    4.615    2.769    4.308    3.692 
#    2.769    0.000    6.769    0.000    0.000    0.000 
#    0.000    0.000    0.000    0.000    0.000    0.000 
#
# Total GULP energy -322294.586076 kJ/mol
# GULP energy per Si atom -12395.945618 kJ/mol
# Density = 2.160825 g / cm^3
# Si number density = 21.657548 Si / 1000 Ang^3
#
#
#
# Elastic Constant Matrix: (Units=GPa)
#
#
# Indices 1 2 3 4 5 6 
#
# 1 133.2860 57.9471 22.8488 0.0000 0.0000 0.0000
# 2 57.9471 125.8320 28.5692 0.0000 0.0000 0.0000
# 3 22.8488 28.5692 79.1732 0.0000 0.0000 0.0000
# 4 0.0000 0.0000 0.0000 19.1732 0.0000 0.0000
# 5 0.0000 0.0000 0.0000 0.0000 16.1989 0.0000
# 6 0.0000 0.0000 0.0000 0.0000 0.0000 52.4900
#
#
#
# Elastic Compliance Matrix: (Units=1/GPa)
#
#
# Indices 1 2 3 4 5 6 
#
# 1 0.009496 -0.004085 -0.001266 0.000000 0.000000 0.000000
# 2 -0.004085 0.010414 -0.002579 0.000000 0.000000 0.000000
# 3 -0.001266 -0.002579 0.013927 0.000000 0.000000 0.000000
# 4 0.000000 0.000000 0.000000 0.052156 0.000000 0.000000
# 5 0.000000 0.000000 0.000000 0.000000 0.061732 0.000000
# 6 0.000000 0.000000 0.000000 0.000000 0.000000 0.019051
#
#
# Mechanical properties :
#
#
# Convention : Reuss Voigt Hill
#
# Bulk Modulus (GPa) = 55.63154 61.89126 58.76140
# Shear Modulus (GPa) = 26.50703 32.83416 29.67060
#
# Velocity S-wave (km/s) = 3.50225 3.89789 3.70535
# Velocity P-wave (km/s) = 6.48822 6.99266 6.74516
#
# Compressibility (1/GPa) = 0.01797542
#
# Stress axis : x y z
#
# Youngs Moduli (GPa) = 105.30828 96.02437 71.80547
#
# Poissons Ratio (x) = 0.39231 0.09092
# Poissons Ratio (y) = 0.43024 0.18517
# Poissons Ratio (z) = 0.13334 0.24763
#
# Static dielectric constant tensor:
#      x y z
#    x 4.019010 0.000000 0.000000 
#    y 0.000000 4.269940 0.000000 
#    z 0.000000 0.000000 3.467880 
# 
# 
# High freq. dielectric constant tensor:
#      x y z
#    x 1.864600 0.000000 0.000000 
#    y 0.000000 1.866370 0.000000 
#    z 0.000000 0.000000 1.792550 
# 
# From -- ./inp_files/8856.got.cif
#   From: 2010.03.12/outbox.cif.g09.slc.cpg/sg45_5_cif.got.tgz:8856.got - 2010.04.14 02:50:11.
