data_PCOD8190475
_publ_section_title
;
Structure prediction by ZEFSAII (Michael W. Deem and Ramdas Pophale) SiO2 
 PCOD8190475
Probable space group: I B A 2
;
_chemical_formula_sum "Si O2"
_cell_formula_units_Z 64
_cell_length_a 23.726162
_cell_length_b 8.538648
_cell_length_c 14.383751
_cell_angle_alpha 90.000000
_cell_angle_beta 90.000000
_cell_angle_gamma 90.000000
_cell_volume 2913.994704
_symmetry_space_group_name_H-M "I B A 2"
_symmetry_group_IT_number 45
_symmetry_cell_setting 'orthorhombic'
loop_
_space_group_symop_operation_xyz
x,y,z
-x,-y,z
-x,y,1/2+z
x,-y,1/2+z
1/2+x,1/2+y,1/2+z
1/2-x,1/2-y,1/2+z
1/2-x,1/2+y,z
1/2+x,1/2-y,z
loop_
_atom_site_type_symbol
_atom_site_label
_atom_site_fract_x
_atom_site_fract_y
_atom_site_fract_z
Si Si1 0.518520 0.179581 0.144380
Si Si2 0.715559 0.704280 0.797723
Si Si3 0.921896 0.247376 0.266572
Si Si4 0.625725 0.925089 0.724463
Si Si5 0.547461 0.871053 0.447431
Si Si6 0.227280 0.219566 0.504343
Si Si7 0.832671 0.540185 0.024817
Si Si8 0.310796 0.608643 0.702784
O O1 0.470677 0.284459 0.191220
O O2 0.577247 0.200496 0.198876
O O3 0.500000 0.000000 0.148317
O O4 0.526276 0.225603 0.037068
O O5 0.669688 0.841927 0.791533
O O6 0.713988 0.639948 0.903607
O O7 0.705068 0.569724 0.722389
O O8 0.775598 0.773949 0.767657
O O9 0.900136 0.425818 0.275066
O O10 0.946969 0.232952 0.370584
O O11 0.874705 0.125524 0.237363
O O12 0.655583 0.991492 0.632621
O O13 0.608409 0.952443 0.469119
O O14 0.500000 0.000000 0.418049
O O15 0.208458 0.399386 0.492829
O O16 0.295199 0.199576 0.516878
O O17 0.195558 0.138863 0.591923
#
# Coordination Sequence:
#
# PCOD8190475 Si02
#       8
#     8   8   8   8   8   8   8   8
#     4   8  18  34  58  91 123 161 212 269 329 385
#     4  12  25  42  64  95 130 178 216 267 337 399
#     4  11  20  39  63  96 127 165 215 279 326 392
#     4  10  19  38  62  90 127 162 212 268 327 388
#     4  10  20  35  63  96 129 166 224 278 333 392
#     4  12  24  41  64  92 134 173 215 270 334 402
#     4  11  22  39  63  96 130 173 215 272 335 395
#     4  12  25  42  64  96 134 170 224 271 329 403
#
# _framework density 21.962976000000001
#
# number of rings (size 3 to 8) (size 9 to 14) (size 15 to 20)
#    0.000    1.250    2.500    5.625    0.000    0.000 
#    2.250    0.625    0.000    0.000    0.000    2.625 
#    0.000    0.000    0.000    0.000    0.000    0.000 
#
# Total GULP energy -396664.021544 kJ/mol
# GULP energy per Si atom -12395.750673 kJ/mol
# Density = 2.191299 g / cm^3
# Si number density = 21.962976 Si / 1000 Ang^3
#
#
#
# Elastic Constant Matrix: (Units=GPa)
#
#
# Indices 1 2 3 4 5 6 
#
# 1 128.3470 15.5586 24.5246 0.0000 0.0000 0.0000
# 2 15.5586 40.9957 1.7686 0.0000 0.0000 0.0000
# 3 24.5246 1.7686 124.6702 0.0000 0.0000 0.0000
# 4 0.0000 0.0000 0.0000 21.6286 0.0000 0.0000
# 5 0.0000 0.0000 0.0000 0.0000 30.2428 0.0000
# 6 0.0000 0.0000 0.0000 0.0000 0.0000 25.6928
#
#
#
# Elastic Compliance Matrix: (Units=1/GPa)
#
#
# Indices 1 2 3 4 5 6 
#
# 1 0.008484 -0.003150 -0.001624 0.000000 0.000000 0.000000
# 2 -0.003150 0.025577 0.000257 0.000000 0.000000 0.000000
# 3 -0.001624 0.000257 0.008337 0.000000 0.000000 0.000000
# 4 0.000000 0.000000 0.000000 0.046235 0.000000 0.000000
# 5 0.000000 0.000000 0.000000 0.000000 0.033066 0.000000
# 6 0.000000 0.000000 0.000000 0.000000 0.000000 0.038921
#
#
# Mechanical properties :
#
#
# Convention : Reuss Voigt Hill
#
# Bulk Modulus (GPa) = 29.97283 41.96852 35.97068
# Shear Modulus (GPa) = 27.65867 32.32357 29.99112
#
# Velocity S-wave (km/s) = 3.55256 3.84048 3.69932
# Velocity P-wave (km/s) = 5.52306 6.23024 5.88728
#
# Compressibility (1/GPa) = 0.03336355
#
# Stress axis : x y z
#
# Youngs Moduli (GPa) = 117.87552 39.09757 119.94693
#
# Poissons Ratio (x) = 0.12314 0.19481
# Poissons Ratio (y) = 0.37126 -0.03080
# Poissons Ratio (z) = 0.19145 -0.01004
#
# Static dielectric constant tensor:
#      x y z
#    x 4.321800 0.000000 0.000000 
#    y 0.000000 3.395150 0.000000 
#    z 0.000000 0.000000 4.232060 
# 
# 
# High freq. dielectric constant tensor:
#      x y z
#    x 1.877130 0.000000 0.000000 
#    y 0.000000 1.808890 0.000000 
#    z 0.000000 0.000000 1.885210 
# 
# From -- ./inp_files/7052.got.cif
#   From: 2010.03.12/outbox.cif.g09.slc.cpg/sg45_4_cif.got.tgz:7052.got - 2010.04.14 02:50:11.
