data_PCOD8190290
_publ_section_title
;
Structure prediction by ZEFSAII (Michael W. Deem and Ramdas Pophale) SiO2 
 PCOD8190290
Probable space group: I M M 2
;
_chemical_formula_sum "Si O2"
_cell_formula_units_Z 64
_cell_length_a 23.676311
_cell_length_b 8.390234
_cell_length_c 15.391736
_cell_angle_alpha 90.000000
_cell_angle_beta 90.000000
_cell_angle_gamma 90.000000
_cell_volume 3057.565117
_symmetry_space_group_name_H-M "I M M 2"
_symmetry_group_IT_number 44
_symmetry_cell_setting 'orthorhombic'
loop_
_space_group_symop_operation_xyz
x,y,z
-x,-y,z
-x,y,z
x,-y,z
1/2+x,1/2+y,1/2+z
1/2-x,1/2-y,1/2+z
1/2-x,1/2+y,1/2+z
1/2+x,1/2-y,1/2+z
loop_
_atom_site_type_symbol
_atom_site_label
_atom_site_fract_x
_atom_site_fract_y
_atom_site_fract_z
Si Si1 0.367572 0.685665 0.815210
Si Si2 0.563492 0.310429 0.649601
Si Si3 0.064846 0.816318 0.656239
Si Si4 0.745196 0.185096 0.748052
Si Si5 0.636221 0.688888 0.487492
Si Si6 0.137326 0.314962 0.806809
Si Si7 0.747467 0.313818 0.048889
Si Si8 0.369732 0.817137 0.998247
O O1 0.378528 0.500000 0.829322
O O2 0.403377 0.753514 0.734013
O O3 0.301298 0.713602 0.799160
O O4 0.389011 0.776668 0.900638
O O5 0.500000 0.241586 0.650165
O O6 0.562743 0.500000 0.650062
O O7 0.595013 0.248381 0.563368
O O8 0.092417 0.708519 0.730442
O O9 0.095420 0.790816 0.564690
O O10 0.000000 0.765912 0.646535
O O11 0.071641 0.000000 0.683113
O O12 0.806093 0.216948 0.788149
O O13 0.744848 0.240260 0.648191
O O14 0.730010 0.000000 0.757391
O O15 0.643012 0.500000 0.491367
O O16 0.610460 0.746323 0.395791
O O17 0.696831 0.771630 0.495777
O O18 0.151956 0.500000 0.815400
O O19 0.733439 0.500000 0.041688
O O20 0.696680 0.215654 0.006927
O O21 0.382845 0.000000 0.018850
#
# Coordination Sequence:
#
# PCOD8190290 Si02
#       8
#     8   8   8   8   8   8   8   8
#     4  11  22  39  64  93 127 164 209 258 312 371
#     4   9  20  39  63  90 119 158 208 257 302 355
#     4  11  25  46  69  92 121 162 212 261 310 367
#     4  11  22  38  63  92 127 164 205 254 314 377
#     4  11  22  39  64  93 127 164 209 258 312 371
#     4  12  25  41  64  94 129 164 205 253 312 376
#     4  11  22  38  63  92 127 164 205 254 314 377
#     4  12  25  41  64  94 129 164 205 253 312 376
#
# _framework density 20.931688000000001
#
# number of rings (size 3 to 8) (size 9 to 14) (size 15 to 20)
#    0.000    1.000    2.500    4.875    0.000    3.000 
#    0.000    2.500    0.000    5.250    0.000    0.000 
#    0.000    0.000    0.000    0.000    0.000    0.000 
#
# Total GULP energy -397050.876321 kJ/mol
# GULP energy per Si atom -12407.839885 kJ/mol
# Density = 2.088405 g / cm^3
# Si number density = 20.931688 Si / 1000 Ang^3
#
#
#
# Elastic Constant Matrix: (Units=GPa)
#
#
# Indices 1 2 3 4 5 6 
#
# 1 124.1267 7.2916 46.1023 0.0000 0.0000 0.0000
# 2 7.2916 57.9679 16.4560 0.0000 0.0000 0.0000
# 3 46.1023 16.4560 153.4320 0.0000 0.0000 0.0000
# 4 0.0000 0.0000 0.0000 32.1638 0.0000 0.0000
# 5 0.0000 0.0000 0.0000 0.0000 8.1948 0.0000
# 6 0.0000 0.0000 0.0000 0.0000 0.0000 24.5832
#
#
#
# Elastic Compliance Matrix: (Units=1/GPa)
#
#
# Indices 1 2 3 4 5 6 
#
# 1 0.009076 -0.000379 -0.002687 0.000000 0.000000 0.000000
# 2 -0.000379 0.017808 -0.001796 0.000000 0.000000 0.000000
# 3 -0.002687 -0.001796 0.007517 0.000000 0.000000 0.000000
# 4 0.000000 0.000000 0.000000 0.031091 0.000000 0.000000
# 5 0.000000 0.000000 0.000000 0.000000 0.122029 0.000000
# 6 0.000000 0.000000 0.000000 0.000000 0.000000 0.040678
#
#
# Mechanical properties :
#
#
# Convention : Reuss Voigt Hill
#
# Bulk Modulus (GPa) = 40.52051 52.80294 46.66172
# Shear Modulus (GPa) = 20.31285 30.70014 25.50649
#
# Velocity S-wave (km/s) = 3.11856 3.83388 3.49457
# Velocity P-wave (km/s) = 5.68926 6.69920 6.21478
#
# Compressibility (1/GPa) = 0.02467886
#
# Stress axis : x y z
#
# Youngs Moduli (GPa) = 110.17612 56.15304 133.02429
#
# Poissons Ratio (x) = 0.02128 0.35738
# Poissons Ratio (y) = 0.04176 0.23893
# Poissons Ratio (z) = 0.29599 0.10086
#
# Static dielectric constant tensor:
#      x y z
#    x 3.737110 0.000000 0.000000 
#    y 0.000000 3.666770 0.000000 
#    z 0.000000 0.000000 4.056750 
# 
# 
# High freq. dielectric constant tensor:
#      x y z
#    x 1.810670 0.000000 0.000000 
#    y 0.000000 1.814170 0.000000 
#    z 0.000000 0.000000 1.838610 
# 
# From -- ./inp_files/19500.got.cif
#   From: 2010.03.12/outbox.cif.g09.slc.cpg/sg44_10_cif.got.tgz:19500.got - 2010.04.14 02:36:11.
