data_PCOD8190702
_publ_section_title
;
Structure prediction by ZEFSAII (Michael W. Deem and Ramdas Pophale) SiO2 
 PCOD8190702
Probable space group: I B A 2
;
_chemical_formula_sum "Si O2"
_cell_formula_units_Z 44
_cell_length_a 29.332026
_cell_length_b 5.120740
_cell_length_c 13.271965
_cell_angle_alpha 90.000000
_cell_angle_beta 90.000000
_cell_angle_gamma 90.000000
_cell_volume 1993.471424
_symmetry_space_group_name_H-M "I B A 2"
_symmetry_group_IT_number 45
_symmetry_cell_setting 'orthorhombic'
loop_
_space_group_symop_operation_xyz
x,y,z
-x,-y,z
-x,y,1/2+z
x,-y,1/2+z
1/2+x,1/2+y,1/2+z
1/2-x,1/2-y,1/2+z
1/2-x,1/2+y,z
1/2+x,1/2-y,z
loop_
_atom_site_type_symbol
_atom_site_label
_atom_site_fract_x
_atom_site_fract_y
_atom_site_fract_z
Si Si1 0.723936 0.591172 0.528180
Si Si2 0.500000 0.000000 0.760008
Si Si3 0.357269 0.390636 0.153572
Si Si4 0.473468 0.242278 0.455825
Si Si5 0.585156 0.131318 0.128421
Si Si6 0.776259 0.133476 0.290534
O O1 0.738980 0.877347 0.567475
O O2 0.674604 0.491653 0.562485
O O3 0.721882 0.618814 0.409259
O O4 0.538451 0.873193 0.691275
O O5 0.473217 0.792071 0.833734
O O6 0.387227 0.640427 0.184094
O O7 0.326945 0.314717 0.249897
O O8 0.387947 0.142306 0.123109
O O9 0.500000 0.500000 0.487681
O O10 0.424531 0.229165 0.512554
O O11 0.500000 0.000000 0.506100
O O12 0.757036 0.860100 0.248646
#
# Coordination Sequence:
#
# PCOD8190702 Si02
#       6
#     8   4   8   8   8   8
#     4  10  21  40  65  88 126 174 210 248 313 383
#     4  10  26  44  70  88 122 180 212 262 326 392
#     4  12  25  38  63  98 129 161 204 277 317 371
#     4  10  23  43  69  87 119 169 216 258 314 396
#     4  12  26  41  65  95 131 160 217 270 324 382
#     4  10  21  40  64  89 125 168 211 249 307 385
#
# _framework density 22.072050999999998
#
# number of rings (size 3 to 8) (size 9 to 14) (size 15 to 20)
#    0.545    0.727    0.909    4.364    2.545    2.909 
#    0.000    0.000    0.000    0.000    0.000    0.000 
#    0.000    0.000    0.000    0.000    0.000    0.000 
#
# Total GULP energy -272640.665515 kJ/mol
# GULP energy per Si atom -12392.757523 kJ/mol
# Density = 2.202181 g / cm^3
# Si number density = 22.072051 Si / 1000 Ang^3
#
#
#
# Elastic Constant Matrix: (Units=GPa)
#
#
# Indices 1 2 3 4 5 6 
#
# 1 116.3812 49.6516 36.7415 0.0000 0.0000 0.0000
# 2 49.6516 156.4073 31.0002 0.0000 0.0000 0.0000
# 3 36.7415 31.0002 58.7397 0.0000 0.0000 0.0000
# 4 0.0000 0.0000 0.0000 25.3440 0.0000 0.0000
# 5 0.0000 0.0000 0.0000 0.0000 22.6728 0.0000
# 6 0.0000 0.0000 0.0000 0.0000 0.0000 51.0593
#
#
#
# Elastic Compliance Matrix: (Units=1/GPa)
#
#
# Indices 1 2 3 4 5 6 
#
# 1 0.011513 -0.002488 -0.005888 0.000000 0.000000 0.000000
# 2 -0.002488 0.007678 -0.002496 0.000000 0.000000 0.000000
# 3 -0.005888 -0.002496 0.022025 0.000000 0.000000 0.000000
# 4 0.000000 0.000000 0.000000 0.039457 0.000000 0.000000
# 5 0.000000 0.000000 0.000000 0.000000 0.044106 0.000000
# 6 0.000000 0.000000 0.000000 0.000000 0.000000 0.019585
#
#
# Mechanical properties :
#
#
# Convention : Reuss Voigt Hill
#
# Bulk Modulus (GPa) = 51.35755 62.92385 57.14070
# Shear Modulus (GPa) = 28.96910 34.09089 31.52999
#
# Velocity S-wave (km/s) = 3.62675 3.93431 3.78365
# Velocity P-wave (km/s) = 6.39190 7.01489 6.71063
#
# Compressibility (1/GPa) = 0.01947133
#
# Stress axis : x y z
#
# Youngs Moduli (GPa) = 86.86067 130.24235 45.40361
#
# Poissons Ratio (x) = 0.32400 0.26735
# Poissons Ratio (y) = 0.21608 0.11333
# Poissons Ratio (z) = 0.51146 0.32510
#
# Static dielectric constant tensor:
#      x y z
#    x 3.900770 0.000000 0.000000 
#    y 0.000000 4.208010 0.000000 
#    z 0.000000 0.000000 3.945080 
# 
# 
# High freq. dielectric constant tensor:
#      x y z
#    x 1.857820 0.000000 0.000000 
#    y 0.000000 1.883740 0.000000 
#    z 0.000000 0.000000 1.877800 
# 
# From -- ./inp_files/5158.got.cif
#   From: 2010.03.12/outbox.cif.g09.slc.cpg/sg45_3_cif.got.tgz:5158.got - 2010.04.14 02:50:11.
