data_PCOD8190927
_publ_section_title
;
Structure prediction by ZEFSAII (Michael W. Deem and Ramdas Pophale) SiO2 
 PCOD8190927
Probable space group: I B A 2
;
_chemical_formula_sum "Si O2"
_cell_formula_units_Z 40
_cell_length_a 4.896641
_cell_length_b 17.205537
_cell_length_c 16.072741
_cell_angle_alpha 90.000000
_cell_angle_beta 90.000000
_cell_angle_gamma 90.000000
_cell_volume 1354.117788
_symmetry_space_group_name_H-M "I B A 2"
_symmetry_group_IT_number 45
_symmetry_cell_setting 'orthorhombic'
loop_
_space_group_symop_operation_xyz
x,y,z
-x,-y,z
-x,y,1/2+z
x,-y,1/2+z
1/2+x,1/2+y,1/2+z
1/2-x,1/2-y,1/2+z
1/2-x,1/2+y,z
1/2+x,1/2-y,z
loop_
_atom_site_type_symbol
_atom_site_label
_atom_site_fract_x
_atom_site_fract_y
_atom_site_fract_z
Si Si1 0.146529 0.599982 0.680500
Si Si2 0.826314 0.098423 0.430362
Si Si3 0.500000 0.500000 0.075557
Si Si4 0.469575 0.302949 0.785735
Si Si5 0.461212 0.198112 0.530106
Si Si6 0.500000 0.000000 0.819805
O O1 0.239120 0.520545 0.632562
O O2 0.428964 0.638320 0.713997
O O3 0.954000 0.575525 0.759717
O O4 0.984301 0.657254 0.619504
O O5 0.004813 0.157998 0.376750
O O6 0.538602 0.140168 0.454613
O O7 0.967758 0.076145 0.517389
O O8 0.758290 0.018905 0.378806
O O9 0.157381 0.275167 0.776803
O O10 0.147795 0.224624 0.523697
#
# Coordination Sequence:
#
# PCOD8190927 Si02
#       6
#     8   8   4   8   8   4
#     4  11  25  44  73 106 148 193 248 306 373 445
#     4  11  25  44  73 106 148 193 248 306 373 445
#     4  12  26  48  76 110 150 200 252 312 376 448
#     4  11  26  48  74 106 145 192 244 306 372 444
#     4  12  25  45  74 109 149 196 248 310 376 448
#     4  10  24  44  68 104 146 196 248 308 372 444
#
# _framework density 29.539525999999999
#
# number of rings (size 3 to 8) (size 9 to 14) (size 15 to 20)
#    0.000    0.800    0.000    6.000    0.000   12.800 
#    0.000    0.000    0.000    0.000    0.000    0.000 
#    0.000    0.000    0.000    0.000    0.000    0.000 
#
# Total GULP energy -248029.535716 kJ/mol
# GULP energy per Si atom -12401.476786 kJ/mol
# Density = 2.947229 g / cm^3
# Si number density = 29.539526 Si / 1000 Ang^3
#
#
#
# Elastic Constant Matrix: (Units=GPa)
#
#
# Indices 1 2 3 4 5 6 
#
# 1 56.7513 -8.6126 9.1467 0.0000 0.0000 0.0000
# 2 -8.6126 90.5502 24.1597 0.0000 0.0000 0.0000
# 3 9.1467 24.1597 140.2358 0.0000 0.0000 0.0000
# 4 0.0000 0.0000 0.0000 52.6826 0.0000 0.0000
# 5 0.0000 0.0000 0.0000 0.0000 38.9585 0.0000
# 6 0.0000 0.0000 0.0000 0.0000 0.0000 22.3228
#
#
#
# Elastic Compliance Matrix: (Units=1/GPa)
#
#
# Indices 1 2 3 4 5 6 
#
# 1 0.018197 0.002146 -0.001557 0.000000 0.000000 0.000000
# 2 0.002146 0.011829 -0.002178 0.000000 0.000000 0.000000
# 3 -0.001557 -0.002178 0.007608 0.000000 0.000000 0.000000
# 4 0.000000 0.000000 0.000000 0.018982 0.000000 0.000000
# 5 0.000000 0.000000 0.000000 0.000000 0.025668 0.000000
# 6 0.000000 0.000000 0.000000 0.000000 0.000000 0.044797
#
#
# Mechanical properties :
#
#
# Convention : Reuss Voigt Hill
#
# Bulk Modulus (GPa) = 29.02163 37.43608 33.22886
# Shear Modulus (GPa) = 35.27508 40.31570 37.79539
#
# Velocity S-wave (km/s) = 3.45942 3.69833 3.58087
# Velocity P-wave (km/s) = 5.07964 5.56216 5.32637
#
# Compressibility (1/GPa) = 0.03445706
#
# Stress axis : x y z
#
# Youngs Moduli (GPa) = 54.95313 84.53948 131.44802
#
# Poissons Ratio (x) = -0.18143 0.20462
# Poissons Ratio (y) = -0.11794 0.28627
# Poissons Ratio (z) = 0.08554 0.18411
#
# Static dielectric constant tensor:
#      x y z
#    x 4.659940 0.000000 0.000000 
#    y 0.000000 5.531400 0.000000 
#    z 0.000000 0.000000 5.653300 
# 
# 
# High freq. dielectric constant tensor:
#      x y z
#    x 2.180090 0.000000 0.000000 
#    y 0.000000 2.220410 0.000000 
#    z 0.000000 0.000000 2.222920 
# 
# From -- ./inp_files/7266.got.cif
#   From: 2010.03.12/outbox.cif.g09.slc.cpg/sg45_4_cif.got.tgz:7266.got - 2010.04.14 02:50:11.
