data_PCOD8190953
_publ_section_title
;
Structure prediction by ZEFSAII (Michael W. Deem and Ramdas Pophale) SiO2 
 PCOD8190953
Probable space group: I B A 2
;
_chemical_formula_sum "Si O2"
_cell_formula_units_Z 60
_cell_length_a 11.086959
_cell_length_b 21.974192
_cell_length_c 10.600565
_cell_angle_alpha 90.000000
_cell_angle_beta 90.000000
_cell_angle_gamma 90.000000
_cell_volume 2582.583486
_symmetry_space_group_name_H-M "I B A 2"
_symmetry_group_IT_number 45
_symmetry_cell_setting 'orthorhombic'
loop_
_space_group_symop_operation_xyz
x,y,z
-x,-y,z
-x,y,1/2+z
x,-y,1/2+z
1/2+x,1/2+y,1/2+z
1/2-x,1/2-y,1/2+z
1/2-x,1/2+y,z
1/2+x,1/2-y,z
loop_
_atom_site_type_symbol
_atom_site_label
_atom_site_fract_x
_atom_site_fract_y
_atom_site_fract_z
Si Si1 0.260098 0.311646 0.096830
Si Si2 0.797830 0.862802 0.864199
Si Si3 0.966763 0.888934 0.472947
Si Si4 0.698776 0.830088 0.109732
Si Si5 0.879525 0.077217 0.704424
Si Si6 0.791717 0.476398 0.764581
Si Si7 0.500000 0.000000 0.934407
Si Si8 0.041121 0.388195 0.101838
O O1 0.272349 0.321883 0.245064
O O2 0.276691 0.240410 0.087414
O O3 0.131153 0.336659 0.044574
O O4 0.359219 0.346570 0.016420
O O5 0.806589 0.935190 0.835870
O O6 0.926502 0.844737 0.924991
O O7 0.693192 0.854777 0.966659
O O8 0.926392 0.928947 0.349628
O O9 0.014741 0.927070 0.597025
O O10 0.808137 0.858860 0.190651
O O11 0.568650 0.850221 0.167489
O O12 0.783079 0.022945 0.676830
O O13 0.877310 0.428006 0.694984
O O14 0.879352 0.514387 0.855156
O O15 0.480557 0.062238 0.010393
#
# Coordination Sequence:
#
# PCOD8190953 Si02
#       8
#     8   8   8   8   8   8   4   8
#     4  11  26  46  72 107 148 198 254 310 381 459
#     4  10  24  48  66 108 144 194 248 306 377 452
#     4  11  24  49  70 106 151 195 254 303 384 453
#     4  11  25  47  75 106 150 196 254 311 380 453
#     4  11  25  47  76 110 147 204 248 318 383 455
#     4  11  24  44  71 107 146 185 247 313 380 460
#     4  12  20  42  72 104 148 182 246 314 364 460
#     4  11  25  44  72 109 141 194 243 310 380 441
#
# _framework density 23.23255
#
# number of rings (size 3 to 8) (size 9 to 14) (size 15 to 20)
#    0.000    1.067    2.667    2.800    7.467    0.533 
#    7.200    0.000    0.000    0.000    0.000    0.000 
#    0.000    0.000    0.000    0.000    0.000    0.000 
#
# Total GULP energy -371653.388450 kJ/mol
# GULP energy per Si atom -12388.446282 kJ/mol
# Density = 2.317967 g / cm^3
# Si number density = 23.232550 Si / 1000 Ang^3
#
#
#
# Elastic Constant Matrix: (Units=GPa)
#
#
# Indices 1 2 3 4 5 6 
#
# 1 123.5518 47.8560 35.4165 -0.0001 0.0000 0.0000
# 2 47.8560 119.4797 28.1543 -0.0002 0.0000 0.0000
# 3 35.4165 28.1543 112.1555 0.0001 -0.0001 -0.0001
# 4 -0.0001 -0.0002 0.0001 20.6771 0.0001 0.0000
# 5 0.0000 0.0000 -0.0001 0.0001 27.7195 0.0000
# 6 0.0000 0.0000 -0.0001 0.0000 0.0000 37.9321
#
#
#
# Elastic Compliance Matrix: (Units=1/GPa)
#
#
# Indices 1 2 3 4 5 6 
#
# 1 0.010115 -0.003506 -0.002314 0.000000 0.000000 0.000000
# 2 -0.003506 0.010111 -0.001431 0.000000 0.000000 0.000000
# 3 -0.002314 -0.001431 0.010006 0.000000 0.000000 0.000000
# 4 0.000000 0.000000 0.000000 0.048363 0.000000 0.000000
# 5 0.000000 0.000000 0.000000 0.000000 0.036076 0.000000
# 6 0.000000 0.000000 0.000000 0.000000 0.000000 0.026363
#
#
# Mechanical properties :
#
#
# Convention : Reuss Voigt Hill
#
# Bulk Modulus (GPa) = 63.57268 64.22673 63.89970
# Shear Modulus (GPa) = 31.09850 33.51644 32.30747
#
# Velocity S-wave (km/s) = 3.66262 3.80234 3.73314
# Velocity P-wave (km/s) = 6.73123 6.85436 6.79307
#
# Compressibility (1/GPa) = 0.01573003
#
# Stress axis : x y z
#
# Youngs Moduli (GPa) = 98.86134 98.90019 99.93874
#
# Poissons Ratio (x) = 0.34677 0.23126
# Poissons Ratio (y) = 0.34663 0.14301
# Poissons Ratio (z) = 0.22877 0.14153
#
# Static dielectric constant tensor:
#      x y z
#    x 4.668690 0.000000 0.000000 
#    y 0.000000 4.249160 0.000000 
#    z 0.000000 0.000000 4.308330 
# 
# 
# High freq. dielectric constant tensor:
#      x y z
#    x 1.940230 0.000000 0.000000 
#    y 0.000000 1.906520 0.000000 
#    z 0.000000 0.000000 1.912080 
# 
# From -- ./inp_files/3838.got.cif
#   From: 2010.03.12/outbox.cif.g09.slc.cpg/sg45_2_cif.got.tgz:3838.got - 2010.04.14 02:50:11.
