data_PCOD8190570
_publ_section_title
;
Structure prediction by ZEFSAII (Michael W. Deem and Ramdas Pophale) SiO2 
 PCOD8190570
Probable space group: I B A 2
;
_chemical_formula_sum "Si O2"
_cell_formula_units_Z 44
_cell_length_a 26.325798
_cell_length_b 9.598238
_cell_length_c 8.808830
_cell_angle_alpha 90.000000
_cell_angle_beta 90.000000
_cell_angle_gamma 90.000000
_cell_volume 2225.826393
_symmetry_space_group_name_H-M "I B A 2"
_symmetry_group_IT_number 45
_symmetry_cell_setting 'orthorhombic'
loop_
_space_group_symop_operation_xyz
x,y,z
-x,-y,z
-x,y,1/2+z
x,-y,1/2+z
1/2+x,1/2+y,1/2+z
1/2-x,1/2-y,1/2+z
1/2-x,1/2+y,z
1/2+x,1/2-y,z
loop_
_atom_site_type_symbol
_atom_site_label
_atom_site_fract_x
_atom_site_fract_y
_atom_site_fract_z
Si Si1 0.930928 0.106317 0.952520
Si Si2 0.168845 0.622684 0.588570
Si Si3 0.147515 0.664186 0.929205
Si Si4 0.212408 0.882450 0.082563
Si Si5 0.000000 0.000000 0.710060
Si Si6 0.159709 0.106243 0.904092
O O1 0.903345 0.253417 0.974704
O O2 0.891559 0.983120 0.911913
O O3 0.971943 0.113313 0.817013
O O4 0.958499 0.079648 0.111053
O O5 0.143165 0.640126 0.750560
O O6 0.149901 0.479268 0.518345
O O7 0.228759 0.628081 0.618470
O O8 0.150043 0.742996 0.475926
O O9 0.196829 0.756923 0.970384
O O10 0.177776 0.874508 0.231993
O O11 0.203734 0.029400 0.999206
#
# Coordination Sequence:
#
# PCOD8190570 Si02
#       6
#     8   8   8   8   4   8
#     4  10  21  40  62  90 106 142 185 245 297 348
#     4  12  22  36  56  84 122 166 193 231 275 333
#     4  11  24  37  56  84 122 152 196 235 284 336
#     4  11  21  36  55  85 119 164 204 232 264 325
#     4  10  20  38  70  86 106 132 190 242 302 364
#     4  11  22  37  60  84 122 153 199 242 281 332
#
# _framework density 19.767938999999998
#
# number of rings (size 3 to 8) (size 9 to 14) (size 15 to 20)
#    0.000    1.091    0.000    9.818    0.000    0.000 
#    0.000    0.000    0.000   18.545    0.000    0.000 
#    0.000    0.000    0.000    0.000    0.000    0.000 
#
# Total GULP energy -272892.581862 kJ/mol
# GULP energy per Si atom -12404.208266 kJ/mol
# Density = 1.972295 g / cm^3
# Si number density = 19.767939 Si / 1000 Ang^3
#
#
#
# Elastic Constant Matrix: (Units=GPa)
#
#
# Indices 1 2 3 4 5 6 
#
# 1 74.2242 32.9441 16.6707 0.0000 0.0000 0.0000
# 2 32.9441 149.1906 46.9337 0.0000 0.0000 0.0000
# 3 16.6707 46.9337 112.5392 0.0000 0.0000 0.0000
# 4 0.0000 0.0000 0.0000 23.0051 0.0000 0.0000
# 5 0.0000 0.0000 0.0000 0.0000 30.8321 0.0000
# 6 0.0000 0.0000 0.0000 0.0000 0.0000 17.2539
#
#
#
# Elastic Compliance Matrix: (Units=1/GPa)
#
#
# Indices 1 2 3 4 5 6 
#
# 1 0.015028 -0.003013 -0.000969 0.000000 0.000000 0.000000
# 2 -0.003013 0.008319 -0.003023 0.000000 0.000000 0.000000
# 3 -0.000969 -0.003023 0.010290 0.000000 0.000000 0.000000
# 4 0.000000 0.000000 0.000000 0.043469 0.000000 0.000000
# 5 0.000000 0.000000 0.000000 0.000000 0.032434 0.000000
# 6 0.000000 0.000000 0.000000 0.000000 0.000000 0.057958
#
#
# Mechanical properties :
#
#
# Convention : Reuss Voigt Hill
#
# Bulk Modulus (GPa) = 50.95428 58.78347 54.86888
# Shear Modulus (GPa) = 26.58847 30.17859 28.38353
#
# Velocity S-wave (km/s) = 3.67144 3.91147 3.79335
# Velocity P-wave (km/s) = 6.61852 7.08525 6.85586
#
# Compressibility (1/GPa) = 0.01962544
#
# Stress axis : x y z
#
# Youngs Moduli (GPa) = 66.54274 120.20229 97.18024
#
# Poissons Ratio (x) = 0.36223 0.09420
# Poissons Ratio (y) = 0.20053 0.29379
# Poissons Ratio (z) = 0.06450 0.36339
#
# Static dielectric constant tensor:
#      x y z
#    x 3.602200 0.000000 0.000000 
#    y 0.000000 3.628090 0.000000 
#    z 0.000000 0.000000 3.790830 
# 
# 
# High freq. dielectric constant tensor:
#      x y z
#    x 1.762120 0.000000 0.000000 
#    y 0.000000 1.764990 0.000000 
#    z 0.000000 0.000000 1.794550 
# 
# From -- ./inp_files/1031.got.cif
#   From: 2010.03.12/outbox.cif.g09.slc.cpg/sg45_1_cif.got.tgz:1031.got - 2010.04.14 02:50:11.
