data_PCOD8190548
_publ_section_title
;
Structure prediction by ZEFSAII (Michael W. Deem and Ramdas Pophale) SiO2 
 PCOD8190548
Probable space group: I B A 2
;
_chemical_formula_sum "Si O2"
_cell_formula_units_Z 56
_cell_length_a 19.796300
_cell_length_b 8.945274
_cell_length_c 13.430593
_cell_angle_alpha 90.000000
_cell_angle_beta 90.000000
_cell_angle_gamma 90.000000
_cell_volume 2378.334101
_symmetry_space_group_name_H-M "I B A 2"
_symmetry_group_IT_number 45
_symmetry_cell_setting 'orthorhombic'
loop_
_space_group_symop_operation_xyz
x,y,z
-x,-y,z
-x,y,1/2+z
x,-y,1/2+z
1/2+x,1/2+y,1/2+z
1/2-x,1/2-y,1/2+z
1/2-x,1/2+y,z
1/2+x,1/2-y,z
loop_
_atom_site_type_symbol
_atom_site_label
_atom_site_fract_x
_atom_site_fract_y
_atom_site_fract_z
Si Si1 0.909654 0.842282 0.255530
Si Si2 0.569027 0.473878 0.947212
Si Si3 0.152361 0.790860 0.045437
Si Si4 0.698001 0.584446 0.236015
Si Si5 0.023629 0.664528 0.159966
Si Si6 0.327836 0.900992 0.363958
Si Si7 0.106080 0.696961 0.353898
O O1 0.943135 0.948450 0.338462
O O2 0.883367 0.689650 0.303506
O O3 0.963198 0.789498 0.169912
O O4 0.845523 0.934933 0.211171
O O5 0.500000 0.500000 0.009233
O O6 0.572298 0.293396 0.941709
O O7 0.634093 0.548710 0.997426
O O8 0.205963 0.822428 0.133245
O O9 0.082379 0.718140 0.084627
O O10 0.191834 0.690287 0.963913
O O11 0.769016 0.548852 0.287733
O O12 0.661688 0.689371 0.314036
O O13 0.053410 0.646658 0.270470
O O14 0.000000 0.500000 0.123547
O O15 0.360404 0.053335 0.403623
#
# Coordination Sequence:
#
# PCOD8190548 Si02
#       7
#     8   8   8   8   8   8   8
#     4  10  21  39  70  95 136 192 228 291 363 424
#     4  10  20  37  63 102 136 174 228 288 356 431
#     4  10  26  41  68 105 144 184 241 304 355 428
#     4  10  23  44  68  98 139 192 244 291 348 430
#     4  11  21  41  67 107 146 178 240 300 370 424
#     4  11  22  46  68  99 142 193 240 288 358 430
#     4  10  21  39  70  97 133 190 229 294 358 415
#
# _framework density 23.545894000000001
#
# number of rings (size 3 to 8) (size 9 to 14) (size 15 to 20)
#    0.000    1.714    2.857    0.857    2.000    1.143 
#    0.000   17.143    0.000    0.000    0.000    0.000 
#    0.000    0.000    0.000    0.000    0.000    0.000 
#
# Total GULP energy -346975.913164 kJ/mol
# GULP energy per Si atom -12391.996899 kJ/mol
# Density = 2.349230 g / cm^3
# Si number density = 23.545894 Si / 1000 Ang^3
#
#
#
# Elastic Constant Matrix: (Units=GPa)
#
#
# Indices 1 2 3 4 5 6 
#
# 1 90.2140 41.5339 31.0329 0.0000 0.0000 0.0000
# 2 41.5339 145.3172 25.5917 0.0000 0.0000 0.0000
# 3 31.0329 25.5917 80.4427 0.0000 0.0000 0.0000
# 4 0.0000 0.0000 0.0000 6.4475 0.0000 0.0000
# 5 0.0000 0.0000 0.0000 0.0000 26.8308 0.0000
# 6 0.0000 0.0000 0.0000 0.0000 0.0000 31.9406
#
#
#
# Elastic Compliance Matrix: (Units=1/GPa)
#
#
# Indices 1 2 3 4 5 6 
#
# 1 0.014097 -0.003254 -0.004403 0.000000 0.000000 0.000000
# 2 -0.003254 0.008041 -0.001303 0.000000 0.000000 0.000000
# 3 -0.004403 -0.001303 0.014544 0.000000 0.000000 0.000000
# 4 0.000000 0.000000 0.000000 0.155098 0.000000 0.000000
# 5 0.000000 0.000000 0.000000 0.000000 0.037271 0.000000
# 6 0.000000 0.000000 0.000000 0.000000 0.000000 0.031308
#
#
# Mechanical properties :
#
#
# Convention : Reuss Voigt Hill
#
# Bulk Modulus (GPa) = 53.29693 56.92123 55.10908
# Shear Modulus (GPa) = 17.57258 27.56482 22.56870
#
# Velocity S-wave (km/s) = 2.73483 3.42524 3.09932
# Velocity P-wave (km/s) = 5.71462 6.31428 6.02192
#
# Compressibility (1/GPa) = 0.01876281
#
# Stress axis : x y z
#
# Youngs Moduli (GPa) = 70.93461 124.36367 68.75501
#
# Poissons Ratio (x) = 0.40466 0.30275
# Poissons Ratio (y) = 0.23081 0.08958
# Poissons Ratio (z) = 0.31235 0.16203
#
# Static dielectric constant tensor:
#      x y z
#    x 4.077150 0.000000 0.000000 
#    y 0.000000 4.557010 0.000000 
#    z 0.000000 0.000000 4.052940 
# 
# 
# High freq. dielectric constant tensor:
#      x y z
#    x 1.917130 0.000000 0.000000 
#    y 0.000000 1.944980 0.000000 
#    z 0.000000 0.000000 1.912500 
# 
# From -- ./inp_files/6956.got.cif
#   From: 2010.03.12/outbox.cif.g09.slc.cpg/sg45_4_cif.got.tgz:6956.got - 2010.04.14 02:50:11.
