data_PCOD8190866
_publ_section_title
;
Structure prediction by ZEFSAII (Michael W. Deem and Ramdas Pophale) SiO2 
 PCOD8190866
Probable space group: I B A 2
;
_chemical_formula_sum "Si O2"
_cell_formula_units_Z 64
_cell_length_a 14.784015
_cell_length_b 9.688331
_cell_length_c 20.878956
_cell_angle_alpha 90.000000
_cell_angle_beta 90.000000
_cell_angle_gamma 90.000000
_cell_volume 2990.543621
_symmetry_space_group_name_H-M "I B A 2"
_symmetry_group_IT_number 45
_symmetry_cell_setting 'orthorhombic'
loop_
_space_group_symop_operation_xyz
x,y,z
-x,-y,z
-x,y,1/2+z
x,-y,1/2+z
1/2+x,1/2+y,1/2+z
1/2-x,1/2-y,1/2+z
1/2-x,1/2+y,z
1/2+x,1/2-y,z
loop_
_atom_site_type_symbol
_atom_site_label
_atom_site_fract_x
_atom_site_fract_y
_atom_site_fract_z
Si Si1 0.987532 0.151311 0.731730
Si Si2 0.431356 0.615568 0.870143
Si Si3 0.204756 0.652606 0.099281
Si Si4 0.405386 0.078426 0.418096
Si Si5 0.489886 0.845396 0.623924
Si Si6 0.757749 0.548534 0.324511
Si Si7 0.670168 0.132647 0.052800
Si Si8 0.778910 0.807510 0.237786
O O1 0.037219 0.256146 0.685325
O O2 0.885136 0.198519 0.729443
O O3 0.032353 0.159188 0.800778
O O4 0.000000 0.000000 0.702192
O O5 0.500000 0.500000 0.900386
O O6 0.423842 0.758231 0.908527
O O7 0.333923 0.539870 0.866592
O O8 0.262193 0.737617 0.046900
O O9 0.220912 0.487282 0.094067
O O10 0.231035 0.714119 0.169237
O O11 0.099173 0.671260 0.080051
O O12 0.352095 0.066658 0.484459
O O13 0.500000 0.000000 0.422026
O O14 0.344612 0.999438 0.365389
O O15 0.579292 0.804457 0.585052
O O16 0.500000 0.000000 0.649592
O O17 0.758631 0.701471 0.295270
O O18 0.753761 0.454788 0.261987
#
# Coordination Sequence:
#
# PCOD8190866 Si02
#       8
#     8   8   8   8   8   8   8   8
#     4  11  22  38  66  98 145 172 219 288 356 420
#     4  11  24  46  67 102 140 184 234 295 355 421
#     4  11  24  43  72  98 139 182 229 296 352 418
#     4  12  28  48  73  98 141 192 243 293 352 426
#     4  10  23  42  63  96 135 178 228 280 345 416
#     4  12  25  43  68 103 141 187 236 285 356 424
#     4  11  26  49  68 102 135 184 241 287 351 422
#     4  12  23  41  69 104 144 178 232 293 356 429
#
# _framework density 21.400791999999999
#
# number of rings (size 3 to 8) (size 9 to 14) (size 15 to 20)
#    0.000    0.750    5.000    3.375    5.250    0.500 
#    2.250    0.625    0.000    0.000    0.000    0.000 
#    0.000    0.000    0.000    0.000    0.000    0.000 
#
# Total GULP energy -396652.920682 kJ/mol
# GULP energy per Si atom -12395.403771 kJ/mol
# Density = 2.135208 g / cm^3
# Si number density = 21.400792 Si / 1000 Ang^3
#
#
#
# Elastic Constant Matrix: (Units=GPa)
#
#
# Indices 1 2 3 4 5 6 
#
# 1 122.3907 54.1744 14.7527 0.0000 0.0000 0.0000
# 2 54.1744 94.9101 23.5245 0.0000 0.0000 0.0000
# 3 14.7527 23.5245 64.1472 0.0000 0.0000 0.0000
# 4 0.0000 0.0000 0.0000 28.7710 0.0000 0.0000
# 5 0.0000 0.0000 0.0000 0.0000 28.7660 0.0000
# 6 0.0000 0.0000 0.0000 0.0000 0.0000 38.4381
#
#
#
# Elastic Compliance Matrix: (Units=1/GPa)
#
#
# Indices 1 2 3 4 5 6 
#
# 1 0.010936 -0.006181 -0.000248 0.000000 0.000000 0.000000
# 2 -0.006181 0.015083 -0.004110 0.000000 0.000000 0.000000
# 3 -0.000248 -0.004110 0.017153 0.000000 0.000000 0.000000
# 4 0.000000 0.000000 0.000000 0.034757 0.000000 0.000000
# 5 0.000000 0.000000 0.000000 0.000000 0.034763 0.000000
# 6 0.000000 0.000000 0.000000 0.000000 0.000000 0.026016
#
#
# Mechanical properties :
#
#
# Convention : Reuss Voigt Hill
#
# Bulk Modulus (GPa) = 45.26023 51.81680 48.53851
# Shear Modulus (GPa) = 29.91284 31.79479 30.85382
#
# Velocity S-wave (km/s) = 3.74270 3.85864 3.80111
# Velocity P-wave (km/s) = 6.31441 6.64208 6.48032
#
# Compressibility (1/GPa) = 0.02209445
#
# Stress axis : x y z
#
# Youngs Moduli (GPa) = 91.43805 66.29999 58.29725
#
# Poissons Ratio (x) = 0.40979 0.01449
# Poissons Ratio (y) = 0.56517 0.23959
# Poissons Ratio (z) = 0.02272 0.27248
#
# Static dielectric constant tensor:
#      x y z
#    x 4.131040 0.000000 0.000000 
#    y 0.000000 4.114710 0.000000 
#    z 0.000000 0.000000 3.672930 
# 
# 
# High freq. dielectric constant tensor:
#      x y z
#    x 1.858210 0.000000 0.000000 
#    y 0.000000 1.849810 0.000000 
#    z 0.000000 0.000000 1.816990 
# 
# From -- ./inp_files/9784.got.cif
#   From: 2010.03.12/outbox.cif.g09.slc.cpg/sg45_5_cif.got.tgz:9784.got - 2010.04.14 02:50:11.
