data_PCOD8190589
_publ_section_title
;
Structure prediction by ZEFSAII (Michael W. Deem and Ramdas Pophale) SiO2 
 PCOD8190589
Probable space group: I B A 2
;
_chemical_formula_sum "Si O2"
_cell_formula_units_Z 60
_cell_length_a 9.111306
_cell_length_b 16.543768
_cell_length_c 18.698870
_cell_angle_alpha 90.000000
_cell_angle_beta 90.000000
_cell_angle_gamma 90.000000
_cell_volume 2818.580389
_symmetry_space_group_name_H-M "I B A 2"
_symmetry_group_IT_number 45
_symmetry_cell_setting 'orthorhombic'
loop_
_space_group_symop_operation_xyz
x,y,z
-x,-y,z
-x,y,1/2+z
x,-y,1/2+z
1/2+x,1/2+y,1/2+z
1/2-x,1/2-y,1/2+z
1/2-x,1/2+y,z
1/2+x,1/2-y,z
loop_
_atom_site_type_symbol
_atom_site_label
_atom_site_fract_x
_atom_site_fract_y
_atom_site_fract_z
Si Si1 0.168609 0.816509 0.909420
Si Si2 0.333282 0.175041 0.014694
Si Si3 0.461232 0.906436 0.918577
Si Si4 0.792190 0.413718 0.814894
Si Si5 0.092580 0.923315 0.447326
Si Si6 0.580341 0.173159 0.672515
Si Si7 0.500000 0.000000 0.218082
Si Si8 0.178535 0.252255 0.256387
O O1 0.290789 0.887666 0.903992
O O2 0.126805 0.781085 0.832606
O O3 0.017312 0.849471 0.939631
O O4 0.224007 0.748181 0.964773
O O5 0.360048 0.202051 0.095642
O O6 0.490971 0.142158 0.989004
O O7 0.213046 0.102668 0.006425
O O8 0.562014 0.875586 0.852975
O O9 0.500000 0.000000 0.929293
O O10 0.671301 0.444346 0.871327
O O11 0.734676 0.338094 0.767780
O O12 0.852960 0.487559 0.766584
O O13 0.000000 0.000000 0.474635
O O14 0.529295 0.079312 0.670122
O O15 0.716181 0.183747 0.725487
O O16 0.452318 0.232206 0.700075
#
# Coordination Sequence:
#
# PCOD8190589 Si02
#       8
#     8   8   8   8   8   8   4   8
#     4  12  22  40  73  95 133 170 227 280 327 393
#     4  11  26  43  65  97 133 182 219 270 340 404
#     4  11  22  38  69  95 127 175 227 267 328 397
#     4  10  20  40  65 100 130 164 225 270 337 386
#     4  11  24  39  65 103 135 164 222 284 333 382
#     4  11  27  44  69  95 141 173 228 268 344 403
#     4  10  22  44  70  94 132 182 218 268 338 420
#     4  11  23  41  67 101 127 176 222 283 323 401
#
# _framework density 21.287313000000001
#
# number of rings (size 3 to 8) (size 9 to 14) (size 15 to 20)
#    0.000    1.067    3.333    4.800    6.533    0.000 
#    0.000    0.000    2.933    0.000    0.000    0.000 
#    0.000    0.000    0.000    0.000    0.000    0.000 
#
# Total GULP energy -371869.700233 kJ/mol
# GULP energy per Si atom -12395.656674 kJ/mol
# Density = 2.123886 g / cm^3
# Si number density = 21.287313 Si / 1000 Ang^3
#
#
#
# Elastic Constant Matrix: (Units=GPa)
#
#
# Indices 1 2 3 4 5 6 
#
# 1 100.0147 34.8455 27.3889 0.0000 0.0000 0.0000
# 2 34.8455 98.7065 29.3655 0.0000 0.0000 0.0000
# 3 27.3889 29.3655 95.6067 0.0000 0.0000 0.0000
# 4 0.0000 0.0000 0.0000 17.1697 0.0000 0.0000
# 5 0.0000 0.0000 0.0000 0.0000 25.8716 0.0000
# 6 0.0000 0.0000 0.0000 0.0000 0.0000 40.5214
#
#
#
# Elastic Compliance Matrix: (Units=1/GPa)
#
#
# Indices 1 2 3 4 5 6 
#
# 1 0.011851 -0.003493 -0.002322 0.000000 0.000000 0.000000
# 2 -0.003493 0.012179 -0.002740 0.000000 0.000000 0.000000
# 3 -0.002322 -0.002740 0.011966 0.000000 0.000000 0.000000
# 4 0.000000 0.000000 0.000000 0.058242 0.000000 0.000000
# 5 0.000000 0.000000 0.000000 0.000000 0.038652 0.000000
# 6 0.000000 0.000000 0.000000 0.000000 0.000000 0.024678
#
#
# Mechanical properties :
#
#
# Convention : Reuss Voigt Hill
#
# Bulk Modulus (GPa) = 52.94833 53.05864 53.00348
# Shear Modulus (GPa) = 27.62791 30.22775 28.92783
#
# Velocity S-wave (km/s) = 3.60649 3.77236 3.69036
# Velocity P-wave (km/s) = 6.50150 6.62974 6.56593
#
# Compressibility (1/GPa) = 0.01888634
#
# Stress axis : x y z
#
# Youngs Moduli (GPa) = 84.37799 82.10618 83.56695
#
# Poissons Ratio (x) = 0.28679 0.19407
# Poissons Ratio (y) = 0.29473 0.22899
# Poissons Ratio (z) = 0.19595 0.22499
#
# Static dielectric constant tensor:
#      x y z
#    x 3.898960 0.000000 0.000000 
#    y 0.000000 3.851730 0.000000 
#    z 0.000000 0.000000 3.653250 
# 
# 
# High freq. dielectric constant tensor:
#      x y z
#    x 1.832190 0.000000 0.000000 
#    y 0.000000 1.843390 0.000000 
#    z 0.000000 0.000000 1.809670 
# 
# From -- ./inp_files/7687.got.cif
#   From: 2010.03.12/outbox.cif.g09.slc.cpg/sg45_4_cif.got.tgz:7687.got - 2010.04.14 02:50:11.
