data_PCOD8190002
_publ_section_title
;
Structure prediction by ZEFSAII (Michael W. Deem and Ramdas Pophale) SiO2 
 PCOD8190002
Probable space group: I M M 2
;
_chemical_formula_sum "Si O2"
_cell_formula_units_Z 64
_cell_length_a 13.574893
_cell_length_b 13.696347
_cell_length_c 17.264426
_cell_angle_alpha 90.000000
_cell_angle_beta 90.000000
_cell_angle_gamma 90.000000
_cell_volume 3209.913351
_symmetry_space_group_name_H-M "I M M 2"
_symmetry_group_IT_number 44
_symmetry_cell_setting 'orthorhombic'
loop_
_space_group_symop_operation_xyz
x,y,z
-x,-y,z
-x,y,z
x,-y,z
1/2+x,1/2+y,1/2+z
1/2-x,1/2-y,1/2+z
1/2-x,1/2+y,1/2+z
1/2+x,1/2-y,1/2+z
loop_
_atom_site_type_symbol
_atom_site_label
_atom_site_fract_x
_atom_site_fract_y
_atom_site_fract_z
Si Si1 0.888836 0.109946 0.119140
Si Si2 0.782305 0.251073 0.224182
Si Si3 0.110480 0.893368 0.463716
Si Si4 0.114238 0.388009 0.785176
Si Si5 0.224675 0.389376 0.082467
Si Si6 0.611986 0.795609 0.443737
Si Si7 0.279930 0.389968 0.462102
Si Si8 0.616514 0.202368 0.877854
O O1 0.865731 0.178765 0.191435
O O2 0.000000 0.131565 0.088222
O O3 0.882049 0.000000 0.149931
O O4 0.806825 0.126835 0.052273
O O5 0.683465 0.188565 0.240319
O O6 0.759821 0.335509 0.163139
O O7 0.829823 0.309583 0.295868
O O8 0.169657 0.887093 0.542627
O O9 0.143809 0.813207 0.401815
O O10 0.000000 0.872523 0.489843
O O11 0.123218 0.000000 0.424199
O O12 0.140908 0.500000 0.763324
O O13 0.130267 0.376311 0.877647
O O14 0.000000 0.365583 0.763911
O O15 0.187823 0.500000 0.097021
O O16 0.148419 0.334441 0.026456
O O17 0.500000 0.769382 0.455181
O O18 0.661858 0.693852 0.415251
O O19 0.310265 0.500000 0.437284
O O20 0.164230 0.371710 0.441696
O O21 0.500000 0.181257 0.872927
#
# Coordination Sequence:
#
# PCOD8190002 Si02
#       8
#     8   8   8   8   8   8   8   8
#     4  10  21  37  61  91 119 152 199 255 309 361
#     4  12  22  38  57  88 128 168 195 243 301 372
#     4   9  18  36  63  89 112 146 198 254 299 342
#     4  10  22  40  64  93 123 159 206 258 311 364
#     4  11  23  38  60  89 121 158 199 246 300 360
#     4  11  21  40  66  92 117 151 202 262 314 358
#     4  11  22  40  62  86 117 159 206 254 301 356
#     4  11  23  39  59  88 123 162 201 243 296 364
#
# _framework density 19.938233
#
# number of rings (size 3 to 8) (size 9 to 14) (size 15 to 20)
#    0.000    1.375    3.750    1.500    0.000    5.250 
#    0.000    1.875    0.000    0.750    0.000    0.000 
#    0.000    0.000    0.000    0.000    0.000    0.000 
#
# Total GULP energy -396678.225167 kJ/mol
# GULP energy per Si atom -12396.194536 kJ/mol
# Density = 1.989285 g / cm^3
# Si number density = 19.938233 Si / 1000 Ang^3
#
#
#
# Elastic Constant Matrix: (Units=GPa)
#
#
# Indices 1 2 3 4 5 6 
#
# 1 100.1947 48.9969 40.8203 0.0000 0.0000 0.0000
# 2 48.9969 113.0981 33.1616 0.0000 0.0000 0.0000
# 3 40.8203 33.1616 83.0798 0.0000 0.0000 0.0000
# 4 0.0000 0.0000 0.0000 29.8563 0.0000 0.0000
# 5 0.0000 0.0000 0.0000 0.0000 22.8158 0.0000
# 6 0.0000 0.0000 0.0000 0.0000 0.0000 26.3341
#
#
#
# Elastic Compliance Matrix: (Units=1/GPa)
#
#
# Indices 1 2 3 4 5 6 
#
# 1 0.014403 -0.004717 -0.005194 0.000000 0.000000 0.000000
# 2 -0.004717 0.011559 -0.002296 0.000000 0.000000 0.000000
# 3 -0.005194 -0.002296 0.015505 0.000000 0.000000 0.000000
# 4 0.000000 0.000000 0.000000 0.033494 0.000000 0.000000
# 5 0.000000 0.000000 0.000000 0.000000 0.043829 0.000000
# 6 0.000000 0.000000 0.000000 0.000000 0.000000 0.037974
#
#
# Mechanical properties :
#
#
# Convention : Reuss Voigt Hill
#
# Bulk Modulus (GPa) = 58.64103 60.25890 59.44997
# Shear Modulus (GPa) = 26.75767 27.36083 27.05925
#
# Velocity S-wave (km/s) = 3.66734 3.70845 3.68795
# Velocity P-wave (km/s) = 6.88533 6.97318 6.92939
#
# Compressibility (1/GPa) = 0.01705291
#
# Stress axis : x y z
#
# Youngs Moduli (GPa) = 69.42819 86.51579 64.49452
#
# Poissons Ratio (x) = 0.40809 0.33500
# Poissons Ratio (y) = 0.32749 0.14808
# Poissons Ratio (z) = 0.36062 0.19864
#
# Static dielectric constant tensor:
#      x y z
#    x 3.746330 0.000000 0.000000 
#    y 0.000000 3.843270 0.000000 
#    z 0.000000 0.000000 3.413610 
# 
# 
# High freq. dielectric constant tensor:
#      x y z
#    x 1.785070 0.000000 0.000000 
#    y 0.000000 1.786660 0.000000 
#    z 0.000000 0.000000 1.756430 
# 
# From -- ./inp_files/21903.got.cif
#   From: 2010.03.12/outbox.cif.g09.slc.cpg/sg44_11_cif.got.tgz:21903.got - 2010.04.14 02:36:11.
