data_PCOD8190849
_publ_section_title
;
Structure prediction by ZEFSAII (Michael W. Deem and Ramdas Pophale) SiO2 
 PCOD8190849
Probable space group: I B A 2
;
_chemical_formula_sum "Si O2"
_cell_formula_units_Z 56
_cell_length_a 5.600032
_cell_length_b 28.127126
_cell_length_c 15.054489
_cell_angle_alpha 90.000000
_cell_angle_beta 90.000000
_cell_angle_gamma 90.000000
_cell_volume 2371.274800
_symmetry_space_group_name_H-M "I B A 2"
_symmetry_group_IT_number 45
_symmetry_cell_setting 'orthorhombic'
loop_
_space_group_symop_operation_xyz
x,y,z
-x,-y,z
-x,y,1/2+z
x,-y,1/2+z
1/2+x,1/2+y,1/2+z
1/2-x,1/2-y,1/2+z
1/2-x,1/2+y,z
1/2+x,1/2-y,z
loop_
_atom_site_type_symbol
_atom_site_label
_atom_site_fract_x
_atom_site_fract_y
_atom_site_fract_z
Si Si1 0.182187 0.957257 0.524170
Si Si2 0.380957 0.628046 0.461349
Si Si3 0.119043 0.128046 0.781167
Si Si4 1.000000 0.565819 0.871258
Si Si5 0.827926 0.769259 0.520260
Si Si6 0.817813 0.957257 0.218346
Si Si7 0.172074 0.769259 0.222256
O O1 0.349871 0.966874 0.439143
O O2 0.312263 0.957927 0.621258
O O3 0.058514 0.905946 0.515565
O O4 0.000000 0.000000 0.519780
O O5 0.500000 0.646801 0.371258
O O6 0.146413 0.598658 0.438270
O O7 0.314325 0.673688 0.519178
O O8 0.353586 0.098658 0.804246
O O9 0.185677 0.173688 0.723338
O O10 0.941487 0.094055 0.726951
O O11 0.849869 0.533126 0.803374
O O12 0.580589 0.748796 0.475403
O O13 0.830992 0.750814 0.621258
O O14 0.000000 0.000000 0.222736
O O15 0.419412 0.748795 0.267113
#
# Coordination Sequence:
#
# PCOD8190849 Si02
#       7
#     8   8   8   8   8   8   8
#     4  10  23  43  69 101 136 179 229 281 347 418
#     4  10  23  40  62  96 133 174 223 285 349 415
#     4  10  23  40  62  96 133 174 223 285 349 415
#     4  10  24  43  68 100 132 180 224 286 347 412
#     4  10  23  41  64  94 131 179 234 292 352 418
#     4  10  23  43  69 101 136 179 229 281 347 418
#     4  10  23  41  64  94 131 179 234 292 352 418
#
# _framework density 23.615988000000002
#
# number of rings (size 3 to 8) (size 9 to 14) (size 15 to 20)
#    0.000    2.000    0.000    0.857    8.000   10.857 
#    0.000    2.857    0.000    0.857    0.000    0.000 
#    0.000    0.000    0.000    0.000    0.000    0.000 
#
# Total GULP energy -347040.793722 kJ/mol
# GULP energy per Si atom -12394.314062 kJ/mol
# Density = 2.356224 g / cm^3
# Si number density = 23.615988 Si / 1000 Ang^3
#
#
#
# Elastic Constant Matrix: (Units=GPa)
#
#
# Indices 1 2 3 4 5 6 
#
# 1 133.9912 28.8158 56.0140 0.0000 0.0000 0.0000
# 2 28.8158 108.9996 46.4081 0.0000 0.0000 0.0000
# 3 56.0140 46.4081 122.7074 -0.0003 0.0000 -0.0001
# 4 0.0000 0.0000 -0.0003 32.1208 0.0000 0.0000
# 5 0.0000 0.0000 0.0000 0.0000 -2.3225 0.0000
# 6 0.0000 0.0000 -0.0001 0.0000 0.0000 30.4020
#
#
#
# Elastic Compliance Matrix: (Units=1/GPa)
#
#
# Indices 1 2 3 4 5 6 
#
# 1 0.009278 -0.000774 -0.003942 0.000000 0.000000 0.000000
# 2 -0.000774 0.011000 -0.003807 0.000000 0.000000 0.000000
# 3 -0.003942 -0.003807 0.011389 0.000000 0.000000 0.000000
# 4 0.000000 0.000000 0.000000 0.031132 0.000000 0.000000
# 5 0.000000 0.000000 0.000000 0.000000 -0.430569 0.000000
# 6 0.000000 0.000000 0.000000 0.000000 0.000000 0.032893
#
#
# Mechanical properties :
#
#
# Convention : Reuss Voigt Hill
#
# Bulk Modulus (GPa) = 68.40048 69.79712 69.09880
# Shear Modulus (GPa) = -15.97658 27.67075 5.84708
#
# Velocity S-wave (km/s) = -2.60381 3.42672 1.57521
# Velocity P-wave (km/s) = 4.47065 6.72872 5.71237
#
# Compressibility (1/GPa) = 0.01461978
#
# Stress axis : x y z
#
# Youngs Moduli (GPa) = 107.78483 90.91082 87.80565
#
# Poissons Ratio (x) = 0.07038 0.34616
# Poissons Ratio (y) = 0.08345 0.33425
# Poissons Ratio (z) = 0.42492 0.34607
#
# Static dielectric constant tensor:
#      x y z
#    x 4.498030 0.000000 0.000000 
#    y 0.000000 3.981130 0.000000 
#    z 0.000000 0.000000 4.335520 
# 
# 
# High freq. dielectric constant tensor:
#      x y z
#    x 1.936010 0.000000 0.000000 
#    y 0.000000 1.939660 0.000000 
#    z 0.000000 0.000000 1.931320 
# 
# From -- ./inp_files/5262.got.cif
#   From: 2010.03.12/outbox.cif.g09.slc.cpg/sg45_3_cif.got.tgz:5262.got - 2010.04.14 02:50:11.
