data_PCOD8190091
_publ_section_title
;
Structure prediction by ZEFSAII (Michael W. Deem and Ramdas Pophale) SiO2 
 PCOD8190091
Probable space group: I M M 2
;
_chemical_formula_sum "Si O2"
_cell_formula_units_Z 64
_cell_length_a 14.272448
_cell_length_b 16.509100
_cell_length_c 12.106303
_cell_angle_alpha 90.000000
_cell_angle_beta 90.000000
_cell_angle_gamma 90.000000
_cell_volume 2852.550929
_symmetry_space_group_name_H-M "I M M 2"
_symmetry_group_IT_number 44
_symmetry_cell_setting 'orthorhombic'
loop_
_space_group_symop_operation_xyz
x,y,z
-x,-y,z
-x,y,z
x,-y,z
1/2+x,1/2+y,1/2+z
1/2-x,1/2-y,1/2+z
1/2-x,1/2+y,1/2+z
1/2+x,1/2-y,1/2+z
loop_
_atom_site_type_symbol
_atom_site_label
_atom_site_fract_x
_atom_site_fract_y
_atom_site_fract_z
Si Si1 0.253411 0.091299 0.912240
Si Si2 0.631705 0.408722 0.069838
Si Si3 0.397189 0.332400 0.841007
Si Si4 0.809060 0.646141 0.797359
Si Si5 0.152632 0.590927 0.036273
Si Si6 0.601700 0.151544 0.759089
Si Si7 0.103205 0.591472 0.585807
Si Si8 0.605154 0.684279 0.291217
O O1 0.316888 0.092018 0.801539
O O2 0.157079 0.139696 0.893428
O O3 0.225265 0.000000 0.943154
O O4 0.317787 0.133512 0.008036
O O5 0.591011 0.500000 0.053429
O O6 0.741673 0.413254 0.073996
O O7 0.596036 0.373227 0.185212
O O8 0.597222 0.349435 0.971958
O O9 0.500000 0.359943 0.791288
O O10 0.302870 0.376061 0.794701
O O11 0.380007 0.239494 0.810402
O O12 0.860424 0.588666 0.710793
O O13 0.831948 0.737877 0.760786
O O14 0.855812 0.630944 0.916054
O O15 0.109476 0.500000 0.034212
O O16 0.100533 0.648312 0.125225
O O17 0.500000 0.121340 0.801150
O O18 0.092492 0.500000 0.543601
O O19 0.000000 0.634112 0.577648
O O20 0.500000 0.707841 0.329537
#
# Coordination Sequence:
#
# PCOD8190091 Si02
#       8
#     8   8   8   8   8   8   8   8
#     4  11  23  42  64  91 128 165 208 269 329 391
#     4  10  21  40  65  95 132 172 219 271 319 380
#     4  10  22  39  63  95 131 172 215 265 327 391
#     4  11  23  42  64  94 133 175 222 274 327 387
#     4  10  21  39  65  95 132 174 214 267 330 387
#     4  11  22  38  63  95 128 167 211 264 330 395
#     4  10  23  43  68  95 124 167 222 276 331 394
#     4  12  25  39  62  95 130 175 221 270 329 392
#
# _framework density 22.436057000000002
#
# number of rings (size 3 to 8) (size 9 to 14) (size 15 to 20)
#    0.000    1.375    2.500    2.250    1.750    5.750 
#    0.000    1.875    0.000    0.750    0.000    0.000 
#    0.000    0.000    0.000    0.000    0.000    0.000 
#
# Total GULP energy -396544.154941 kJ/mol
# GULP energy per Si atom -12392.004842 kJ/mol
# Density = 2.238499 g / cm^3
# Si number density = 22.436057 Si / 1000 Ang^3
#
#
#
# Elastic Constant Matrix: (Units=GPa)
#
#
# Indices 1 2 3 4 5 6 
#
# 1 146.8568 12.7393 38.2393 0.0000 0.0000 0.0000
# 2 12.7393 86.5694 36.6083 0.0000 0.0000 0.0000
# 3 38.2393 36.6083 123.5449 0.0000 0.0000 0.0000
# 4 0.0000 0.0000 0.0000 38.4427 0.0000 0.0000
# 5 0.0000 0.0000 0.0000 0.0000 16.3856 0.0000
# 6 0.0000 0.0000 0.0000 0.0000 0.0000 -8.6757
#
#
#
# Elastic Compliance Matrix: (Units=1/GPa)
#
#
# Indices 1 2 3 4 5 6 
#
# 1 0.007408 -0.000138 -0.002252 0.000000 0.000000 0.000000
# 2 -0.000138 0.013209 -0.003871 0.000000 0.000000 0.000000
# 3 -0.002252 -0.003871 0.009938 0.000000 0.000000 0.000000
# 4 0.000000 0.000000 0.000000 0.026013 0.000000 0.000000
# 5 0.000000 0.000000 0.000000 0.000000 0.061029 0.000000
# 6 0.000000 0.000000 0.000000 0.000000 0.000000 -0.115265
#
#
# Mechanical properties :
#
#
# Convention : Reuss Voigt Hill
#
# Bulk Modulus (GPa) = 55.45485 59.12722 57.29104
# Shear Modulus (GPa) = 239.63429 27.18948 133.41188
#
# Velocity S-wave (km/s) = 10.34599 3.48496 7.71960
# Velocity P-wave (km/s) = 12.94179 6.52719 10.24924
#
# Compressibility (1/GPa) = 0.01803269
#
# Stress axis : x y z
#
# Youngs Moduli (GPa) = 134.99485 75.70714 100.62002
#
# Poissons Ratio (x) = 0.01043 0.22659
# Poissons Ratio (y) = 0.01860 0.38953
# Poissons Ratio (z) = 0.30401 0.29309
#
# Static dielectric constant tensor:
#      x y z
#    x 4.359550 0.000000 0.000000 
#    y 0.000000 3.854080 0.000000 
#    z 0.000000 0.000000 3.954040 
# 
# 
# High freq. dielectric constant tensor:
#      x y z
#    x 1.900770 0.000000 0.000000 
#    y 0.000000 1.863290 0.000000 
#    z 0.000000 0.000000 1.871610 
# 
# From -- ./inp_files/13446.got.cif
#   From: 2010.03.12/outbox.cif.g09.slc.cpg/sg44_7_cif.got.tgz:13446.got - 2010.04.14 02:36:11.
