data_PCOD8190788
_publ_section_title
;
Structure prediction by ZEFSAII (Michael W. Deem and Ramdas Pophale) SiO2 
 PCOD8190788
Probable space group: I B A 2
;
_chemical_formula_sum "Si O2"
_cell_formula_units_Z 64
_cell_length_a 8.688382
_cell_length_b 17.896865
_cell_length_c 18.347826
_cell_angle_alpha 90.000000
_cell_angle_beta 90.000000
_cell_angle_gamma 90.000000
_cell_volume 2852.991529
_symmetry_space_group_name_H-M "I B A 2"
_symmetry_group_IT_number 45
_symmetry_cell_setting 'orthorhombic'
loop_
_space_group_symop_operation_xyz
x,y,z
-x,-y,z
-x,y,1/2+z
x,-y,1/2+z
1/2+x,1/2+y,1/2+z
1/2-x,1/2-y,1/2+z
1/2-x,1/2+y,z
1/2+x,1/2-y,z
loop_
_atom_site_type_symbol
_atom_site_label
_atom_site_fract_x
_atom_site_fract_y
_atom_site_fract_z
Si Si1 0.762561 0.643048 0.437640
Si Si2 0.421134 0.669179 0.152406
Si Si3 0.361058 0.943597 0.145818
Si Si4 0.354464 0.462488 0.553667
Si Si5 0.237151 0.801835 0.095692
Si Si6 0.578582 0.293003 0.443877
Si Si7 0.278901 0.549086 0.800794
Si Si8 0.619076 0.612718 0.804847
O O1 0.762892 0.581710 0.501839
O O2 0.602025 0.688376 0.443023
O O3 0.900273 0.703190 0.441265
O O4 0.797483 0.595173 0.365969
O O5 0.422399 0.588082 0.117458
O O6 0.315965 0.720974 0.100080
O O7 0.598659 0.696304 0.155094
O O8 0.345866 0.662658 0.233031
O O9 0.377766 0.858626 0.116279
O O10 0.322756 0.936720 0.230244
O O11 0.500000 0.000000 0.132415
O O12 0.223378 0.970657 0.095870
O O13 0.500000 0.500000 0.509583
O O14 0.163549 0.821038 0.016878
O O15 0.651005 0.334518 0.374095
O O16 0.448565 0.581784 0.793338
O O17 0.273213 0.459833 0.814690
#
# Coordination Sequence:
#
# PCOD8190788 Si02
#       8
#     8   8   8   8   8   8   8   8
#     4  11  25  42  72  98 136 178 226 281 344 412
#     4  12  24  41  69  98 136 180 228 289 339 419
#     4  12  27  44  68 100 142 175 234 294 341 407
#     4  12  22  44  72  98 133 184 230 279 345 414
#     4  12  25  43  67 103 138 177 232 283 353 410
#     4  11  23  43  64 101 137 177 221 282 340 416
#     4  10  22  43  64  98 130 180 229 275 336 407
#     4  10  22  40  71  95 131 181 232 272 335 417
#
# _framework density 22.432594000000002
#
# number of rings (size 3 to 8) (size 9 to 14) (size 15 to 20)
#    0.000    0.750    6.250    0.000    8.750    1.000 
#    2.250    0.625    0.000    0.000    0.000    0.000 
#    0.000    0.000    0.000    0.000    0.000    0.000 
#
# Total GULP energy -396648.622158 kJ/mol
# GULP energy per Si atom -12395.269442 kJ/mol
# Density = 2.238154 g / cm^3
# Si number density = 22.432594 Si / 1000 Ang^3
#
#
#
# Elastic Constant Matrix: (Units=GPa)
#
#
# Indices 1 2 3 4 5 6 
#
# 1 40.9762 15.4571 15.2928 0.0000 0.0000 0.0000
# 2 15.4571 87.6353 44.7832 0.0000 0.0000 0.0000
# 3 15.2928 44.7832 127.5712 0.0000 0.0000 0.0000
# 4 0.0000 0.0000 0.0000 44.3018 0.0000 0.0000
# 5 0.0000 0.0000 0.0000 0.0000 25.3932 0.0000
# 6 0.0000 0.0000 0.0000 0.0000 0.0000 38.4715
#
#
#
# Elastic Compliance Matrix: (Units=1/GPa)
#
#
# Indices 1 2 3 4 5 6 
#
# 1 0.026506 -0.003718 -0.001872 0.000000 0.000000 0.000000
# 2 -0.003718 0.014427 -0.004619 0.000000 0.000000 0.000000
# 3 -0.001872 -0.004619 0.009685 0.000000 0.000000 0.000000
# 4 0.000000 0.000000 0.000000 0.022572 0.000000 0.000000
# 5 0.000000 0.000000 0.000000 0.000000 0.039381 0.000000
# 6 0.000000 0.000000 0.000000 0.000000 0.000000 0.025993
#
#
# Mechanical properties :
#
#
# Convention : Reuss Voigt Hill
#
# Bulk Modulus (GPa) = 33.11388 45.24990 39.18189
# Shear Modulus (GPa) = 29.57729 33.67661 31.62695
#
# Velocity S-wave (km/s) = 3.63505 3.87878 3.75889
# Velocity P-wave (km/s) = 5.69312 6.34628 6.02855
#
# Compressibility (1/GPa) = 0.03019882
#
# Stress axis : x y z
#
# Youngs Moduli (GPa) = 37.72759 69.31410 103.25690
#
# Poissons Ratio (x) = 0.25774 0.19331
# Poissons Ratio (y) = 0.14029 0.47692
# Poissons Ratio (z) = 0.07063 0.32015
#
# Static dielectric constant tensor:
#      x y z
#    x 3.283710 0.000000 0.000000 
#    y 0.000000 4.297210 0.000000 
#    z 0.000000 0.000000 4.127580 
# 
# 
# High freq. dielectric constant tensor:
#      x y z
#    x 1.851890 0.000000 0.000000 
#    y 0.000000 1.902150 0.000000 
#    z 0.000000 0.000000 1.890260 
# 
# From -- ./inp_files/8974.got.cif
#   From: 2010.03.12/outbox.cif.g09.slc.cpg/sg45_5_cif.got.tgz:8974.got - 2010.04.14 02:50:11.
