data_PCOD8190364
_publ_section_title
;
Structure prediction by ZEFSAII (Michael W. Deem and Ramdas Pophale) SiO2 
 PCOD8190364
Probable space group: I B A 2
;
_chemical_formula_sum "Si O2"
_cell_formula_units_Z 56
_cell_length_a 8.783926
_cell_length_b 19.585118
_cell_length_c 14.976555
_cell_angle_alpha 90.000000
_cell_angle_beta 90.000000
_cell_angle_gamma 90.000000
_cell_volume 2576.480066
_symmetry_space_group_name_H-M "I B A 2"
_symmetry_group_IT_number 45
_symmetry_cell_setting 'orthorhombic'
loop_
_space_group_symop_operation_xyz
x,y,z
-x,-y,z
-x,y,1/2+z
x,-y,1/2+z
1/2+x,1/2+y,1/2+z
1/2-x,1/2-y,1/2+z
1/2-x,1/2+y,z
1/2+x,1/2-y,z
loop_
_atom_site_type_symbol
_atom_site_label
_atom_site_fract_x
_atom_site_fract_y
_atom_site_fract_z
Si Si1 0.500000 0.500000 0.864210
Si Si2 0.076802 0.279702 0.458455
Si Si3 0.775898 0.343791 0.712117
Si Si4 0.224102 0.656209 0.516304
Si Si5 0.923198 0.720298 0.769966
Si Si6 0.245756 0.594539 0.899099
Si Si7 0.745756 0.905461 0.329322
Si Si8 0.000000 0.500000 0.364210
O O1 0.397669 0.551945 0.924886
O O2 0.397669 0.448055 0.803535
O O3 0.146682 0.213680 0.503628
O O4 0.221474 0.331851 0.444470
O O5 0.945531 0.311997 0.518841
O O6 1.000000 0.260450 0.364210
O O7 0.748880 0.376975 0.614210
O O8 0.646682 0.286319 0.724792
O O9 0.757412 0.399246 0.790401
O O10 0.945531 0.311997 0.709579
O O11 0.242587 0.600754 0.438020
O O12 0.778526 0.668149 0.783951
O O13 0.102598 0.548025 0.927581
O O14 0.602598 0.951975 0.300839
#
# Coordination Sequence:
#
# PCOD8190364 Si02
#       8
#     4   8   8   8   8   8   8   4
#     4  10  24  34  64  82 108 150 206 236 268 318
#     4  10  20  37  60  85 116 149 193 231 279 342
#     4  11  22  36  58  90 120 147 179 239 298 336
#     4  11  22  36  58  90 120 147 179 239 298 336
#     4  10  20  37  60  85 116 149 193 231 279 342
#     4  10  20  37  60  85 107 149 198 235 272 338
#     4  10  20  37  60  85 107 149 198 235 272 338
#     4  10  16  38  60  78 104 146 206 232 260 330
#
# _framework density 21.735081000000001
#
# number of rings (size 3 to 8) (size 9 to 14) (size 15 to 20)
#    0.000    1.714    4.286    4.286    6.000    0.000 
#    0.000    1.429    0.000    0.000    0.000    0.000 
#    0.000    0.000    0.000    0.000    0.000    0.000 
#
# Total GULP energy -346885.034762 kJ/mol
# GULP energy per Si atom -12388.751242 kJ/mol
# Density = 2.168561 g / cm^3
# Si number density = 21.735081 Si / 1000 Ang^3
#
#
#
# Elastic Constant Matrix: (Units=GPa)
#
#
# Indices 1 2 3 4 5 6 
#
# 1 115.8168 22.9908 1.9350 0.0000 0.0000 0.0000
# 2 22.9908 60.1296 15.6538 0.0000 0.0000 0.0000
# 3 1.9350 15.6538 90.1387 0.0001 0.0000 0.0000
# 4 0.0000 0.0000 0.0001 6.6522 0.0000 0.0000
# 5 0.0000 0.0000 0.0000 0.0000 8.4985 0.0000
# 6 0.0000 0.0000 0.0000 0.0000 0.0000 44.4404
#
#
#
# Elastic Compliance Matrix: (Units=1/GPa)
#
#
# Indices 1 2 3 4 5 6 
#
# 1 0.009360 -0.003694 0.000441 0.000000 0.000000 0.000000
# 2 -0.003694 0.018876 -0.003199 0.000000 0.000000 0.000000
# 3 0.000441 -0.003199 0.011640 0.000000 0.000000 0.000000
# 4 0.000000 0.000000 0.000000 0.150327 0.000000 0.000000
# 5 0.000000 0.000000 0.000000 0.000000 0.117668 0.000000
# 6 0.000000 0.000000 0.000000 0.000000 0.000000 0.022502
#
#
# Mechanical properties :
#
#
# Convention : Reuss Voigt Hill
#
# Bulk Modulus (GPa) = 37.07497 38.58268 37.82883
# Shear Modulus (GPa) = 14.19375 26.95192 20.57284
#
# Velocity S-wave (km/s) = 2.55823 3.52521 3.07991
# Velocity P-wave (km/s) = 5.08141 5.86169 5.48544
#
# Compressibility (1/GPa) = 0.02697237
#
# Stress axis : x y z
#
# Youngs Moduli (GPa) = 106.83553 52.97802 85.91027
#
# Poissons Ratio (x) = 0.19568 -0.03784
# Poissons Ratio (y) = 0.39461 0.27480
# Poissons Ratio (z) = -0.04706 0.16946
#
# Static dielectric constant tensor:
#      x y z
#    x 4.193270 0.000000 0.000000 
#    y 0.000000 3.938300 0.000000 
#    z 0.000000 0.000000 3.487950 
# 
# 
# High freq. dielectric constant tensor:
#      x y z
#    x 1.875340 0.000000 0.000000 
#    y 0.000000 1.854260 0.000000 
#    z 0.000000 0.000000 1.787550 
# 
# From -- ./inp_files/5766.got.cif
#   From: 2010.03.12/outbox.cif.g09.slc.cpg/sg45_3_cif.got.tgz:5766.got - 2010.04.14 02:50:11.
