data_PCOD8190987
_publ_section_title
;
Structure prediction by ZEFSAII (Michael W. Deem and Ramdas Pophale) SiO2 
 PCOD8190987
Probable space group: I B A 2
;
_chemical_formula_sum "Si O2"
_cell_formula_units_Z 48
_cell_length_a 8.916334
_cell_length_b 17.074848
_cell_length_c 15.204149
_cell_angle_alpha 90.000000
_cell_angle_beta 90.000000
_cell_angle_gamma 90.000000
_cell_volume 2314.756391
_symmetry_space_group_name_H-M "I B A 2"
_symmetry_group_IT_number 45
_symmetry_cell_setting 'orthorhombic'
loop_
_space_group_symop_operation_xyz
x,y,z
-x,-y,z
-x,y,1/2+z
x,-y,1/2+z
1/2+x,1/2+y,1/2+z
1/2-x,1/2-y,1/2+z
1/2-x,1/2+y,z
1/2+x,1/2-y,z
loop_
_atom_site_type_symbol
_atom_site_label
_atom_site_fract_x
_atom_site_fract_y
_atom_site_fract_z
Si Si1 0.523328 0.153821 0.978140
Si Si2 0.601854 0.069481 0.146615
Si Si3 0.933605 0.918724 0.617704
Si Si4 0.641709 0.307648 0.218159
Si Si5 0.287255 0.733204 0.548264
Si Si6 0.459705 0.824960 0.785679
O O1 0.494684 0.131014 0.876570
O O2 0.572246 0.082584 0.041765
O O3 0.373161 0.190352 0.017757
O O4 0.657259 0.217563 0.977266
O O5 0.777845 0.055309 0.164481
O O6 0.547074 0.142320 0.202199
O O7 0.500000 0.000000 0.181679
O O8 0.893563 0.844783 0.554043
O O9 0.059856 0.886322 0.684074
O O10 0.000000 0.000000 0.574092
O O11 0.707702 0.251643 0.141094
O O12 0.520185 0.264449 0.281308
O O13 0.781352 0.333065 0.277824
#
# Coordination Sequence:
#
# PCOD8190987 Si02
#       6
#     8   8   8   8   8   8
#     4  11  23  37  64  94 123 167 222 265 316 383
#     4  11  23  42  63  89 132 175 214 263 331 387
#     4  11  22  37  66  95 124 173 214 260 331 390
#     4  12  19  40  64  92 129 165 216 271 322 382
#     4  11  19  40  62  90 127 165 213 269 319 378
#     4  12  22  38  65  95 123 170 220 270 316 388
#
# _framework density 20.736522999999998
#
# number of rings (size 3 to 8) (size 9 to 14) (size 15 to 20)
#    0.000    0.667    8.333    2.000    0.000    0.667 
#    0.000    0.000    0.000    9.000    0.000    0.000 
#    0.000    0.000    0.000    0.000    0.000    0.000 
#
# Total GULP energy -297326.052272 kJ/mol
# GULP energy per Si atom -12388.585511 kJ/mol
# Density = 2.068933 g / cm^3
# Si number density = 20.736523 Si / 1000 Ang^3
#
#
#
# Elastic Constant Matrix: (Units=GPa)
#
#
# Indices 1 2 3 4 5 6 
#
# 1 127.8411 25.2787 13.6634 0.0000 0.0000 0.0000
# 2 25.2787 66.5406 11.8266 0.0000 0.0000 0.0000
# 3 13.6634 11.8266 94.6767 0.0000 0.0000 0.0000
# 4 0.0000 0.0000 0.0000 10.9978 0.0000 0.0000
# 5 0.0000 0.0000 0.0000 0.0000 24.6444 0.0000
# 6 0.0000 0.0000 0.0000 0.0000 0.0000 45.8975
#
#
#
# Elastic Compliance Matrix: (Units=1/GPa)
#
#
# Indices 1 2 3 4 5 6 
#
# 1 0.008523 -0.003088 -0.000844 0.000000 0.000000 0.000000
# 2 -0.003088 0.016488 -0.001614 0.000000 0.000000 0.000000
# 3 -0.000844 -0.001614 0.010886 0.000000 0.000000 0.000000
# 4 0.000000 0.000000 0.000000 0.090928 0.000000 0.000000
# 5 0.000000 0.000000 0.000000 0.000000 0.040577 0.000000
# 6 0.000000 0.000000 0.000000 0.000000 0.000000 0.021788
#
#
# Mechanical properties :
#
#
# Convention : Reuss Voigt Hill
#
# Bulk Modulus (GPa) = 40.31481 43.39956 41.85719
# Shear Modulus (GPa) = 23.97504 32.19391 28.08447
#
# Velocity S-wave (km/s) = 3.40395 3.94448 3.68414
# Velocity P-wave (km/s) = 5.91040 6.45908 6.19082
#
# Compressibility (1/GPa) = 0.02480478
#
# Stress axis : x y z
#
# Youngs Moduli (GPa) = 117.32933 60.64888 91.86345
#
# Poissons Ratio (x) = 0.18727 0.07756
# Poissons Ratio (y) = 0.36229 0.14827
# Poissons Ratio (z) = 0.09906 0.09789
#
# Static dielectric constant tensor:
#      x y z
#    x 4.093960 0.000000 0.000000 
#    y 0.000000 3.604160 0.000000 
#    z 0.000000 0.000000 3.461210 
# 
# 
# High freq. dielectric constant tensor:
#      x y z
#    x 1.838200 0.000000 0.000000 
#    y 0.000000 1.795040 0.000000 
#    z 0.000000 0.000000 1.774260 
# 
# From -- ./inp_files/5597.got.cif
#   From: 2010.03.12/outbox.cif.g09.slc.cpg/sg45_3_cif.got.tgz:5597.got - 2010.04.14 02:50:11.
