data_PCOD8190252
_publ_section_title
;
Structure prediction by ZEFSAII (Michael W. Deem and Ramdas Pophale) SiO2 
 PCOD8190252
Probable space group: I M M 2
;
_chemical_formula_sum "Si O2"
_cell_formula_units_Z 64
_cell_length_a 22.786242
_cell_length_b 9.188736
_cell_length_c 19.895095
_cell_angle_alpha 90.000000
_cell_angle_beta 90.000000
_cell_angle_gamma 90.000000
_cell_volume 4165.570574
_symmetry_space_group_name_H-M "I M M 2"
_symmetry_group_IT_number 44
_symmetry_cell_setting 'orthorhombic'
loop_
_space_group_symop_operation_xyz
x,y,z
-x,-y,z
-x,y,z
x,-y,z
1/2+x,1/2+y,1/2+z
1/2-x,1/2-y,1/2+z
1/2-x,1/2+y,1/2+z
1/2+x,1/2-y,1/2+z
loop_
_atom_site_type_symbol
_atom_site_label
_atom_site_fract_x
_atom_site_fract_y
_atom_site_fract_z
Si Si1 0.335904 0.840840 0.183350
Si Si2 0.247932 0.340460 0.113368
Si Si3 0.857072 0.174275 0.889148
Si Si4 0.742051 0.162948 0.315639
Si Si5 0.859000 0.673278 0.027605
Si Si6 0.667610 0.162544 0.743941
Si Si7 0.067895 0.671238 0.779963
Si Si8 0.434482 0.173050 0.653754
O O1 0.308073 0.749048 0.122607
O O2 0.292306 0.844799 0.246140
O O3 0.398262 0.781272 0.211379
O O4 0.344936 0.000000 0.152651
O O5 0.268925 0.500000 0.092585
O O6 0.205387 0.279510 0.055020
O O7 0.212155 0.346166 0.182147
O O8 0.793811 0.238300 0.868084
O O9 0.908582 0.232802 0.841268
O O10 0.855084 0.000000 0.886946
O O11 0.873108 0.232008 0.962640
O O12 0.805960 0.234542 0.302251
O O13 0.750437 0.000000 0.345138
O O14 0.861470 0.500000 0.012902
O O15 0.907816 0.720051 0.082134
O O16 0.606054 0.228369 0.715865
O O17 0.658887 0.000000 0.773571
O O18 0.080037 0.500000 0.795079
O O19 0.000000 0.704748 0.769166
O O20 0.500000 0.237886 0.661252
O O21 0.434715 0.000000 0.656689
#
# Coordination Sequence:
#
# PCOD8190252 Si02
#       8
#     8   8   8   8   8   8   8   8
#     4   8  14  24  40  60  77  96 127 167 206 242
#     4   8  14  24  39  57  77 102 130 165 207 246
#     4  11  21  30  41  59  83 109 140 178 214 242
#     4   9  16  27  42  58  77 103 134 166 207 255
#     4   9  17  29  42  57  80 112 148 175 199 240
#     4   8  13  23  40  61  81 100 129 170 209 240
#     4   9  18  32  46  59  80 113 147 172 198 239
#     4   8  14  25  42  62  83 111 145 174 200 237
#
# _framework density 15.364042
#
# number of rings (size 3 to 8) (size 9 to 14) (size 15 to 20)
#    0.000    3.250    0.000    3.750    0.000    4.250 
#    0.000    3.125    0.000    1.125    0.000    0.000 
#    0.000    1.000    0.000    9.750    0.000    3.500 
#
# Total GULP energy -396506.944663 kJ/mol
# GULP energy per Si atom -12390.842021 kJ/mol
# Density = 1.532907 g / cm^3
# Si number density = 15.364042 Si / 1000 Ang^3
#
#
#
# Elastic Constant Matrix: (Units=GPa)
#
#
# Indices 1 2 3 4 5 6 
#
# 1 124.3216 46.8315 45.2259 0.0000 0.0000 0.0000
# 2 46.8315 70.7125 18.4581 0.0000 0.0000 0.0000
# 3 45.2259 18.4581 18.8558 0.0000 0.0000 0.0000
# 4 0.0000 0.0000 0.0000 19.7622 0.0000 0.0000
# 5 0.0000 0.0000 0.0000 0.0000 14.4911 0.0000
# 6 0.0000 0.0000 0.0000 0.0000 0.0000 18.7260
#
#
#
# Elastic Compliance Matrix: (Units=1/GPa)
#
#
# Indices 1 2 3 4 5 6 
#
# 1 0.063604 -0.003092 -0.149528 0.000000 0.000000 0.000000
# 2 -0.003092 0.019146 -0.011325 0.000000 0.000000 0.000000
# 3 -0.149528 -0.011325 0.422764 0.000000 0.000000 0.000000
# 4 0.000000 0.000000 0.000000 0.050602 0.000000 0.000000
# 5 0.000000 0.000000 0.000000 0.000000 0.069008 0.000000
# 6 0.000000 0.000000 0.000000 0.000000 0.000000 0.053402
#
#
# Mechanical properties :
#
#
# Convention : Reuss Voigt Hill
#
# Bulk Modulus (GPa) = 5.62988 48.32456 26.97722
# Shear Modulus (GPa) = 4.69209 17.48750 11.08979
#
# Velocity S-wave (km/s) = 1.74945 3.37740 2.68955
# Velocity P-wave (km/s) = 2.78443 6.83596 5.21936
#
# Compressibility (1/GPa) = 0.17762369
#
# Stress axis : x y z
#
# Youngs Moduli (GPa) = 15.72228 52.23038 2.36539
#
# Poissons Ratio (x) = 0.16152 0.35369
# Poissons Ratio (y) = 0.04862 0.02679
# Poissons Ratio (z) = 2.35092 0.59151
#
# Static dielectric constant tensor:
#      x y z
#    x 3.143860 0.000000 0.000000 
#    y 0.000000 3.017750 0.000000 
#    z 0.000000 0.000000 2.687830 
# 
# 
# High freq. dielectric constant tensor:
#      x y z
#    x 1.576460 0.000000 0.000000 
#    y 0.000000 1.579320 0.000000 
#    z 0.000000 0.000000 1.547700 
# 
# From -- ./inp_files/20886.got.cif
#   From: 2010.03.12/outbox.cif.g09.slc.cpg/sg44_11_cif.got.tgz:20886.got - 2010.04.14 02:36:11.
