data_PCOD8190958
_publ_section_title
;
Structure prediction by ZEFSAII (Michael W. Deem and Ramdas Pophale) SiO2 
 PCOD8190958
Probable space group: I B A 2
;
_chemical_formula_sum "Si O2"
_cell_formula_units_Z 48
_cell_length_a 9.554455
_cell_length_b 17.482335
_cell_length_c 13.049841
_cell_angle_alpha 90.000000
_cell_angle_beta 90.000000
_cell_angle_gamma 90.000000
_cell_volume 2179.769530
_symmetry_space_group_name_H-M "I B A 2"
_symmetry_group_IT_number 45
_symmetry_cell_setting 'orthorhombic'
loop_
_space_group_symop_operation_xyz
x,y,z
-x,-y,z
-x,y,1/2+z
x,-y,1/2+z
1/2+x,1/2+y,1/2+z
1/2-x,1/2-y,1/2+z
1/2-x,1/2+y,z
1/2+x,1/2-y,z
loop_
_atom_site_type_symbol
_atom_site_label
_atom_site_fract_x
_atom_site_fract_y
_atom_site_fract_z
Si Si1 0.210544 0.992175 0.956230
Si Si2 0.611104 0.396768 0.124504
Si Si3 0.000000 0.000000 0.780443
Si Si4 0.476791 0.760355 0.576358
Si Si5 0.130701 0.358207 0.753292
Si Si6 0.268061 0.822721 0.968670
Si Si7 0.000000 0.500000 0.364443
O O1 0.141447 0.998452 0.844706
O O2 0.202785 0.905179 0.998342
O O3 0.370298 0.018145 0.939662
O O4 0.121356 0.045655 0.029535
O O5 0.497089 0.425556 0.207011
O O6 0.567694 0.315347 0.083877
O O7 0.763882 0.396572 0.174048
O O8 0.452788 0.793467 0.690212
O O9 0.574719 0.818714 0.513762
O O10 0.333445 0.743483 0.513448
O O11 0.215741 0.316721 0.845451
O O12 0.029341 0.424964 0.795458
#
# Coordination Sequence:
#
# PCOD8190958 Si02
#       7
#     8   8   4   8   8   8   4
#     4  11  26  46  74 106 140 189 244 302 351 422
#     4  12  26  45  73 105 141 187 242 291 362 421
#     4  12  22  48  72 104 138 182 240 300 346 426
#     4  12  27  46  73 106 147 194 229 303 357 437
#     4  11  27  46  69 108 142 187 241 291 362 429
#     4  11  26  48  71 107 145 189 241 291 365 423
#     4  10  24  48  76 102 148 186 236 310 356 424
#
# _framework density 22.020676000000002
#
# number of rings (size 3 to 8) (size 9 to 14) (size 15 to 20)
#    0.000    0.667    5.000    2.500    9.333    1.333 
#    0.000    0.000    0.000    0.000    0.000    0.000 
#    0.000    0.000    0.000    0.000    0.000    0.000 
#
# Total GULP energy -297639.245495 kJ/mol
# GULP energy per Si atom -12401.635229 kJ/mol
# Density = 2.197056 g / cm^3
# Si number density = 22.020676 Si / 1000 Ang^3
#
#
#
# Elastic Constant Matrix: (Units=GPa)
#
#
# Indices 1 2 3 4 5 6 
#
# 1 81.1224 38.6379 21.5793 0.0001 0.0000 0.0000
# 2 38.6379 107.0720 56.9230 0.0003 0.0001 0.0000
# 3 21.5793 56.9230 116.3142 0.0005 0.0001 0.0000
# 4 0.0001 0.0003 0.0005 36.8172 0.0001 0.0000
# 5 0.0000 0.0001 0.0001 0.0001 -25.4930 0.0000
# 6 0.0000 0.0000 0.0000 0.0000 0.0000 46.4468
#
#
#
# Elastic Compliance Matrix: (Units=1/GPa)
#
#
# Indices 1 2 3 4 5 6 
#
# 1 0.014888 -0.005277 -0.000180 0.000000 0.000000 0.000000
# 2 -0.005277 0.014494 -0.006114 0.000000 0.000000 0.000000
# 3 -0.000180 -0.006114 0.011623 0.000000 0.000000 0.000000
# 4 0.000000 0.000000 0.000000 0.027161 0.000000 0.000000
# 5 0.000000 0.000000 0.000000 0.000000 -0.039226 0.000000
# 6 0.000000 0.000000 0.000000 0.000000 0.000000 0.021530
#
#
# Mechanical properties :
#
#
# Convention : Reuss Voigt Hill
#
# Bulk Modulus (GPa) = 55.97986 59.86545 57.92266
# Shear Modulus (GPa) = 62.83998 24.04542 43.44270
#
# Velocity S-wave (km/s) = 5.34778 3.30805 4.44646
# Velocity P-wave (km/s) = 7.97549 6.46807 7.26100
#
# Compressibility (1/GPa) = 0.01786357
#
# Stress axis : x y z
#
# Youngs Moduli (GPa) = 67.16701 68.99214 86.03598
#
# Poissons Ratio (x) = 0.36408 0.01545
# Poissons Ratio (y) = 0.35445 0.52606
# Poissons Ratio (z) = 0.01206 0.42184
#
# Static dielectric constant tensor:
#      x y z
#    x 4.113630 0.000000 0.000000 
#    y 0.000000 3.942700 0.000000 
#    z 0.000000 0.000000 4.049100 
# 
# 
# High freq. dielectric constant tensor:
#      x y z
#    x 1.877310 0.000000 0.000000 
#    y 0.000000 1.864200 0.000000 
#    z 0.000000 0.000000 1.873890 
# 
# From -- ./inp_files/5641.got.cif
#   From: 2010.03.12/outbox.cif.g09.slc.cpg/sg45_3_cif.got.tgz:5641.got - 2010.04.14 02:50:11.
