data_PCOD8190398
_publ_section_title
;
Structure prediction by ZEFSAII (Michael W. Deem and Ramdas Pophale) SiO2 
 PCOD8190398
Probable space group: I B A 2
;
_chemical_formula_sum "Si O2"
_cell_formula_units_Z 56
_cell_length_a 5.511247
_cell_length_b 31.734934
_cell_length_c 13.138359
_cell_angle_alpha 90.000000
_cell_angle_beta 90.000000
_cell_angle_gamma 90.000000
_cell_volume 2297.886636
_symmetry_space_group_name_H-M "I B A 2"
_symmetry_group_IT_number 45
_symmetry_cell_setting 'orthorhombic'
loop_
_space_group_symop_operation_xyz
x,y,z
-x,-y,z
-x,y,1/2+z
x,-y,1/2+z
1/2+x,1/2+y,1/2+z
1/2-x,1/2-y,1/2+z
1/2-x,1/2+y,z
1/2+x,1/2-y,z
loop_
_atom_site_type_symbol
_atom_site_label
_atom_site_fract_x
_atom_site_fract_y
_atom_site_fract_z
Si Si1 0.946505 0.142704 0.232450
Si Si2 0.743709 0.975474 0.179642
Si Si3 0.630344 0.731493 0.734728
Si Si4 0.126090 0.645547 0.908642
Si Si5 0.047912 0.905819 0.548000
Si Si6 0.566091 0.236369 0.462523
Si Si7 0.763610 0.921927 0.366040
O O1 0.714444 0.159506 0.295104
O O2 0.130736 0.181289 0.215201
O O3 0.873966 0.119020 0.128013
O O4 0.058637 0.107119 0.302942
O O5 0.756465 0.934487 0.107269
O O6 0.701069 0.962634 0.297904
O O7 0.500000 0.000000 0.145351
O O8 0.000000 0.000000 0.169355
O O9 0.384292 0.751719 0.685397
O O10 0.627466 0.740665 0.855575
O O11 0.995488 0.687078 0.951986
O O12 0.970396 0.603806 0.897863
O O13 0.335608 0.632742 0.986497
O O14 0.892961 0.935535 0.471912
O O15 0.332412 0.258103 0.519164
#
# Coordination Sequence:
#
# PCOD8190398 Si02
#       7
#     8   8   8   8   8   8   8
#     4  10  21  40  66  94 140 188 239 291 356 417
#     4  11  28  52  79 107 144 185 227 290 365 443
#     4  10  18  33  59  91 127 183 240 289 343 396
#     4  11  22  40  71  98 140 196 240 296 353 431
#     4  10  26  45  68 110 141 185 234 298 353 433
#     4  10  19  34  61  94 132 185 242 292 346 395
#     4  10  24  44  73 101 137 183 239 281 361 432
#
# _framework density 24.370217
#
# number of rings (size 3 to 8) (size 9 to 14) (size 15 to 20)
#    0.000    1.714    2.857    1.714   10.000    1.714 
#    0.000    1.429    0.000    0.000    0.000    0.000 
#    0.000    0.000    0.000    0.000    0.000    0.000 
#
# Total GULP energy -347020.124996 kJ/mol
# GULP energy per Si atom -12393.575893 kJ/mol
# Density = 2.431475 g / cm^3
# Si number density = 24.370217 Si / 1000 Ang^3
#
#
#
# Elastic Constant Matrix: (Units=GPa)
#
#
# Indices 1 2 3 4 5 6 
#
# 1 138.7298 16.2434 31.3087 0.0000 0.0000 0.0000
# 2 16.2434 73.6454 27.4083 0.0000 0.0001 0.0000
# 3 31.3087 27.4083 91.4338 0.0000 0.0000 0.0000
# 4 0.0000 0.0000 0.0000 21.9535 0.0000 0.0000
# 5 0.0000 0.0001 0.0000 0.0000 46.5804 0.0000
# 6 0.0000 0.0000 0.0000 0.0000 0.0000 4.3229
#
#
#
# Elastic Compliance Matrix: (Units=1/GPa)
#
#
# Indices 1 2 3 4 5 6 
#
# 1 0.007856 -0.000823 -0.002443 0.000000 0.000000 0.000000
# 2 -0.000823 0.015370 -0.004325 0.000000 0.000000 0.000000
# 3 -0.002443 -0.004325 0.013070 0.000000 0.000000 0.000000
# 4 0.000000 0.000000 0.000000 0.045551 0.000000 0.000000
# 5 0.000000 0.000000 0.000000 0.000000 0.021468 0.000000
# 6 0.000000 0.000000 0.000000 0.000000 0.000000 0.231324
#
#
# Mechanical properties :
#
#
# Convention : Reuss Voigt Hill
#
# Bulk Modulus (GPa) = 47.36645 50.41443 48.89044
# Shear Modulus (GPa) = 14.01108 29.82794 21.91951
#
# Velocity S-wave (km/s) = 2.40036 3.50230 3.00232
# Velocity P-wave (km/s) = 5.21160 6.08988 5.66777
#
# Compressibility (1/GPa) = 0.02111199
#
# Stress axis : x y z
#
# Youngs Moduli (GPa) = 127.29021 65.06201 76.51083
#
# Poissons Ratio (x) = 0.05358 0.18693
# Poissons Ratio (y) = 0.10482 0.33094
# Poissons Ratio (z) = 0.31100 0.28142
#
# Static dielectric constant tensor:
#      x y z
#    x 4.608290 0.000000 0.000000 
#    y 0.000000 4.176050 0.000000 
#    z 0.000000 0.000000 4.660980 
# 
# 
# High freq. dielectric constant tensor:
#      x y z
#    x 1.961740 0.000000 0.000000 
#    y 0.000000 1.958180 0.000000 
#    z 0.000000 0.000000 1.975640 
# 
# From -- ./inp_files/5275.got.cif
#   From: 2010.03.12/outbox.cif.g09.slc.cpg/sg45_3_cif.got.tgz:5275.got - 2010.04.14 02:50:11.
