data_PCOD8190571
_publ_section_title
;
Structure prediction by ZEFSAII (Michael W. Deem and Ramdas Pophale) SiO2 
 PCOD8190571
Probable space group: I B A 2
;
_chemical_formula_sum "Si O2"
_cell_formula_units_Z 60
_cell_length_a 18.037467
_cell_length_b 8.758302
_cell_length_c 17.595644
_cell_angle_alpha 90.000000
_cell_angle_beta 90.000000
_cell_angle_gamma 90.000000
_cell_volume 2779.717316
_symmetry_space_group_name_H-M "I B A 2"
_symmetry_group_IT_number 45
_symmetry_cell_setting 'orthorhombic'
loop_
_space_group_symop_operation_xyz
x,y,z
-x,-y,z
-x,y,1/2+z
x,-y,1/2+z
1/2+x,1/2+y,1/2+z
1/2-x,1/2-y,1/2+z
1/2-x,1/2+y,z
1/2+x,1/2-y,z
loop_
_atom_site_type_symbol
_atom_site_label
_atom_site_fract_x
_atom_site_fract_y
_atom_site_fract_z
Si Si1 0.218518 0.785200 0.020840
Si Si2 0.877857 0.636885 0.959250
Si Si3 0.022437 0.823918 0.354738
Si Si4 0.003177 0.334173 0.711644
Si Si5 0.250207 0.030059 0.127341
Si Si6 0.500000 0.000000 0.569662
Si Si7 0.836212 0.281155 0.715952
Si Si8 0.866473 0.322740 0.882609
O O1 0.195624 0.920391 0.078568
O O2 0.204474 0.627413 0.065168
O O3 0.306064 0.799087 0.002016
O O4 0.168160 0.788158 0.946363
O O5 0.911889 0.779754 0.912183
O O6 0.856283 0.500335 0.902500
O O7 0.936115 0.573939 0.020078
O O8 0.047938 0.781953 0.267352
O O9 0.952542 0.717253 0.374096
O O10 0.000000 0.000000 0.362175
O O11 0.035366 0.367629 0.626274
O O12 0.922451 0.261822 0.699806
O O13 0.000000 0.500000 0.754426
O O14 0.308564 0.934598 0.176046
O O15 0.203295 0.131659 0.184523
O O16 0.820811 0.291432 0.805878
#
# Coordination Sequence:
#
# PCOD8190571 Si02
#       8
#     8   8   8   8   8   4   8   8
#     4  11  24  40  67  99 135 173 221 277 334 397
#     4  12  23  44  69  97 135 180 224 274 335 413
#     4  11  24  43  67  97 135 172 225 283 329 388
#     4   9  21  42  67  93 124 171 224 264 325 402
#     4  10  22  41  61  94 135 168 210 274 332 392
#     4  10  20  38  74  92 118 180 222 264 328 404
#     4  10  22  41  64  92 132 170 219 271 328 398
#     4  11  24  44  67  96 132 182 225 269 338 407
#
# _framework density 21.584928000000001
#
# number of rings (size 3 to 8) (size 9 to 14) (size 15 to 20)
#    0.400    1.067    2.667    3.200    3.733    0.000 
#    2.400    6.000    0.000    0.000    0.000    0.000 
#    0.000    0.000    0.000    0.000    0.000    0.000 
#
# Total GULP energy -371833.117550 kJ/mol
# GULP energy per Si atom -12394.437252 kJ/mol
# Density = 2.153580 g / cm^3
# Si number density = 21.584928 Si / 1000 Ang^3
#
#
#
# Elastic Constant Matrix: (Units=GPa)
#
#
# Indices 1 2 3 4 5 6 
#
# 1 46.8940 7.2121 25.0073 0.0000 0.0000 0.0000
# 2 7.2121 98.7920 42.2565 0.0000 0.0000 0.0000
# 3 25.0073 42.2565 152.9495 0.0000 0.0000 0.0000
# 4 0.0000 0.0000 0.0000 31.0384 0.0000 0.0000
# 5 0.0000 0.0000 0.0000 0.0000 24.1020 0.0000
# 6 0.0000 0.0000 0.0000 0.0000 0.0000 24.0777
#
#
#
# Elastic Compliance Matrix: (Units=1/GPa)
#
#
# Indices 1 2 3 4 5 6 
#
# 1 0.023362 -0.000081 -0.003797 0.000000 0.000000 0.000000
# 2 -0.000081 0.011479 -0.003158 0.000000 0.000000 0.000000
# 3 -0.003797 -0.003158 0.008031 0.000000 0.000000 0.000000
# 4 0.000000 0.000000 0.000000 0.032218 0.000000 0.000000
# 5 0.000000 0.000000 0.000000 0.000000 0.041490 0.000000
# 6 0.000000 0.000000 0.000000 0.000000 0.000000 0.041532
#
#
# Mechanical properties :
#
#
# Convention : Reuss Voigt Hill
#
# Bulk Modulus (GPa) = 34.72301 49.73191 42.22746
# Shear Modulus (GPa) = 27.50480 30.78760 29.14620
#
# Velocity S-wave (km/s) = 3.57355 3.78080 3.67863
# Velocity P-wave (km/s) = 5.75748 6.49225 6.13588
#
# Compressibility (1/GPa) = 0.02879935
#
# Stress axis : x y z
#
# Youngs Moduli (GPa) = 42.80425 87.11531 124.51016
#
# Poissons Ratio (x) = 0.00708 0.47280
# Poissons Ratio (y) = 0.00348 0.39322
# Poissons Ratio (z) = 0.16254 0.27512
#
# Static dielectric constant tensor:
#      x y z
#    x 3.603400 0.000000 0.000000 
#    y 0.000000 3.968260 0.000000 
#    z 0.000000 0.000000 4.337900 
# 
# 
# High freq. dielectric constant tensor:
#      x y z
#    x 1.821470 0.000000 0.000000 
#    y 0.000000 1.842700 0.000000 
#    z 0.000000 0.000000 1.871670 
# 
# From -- ./inp_files/8359.got.cif
#   From: 2010.03.12/outbox.cif.g09.slc.cpg/sg45_5_cif.got.tgz:8359.got - 2010.04.14 02:50:11.
