data_PCOD8190093
_publ_section_title
;
Structure prediction by ZEFSAII (Michael W. Deem and Ramdas Pophale) SiO2 
 PCOD8190093
Probable space group: I M M 2
;
_chemical_formula_sum "Si O2"
_cell_formula_units_Z 64
_cell_length_a 31.018079
_cell_length_b 8.643831
_cell_length_c 11.943693
_cell_angle_alpha 90.000000
_cell_angle_beta 90.000000
_cell_angle_gamma 90.000000
_cell_volume 3202.283641
_symmetry_space_group_name_H-M "I M M 2"
_symmetry_group_IT_number 44
_symmetry_cell_setting 'orthorhombic'
loop_
_space_group_symop_operation_xyz
x,y,z
-x,-y,z
-x,y,z
x,-y,z
1/2+x,1/2+y,1/2+z
1/2-x,1/2-y,1/2+z
1/2-x,1/2+y,1/2+z
1/2+x,1/2-y,1/2+z
loop_
_atom_site_type_symbol
_atom_site_label
_atom_site_fract_x
_atom_site_fract_y
_atom_site_fract_z
Si Si1 0.876076 0.182157 0.564570
Si Si2 0.452053 0.177164 0.205273
Si Si3 0.578349 0.318358 0.422181
Si Si4 0.297209 0.178089 0.194725
Si Si5 0.452406 0.683718 0.664784
Si Si6 0.702504 0.680957 0.654381
Si Si7 0.873158 0.184338 0.309873
Si Si8 0.168840 0.324683 0.935189
O O1 0.917958 0.261702 0.615896
O O2 0.832980 0.222433 0.631488
O O3 0.871523 0.242145 0.437291
O O4 0.883367 0.000000 0.569119
O O5 0.500000 0.191967 0.152956
O O6 0.452584 0.276806 0.319302
O O7 0.440735 0.000000 0.234022
O O8 0.588188 0.500000 0.424821
O O9 0.557739 0.261714 0.538553
O O10 0.621613 0.224859 0.397723
O O11 0.250406 0.251029 0.166693
O O12 0.300884 0.192323 0.327876
O O13 0.301919 0.000000 0.155952
O O14 0.500000 0.746326 0.698529
O O15 0.452199 0.500000 0.668809
O O16 0.416425 0.750047 0.749832
O O17 0.705825 0.500000 0.675642
O O18 0.668782 0.751026 0.744768
O O19 0.685666 0.711411 0.530457
O O20 0.873363 0.000000 0.302682
O O21 0.168906 0.500000 0.980297
#
# Coordination Sequence:
#
# PCOD8190093 Si02
#       8
#     8   8   8   8   8   8   8   8
#     4  11  23  38  62  88 115 153 201 251 292 350
#     4  11  24  41  60  84 121 162 195 239 301 357
#     4  11  20  35  61  90 119 152 194 243 290 352
#     4  10  23  40  60  84 119 159 193 242 302 356
#     4   9  17  31  55  86 116 144 180 235 297 347
#     4  10  21  40  62  85 116 156 199 244 297 353
#     4   9  19  36  57  84 115 149 192 245 298 342
#     4  11  22  37  60  89 120 155 193 243 303 357
#
# _framework density 19.985738999999999
#
# number of rings (size 3 to 8) (size 9 to 14) (size 15 to 20)
#    0.000    1.750    2.500    1.875    1.750    3.000 
#    0.000    2.500    0.000    0.000    0.000    0.000 
#    0.000    0.000    0.000    0.000    0.000    0.000 
#
# Total GULP energy -396836.918769 kJ/mol
# GULP energy per Si atom -12401.153712 kJ/mol
# Density = 1.994025 g / cm^3
# Si number density = 19.985739 Si / 1000 Ang^3
#
#
#
# Elastic Constant Matrix: (Units=GPa)
#
#
# Indices 1 2 3 4 5 6 
#
# 1 156.3913 23.2253 55.8328 0.0000 0.0000 0.0000
# 2 23.2253 25.7100 20.0395 0.0000 0.0000 0.0000
# 3 55.8328 20.0395 125.0170 0.0000 0.0000 0.0000
# 4 0.0000 0.0000 0.0000 21.0158 0.0000 0.0000
# 5 0.0000 0.0000 0.0000 0.0000 25.6063 0.0000
# 6 0.0000 0.0000 0.0000 0.0000 0.0000 16.6651
#
#
#
# Elastic Compliance Matrix: (Units=1/GPa)
#
#
# Indices 1 2 3 4 5 6 
#
# 1 0.008170 -0.005184 -0.002818 0.000000 0.000000 0.000000
# 2 -0.005184 0.047738 -0.005337 0.000000 0.000000 0.000000
# 3 -0.002818 -0.005337 0.010113 0.000000 0.000000 0.000000
# 4 0.000000 0.000000 0.000000 0.047583 0.000000 0.000000
# 5 0.000000 0.000000 0.000000 0.000000 0.039053 0.000000
# 6 0.000000 0.000000 0.000000 0.000000 0.000000 0.060005
#
#
# Mechanical properties :
#
#
# Convention : Reuss Voigt Hill
#
# Bulk Modulus (GPa) = 25.41720 56.14594 40.78157
# Shear Modulus (GPa) = 19.80552 26.52550 23.16551
#
# Velocity S-wave (km/s) = 3.15140 3.64706 3.40825
# Velocity P-wave (km/s) = 5.09775 6.77412 5.99482
#
# Compressibility (1/GPa) = 0.03934344
#
# Stress axis : x y z
#
# Youngs Moduli (GPa) = 122.39789 20.94757 98.88447
#
# Poissons Ratio (x) = 0.10860 0.27863
# Poissons Ratio (y) = 0.63453 0.52773
# Poissons Ratio (z) = 0.34489 0.11179
#
# Static dielectric constant tensor:
#      x y z
#    x 3.907140 0.000000 0.000000 
#    y 0.000000 3.345860 0.000000 
#    z 0.000000 0.000000 3.650170 
# 
# 
# High freq. dielectric constant tensor:
#      x y z
#    x 1.795950 0.000000 0.000000 
#    y 0.000000 1.752210 0.000000 
#    z 0.000000 0.000000 1.781010 
# 
# From -- ./inp_files/15063.got.cif
#   From: 2010.03.12/outbox.cif.g09.slc.cpg/sg44_8_cif.got.tgz:15063.got - 2010.04.14 02:36:11.
