data_PCOD8190507
_publ_section_title
;
Structure prediction by ZEFSAII (Michael W. Deem and Ramdas Pophale) SiO2 
 PCOD8190507
Probable space group: I B A 2
;
_chemical_formula_sum "Si O2"
_cell_formula_units_Z 64
_cell_length_a 14.255507
_cell_length_b 27.888370
_cell_length_c 9.177137
_cell_angle_alpha 90.000000
_cell_angle_beta 90.000000
_cell_angle_gamma 90.000000
_cell_volume 3648.488775
_symmetry_space_group_name_H-M "I B A 2"
_symmetry_group_IT_number 45
_symmetry_cell_setting 'orthorhombic'
loop_
_space_group_symop_operation_xyz
x,y,z
-x,-y,z
-x,y,1/2+z
x,-y,1/2+z
1/2+x,1/2+y,1/2+z
1/2-x,1/2-y,1/2+z
1/2-x,1/2+y,z
1/2+x,1/2-y,z
loop_
_atom_site_type_symbol
_atom_site_label
_atom_site_fract_x
_atom_site_fract_y
_atom_site_fract_z
Si Si1 0.411212 0.329379 0.546440
Si Si2 0.794265 0.357187 0.712332
Si Si3 0.337932 0.770463 0.048011
Si Si4 0.794272 0.357187 0.051066
Si Si5 0.588781 0.670621 0.216978
Si Si6 0.903323 0.547895 0.209558
Si Si7 0.596675 0.047894 0.553813
Si Si8 0.837942 0.270463 0.215383
O O1 0.416236 0.271129 0.557202
O O2 0.312822 0.350558 0.608049
O O3 0.422114 0.346781 0.381710
O O4 0.499994 0.351025 0.631714
O O5 0.864408 0.320704 0.626668
O O6 0.687168 0.350558 0.655361
O O7 0.826535 0.411169 0.682545
O O8 0.800275 0.343318 0.881699
O O9 0.249990 0.750000 0.131686
O O10 0.311815 0.781699 0.881695
O O11 0.826539 0.411170 0.080841
O O12 0.864418 0.320705 0.136729
O O13 0.583754 0.728871 0.206212
O O14 0.864394 0.500001 0.131680
O O15 0.920357 0.539319 0.381686
O O16 0.999999 0.563032 0.131686
#
# Coordination Sequence:
#
# PCOD8190507 Si02
#       8
#     8   8   8   8   8   8   8   8
#     4   9  18  31  46  68  97 129 163 197 233 274
#     4   9  19  34  50  70  98 129 161 199 241 286
#     4   9  17  29  45  66  94 126 161 198 234 275
#     4   9  19  34  50  70  98 129 161 199 241 286
#     4   9  18  31  46  68  97 129 163 197 233 274
#     4  10  20  35  54  75  99 124 155 198 246 297
#     4  10  20  35  54  75  99 124 155 198 246 297
#     4   9  17  29  45  66  94 126 161 198 234 275
#
# _framework density 17.541509000000001
#
# number of rings (size 3 to 8) (size 9 to 14) (size 15 to 20)
#    0.000    2.750    0.000    3.750    0.000    8.000 
#    0.000    5.000    0.000    0.750    0.000    5.250 
#    0.000    0.000    0.000    0.000    0.000    0.000 
#
# Total GULP energy -396522.777532 kJ/mol
# GULP energy per Si atom -12391.336798 kJ/mol
# Density = 1.750158 g / cm^3
# Si number density = 17.541509 Si / 1000 Ang^3
#
#
#
# Elastic Constant Matrix: (Units=GPa)
#
#
# Indices 1 2 3 4 5 6 
#
# 1 73.6783 49.8886 38.5895 0.0002 0.0000 -0.0002
# 2 49.8886 108.3484 48.1219 0.0003 0.0005 0.0000
# 3 38.5895 48.1219 94.3006 -0.0050 -0.0013 -0.0006
# 4 0.0002 0.0003 -0.0050 26.2907 0.0006 0.0000
# 5 0.0000 0.0005 -0.0013 0.0006 25.3320 0.0001
# 6 -0.0002 0.0000 -0.0006 0.0000 0.0001 22.2344
#
#
#
# Elastic Compliance Matrix: (Units=1/GPa)
#
#
# Indices 1 2 3 4 5 6 
#
# 1 0.021274 -0.007667 -0.004794 -0.000001 0.000000 0.000000
# 2 -0.007667 0.014697 -0.004363 -0.000001 0.000000 0.000000
# 3 -0.004794 -0.004363 0.014792 0.000003 0.000001 0.000000
# 4 -0.000001 -0.000001 0.000003 0.038036 -0.000001 0.000000
# 5 0.000000 0.000000 0.000001 -0.000001 0.039476 0.000000
# 6 0.000000 0.000000 0.000000 0.000000 0.000000 0.044975
#
#
# Mechanical properties :
#
#
# Convention : Reuss Voigt Hill
#
# Bulk Modulus (GPa) = 58.41784 61.05860 59.73822
# Shear Modulus (GPa) = 23.51802 24.08660 23.80231
#
# Velocity S-wave (km/s) = 3.66554 3.70958 3.68763
# Velocity P-wave (km/s) = 7.16169 7.29600 7.22916
#
# Compressibility (1/GPa) = 0.01711806
#
# Stress axis : x y z
#
# Youngs Moduli (GPa) = 47.00490 68.04004 67.60289
#
# Poissons Ratio (x) = 0.52164 0.32406
# Poissons Ratio (y) = 0.36037 0.29493
# Poissons Ratio (z) = 0.22532 0.29684
#
# Static dielectric constant tensor:
#      x y z
#    x 3.057840 -0.000020 0.000000 
#    y -0.000020 4.025470 -0.000070 
#    z 0.000000 -0.000070 3.530330 
# 
# 
# High freq. dielectric constant tensor:
#      x y z
#    x 1.653990 0.000000 0.000000 
#    y 0.000000 1.661530 0.000000 
#    z 0.000000 0.000000 1.688220 
# 
# From -- ./inp_files/1993.got.cif
#   From: 2010.03.12/outbox.cif.g09.slc.cpg/sg45_1_cif.got.tgz:1993.got - 2010.04.14 02:50:11.
