data_PCOD8190734
_publ_section_title
;
Structure prediction by ZEFSAII (Michael W. Deem and Ramdas Pophale) SiO2 
 PCOD8190734
Probable space group: I B A 2
;
_chemical_formula_sum "Si O2"
_cell_formula_units_Z 64
_cell_length_a 10.999782
_cell_length_b 17.447227
_cell_length_c 15.937991
_cell_angle_alpha 90.000000
_cell_angle_beta 90.000000
_cell_angle_gamma 90.000000
_cell_volume 3058.750596
_symmetry_space_group_name_H-M "I B A 2"
_symmetry_group_IT_number 45
_symmetry_cell_setting 'orthorhombic'
loop_
_space_group_symop_operation_xyz
x,y,z
-x,-y,z
-x,y,1/2+z
x,-y,1/2+z
1/2+x,1/2+y,1/2+z
1/2-x,1/2-y,1/2+z
1/2-x,1/2+y,z
1/2+x,1/2-y,z
loop_
_atom_site_type_symbol
_atom_site_label
_atom_site_fract_x
_atom_site_fract_y
_atom_site_fract_z
Si Si1 0.444345 0.416609 0.854490
Si Si2 0.044826 0.413355 0.611408
Si Si3 0.857868 0.318764 0.962185
Si Si4 0.597239 0.153487 0.880924
Si Si5 0.829475 0.812289 0.827404
Si Si6 0.290573 0.053147 0.254867
Si Si7 0.206510 0.386742 0.180175
Si Si8 0.299717 0.650182 0.506118
O O1 0.500000 0.500000 0.863435
O O2 0.542064 0.355113 0.822992
O O3 0.340983 0.416497 0.782857
O O4 0.391231 0.395451 0.945673
O O5 0.096522 0.384301 0.524036
O O6 0.161469 0.405331 0.671528
O O7 0.000000 0.500000 0.599081
O O8 0.930714 0.366852 0.650349
O O9 0.735552 0.342356 0.913072
O O10 0.843925 0.238402 0.010840
O O11 0.960416 0.316921 0.890204
O O12 0.665096 0.220613 0.830311
O O13 0.612008 0.074178 0.828685
O O14 0.661955 0.143924 0.971356
O O15 0.751739 0.822036 0.743180
O O16 0.286028 0.963263 0.236116
O O17 0.296103 0.387517 0.098798
#
# Coordination Sequence:
#
# PCOD8190734 Si02
#       8
#     8   8   8   8   8   8   8   8
#     4  11  22  45  66  92 134 176 220 268 339 419
#     4  10  23  41  66  98 130 167 225 281 338 392
#     4  11  22  42  67  98 134 172 226 276 342 405
#     4  10  21  43  67  95 132 175 223 278 329 402
#     4  11  24  40  66  99 129 174 227 265 335 418
#     4  10  23  41  66  95 129 174 223 274 338 400
#     4  11  22  44  66  97 135 171 223 284 339 396
#     4  10  23  41  68  96 136 174 219 281 337 406
#
# _framework density 20.923576000000001
#
# number of rings (size 3 to 8) (size 9 to 14) (size 15 to 20)
#    0.000    1.500    3.750    0.750    1.750    3.000 
#    4.500    0.000    0.000    0.000    0.000    0.000 
#    0.000    0.000    0.000    0.000    0.000    0.000 
#
# Total GULP energy -396695.380003 kJ/mol
# GULP energy per Si atom -12396.730625 kJ/mol
# Density = 2.087595 g / cm^3
# Si number density = 20.923576 Si / 1000 Ang^3
#
#
#
# Elastic Constant Matrix: (Units=GPa)
#
#
# Indices 1 2 3 4 5 6 
#
# 1 102.5023 31.0657 46.8520 0.0000 0.0000 0.0000
# 2 31.0657 69.3905 58.4968 0.0000 0.0000 0.0000
# 3 46.8520 58.4968 129.7641 0.0000 0.0000 0.0000
# 4 0.0000 0.0000 0.0000 37.7179 0.0000 0.0000
# 5 0.0000 0.0000 0.0000 0.0000 32.0725 0.0000
# 6 0.0000 0.0000 0.0000 0.0000 0.0000 27.1766
#
#
#
# Elastic Compliance Matrix: (Units=1/GPa)
#
#
# Indices 1 2 3 4 5 6 
#
# 1 0.012007 -0.002776 -0.003084 0.000000 0.000000 0.000000
# 2 -0.002776 0.023886 -0.009766 0.000000 0.000000 0.000000
# 3 -0.003084 -0.009766 0.013222 0.000000 0.000000 0.000000
# 4 0.000000 0.000000 0.000000 0.026513 0.000000 0.000000
# 5 0.000000 0.000000 0.000000 0.000000 0.031179 0.000000
# 6 0.000000 0.000000 0.000000 0.000000 0.000000 0.036796
#
#
# Mechanical properties :
#
#
# Convention : Reuss Voigt Hill
#
# Bulk Modulus (GPa) = 55.97592 63.83174 59.90383
# Shear Modulus (GPa) = 27.65358 30.40958 29.03158
#
# Velocity S-wave (km/s) = 3.63939 3.81644 3.72896
# Velocity P-wave (km/s) = 6.66865 7.07061 6.87257
#
# Compressibility (1/GPa) = 0.01786483
#
# Stress axis : x y z
#
# Youngs Moduli (GPa) = 83.28711 41.86495 75.63141
#
# Poissons Ratio (x) = 0.11620 0.23324
# Poissons Ratio (y) = 0.23117 0.73859
# Poissons Ratio (z) = 0.25684 0.40884
#
# Static dielectric constant tensor:
#      x y z
#    x 4.018610 0.000000 0.000000 
#    y 0.000000 3.660170 0.000000 
#    z 0.000000 0.000000 3.739950 
# 
# 
# High freq. dielectric constant tensor:
#      x y z
#    x 1.825970 0.000000 0.000000 
#    y 0.000000 1.812430 0.000000 
#    z 0.000000 0.000000 1.820500 
# 
# From -- ./inp_files/6310.got.cif
#   From: 2010.03.12/outbox.cif.g09.slc.cpg/sg45_4_cif.got.tgz:6310.got - 2010.04.14 02:50:11.
