data_PCOD8190193
_publ_section_title
;
Structure prediction by ZEFSAII (Michael W. Deem and Ramdas Pophale) SiO2 
 PCOD8190193
Probable space group: I M M 2
;
_chemical_formula_sum "Si O2"
_cell_formula_units_Z 40
_cell_length_a 8.807785
_cell_length_b 11.505515
_cell_length_c 19.751631
_cell_angle_alpha 90.000000
_cell_angle_beta 90.000000
_cell_angle_gamma 90.000000
_cell_volume 2001.592806
_symmetry_space_group_name_H-M "I M M 2"
_symmetry_group_IT_number 44
_symmetry_cell_setting 'orthorhombic'
loop_
_space_group_symop_operation_xyz
x,y,z
-x,-y,z
-x,y,z
x,-y,z
1/2+x,1/2+y,1/2+z
1/2-x,1/2-y,1/2+z
1/2-x,1/2+y,1/2+z
1/2+x,1/2-y,1/2+z
loop_
_atom_site_type_symbol
_atom_site_label
_atom_site_fract_x
_atom_site_fract_y
_atom_site_fract_z
Si Si1 0.822094 0.738982 0.340740
Si Si2 0.177555 0.633421 0.966485
Si Si3 0.320787 0.779225 0.074475
Si Si4 0.327599 0.500000 0.507717
Si Si5 0.823163 0.133556 0.204305
Si Si6 0.327711 0.500000 0.347574
O O1 0.742047 0.785710 0.407659
O O2 0.784775 0.827165 0.280121
O O3 0.758068 0.613352 0.319818
O O4 0.000000 0.729400 0.355281
O O5 0.213524 0.500000 0.949471
O O6 0.000000 0.658310 0.972580
O O7 0.254630 0.664426 0.038292
O O8 0.500000 0.775895 0.071297
O O9 0.259162 0.888431 0.033655
O O10 0.268272 0.785374 0.152303
O O11 0.500000 0.500000 0.535773
O O12 0.324227 0.500000 0.427862
O O13 0.000000 0.148395 0.188769
O O14 0.771531 0.000000 0.195563
O O15 0.500000 0.500000 0.320345
#
# Coordination Sequence:
#
# PCOD8190193 Si02
#       6
#     8   8   8   4   8   4
#     4  11  23  40  65  94 123 160 206 254 304 361
#     4  11  24  42  64  90 123 165 204 248 306 366
#     4  12  24  38  63  95 123 156 203 257 304 356
#     4  11  21  37  63  91 124 159 196 247 304 364
#     4  10  22  41  64  89 123 164 201 247 307 369
#     4  11  23  39  63  91 124 165 202 249 308 362
#
# _framework density 19.984086000000001
#
# number of rings (size 3 to 8) (size 9 to 14) (size 15 to 20)
#    0.000    1.000    3.000    4.200    0.000    4.800 
#    1.800    0.000    0.000    0.000    0.000    0.000 
#    0.000    0.000    0.000    0.000    0.000    0.000 
#
# Total GULP energy -248115.828816 kJ/mol
# GULP energy per Si atom -12405.791441 kJ/mol
# Density = 1.993860 g / cm^3
# Si number density = 19.984086 Si / 1000 Ang^3
#
#
#
# Elastic Constant Matrix: (Units=GPa)
#
#
# Indices 1 2 3 4 5 6 
#
# 1 131.1915 53.0185 46.3763 0.0000 0.0000 0.0000
# 2 53.0185 95.1173 30.7499 0.0000 0.0000 0.0000
# 3 46.3763 30.7499 86.3837 0.0000 0.0000 0.0000
# 4 0.0000 0.0000 0.0000 40.1834 0.0000 0.0000
# 5 0.0000 0.0000 0.0000 0.0000 35.0702 0.0000
# 6 0.0000 0.0000 0.0000 0.0000 0.0000 123.7151
#
#
#
# Elastic Compliance Matrix: (Units=1/GPa)
#
#
# Indices 1 2 3 4 5 6 
#
# 1 0.011055 -0.004795 -0.004228 0.000000 0.000000 0.000000
# 2 -0.004795 0.013960 -0.002395 0.000000 0.000000 0.000000
# 3 -0.004228 -0.002395 0.014699 0.000000 0.000000 0.000000
# 4 0.000000 0.000000 0.000000 0.024886 0.000000 0.000000
# 5 0.000000 0.000000 0.000000 0.000000 0.028514 0.000000
# 6 0.000000 0.000000 0.000000 0.000000 0.000000 0.008083
#
#
# Mechanical properties :
#
#
# Convention : Reuss Voigt Hill
#
# Bulk Modulus (GPa) = 59.25080 63.66464 61.45772
# Shear Modulus (GPa) = 38.56240 51.96359 45.26300
#
# Velocity S-wave (km/s) = 4.39755 5.10480 4.76431
# Velocity P-wave (km/s) = 7.44969 8.16530 7.81569
#
# Compressibility (1/GPa) = 0.01687741
#
# Stress axis : x y z
#
# Youngs Moduli (GPa) = 90.45727 71.63078 68.03299
#
# Poissons Ratio (x) = 0.34348 0.28765
# Poissons Ratio (y) = 0.43376 0.16295
# Poissons Ratio (z) = 0.38246 0.17157
#
# Static dielectric constant tensor:
#      x y z
#    x 3.751810 0.000000 0.000000 
#    y 0.000000 3.742230 0.000000 
#    z 0.000000 0.000000 3.672640 
# 
# 
# High freq. dielectric constant tensor:
#      x y z
#    x 1.790090 0.000000 0.000000 
#    y 0.000000 1.782390 0.000000 
#    z 0.000000 0.000000 1.780920 
# 
# From -- ./inp_files/22783.got.cif
#   From: 2010.03.12/outbox.cif.g09.slc.cpg/sg44_12_cif.got.tgz:22783.got - 2010.04.14 02:36:11.
