data_PCOD8190921
_publ_section_title
;
Structure prediction by ZEFSAII (Michael W. Deem and Ramdas Pophale) SiO2 
 PCOD8190921
Probable space group: I B A 2
;
_chemical_formula_sum "Si O2"
_cell_formula_units_Z 64
_cell_length_a 15.949665
_cell_length_b 13.399993
_cell_length_c 13.321605
_cell_angle_alpha 90.000000
_cell_angle_beta 90.000000
_cell_angle_gamma 90.000000
_cell_volume 2847.165349
_symmetry_space_group_name_H-M "I B A 2"
_symmetry_group_IT_number 45
_symmetry_cell_setting 'orthorhombic'
loop_
_space_group_symop_operation_xyz
x,y,z
-x,-y,z
-x,y,1/2+z
x,-y,1/2+z
1/2+x,1/2+y,1/2+z
1/2-x,1/2-y,1/2+z
1/2-x,1/2+y,z
1/2+x,1/2-y,z
loop_
_atom_site_type_symbol
_atom_site_label
_atom_site_fract_x
_atom_site_fract_y
_atom_site_fract_z
Si Si1 0.816633 0.932681 0.673700
Si Si2 0.639503 0.941469 0.585452
Si Si3 0.436337 0.290679 0.089356
Si Si4 0.802413 0.352699 0.041125
Si Si5 0.185128 0.150529 0.230000
Si Si6 0.286204 0.291059 0.349807
Si Si7 0.551926 0.792510 0.433519
Si Si8 0.456011 0.186580 0.739449
O O1 0.741423 0.937658 0.591829
O O2 0.906546 0.900813 0.625010
O O3 0.780679 0.849674 0.746910
O O4 0.834753 0.032981 0.737100
O O5 0.600560 0.879282 0.493636
O O6 0.592255 0.908504 0.689021
O O7 0.628873 0.059099 0.561924
O O8 0.354094 0.248390 0.036251
O O9 0.459536 0.216393 0.180939
O O10 0.511045 0.288616 0.008691
O O11 0.731473 0.337027 0.124121
O O12 0.758087 0.359646 0.933209
O O13 0.240631 0.185290 0.325544
O O14 0.100731 0.214771 0.230406
O O15 0.382258 0.273375 0.374422
O O16 0.483032 0.837792 0.354799
#
# Coordination Sequence:
#
# PCOD8190921 Si02
#       8
#     8   8   8   8   8   8   8   8
#     4  11  23  45  72  96 134 183 235 288 342 412
#     4  10  24  43  70 104 133 186 238 280 349 410
#     4  11  22  43  64  94 141 179 218 285 350 406
#     4  11  23  44  71 101 137 180 234 284 343 416
#     4  11  24  44  73  98 135 180 231 288 336 415
#     4  12  23  45  69 103 133 176 237 284 345 412
#     4  11  24  40  71 100 144 183 227 285 354 421
#     4  11  21  43  66  99 145 181 220 288 351 410
#
# _framework density 22.478497000000001
#
# number of rings (size 3 to 8) (size 9 to 14) (size 15 to 20)
#    0.000    1.000    3.750    3.000    1.750    2.500 
#    2.250    5.000    2.750    0.000    0.000    0.000 
#    0.000    0.000    0.000    0.000    0.000    0.000 
#
# Total GULP energy -396575.515065 kJ/mol
# GULP energy per Si atom -12392.984846 kJ/mol
# Density = 2.242733 g / cm^3
# Si number density = 22.478497 Si / 1000 Ang^3
#
#
#
# Elastic Constant Matrix: (Units=GPa)
#
#
# Indices 1 2 3 4 5 6 
#
# 1 83.8192 40.5873 40.4853 0.0000 0.0000 0.0000
# 2 40.5873 120.2472 41.1905 0.0000 0.0000 0.0000
# 3 40.4853 41.1905 115.6568 0.0000 0.0000 0.0000
# 4 0.0000 0.0000 0.0000 26.5546 0.0000 0.0000
# 5 0.0000 0.0000 0.0000 0.0000 46.8551 0.0000
# 6 0.0000 0.0000 0.0000 0.0000 0.0000 26.1032
#
#
#
# Elastic Compliance Matrix: (Units=1/GPa)
#
#
# Indices 1 2 3 4 5 6 
#
# 1 0.015833 -0.003924 -0.004145 0.000000 0.000000 0.000000
# 2 -0.003924 0.010444 -0.002346 0.000000 0.000000 0.000000
# 3 -0.004145 -0.002346 0.010933 0.000000 0.000000 0.000000
# 4 0.000000 0.000000 0.000000 0.037658 0.000000 0.000000
# 5 0.000000 0.000000 0.000000 0.000000 0.021342 0.000000
# 6 0.000000 0.000000 0.000000 0.000000 0.000000 0.038309
#
#
# Mechanical properties :
#
#
# Convention : Reuss Voigt Hill
#
# Bulk Modulus (GPa) = 61.05070 62.69438 61.87254
# Shear Modulus (GPa) = 31.09277 33.06660 32.07969
#
# Velocity S-wave (km/s) = 3.72321 3.83957 3.78183
# Velocity P-wave (km/s) = 6.76029 6.89983 6.83042
#
# Compressibility (1/GPa) = 0.01637983
#
# Stress axis : x y z
#
# Youngs Moduli (GPa) = 63.16121 95.74504 91.46987
#
# Poissons Ratio (x) = 0.37573 0.37910
# Poissons Ratio (y) = 0.24786 0.21459
# Poissons Ratio (z) = 0.26177 0.22462
#
# Static dielectric constant tensor:
#      x y z
#    x 4.151900 0.000000 0.000000 
#    y 0.000000 4.117510 0.000000 
#    z 0.000000 0.000000 4.148470 
# 
# 
# High freq. dielectric constant tensor:
#      x y z
#    x 1.896560 0.000000 0.000000 
#    y 0.000000 1.867310 0.000000 
#    z 0.000000 0.000000 1.888420 
# 
# From -- ./inp_files/4498.got.cif
#   From: 2010.03.12/outbox.cif.g09.slc.cpg/sg45_3_cif.got.tgz:4498.got - 2010.04.14 02:50:11.
