data_PCOD8190223
_publ_section_title
;
Structure prediction by ZEFSAII (Michael W. Deem and Ramdas Pophale) SiO2 
 PCOD8190223
Probable space group: I M M 2
;
_chemical_formula_sum "Si O2"
_cell_formula_units_Z 64
_cell_length_a 13.690468
_cell_length_b 18.929687
_cell_length_c 12.212133
_cell_angle_alpha 90.000000
_cell_angle_beta 90.000000
_cell_angle_gamma 90.000000
_cell_volume 3164.850887
_symmetry_space_group_name_H-M "I M M 2"
_symmetry_group_IT_number 44
_symmetry_cell_setting 'orthorhombic'
loop_
_space_group_symop_operation_xyz
x,y,z
-x,-y,z
-x,y,z
x,-y,z
1/2+x,1/2+y,1/2+z
1/2-x,1/2-y,1/2+z
1/2-x,1/2+y,1/2+z
1/2+x,1/2-y,1/2+z
loop_
_atom_site_type_symbol
_atom_site_label
_atom_site_fract_x
_atom_site_fract_y
_atom_site_fract_z
Si Si1 0.249764 0.079156 0.944970
Si Si2 0.609405 0.343757 0.111786
Si Si3 0.390082 0.285647 0.881047
Si Si4 0.805903 0.653437 0.853341
Si Si5 0.200330 0.580472 0.072446
Si Si6 0.611671 0.134033 0.780014
Si Si7 0.111558 0.581905 0.643379
Si Si8 0.613528 0.696681 0.356950
O O1 0.320806 0.076695 0.839851
O O2 0.161084 0.132882 0.925714
O O3 0.207692 0.000000 0.961913
O O4 0.314930 0.103918 0.047532
O O5 0.500000 0.375839 0.114697
O O6 0.683933 0.407558 0.090013
O O7 0.635252 0.307945 0.227218
O O8 0.618315 0.285649 0.014126
O O9 0.500000 0.307688 0.844648
O O10 0.311528 0.341347 0.832145
O O11 0.362740 0.209449 0.833270
O O12 0.863665 0.629792 0.746951
O O13 0.842414 0.729352 0.896626
O O14 0.829157 0.597484 0.948261
O O15 0.173555 0.500000 0.097725
O O16 0.137950 0.631878 0.151621
O O17 0.500000 0.113800 0.798680
O O18 0.124510 0.500000 0.674532
O O19 0.000000 0.597858 0.606937
O O20 0.500000 0.693751 0.384015
#
# Coordination Sequence:
#
# PCOD8190223 Si02
#       8
#     8   8   8   8   8   8   8   8
#     4  11  23  41  62  88 122 155 196 255 312 367
#     4   9  19  36  60  89 121 155 200 249 300 360
#     4   9  19  36  60  91 123 158 201 250 304 361
#     4  11  22  40  62  89 124 164 207 257 306 360
#     4  11  23  38  58  87 125 165 201 245 304 365
#     4  11  22  37  59  86 118 157 197 243 301 361
#     4  10  23  42  65  91 118 159 214 264 310 363
#     4  11  23  38  61  93 123 159 202 249 308 373
#
# _framework density 20.222123
#
# number of rings (size 3 to 8) (size 9 to 14) (size 15 to 20)
#    0.000    1.625    2.500    1.500    1.750    4.000 
#    0.000    3.125    0.000    1.875    0.000    0.000 
#    0.000    0.000    0.000    0.000    0.000    0.000 
#
# Total GULP energy -396812.354980 kJ/mol
# GULP energy per Si atom -12400.386093 kJ/mol
# Density = 2.017610 g / cm^3
# Si number density = 20.222123 Si / 1000 Ang^3
#
#
#
# Elastic Constant Matrix: (Units=GPa)
#
#
# Indices 1 2 3 4 5 6 
#
# 1 98.2121 39.6074 35.1273 0.0000 0.0000 0.0000
# 2 39.6074 86.2925 35.3732 0.0000 0.0000 0.0000
# 3 35.1273 35.3732 87.6805 -0.0001 0.0000 0.0000
# 4 0.0000 0.0000 -0.0001 28.5913 0.0000 0.0000
# 5 0.0000 0.0000 0.0000 0.0000 34.7350 0.0000
# 6 0.0000 0.0000 0.0000 0.0000 0.0000 23.6207
#
#
#
# Elastic Compliance Matrix: (Units=1/GPa)
#
#
# Indices 1 2 3 4 5 6 
#
# 1 0.013306 -0.004699 -0.003435 0.000000 0.000000 0.000000
# 2 -0.004699 0.015544 -0.004388 0.000000 0.000000 0.000000
# 3 -0.003435 -0.004388 0.014552 0.000000 0.000000 0.000000
# 4 0.000000 0.000000 0.000000 0.034976 0.000000 0.000000
# 5 0.000000 0.000000 0.000000 0.000000 0.028789 0.000000
# 6 0.000000 0.000000 0.000000 0.000000 0.000000 0.042336
#
#
# Mechanical properties :
#
#
# Convention : Reuss Voigt Hill
#
# Bulk Modulus (GPa) = 54.47619 54.71119 54.59369
# Shear Modulus (GPa) = 27.67535 28.19454 27.93495
#
# Velocity S-wave (km/s) = 3.70343 3.73801 3.72076
# Velocity P-wave (km/s) = 6.72938 6.76344 6.74643
#
# Compressibility (1/GPa) = 0.01835664
#
# Stress axis : x y z
#
# Youngs Moduli (GPa) = 75.15595 64.33234 68.72102
#
# Poissons Ratio (x) = 0.30231 0.23605
# Poissons Ratio (y) = 0.35317 0.30158
# Poissons Ratio (z) = 0.25815 0.28232
#
# Static dielectric constant tensor:
#      x y z
#    x 3.846730 0.000000 0.000000 
#    y 0.000000 3.427890 0.000000 
#    z 0.000000 0.000000 3.658780 
# 
# 
# High freq. dielectric constant tensor:
#      x y z
#    x 1.800100 0.000000 0.000000 
#    y 0.000000 1.773030 0.000000 
#    z 0.000000 0.000000 1.787410 
# 
# From -- ./inp_files/13447.got.cif
#   From: 2010.03.12/outbox.cif.g09.slc.cpg/sg44_7_cif.got.tgz:13447.got - 2010.04.14 02:36:11.
