data_PCOD8190752
_publ_section_title
;
Structure prediction by ZEFSAII (Michael W. Deem and Ramdas Pophale) SiO2 
 PCOD8190752
Probable space group: I B A 2
;
_chemical_formula_sum "Si O2"
_cell_formula_units_Z 52
_cell_length_a 13.107088
_cell_length_b 20.695340
_cell_length_c 9.452480
_cell_angle_alpha 90.000000
_cell_angle_beta 90.000000
_cell_angle_gamma 90.000000
_cell_volume 2564.038536
_symmetry_space_group_name_H-M "I B A 2"
_symmetry_group_IT_number 45
_symmetry_cell_setting 'orthorhombic'
loop_
_space_group_symop_operation_xyz
x,y,z
-x,-y,z
-x,y,1/2+z
x,-y,1/2+z
1/2+x,1/2+y,1/2+z
1/2-x,1/2-y,1/2+z
1/2-x,1/2+y,z
1/2+x,1/2-y,z
loop_
_atom_site_type_symbol
_atom_site_label
_atom_site_fract_x
_atom_site_fract_y
_atom_site_fract_z
Si Si1 0.500000 0.000000 0.160040
Si Si2 0.266397 0.654240 0.893043
Si Si3 0.200321 0.356826 0.928547
Si Si4 0.207652 0.549564 0.686664
Si Si5 0.376200 0.731575 0.332966
Si Si6 0.069003 0.237245 0.017565
Si Si7 0.329118 0.084720 0.140748
O O1 0.410786 0.959695 0.243417
O O2 0.565513 0.945766 0.073283
O O3 0.273072 0.588797 0.801632
O O4 0.198636 0.707226 0.812147
O O5 0.379150 0.680611 0.924130
O O6 0.215649 0.640191 0.043874
O O7 0.311020 0.330419 0.880749
O O8 0.132836 0.302421 0.001951
O O9 0.142231 0.383167 0.790530
O O10 0.214563 0.415300 0.036453
O O11 0.250138 0.476006 0.664738
O O12 0.455458 0.746267 0.458970
O O13 0.433311 0.718836 0.183957
#
# Coordination Sequence:
#
# PCOD8190752 Si02
#       7
#     4   8   8   8   8   8   8
#     4   8  24  34  60 102 118 158 204 230 318 370
#     4  11  23  41  61  91 130 159 204 253 314 368
#     4  11  23  41  61  91 130 159 204 253 314 368
#     4  10  22  37  62  91 128 161 198 249 314 371
#     4  11  26  40  64  91 121 168 213 256 307 362
#     4  11  26  40  64  91 121 168 213 256 307 362
#     4  10  22  37  62  91 132 157 196 249 314 377
#
# _framework density 20.280507
#
# number of rings (size 3 to 8) (size 9 to 14) (size 15 to 20)
#    0.923    0.615    3.077    0.923    8.615    1.231 
#    0.000    0.000    0.000    5.538    0.000    0.000 
#    0.000    0.000    0.000    0.000    0.000    0.000 
#
# Total GULP energy -322104.154087 kJ/mol
# GULP energy per Si atom -12388.621311 kJ/mol
# Density = 2.023435 g / cm^3
# Si number density = 20.280507 Si / 1000 Ang^3
#
#
#
# Elastic Constant Matrix: (Units=GPa)
#
#
# Indices 1 2 3 4 5 6 
#
# 1 52.3558 6.9680 13.5054 0.0001 -0.0001 -0.0001
# 2 6.9680 69.3872 14.6268 -0.0002 0.0000 0.0000
# 3 13.5054 14.6268 96.9906 -0.0030 0.0002 0.0005
# 4 0.0001 -0.0002 -0.0030 23.7140 0.0000 0.0003
# 5 -0.0001 0.0000 0.0002 0.0000 24.9415 -0.0001
# 6 -0.0001 0.0000 0.0005 0.0003 -0.0001 26.3830
#
#
#
# Elastic Compliance Matrix: (Units=1/GPa)
#
#
# Indices 1 2 3 4 5 6 
#
# 1 0.019955 -0.001465 -0.002558 0.000000 0.000000 0.000000
# 2 -0.001465 0.014993 -0.002057 0.000000 0.000000 0.000000
# 3 -0.002558 -0.002057 0.010977 0.000001 0.000000 0.000000
# 4 0.000000 0.000000 0.000001 0.042169 0.000000 0.000000
# 5 0.000000 0.000000 0.000000 0.000000 0.040094 0.000000
# 6 0.000000 0.000000 0.000000 0.000000 0.000000 0.037903
#
#
# Mechanical properties :
#
#
# Convention : Reuss Voigt Hill
#
# Bulk Modulus (GPa) = 29.61639 32.10378 30.86008
# Shear Modulus (GPa) = 26.38464 27.24992 26.81728
#
# Velocity S-wave (km/s) = 3.61083 3.66956 3.64031
# Velocity P-wave (km/s) = 5.65855 5.81537 5.73749
#
# Compressibility (1/GPa) = 0.03376509
#
# Stress axis : x y z
#
# Youngs Moduli (GPa) = 50.11322 66.69960 91.10255
#
# Poissons Ratio (x) = 0.09770 0.23301
# Poissons Ratio (y) = 0.07340 0.18740
# Poissons Ratio (z) = 0.12818 0.13720
#
# Static dielectric constant tensor:
#      x y z
#    x 3.407220 0.000000 0.000000 
#    y 0.000000 3.817560 0.000000 
#    z 0.000000 0.000000 3.542780 
# 
# 
# High freq. dielectric constant tensor:
#      x y z
#    x 1.753270 0.000000 0.000000 
#    y 0.000000 1.801710 0.000000 
#    z 0.000000 0.000000 1.792400 
# 
# From -- ./inp_files/1791.got.cif
#   From: 2010.03.12/outbox.cif.g09.slc.cpg/sg45_1_cif.got.tgz:1791.got - 2010.04.14 02:50:11.
