data_PCOD8190530
_publ_section_title
;
Structure prediction by ZEFSAII (Michael W. Deem and Ramdas Pophale) SiO2 
 PCOD8190530
Probable space group: I B A 2
;
_chemical_formula_sum "Si O2"
_cell_formula_units_Z 60
_cell_length_a 30.542608
_cell_length_b 10.592972
_cell_length_c 9.044026
_cell_angle_alpha 90.000000
_cell_angle_beta 90.000000
_cell_angle_gamma 90.000000
_cell_volume 2926.076962
_symmetry_space_group_name_H-M "I B A 2"
_symmetry_group_IT_number 45
_symmetry_cell_setting 'orthorhombic'
loop_
_space_group_symop_operation_xyz
x,y,z
-x,-y,z
-x,y,1/2+z
x,-y,1/2+z
1/2+x,1/2+y,1/2+z
1/2-x,1/2-y,1/2+z
1/2-x,1/2+y,z
1/2+x,1/2-y,z
loop_
_atom_site_type_symbol
_atom_site_label
_atom_site_fract_x
_atom_site_fract_y
_atom_site_fract_z
Si Si1 0.687161 0.023552 0.497570
Si Si2 0.325780 0.644383 0.828736
Si Si3 0.328244 0.267425 0.815121
Si Si4 0.000000 0.000000 0.780893
Si Si5 0.875821 0.312748 0.528290
Si Si6 0.142002 0.960320 0.034052
Si Si7 0.733580 0.853166 0.278534
Si Si8 0.444561 0.621220 0.028296
O O1 0.682944 0.127847 0.371134
O O2 0.711152 0.077030 0.641265
O O3 0.638843 0.960915 0.537283
O O4 0.718022 0.913102 0.433577
O O5 0.349500 0.561519 0.705006
O O6 0.319721 0.550919 0.967772
O O7 0.280032 0.704052 0.775105
O O8 0.356827 0.762022 0.872640
O O9 0.355526 0.263425 0.665780
O O10 0.357172 0.328719 0.945252
O O11 0.285840 0.352752 0.776085
O O12 0.969672 0.088673 0.679183
O O13 0.025697 0.099624 0.883949
O O14 0.927221 0.269010 0.531524
O O15 0.095720 0.025905 0.009926
#
# Coordination Sequence:
#
# PCOD8190530 Si02
#       8
#     8   8   8   4   8   8   8   8
#     4  11  24  43  59  84 119 170 224 267 323 359
#     4  10  22  37  56  84 122 163 215 260 315 363
#     4  12  25  38  61  84 123 174 223 268 321 354
#     4  10  20  36  66 102 132 156 188 250 340 390
#     4  10  22  41  60  86 125 163 212 257 313 393
#     4  11  21  37  60  89 126 165 206 254 324 381
#     4  11  26  41  57  82 124 165 229 276 306 353
#     4  10  20  38  62  98 130 155 194 254 316 401
#
# _framework density 20.505271
#
# number of rings (size 3 to 8) (size 9 to 14) (size 15 to 20)
#    0.000    1.333    2.667    4.000    5.600    2.133 
#    0.000    0.000    0.000    0.000    0.000   15.867 
#    0.000    0.000    0.000    0.000    0.000    0.000 
#
# Total GULP energy -371788.252910 kJ/mol
# GULP energy per Si atom -12392.941764 kJ/mol
# Density = 2.045860 g / cm^3
# Si number density = 20.505271 Si / 1000 Ang^3
#
#
#
# Elastic Constant Matrix: (Units=GPa)
#
#
# Indices 1 2 3 4 5 6 
#
# 1 90.3053 35.3414 38.0096 0.0000 0.0000 0.0000
# 2 35.3414 79.2115 30.2937 0.0000 0.0000 0.0000
# 3 38.0096 30.2937 115.8748 0.0000 0.0000 0.0000
# 4 0.0000 0.0000 0.0000 34.5385 0.0000 0.0000
# 5 0.0000 0.0000 0.0000 0.0000 26.3390 0.0000
# 6 0.0000 0.0000 0.0000 0.0000 0.0000 37.7981
#
#
#
# Elastic Compliance Matrix: (Units=1/GPa)
#
#
# Indices 1 2 3 4 5 6 
#
# 1 0.014538 -0.005181 -0.003414 0.000000 0.000000 0.000000
# 2 -0.005181 0.015873 -0.002450 0.000000 0.000000 0.000000
# 3 -0.003414 -0.002450 0.010391 0.000000 0.000000 0.000000
# 4 0.000000 0.000000 0.000000 0.028953 0.000000 0.000000
# 5 0.000000 0.000000 0.000000 0.000000 0.037966 0.000000
# 6 0.000000 0.000000 0.000000 0.000000 0.000000 0.026456
#
#
# Mechanical properties :
#
#
# Convention : Reuss Voigt Hill
#
# Bulk Modulus (GPa) = 53.44486 54.74233 54.09359
# Shear Modulus (GPa) = 30.76818 31.85159 31.30989
#
# Velocity S-wave (km/s) = 3.87783 3.94552 3.91182
# Velocity P-wave (km/s) = 6.79490 6.89281 6.84403
#
# Compressibility (1/GPa) = 0.01871087
#
# Stress axis : x y z
#
# Youngs Moduli (GPa) = 68.78461 63.00025 96.24042
#
# Poissons Ratio (x) = 0.32638 0.32861
# Poissons Ratio (y) = 0.35634 0.23583
# Poissons Ratio (z) = 0.23486 0.15438
#
# Static dielectric constant tensor:
#      x y z
#    x 3.641930 0.000000 0.000000 
#    y 0.000000 3.964040 0.000000 
#    z 0.000000 0.000000 3.903290 
# 
# 
# High freq. dielectric constant tensor:
#      x y z
#    x 1.764820 0.000000 0.000000 
#    y 0.000000 1.799080 0.000000 
#    z 0.000000 0.000000 1.825960 
# 
# From -- ./inp_files/2621.got.cif
#   From: 2010.03.12/outbox.cif.g09.slc.cpg/sg45_2_cif.got.tgz:2621.got - 2010.04.14 02:50:11.
