data_PCOD8190504
_publ_section_title
;
Structure prediction by ZEFSAII (Michael W. Deem and Ramdas Pophale) SiO2 
 PCOD8190504
Probable space group: I B A 2
;
_chemical_formula_sum "Si O2"
_cell_formula_units_Z 40
_cell_length_a 9.982546
_cell_length_b 19.330277
_cell_length_c 8.742013
_cell_angle_alpha 90.000000
_cell_angle_beta 90.000000
_cell_angle_gamma 90.000000
_cell_volume 1686.905855
_symmetry_space_group_name_H-M "I B A 2"
_symmetry_group_IT_number 45
_symmetry_cell_setting 'orthorhombic'
loop_
_space_group_symop_operation_xyz
x,y,z
-x,-y,z
-x,y,1/2+z
x,-y,1/2+z
1/2+x,1/2+y,1/2+z
1/2-x,1/2-y,1/2+z
1/2-x,1/2+y,z
1/2+x,1/2-y,z
loop_
_atom_site_type_symbol
_atom_site_label
_atom_site_fract_x
_atom_site_fract_y
_atom_site_fract_z
Si Si1 0.843318 0.932871 0.561870
Si Si2 0.000000 0.500000 0.386501
Si Si3 0.668486 0.308786 0.124105
Si Si4 0.000000 0.000000 0.801374
Si Si5 0.327846 0.054097 0.134363
Si Si6 0.617366 0.713934 0.972366
O O1 0.805219 0.854449 0.529007
O O2 0.879965 0.971276 0.403429
O O3 0.722328 0.974627 0.633847
O O4 0.960081 0.935783 0.690791
O O5 0.921393 0.557756 0.485724
O O6 0.911276 0.444993 0.290815
O O7 0.707165 0.390286 0.130653
O O8 0.631992 0.278163 0.290060
O O9 0.540959 0.293323 0.014450
O O10 0.805217 0.275417 0.057494
#
# Coordination Sequence:
#
# PCOD8190504 Si02
#       6
#     8   4   8   4   8   8
#     4  11  21  39  66  97 131 171 224 281 342 406
#     4  10  24  42  66 102 140 178 228 286 352 416
#     4  12  28  48  72 102 142 188 237 291 353 420
#     4  10  20  34  64 100 128 158 216 288 340 394
#     4  11  24  43  69 100 137 182 230 286 348 417
#     4  12  27  47  70 104 142 187 237 292 353 420
#
# _framework density 23.712052
#
# number of rings (size 3 to 8) (size 9 to 14) (size 15 to 20)
#    0.000    0.800    0.000    8.400    0.000   11.200 
#    0.000    0.000    0.000    0.000    0.000    0.000 
#    0.000    0.000    0.000    0.000    0.000    0.000 
#
# Total GULP energy -247892.386599 kJ/mol
# GULP energy per Si atom -12394.619330 kJ/mol
# Density = 2.365808 g / cm^3
# Si number density = 23.712052 Si / 1000 Ang^3
#
#
#
# Elastic Constant Matrix: (Units=GPa)
#
#
# Indices 1 2 3 4 5 6 
#
# 1 131.6608 23.3191 46.6339 0.0001 0.0000 0.0000
# 2 23.3191 64.9204 11.8576 0.0002 0.0000 0.0000
# 3 46.6339 11.8576 159.4046 0.0005 0.0001 0.0000
# 4 0.0001 0.0002 0.0005 27.2064 0.0001 0.0000
# 5 0.0000 0.0000 0.0001 0.0001 -5.1437 0.0000
# 6 0.0000 0.0000 0.0000 0.0000 0.0000 44.0283
#
#
#
# Elastic Compliance Matrix: (Units=1/GPa)
#
#
# Indices 1 2 3 4 5 6 
#
# 1 0.008939 -0.002771 -0.002409 0.000000 0.000000 0.000000
# 2 -0.002771 0.016475 -0.000415 0.000000 0.000000 0.000000
# 3 -0.002409 -0.000415 0.007009 0.000000 0.000000 0.000000
# 4 0.000000 0.000000 0.000000 0.036756 0.000001 0.000000
# 5 0.000000 0.000000 0.000000 0.000001 -0.194414 0.000000
# 6 0.000000 0.000000 0.000000 0.000000 0.000000 0.022713
#
#
# Mechanical properties :
#
#
# Convention : Reuss Voigt Hill
#
# Bulk Modulus (GPa) = 47.09622 57.73409 52.41516
# Shear Modulus (GPa) = -59.34362 31.49655 -13.92353
#
# Velocity S-wave (km/s) = -5.00810 3.64853 -2.42583
# Velocity P-wave (km/s) = 3.67922 6.49229 3.78241
#
# Compressibility (1/GPa) = 0.02123312
#
# Stress axis : x y z
#
# Youngs Moduli (GPa) = 111.86504 60.69962 142.67402
#
# Poissons Ratio (x) = 0.16820 0.34371
# Poissons Ratio (y) = 0.30997 0.05919
# Poissons Ratio (z) = 0.26949 0.02518
#
# Static dielectric constant tensor:
#      x y z
#    x 4.415970 0.000000 0.000000 
#    y 0.000000 4.057660 0.000000 
#    z 0.000000 0.000000 4.753430 
# 
# 
# High freq. dielectric constant tensor:
#      x y z
#    x 1.949050 0.000000 0.000000 
#    y 0.000000 1.912680 0.000000 
#    z 0.000000 0.000000 1.968000 
# 
# From -- ./inp_files/1279.got.cif
#   From: 2010.03.12/outbox.cif.g09.slc.cpg/sg45_1_cif.got.tgz:1279.got - 2010.04.14 02:50:11.
