data_PCOD8190590
_publ_section_title
;
Structure prediction by ZEFSAII (Michael W. Deem and Ramdas Pophale) SiO2 
 PCOD8190590
Probable space group: I B A 2
;
_chemical_formula_sum "Si O2"
_cell_formula_units_Z 56
_cell_length_a 15.059744
_cell_length_b 13.507252
_cell_length_c 13.115359
_cell_angle_alpha 90.000000
_cell_angle_beta 90.000000
_cell_angle_gamma 90.000000
_cell_volume 2667.870683
_symmetry_space_group_name_H-M "I B A 2"
_symmetry_group_IT_number 45
_symmetry_cell_setting 'orthorhombic'
loop_
_space_group_symop_operation_xyz
x,y,z
-x,-y,z
-x,y,1/2+z
x,-y,1/2+z
1/2+x,1/2+y,1/2+z
1/2-x,1/2-y,1/2+z
1/2-x,1/2+y,z
1/2+x,1/2-y,z
loop_
_atom_site_type_symbol
_atom_site_label
_atom_site_fract_x
_atom_site_fract_y
_atom_site_fract_z
Si Si1 0.148694 0.577834 0.633700
Si Si2 0.174816 0.590245 0.288338
Si Si3 0.063713 0.083294 0.036628
Si Si4 0.839278 0.205460 0.709755
Si Si5 0.470904 0.106975 0.441136
Si Si6 0.423785 0.292572 0.920308
Si Si7 0.708602 0.555427 0.971976
O O1 0.128529 0.488499 0.712125
O O2 0.168795 0.677768 0.693940
O O3 0.068773 0.597725 0.554878
O O4 0.236185 0.543623 0.574492
O O5 0.238807 0.666804 0.229080
O O6 0.098613 0.647060 0.354843
O O7 0.233567 0.533158 0.372110
O O8 0.115629 0.150612 0.115832
O O9 0.000000 0.000000 0.089738
O O10 0.011030 0.151409 0.958205
O O11 0.133436 0.026918 0.965943
O O12 0.907658 0.186856 0.801499
O O13 0.558001 0.176963 0.444302
O O14 0.500000 0.000000 0.402367
O O15 0.334977 0.333689 0.975807
#
# Coordination Sequence:
#
# PCOD8190590 Si02
#       7
#     8   8   8   8   8   8   8
#     4  11  22  41  64  91 123 166 211 249 306 378
#     4  10  23  41  62  93 124 166 210 250 311 372
#     4  10  20  40  65  93 124 157 205 263 315 362
#     4  11  22  40  66  91 122 165 206 253 312 375
#     4  11  24  42  61  89 132 168 205 258 306 368
#     4  10  22  41  61  92 126 155 210 259 309 364
#     4   9  21  41  64  91 127 161 202 262 312 359
#
# _framework density 20.990523
#
# number of rings (size 3 to 8) (size 9 to 14) (size 15 to 20)
#    0.000    1.714    2.857    0.857    0.000    6.857 
#    7.714    0.000    0.000    0.000    0.000    0.000 
#    0.000    0.000    0.000    0.000    0.000    0.000 
#
# Total GULP energy -347080.821871 kJ/mol
# GULP energy per Si atom -12395.743638 kJ/mol
# Density = 2.094275 g / cm^3
# Si number density = 20.990523 Si / 1000 Ang^3
#
#
#
# Elastic Constant Matrix: (Units=GPa)
#
#
# Indices 1 2 3 4 5 6 
#
# 1 45.7044 7.5104 20.8104 0.0000 0.0000 0.0000
# 2 7.5104 84.9754 19.5542 0.0000 0.0000 0.0000
# 3 20.8104 19.5542 92.5095 0.0000 0.0000 0.0000
# 4 0.0000 0.0000 0.0000 24.4958 0.0000 0.0000
# 5 0.0000 0.0000 0.0000 0.0000 21.3253 0.0000
# 6 0.0000 0.0000 0.0000 0.0000 0.0000 34.2593
#
#
#
# Elastic Compliance Matrix: (Units=1/GPa)
#
#
# Indices 1 2 3 4 5 6 
#
# 1 0.024448 -0.000941 -0.005301 0.000000 0.000000 0.000000
# 2 -0.000941 0.012406 -0.002411 0.000000 0.000000 0.000000
# 3 -0.005301 -0.002411 0.012512 0.000000 0.000000 0.000000
# 4 0.000000 0.000000 0.000000 0.040823 0.000000 0.000000
# 5 0.000000 0.000000 0.000000 0.000000 0.046893 0.000000
# 6 0.000000 0.000000 0.000000 0.000000 0.000000 0.029189
#
#
# Mechanical properties :
#
#
# Convention : Reuss Voigt Hill
#
# Bulk Modulus (GPa) = 31.19072 35.43771 33.31422
# Shear Modulus (GPa) = 25.73837 27.70369 26.72103
#
# Velocity S-wave (km/s) = 3.50550 3.63687 3.57179
# Velocity P-wave (km/s) = 5.59253 5.87836 5.73723
#
# Compressibility (1/GPa) = 0.03206082
#
# Stress axis : x y z
#
# Youngs Moduli (GPa) = 40.90322 80.60612 79.92531
#
# Poissons Ratio (x) = 0.07585 0.42366
# Poissons Ratio (y) = 0.03849 0.19267
# Poissons Ratio (z) = 0.21682 0.19431
#
# Static dielectric constant tensor:
#      x y z
#    x 4.003860 0.000000 0.000000 
#    y 0.000000 3.794170 0.000000 
#    z 0.000000 0.000000 3.762370 
# 
# 
# High freq. dielectric constant tensor:
#      x y z
#    x 1.827350 0.000000 0.000000 
#    y 0.000000 1.818740 0.000000 
#    z 0.000000 0.000000 1.822440 
# 
# From -- ./inp_files/4137.got.cif
#   From: 2010.03.12/outbox.cif.g09.slc.cpg/sg45_3_cif.got.tgz:4137.got - 2010.04.14 02:50:11.
