data_PCOD8190654
_publ_section_title
;
Structure prediction by ZEFSAII (Michael W. Deem and Ramdas Pophale) SiO2 
 PCOD8190654
Probable space group: I B A 2
;
_chemical_formula_sum "Si O2"
_cell_formula_units_Z 60
_cell_length_a 10.898344
_cell_length_b 25.440969
_cell_length_c 9.357539
_cell_angle_alpha 90.000000
_cell_angle_beta 90.000000
_cell_angle_gamma 90.000000
_cell_volume 2594.512734
_symmetry_space_group_name_H-M "I B A 2"
_symmetry_group_IT_number 45
_symmetry_cell_setting 'orthorhombic'
loop_
_space_group_symop_operation_xyz
x,y,z
-x,-y,z
-x,y,1/2+z
x,-y,1/2+z
1/2+x,1/2+y,1/2+z
1/2-x,1/2-y,1/2+z
1/2-x,1/2+y,z
1/2+x,1/2-y,z
loop_
_atom_site_type_symbol
_atom_site_label
_atom_site_fract_x
_atom_site_fract_y
_atom_site_fract_z
Si Si1 0.287645 0.180020 0.679520
Si Si2 0.071068 0.836628 0.969518
Si Si3 0.810077 0.358384 0.978729
Si Si4 0.642254 0.297169 0.158950
Si Si5 0.185844 0.937179 0.900043
Si Si6 0.500000 0.000000 0.604669
Si Si7 0.926884 0.392842 0.487587
Si Si8 0.254601 0.531913 0.107719
O O1 0.170651 0.185675 0.578841
O O2 0.244377 0.166717 0.839896
O O3 0.359173 0.234620 0.665149
O O4 0.377051 0.132396 0.634011
O O5 0.940836 0.818756 0.029157
O O6 0.094668 0.815517 0.811379
O O7 0.076477 0.900413 0.959282
O O8 0.775987 0.321661 0.116200
O O9 0.762207 0.417291 0.008082
O O10 0.956668 0.357298 0.940896
O O11 0.154037 0.957368 0.740313
O O12 0.308376 0.899305 0.883576
O O13 0.196364 0.984863 0.010478
O O14 0.523087 0.951095 0.502835
O O15 0.373985 0.986185 0.687902
#
# Coordination Sequence:
#
# PCOD8190654 Si02
#       8
#     8   8   8   8   8   4   8   8
#     4  11  26  41  71 102 136 183 232 290 345 424
#     4  11  26  50  69 100 136 181 240 290 354 420
#     4  11  24  43  68 104 139 181 231 285 353 418
#     4  12  26  47  72  93 140 185 238 296 350 412
#     4  10  22  43  68 102 141 183 230 288 353 429
#     4   8  18  34  56  96 136 174 204 262 342 410
#     4   9  22  38  64 101 141 175 223 274 350 423
#     4  10  21  37  69 100 142 181 224 285 352 421
#
# _framework density 23.125729
#
# number of rings (size 3 to 8) (size 9 to 14) (size 15 to 20)
#    0.000    1.600    1.333    1.600   13.067    2.133 
#    0.000    0.667    0.000    0.000    0.000    0.000 
#    0.000    0.000    0.000    0.000    0.000    0.000 
#
# Total GULP energy -371715.411026 kJ/mol
# GULP energy per Si atom -12390.513701 kJ/mol
# Density = 2.307309 g / cm^3
# Si number density = 23.125729 Si / 1000 Ang^3
#
#
#
# Elastic Constant Matrix: (Units=GPa)
#
#
# Indices 1 2 3 4 5 6 
#
# 1 48.8802 31.8614 32.8462 0.0023 -0.0013 -0.0011
# 2 31.8614 147.8170 49.1241 -0.0028 0.0012 0.0012
# 3 32.8462 49.1241 135.0378 -0.0085 0.0033 0.0042
# 4 0.0023 -0.0028 -0.0085 32.8777 0.0019 0.0019
# 5 -0.0013 0.0012 0.0033 0.0019 29.7647 -0.0008
# 6 -0.0011 0.0012 0.0042 0.0019 -0.0008 21.9295
#
#
#
# Elastic Compliance Matrix: (Units=1/GPa)
#
#
# Indices 1 2 3 4 5 6 
#
# 1 0.026427 -0.004050 -0.004955 -0.000003 0.000002 0.000002
# 2 -0.004050 0.008316 -0.002040 0.000000 0.000000 0.000000
# 3 -0.004955 -0.002040 0.009353 0.000003 -0.000001 -0.000002
# 4 -0.000003 0.000000 0.000003 0.030416 -0.000002 -0.000003
# 5 0.000002 0.000000 -0.000001 -0.000002 0.033597 0.000001
# 6 0.000002 0.000000 -0.000002 -0.000003 0.000001 0.045601
#
#
# Mechanical properties :
#
#
# Convention : Reuss Voigt Hill
#
# Bulk Modulus (GPa) = 45.44079 62.15535 53.79807
# Shear Modulus (GPa) = 27.30231 31.44126 29.37179
#
# Velocity S-wave (km/s) = 3.43972 3.69125 3.56770
# Velocity P-wave (km/s) = 5.95547 6.71584 6.34706
#
# Compressibility (1/GPa) = 0.02200666
#
# Stress axis : x y z
#
# Youngs Moduli (GPa) = 37.83941 120.24975 106.92060
#
# Poissons Ratio (x) = 0.48697 0.52979
# Poissons Ratio (y) = 0.15324 0.21814
# Poissons Ratio (z) = 0.18749 0.24533
#
# Static dielectric constant tensor:
#      x y z
#    x 4.290770 0.000000 0.000000 
#    y 0.000000 4.354910 0.000000 
#    z 0.000000 0.000000 3.903480 
# 
# 
# High freq. dielectric constant tensor:
#      x y z
#    x 1.898640 0.000000 0.000000 
#    y 0.000000 1.924750 0.000000 
#    z 0.000000 0.000000 1.907780 
# 
# From -- ./inp_files/1445.got.cif
#   From: 2010.03.12/outbox.cif.g09.slc.cpg/sg45_1_cif.got.tgz:1445.got - 2010.04.14 02:50:11.
