data_PCOD8190535
_publ_section_title
;
Structure prediction by ZEFSAII (Michael W. Deem and Ramdas Pophale) SiO2 
 PCOD8190535
Probable space group: I B A 2
;
_chemical_formula_sum "Si O2"
_cell_formula_units_Z 48
_cell_length_a 20.284933
_cell_length_b 12.110160
_cell_length_c 8.372089
_cell_angle_alpha 90.000000
_cell_angle_beta 90.000000
_cell_angle_gamma 90.000000
_cell_volume 2056.635345
_symmetry_space_group_name_H-M "I B A 2"
_symmetry_group_IT_number 45
_symmetry_cell_setting 'orthorhombic'
loop_
_space_group_symop_operation_xyz
x,y,z
-x,-y,z
-x,y,1/2+z
x,-y,1/2+z
1/2+x,1/2+y,1/2+z
1/2-x,1/2-y,1/2+z
1/2-x,1/2+y,z
1/2+x,1/2-y,z
loop_
_atom_site_type_symbol
_atom_site_label
_atom_site_fract_x
_atom_site_fract_y
_atom_site_fract_z
Si Si1 0.359855 0.541007 0.557410
Si Si2 0.824774 0.201312 0.529489
Si Si3 0.571453 0.867719 0.043230
Si Si4 0.500000 0.000000 0.286818
Si Si5 0.427201 0.318578 0.283134
Si Si6 0.187131 0.748483 0.883929
Si Si7 0.500000 0.500000 0.924756
O O1 0.317416 0.429889 0.564198
O O2 0.365504 0.600674 0.730239
O O3 0.333802 0.626816 0.426440
O O4 0.435422 0.508054 0.529716
O O5 0.892430 0.238559 0.437289
O O6 0.823875 0.268403 0.695343
O O7 0.763431 0.236898 0.422357
O O8 0.562630 0.965011 0.175684
O O9 0.549302 0.757633 0.136625
O O10 0.523015 0.895334 0.894417
O O11 0.645477 0.846176 0.979590
O O12 0.493054 0.387828 0.320800
#
# Coordination Sequence:
#
# PCOD8190535 Si02
#       7
#     8   8   8   4   8   8   4
#     4  10  22  42  66 102 138 179 225 279 342 411
#     4  11  23  44  68  97 142 174 231 283 335 413
#     4  10  24  45  71  96 134 181 227 279 345 402
#     4  10  24  50  66  98 138 174 232 286 328 422
#     4  10  22  40  68 105 137 180 220 276 349 414
#     4  11  24  44  70  99 132 184 229 282 344 408
#     4  10  20  36  68 106 142 174 218 276 348 402
#
# _framework density 23.339091
#
# number of rings (size 3 to 8) (size 9 to 14) (size 15 to 20)
#    0.000    1.667    0.000    4.500    4.667    4.000 
#   15.000    0.000    0.000    0.000    0.000    0.000 
#    0.000    0.000    0.000    0.000    0.000    0.000 
#
# Total GULP energy -297424.639086 kJ/mol
# GULP energy per Si atom -12392.693295 kJ/mol
# Density = 2.328597 g / cm^3
# Si number density = 23.339091 Si / 1000 Ang^3
#
#
#
# Elastic Constant Matrix: (Units=GPa)
#
#
# Indices 1 2 3 4 5 6 
#
# 1 97.9967 40.1601 44.5072 0.0000 0.0000 0.0000
# 2 40.1601 84.8344 41.5234 0.0000 0.0000 0.0000
# 3 44.5072 41.5234 139.7377 0.0000 0.0000 0.0000
# 4 0.0000 0.0000 0.0000 34.0124 0.0000 0.0000
# 5 0.0000 0.0000 0.0000 0.0000 26.4104 0.0000
# 6 0.0000 0.0000 0.0000 0.0000 0.0000 33.8306
#
#
#
# Elastic Compliance Matrix: (Units=1/GPa)
#
#
# Indices 1 2 3 4 5 6 
#
# 1 0.013548 -0.005033 -0.002819 0.000000 0.000000 0.000000
# 2 -0.005033 0.015664 -0.003051 0.000000 0.000000 0.000000
# 3 -0.002819 -0.003051 0.008961 0.000000 0.000000 0.000000
# 4 0.000000 0.000000 0.000000 0.029401 0.000000 0.000000
# 5 0.000000 0.000000 0.000000 0.000000 0.037864 0.000000
# 6 0.000000 0.000000 0.000000 0.000000 0.000000 0.029559
#
#
# Mechanical properties :
#
#
# Convention : Reuss Voigt Hill
#
# Bulk Modulus (GPa) = 61.10858 63.88337 62.49598
# Shear Modulus (GPa) = 30.81481 31.94254 31.37868
#
# Velocity S-wave (km/s) = 3.63755 3.70351 3.67068
# Velocity P-wave (km/s) = 6.62436 6.76160 6.69333
#
# Compressibility (1/GPa) = 0.01636431
#
# Stress axis : x y z
#
# Youngs Moduli (GPa) = 73.81376 63.84054 111.59502
#
# Poissons Ratio (x) = 0.32134 0.31462
# Poissons Ratio (y) = 0.37153 0.34053
# Poissons Ratio (z) = 0.20810 0.19481
#
# Static dielectric constant tensor:
#      x y z
#    x 3.840450 0.000000 0.000000 
#    y 0.000000 4.399500 0.000000 
#    z 0.000000 0.000000 4.572100 
# 
# 
# High freq. dielectric constant tensor:
#      x y z
#    x 1.895090 0.000000 0.000000 
#    y 0.000000 1.911790 0.000000 
#    z 0.000000 0.000000 1.950380 
# 
# From -- ./inp_files/2298.got.cif
#   From: 2010.03.12/outbox.cif.g09.slc.cpg/sg45_2_cif.got.tgz:2298.got - 2010.04.14 02:50:11.
