data_PCOD8190083
_publ_section_title
;
Structure prediction by ZEFSAII (Michael W. Deem and Ramdas Pophale) SiO2 
 PCOD8190083
Probable space group: I M M 2
;
_chemical_formula_sum "Si O2"
_cell_formula_units_Z 48
_cell_length_a 29.974731
_cell_length_b 8.447637
_cell_length_c 9.034898
_cell_angle_alpha 90.000000
_cell_angle_beta 90.000000
_cell_angle_gamma 90.000000
_cell_volume 2287.777540
_symmetry_space_group_name_H-M "I M M 2"
_symmetry_group_IT_number 44
_symmetry_cell_setting 'orthorhombic'
loop_
_space_group_symop_operation_xyz
x,y,z
-x,-y,z
-x,y,z
x,-y,z
1/2+x,1/2+y,1/2+z
1/2-x,1/2-y,1/2+z
1/2-x,1/2+y,1/2+z
1/2+x,1/2-y,1/2+z
loop_
_atom_site_type_symbol
_atom_site_label
_atom_site_fract_x
_atom_site_fract_y
_atom_site_fract_z
Si Si1 0.948970 0.185438 0.648880
Si Si2 0.369261 0.182405 0.316100
Si Si3 0.208886 0.182808 0.630504
Si Si4 0.551764 0.183984 0.832871
Si Si5 0.874363 0.816760 0.133726
Si Si6 0.795616 0.682681 0.312601
O O1 0.919812 0.278527 0.768923
O O2 0.933423 0.230614 0.483897
O O3 0.000000 0.238631 0.673474
O O4 0.942694 0.000000 0.672667
O O5 0.336370 0.289819 0.220222
O O6 0.362587 0.217737 0.488331
O O7 0.358242 0.000000 0.286510
O O8 0.210423 0.290570 0.486134
O O9 0.250252 0.233870 0.732190
O O10 0.211656 0.000000 0.583988
O O11 0.500000 0.212817 0.798784
O O12 0.578423 0.259974 0.697618
O O13 0.563494 0.000000 0.848293
O O14 0.835985 0.789285 0.254241
O O15 0.877523 0.000000 0.091741
O O16 0.807142 0.500000 0.283505
#
# Coordination Sequence:
#
# PCOD8190083 Si02
#       6
#     8   8   8   8   8   8
#     4  10  21  39  63  90 121 158 201 248 299 356
#     4  12  25  41  62  88 122 160 201 249 300 357
#     4  11  24  42  65  92 123 159 200 246 297 354
#     4  10  21  39  63  90 121 158 201 248 299 356
#     4  12  25  41  62  88 122 160 201 249 300 357
#     4  11  24  42  65  92 123 159 200 246 297 354
#
# _framework density 20.981059999999999
#
# number of rings (size 3 to 8) (size 9 to 14) (size 15 to 20)
#    0.000    1.000    0.000    7.000    0.000    8.000 
#    0.000    0.000    0.000    0.000    0.000    0.000 
#    0.000    0.000    0.000    0.000    0.000    0.000 
#
# Total GULP energy -297839.119798 kJ/mol
# GULP energy per Si atom -12409.963325 kJ/mol
# Density = 2.093331 g / cm^3
# Si number density = 20.981060 Si / 1000 Ang^3
#
#
#
# Elastic Constant Matrix: (Units=GPa)
#
#
# Indices 1 2 3 4 5 6 
#
# 1 99.7343 25.0911 42.4906 0.0000 0.0000 0.0000
# 2 25.0911 75.4790 11.1971 0.0000 0.0000 0.0000
# 3 42.4906 11.1971 114.3714 0.0000 0.0000 0.0000
# 4 0.0000 0.0000 0.0000 39.7656 0.0000 0.0000
# 5 0.0000 0.0000 0.0000 0.0000 41.1765 0.0000
# 6 0.0000 0.0000 0.0000 0.0000 0.0000 29.2073
#
#
#
# Elastic Compliance Matrix: (Units=1/GPa)
#
#
# Indices 1 2 3 4 5 6 
#
# 1 0.012811 -0.003605 -0.004406 0.000000 0.000000 0.000000
# 2 -0.003605 0.014458 -0.000076 0.000000 0.000000 0.000000
# 3 -0.004406 -0.000076 0.010388 0.000000 0.000000 0.000000
# 4 0.000000 0.000000 0.000000 0.025147 0.000000 0.000000
# 5 0.000000 0.000000 0.000000 0.000000 0.024286 0.000000
# 6 0.000000 0.000000 0.000000 0.000000 0.000000 0.034238
#
#
# Mechanical properties :
#
#
# Convention : Reuss Voigt Hill
#
# Bulk Modulus (GPa) = 46.55069 49.68247 48.11658
# Shear Modulus (GPa) = 34.56275 36.08360 35.32318
#
# Velocity S-wave (km/s) = 4.06314 4.15157 4.10759
# Velocity P-wave (km/s) = 6.65186 6.83460 6.74385
#
# Compressibility (1/GPa) = 0.02148196
#
# Stress axis : x y z
#
# Youngs Moduli (GPa) = 78.05848 69.16390 96.26512
#
# Poissons Ratio (x) = 0.24933 0.42419
# Poissons Ratio (y) = 0.28140 0.00734
# Poissons Ratio (z) = 0.34396 0.00527
#
# Static dielectric constant tensor:
#      x y z
#    x 3.894890 0.000000 0.000000 
#    y 0.000000 3.760420 0.000000 
#    z 0.000000 0.000000 3.715170 
# 
# 
# High freq. dielectric constant tensor:
#      x y z
#    x 1.833550 0.000000 0.000000 
#    y 0.000000 1.832290 0.000000 
#    z 0.000000 0.000000 1.824960 
# 
# From -- ./inp_files/9963.got.cif
#   From: 2010.03.12/outbox.cif.g09.slc.cpg/sg44_5_cif.got.tgz:9963.got - 2010.04.14 02:36:11.
