data_PCOD8190052
_publ_section_title
;
Structure prediction by ZEFSAII (Michael W. Deem and Ramdas Pophale) SiO2 
 PCOD8190052
Probable space group: I M M 2
;
_chemical_formula_sum "Si O2"
_cell_formula_units_Z 40
_cell_length_a 9.088932
_cell_length_b 19.204534
_cell_length_c 10.540126
_cell_angle_alpha 90.000000
_cell_angle_beta 90.000000
_cell_angle_gamma 90.000000
_cell_volume 1839.765329
_symmetry_space_group_name_H-M "I M M 2"
_symmetry_group_IT_number 44
_symmetry_cell_setting 'orthorhombic'
loop_
_space_group_symop_operation_xyz
x,y,z
-x,-y,z
-x,y,z
x,-y,z
1/2+x,1/2+y,1/2+z
1/2-x,1/2-y,1/2+z
1/2-x,1/2+y,1/2+z
1/2+x,1/2-y,1/2+z
loop_
_atom_site_type_symbol
_atom_site_label
_atom_site_fract_x
_atom_site_fract_y
_atom_site_fract_z
Si Si1 0.164103 0.582439 0.537750
Si Si2 0.173668 0.702586 0.168936
Si Si3 0.826956 0.080867 0.786922
Si Si4 0.331430 0.578298 0.784800
Si Si5 0.668762 0.714060 0.920002
O O1 0.158969 0.500000 0.537632
O O2 0.261546 0.608251 0.420293
O O3 0.235469 0.607420 0.668561
O O4 0.000000 0.613989 0.524361
O O5 0.249545 0.626578 0.178353
O O6 0.219534 0.748053 0.290892
O O7 0.000000 0.694218 0.156807
O O8 0.234924 0.738796 0.040320
O O9 0.000000 0.094106 0.786416
O O10 0.789550 0.000000 0.762346
O O11 0.500000 0.579345 0.738161
O O12 0.285496 0.500000 0.826930
O O13 0.308486 0.630787 0.901581
O O14 0.500000 0.731911 0.949718
#
# Coordination Sequence:
#
# PCOD8190052 Si02
#       5
#     8   8   8   8   8
#     4   9  17  30  52  87 126 159 196 247 307 367
#     4  11  25  43  64  93 127 167 212 260 315 373
#     4  10  21  38  62  90 122 163 209 258 315 376
#     4   9  18  35  60  88 120 160 207 256 307 370
#     4  10  24  44  63  90 126 167 212 257 312 377
#
# _framework density 21.741904000000002
#
# number of rings (size 3 to 8) (size 9 to 14) (size 15 to 20)
#    0.000    2.200    0.000    1.800    2.800    6.800 
#    0.000    2.000    0.000    0.000    0.000    0.000 
#    0.000    0.000    0.000    0.000    0.000    0.000 
#
# Total GULP energy -248003.317807 kJ/mol
# GULP energy per Si atom -12400.165890 kJ/mol
# Density = 2.169242 g / cm^3
# Si number density = 21.741904 Si / 1000 Ang^3
#
#
#
# Elastic Constant Matrix: (Units=GPa)
#
#
# Indices 1 2 3 4 5 6 
#
# 1 111.7506 36.1122 69.1831 -0.0002 0.0000 0.0000
# 2 36.1122 76.2397 45.7140 0.0002 0.0001 0.0001
# 3 69.1831 45.7140 139.9638 -0.0002 0.0002 0.0000
# 4 -0.0002 0.0002 -0.0002 31.9141 0.0001 0.0001
# 5 0.0000 0.0001 0.0002 0.0001 42.2690 -0.0001
# 6 0.0000 0.0001 0.0000 0.0001 -0.0001 18.5893
#
#
#
# Elastic Compliance Matrix: (Units=1/GPa)
#
#
# Indices 1 2 3 4 5 6 
#
# 1 0.013409 -0.002956 -0.005663 0.000000 0.000000 0.000000
# 2 -0.002956 0.016963 -0.004079 0.000000 0.000000 0.000000
# 3 -0.005663 -0.004079 0.011276 0.000000 0.000000 0.000000
# 4 0.000000 0.000000 0.000000 0.031334 0.000000 0.000000
# 5 0.000000 0.000000 0.000000 0.000000 0.023658 0.000000
# 6 0.000000 0.000000 0.000000 0.000000 0.000000 0.053794
#
#
# Mechanical properties :
#
#
# Convention : Reuss Voigt Hill
#
# Bulk Modulus (GPa) = 61.52973 69.99694 65.76334
# Shear Modulus (GPa) = 27.58657 30.35080 28.96868
#
# Velocity S-wave (km/s) = 3.56591 3.74031 3.65415
# Velocity P-wave (km/s) = 6.73170 7.13565 6.93662
#
# Compressibility (1/GPa) = 0.01625231
#
# Stress axis : x y z
#
# Youngs Moduli (GPa) = 74.57413 58.95337 88.68433
#
# Poissons Ratio (x) = 0.17428 0.50219
# Poissons Ratio (y) = 0.22046 0.36174
# Poissons Ratio (z) = 0.42229 0.24047
#
# Static dielectric constant tensor:
#      x y z
#    x 3.942580 0.000000 0.000000 
#    y 0.000000 4.005270 0.000000 
#    z 0.000000 0.000000 3.811170 
# 
# 
# High freq. dielectric constant tensor:
#      x y z
#    x 1.849260 0.000000 0.000000 
#    y 0.000000 1.860360 0.000000 
#    z 0.000000 0.000000 1.844920 
# 
# From -- ./inp_files/10841.got.cif
#   From: 2010.03.12/outbox.cif.g09.slc.cpg/sg44_6_cif.got.tgz:10841.got - 2010.04.14 02:36:11.
