data_PCOD8190382
_publ_section_title
;
Structure prediction by ZEFSAII (Michael W. Deem and Ramdas Pophale) SiO2 
 PCOD8190382
Probable space group: I B A 2
;
_chemical_formula_sum "Si O2"
_cell_formula_units_Z 40
_cell_length_a 15.592568
_cell_length_b 8.981848
_cell_length_c 14.072383
_cell_angle_alpha 90.000000
_cell_angle_beta 90.000000
_cell_angle_gamma 90.000000
_cell_volume 1970.838305
_symmetry_space_group_name_H-M "I B A 2"
_symmetry_group_IT_number 45
_symmetry_cell_setting 'orthorhombic'
loop_
_space_group_symop_operation_xyz
x,y,z
-x,-y,z
-x,y,1/2+z
x,-y,1/2+z
1/2+x,1/2+y,1/2+z
1/2-x,1/2-y,1/2+z
1/2-x,1/2+y,z
1/2+x,1/2-y,z
loop_
_atom_site_type_symbol
_atom_site_label
_atom_site_fract_x
_atom_site_fract_y
_atom_site_fract_z
Si Si1 0.064293 0.685993 0.501100
Si Si2 0.795698 0.173475 0.389990
Si Si3 0.368683 0.162698 0.700900
Si Si4 0.255416 0.419142 0.757207
Si Si5 0.396899 0.130902 0.914601
O O1 0.131908 0.814188 0.471215
O O2 0.064632 0.658901 0.614395
O O3 0.092658 0.537797 0.447133
O O4 0.967384 0.730750 0.470601
O O5 0.807047 0.307023 0.314207
O O6 0.699878 0.185296 0.435869
O O7 0.806821 0.017501 0.335248
O O8 0.321562 0.323093 0.695190
O O9 0.416241 0.144027 0.801709
O O10 0.300244 0.027502 0.689518
#
# Coordination Sequence:
#
# PCOD8190382 Si02
#       5
#     8   8   8   8   8
#     4  11  21  35  65  88 120 164 206 247 298 371
#     4  10  17  39  60  82 121 163 190 249 306 353
#     4  10  20  37  59  94 119 157 208 248 303 364
#     4   8  18  35  59  83 121 156 193 247 304 351
#     4   9  22  39  54  93 121 157 200 253 299 360
#
# _framework density 20.295932000000001
#
# number of rings (size 3 to 8) (size 9 to 14) (size 15 to 20)
#    0.000    2.800    4.000    0.000    2.800    3.200 
#    0.000    4.000    0.000    4.800    0.000    0.000 
#    0.000    0.000    0.000    0.000    0.000    0.000 
#
# Total GULP energy -247817.855210 kJ/mol
# GULP energy per Si atom -12390.892760 kJ/mol
# Density = 2.024974 g / cm^3
# Si number density = 20.295932 Si / 1000 Ang^3
#
#
#
# Elastic Constant Matrix: (Units=GPa)
#
#
# Indices 1 2 3 4 5 6 
#
# 1 121.1272 22.6675 41.2571 0.0000 0.0000 0.0000
# 2 22.6675 89.3202 20.8546 0.0000 0.0000 0.0000
# 3 41.2571 20.8546 109.9975 0.0000 0.0000 0.0000
# 4 0.0000 0.0000 0.0000 17.8561 0.0000 0.0000
# 5 0.0000 0.0000 0.0000 0.0000 35.1234 0.0000
# 6 0.0000 0.0000 0.0000 0.0000 0.0000 22.7366
#
#
#
# Elastic Compliance Matrix: (Units=1/GPa)
#
#
# Indices 1 2 3 4 5 6 
#
# 1 0.009702 -0.001687 -0.003319 0.000000 0.000000 0.000000
# 2 -0.001687 0.012008 -0.001644 0.000000 0.000000 0.000000
# 3 -0.003319 -0.001644 0.010648 0.000000 0.000000 0.000000
# 4 0.000000 0.000000 0.000000 0.056003 0.000000 0.000000
# 5 0.000000 0.000000 0.000000 0.000000 0.028471 0.000000
# 6 0.000000 0.000000 0.000000 0.000000 0.000000 0.043982
#
#
# Mechanical properties :
#
#
# Convention : Reuss Voigt Hill
#
# Bulk Modulus (GPa) = 52.47340 54.44481 53.45910
# Shear Modulus (GPa) = 27.70601 30.85425 29.28013
#
# Velocity S-wave (km/s) = 3.69874 3.90323 3.80236
# Velocity P-wave (km/s) = 6.64463 6.87003 6.75827
#
# Compressibility (1/GPa) = 0.01905727
#
# Stress axis : x y z
#
# Youngs Moduli (GPa) = 103.07105 83.28039 93.91742
#
# Poissons Ratio (x) = 0.14051 0.31172
# Poissons Ratio (y) = 0.17390 0.15437
# Poissons Ratio (z) = 0.34210 0.13689
#
# Static dielectric constant tensor:
#      x y z
#    x 3.801210 0.000000 0.000000 
#    y 0.000000 3.775530 0.000000 
#    z 0.000000 0.000000 3.496090 
# 
# 
# High freq. dielectric constant tensor:
#      x y z
#    x 1.773450 0.000000 0.000000 
#    y 0.000000 1.786980 0.000000 
#    z 0.000000 0.000000 1.778760 
# 
# From -- ./inp_files/5525.got.cif
#   From: 2010.03.12/outbox.cif.g09.slc.cpg/sg45_3_cif.got.tgz:5525.got - 2010.04.14 02:50:11.
