data_PCOD8190895
_publ_section_title
;
Structure prediction by ZEFSAII (Michael W. Deem and Ramdas Pophale) SiO2 
 PCOD8190895
Probable space group: I B A 2
;
_chemical_formula_sum "Si O2"
_cell_formula_units_Z 60
_cell_length_a 11.343708
_cell_length_b 26.132331
_cell_length_c 8.743400
_cell_angle_alpha 90.000000
_cell_angle_beta 90.000000
_cell_angle_gamma 90.000000
_cell_volume 2591.871919
_symmetry_space_group_name_H-M "I B A 2"
_symmetry_group_IT_number 45
_symmetry_cell_setting 'orthorhombic'
loop_
_space_group_symop_operation_xyz
x,y,z
-x,-y,z
-x,y,1/2+z
x,-y,1/2+z
1/2+x,1/2+y,1/2+z
1/2-x,1/2-y,1/2+z
1/2-x,1/2+y,z
1/2+x,1/2-y,z
loop_
_atom_site_type_symbol
_atom_site_label
_atom_site_fract_x
_atom_site_fract_y
_atom_site_fract_z
Si Si1 0.235448 0.618975 0.452310
Si Si2 0.146792 0.841180 0.425565
Si Si3 0.917945 0.811555 0.585410
Si Si4 0.006521 0.636833 0.292539
Si Si5 0.214775 0.427971 0.271241
Si Si6 0.500000 0.500000 0.527975
Si Si7 0.334972 0.534211 0.282215
Si Si8 0.618836 0.196763 0.520810
O O1 0.310462 0.670463 0.475797
O O2 0.259153 0.584053 0.600727
O O3 0.267046 0.587933 0.296311
O O4 0.098524 0.631698 0.432853
O O5 0.107784 0.818473 0.263261
O O6 0.208089 0.896492 0.396159
O O7 0.238924 0.804008 0.514131
O O8 0.033615 0.843724 0.536324
O O9 0.934716 0.751440 0.560526
O O10 0.925327 0.585422 0.278704
O O11 0.920070 0.682103 0.348132
O O12 0.072336 0.653413 0.138495
O O13 0.241301 0.487730 0.300488
O O14 0.428044 0.538124 0.420669
O O15 0.591133 0.533127 0.627206
#
# Coordination Sequence:
#
# PCOD8190895 Si02
#       8
#     8   8   8   8   8   4   8   8
#     4  11  25  44  68 103 139 185 236 301 351 437
#     4  10  26  42  66 102 136 184 235 297 351 440
#     4  11  26  42  69 101 145 181 245 290 368 431
#     4  11  24  47  71  99 140 186 242 300 364 425
#     4  10  23  47  67 100 139 182 235 294 361 431
#     4  10  24  38  66 100 136 182 226 282 354 430
#     4  11  23  42  69  99 139 186 228 288 359 419
#     4  11  25  44  71  97 142 190 235 301 365 429
#
# _framework density 23.149293
#
# number of rings (size 3 to 8) (size 9 to 14) (size 15 to 20)
#    0.000    1.333    2.667    0.800    9.333    2.667 
#    0.000    1.333    0.000    0.000    0.000    0.000 
#    0.000    0.000    0.000    0.000    0.000    0.000 
#
# Total GULP energy -371920.482927 kJ/mol
# GULP energy per Si atom -12397.349431 kJ/mol
# Density = 2.309660 g / cm^3
# Si number density = 23.149293 Si / 1000 Ang^3
#
#
#
# Elastic Constant Matrix: (Units=GPa)
#
#
# Indices 1 2 3 4 5 6 
#
# 1 141.1907 25.2599 37.4396 0.0001 0.0011 0.0004
# 2 25.2599 73.8370 13.7349 0.0017 0.0003 -0.0001
# 3 37.4396 13.7349 81.4147 0.0017 0.0029 -0.0008
# 4 0.0001 0.0017 0.0017 27.8709 -0.0002 -0.0005
# 5 0.0011 0.0003 0.0029 -0.0002 50.2117 0.0005
# 6 0.0004 -0.0001 -0.0008 -0.0005 0.0005 18.0378
#
#
#
# Elastic Compliance Matrix: (Units=1/GPa)
#
#
# Indices 1 2 3 4 5 6 
#
# 1 0.008406 -0.002227 -0.003490 0.000000 0.000000 0.000000
# 2 -0.002227 0.014572 -0.001434 -0.000001 0.000000 0.000000
# 3 -0.003490 -0.001434 0.014130 -0.000001 -0.000001 0.000001
# 4 0.000000 -0.000001 -0.000001 0.035880 0.000000 0.000001
# 5 0.000000 0.000000 -0.000001 0.000000 0.019916 -0.000001
# 6 0.000000 0.000000 0.000001 0.000001 -0.000001 0.055439
#
#
# Mechanical properties :
#
#
# Convention : Reuss Voigt Hill
#
# Bulk Modulus (GPa) = 43.84859 49.92347 46.88603
# Shear Modulus (GPa) = 29.36911 33.89129 31.63020
#
# Velocity S-wave (km/s) = 3.56572 3.83042 3.70044
# Velocity P-wave (km/s) = 5.99460 6.41681 6.20930
#
# Compressibility (1/GPa) = 0.02280575
#
# Stress axis : x y z
#
# Youngs Moduli (GPa) = 118.95592 68.62521 70.77251
#
# Poissons Ratio (x) = 0.15280 0.24701
# Poissons Ratio (y) = 0.26487 0.10151
# Poissons Ratio (z) = 0.41518 0.09843
#
# Static dielectric constant tensor:
#      x y z
#    x 4.180540 0.000020 0.000030 
#    y 0.000020 3.776010 0.000000 
#    z 0.000030 0.000000 4.127830 
# 
# 
# High freq. dielectric constant tensor:
#      x y z
#    x 1.926760 0.000000 0.000000 
#    y 0.000000 1.889720 0.000000 
#    z 0.000000 0.000000 1.924130 
# 
# From -- ./inp_files/1442.got.cif
#   From: 2010.03.12/outbox.cif.g09.slc.cpg/sg45_1_cif.got.tgz:1442.got - 2010.04.14 02:50:11.
