data_PCOD8190379
_publ_section_title
;
Structure prediction by ZEFSAII (Michael W. Deem and Ramdas Pophale) SiO2 
 PCOD8190379
Probable space group: I B A 2
;
_chemical_formula_sum "Si O2"
_cell_formula_units_Z 48
_cell_length_a 8.951207
_cell_length_b 13.806499
_cell_length_c 17.602182
_cell_angle_alpha 90.000000
_cell_angle_beta 90.000000
_cell_angle_gamma 90.000000
_cell_volume 2175.362679
_symmetry_space_group_name_H-M "I B A 2"
_symmetry_group_IT_number 45
_symmetry_cell_setting 'orthorhombic'
loop_
_space_group_symop_operation_xyz
x,y,z
-x,-y,z
-x,y,1/2+z
x,-y,1/2+z
1/2+x,1/2+y,1/2+z
1/2-x,1/2-y,1/2+z
1/2-x,1/2+y,z
1/2+x,1/2-y,z
loop_
_atom_site_type_symbol
_atom_site_label
_atom_site_fract_x
_atom_site_fract_y
_atom_site_fract_z
Si Si1 0.350844 0.057045 0.732350
Si Si2 0.525872 0.217005 0.130046
Si Si3 0.869720 0.701629 0.965703
Si Si4 0.841569 0.643771 0.389510
Si Si5 0.721994 0.386522 0.152455
Si Si6 0.673422 0.997758 0.514299
O O1 0.372640 0.125562 0.658191
O O2 0.301734 0.126624 0.801347
O O3 0.500000 0.000000 0.755028
O O4 0.230725 0.971554 0.715475
O O5 0.575544 0.320408 0.167377
O O6 0.356923 0.192167 0.153114
O O7 0.539857 0.237683 0.040008
O O8 0.760472 0.775792 0.927256
O O9 0.985886 0.673078 0.899775
O O10 0.772920 0.611332 0.998163
O O11 0.812763 0.544094 0.431776
O O12 0.722485 0.443018 0.072063
O O13 0.500000 0.000000 0.544321
#
# Coordination Sequence:
#
# PCOD8190379 Si02
#       6
#     8   8   8   8   8   8
#     4  10  22  39  61  91 123 170 210 250 306 380
#     4  11  20  36  65  90 123 165 212 256 302 373
#     4  11  20  38  63  93 119 165 210 254 307 370
#     4  11  23  37  63  92 126 157 209 260 313 365
#     4  11  20  38  65  92 123 162 213 256 305 368
#     4  10  17  34  61  84 116 161 206 240 289 378
#
# _framework density 22.065283999999998
#
# number of rings (size 3 to 8) (size 9 to 14) (size 15 to 20)
#    0.000    1.333    6.667    2.000    0.000    4.000 
#    0.000    1.667    0.000    6.000    0.000    0.000 
#    0.000    0.000    0.000    0.000    0.000    0.000 
#
# Total GULP energy -297418.279499 kJ/mol
# GULP energy per Si atom -12392.428312 kJ/mol
# Density = 2.201506 g / cm^3
# Si number density = 22.065284 Si / 1000 Ang^3
#
#
#
# Elastic Constant Matrix: (Units=GPa)
#
#
# Indices 1 2 3 4 5 6 
#
# 1 30.1345 28.5805 29.3776 0.0000 0.0000 0.0000
# 2 28.5805 95.7734 41.1829 0.0000 0.0000 0.0000
# 3 29.3776 41.1829 108.8191 0.0000 0.0000 0.0000
# 4 0.0000 0.0000 0.0000 43.7301 0.0000 0.0000
# 5 0.0000 0.0000 0.0000 0.0000 17.2005 0.0000
# 6 0.0000 0.0000 0.0000 0.0000 0.0000 27.6464
#
#
#
# Elastic Compliance Matrix: (Units=1/GPa)
#
#
# Indices 1 2 3 4 5 6 
#
# 1 0.054346 -0.011835 -0.010193 0.000000 0.000000 0.000000
# 2 -0.011835 0.015048 -0.002500 0.000000 0.000000 0.000000
# 3 -0.010193 -0.002500 0.012887 0.000000 0.000000 0.000000
# 4 0.000000 0.000000 0.000000 0.022868 0.000000 0.000000
# 5 0.000000 0.000000 0.000000 0.000000 0.058138 0.000000
# 6 0.000000 0.000000 0.000000 0.000000 0.000000 0.036171
#
#
# Mechanical properties :
#
#
# Convention : Reuss Voigt Hill
#
# Bulk Modulus (GPa) = 30.09669 48.11210 39.10440
# Shear Modulus (GPa) = 19.26130 26.75448 23.00789
#
# Velocity S-wave (km/s) = 2.95773 3.48590 3.23262
# Velocity P-wave (km/s) = 5.03326 6.16877 5.62972
#
# Compressibility (1/GPa) = 0.03322624
#
# Stress axis : x y z
#
# Youngs Moduli (GPa) = 18.40069 66.45383 77.59542
#
# Poissons Ratio (x) = 0.78647 0.79090
# Poissons Ratio (y) = 0.21777 0.19398
# Poissons Ratio (z) = 0.18755 0.16613
#
# Static dielectric constant tensor:
#      x y z
#    x 3.531800 0.000000 0.000000 
#    y 0.000000 4.272340 0.000000 
#    z 0.000000 0.000000 3.859440 
# 
# 
# High freq. dielectric constant tensor:
#      x y z
#    x 1.813900 0.000000 0.000000 
#    y 0.000000 1.888800 0.000000 
#    z 0.000000 0.000000 1.860710 
# 
# From -- ./inp_files/7547.got.cif
#   From: 2010.03.12/outbox.cif.g09.slc.cpg/sg45_4_cif.got.tgz:7547.got - 2010.04.14 02:50:11.
