data_PCOD8190415
_publ_section_title
;
Structure prediction by ZEFSAII (Michael W. Deem and Ramdas Pophale) SiO2 
 PCOD8190415
Probable space group: I B A 2
;
_chemical_formula_sum "Si O2"
_cell_formula_units_Z 60
_cell_length_a 11.153764
_cell_length_b 25.597653
_cell_length_c 9.445523
_cell_angle_alpha 90.000000
_cell_angle_beta 90.000000
_cell_angle_gamma 90.000000
_cell_volume 2696.792977
_symmetry_space_group_name_H-M "I B A 2"
_symmetry_group_IT_number 45
_symmetry_cell_setting 'orthorhombic'
loop_
_space_group_symop_operation_xyz
x,y,z
-x,-y,z
-x,y,1/2+z
x,-y,1/2+z
1/2+x,1/2+y,1/2+z
1/2-x,1/2-y,1/2+z
1/2-x,1/2+y,z
1/2+x,1/2-y,z
loop_
_atom_site_type_symbol
_atom_site_label
_atom_site_fract_x
_atom_site_fract_y
_atom_site_fract_z
Si Si1 0.173001 0.190058 0.154950
Si Si2 0.500000 0.500000 0.224800
Si Si3 0.753851 0.960932 0.311480
Si Si4 0.612304 0.161607 0.459990
Si Si5 0.389335 0.805184 0.139802
Si Si6 0.728392 0.944139 0.984896
Si Si7 0.208735 0.854250 0.938959
Si Si8 0.525250 0.597021 0.546524
O O1 0.101798 0.242797 0.121021
O O2 0.222682 0.189607 0.316109
O O3 0.091269 0.138012 0.151108
O O4 0.278884 0.189025 0.041034
O O5 0.605040 0.476253 0.321896
O O6 0.542272 0.549518 0.128017
O O7 0.722974 0.906832 0.389553
O O8 0.684765 0.006883 0.392360
O O9 0.715005 0.958421 0.149346
O O10 0.596048 0.184733 0.304966
O O11 0.492812 0.168884 0.548993
O O12 0.635381 0.100363 0.443824
O O13 0.264796 0.830046 0.082125
O O14 0.867044 0.927213 0.949957
O O15 0.069533 0.868837 0.960309
#
# Coordination Sequence:
#
# PCOD8190415 Si02
#       8
#     8   4   8   8   8   8   8   8
#     4  11  25  47  68 106 138 183 233 295 340 423
#     4  10  18  38  62 106 148 184 212 288 354 438
#     4  11  21  39  66 101 141 179 224 284 352 419
#     4  11  26  52  67 103 136 180 242 286 350 417
#     4  12  29  44  78  92 141 190 234 296 348 408
#     4  10  23  42  70  99 144 180 226 295 345 430
#     4  12  23  44  69 106 140 183 233 285 353 418
#     4  10  22  37  66 106 145 179 222 278 357 420
#
# _framework density 22.248647999999999
#
# number of rings (size 3 to 8) (size 9 to 14) (size 15 to 20)
#    0.000    1.067    4.000    4.000    7.467    1.600 
#    0.000    0.667    0.000    0.000    0.000    0.000 
#    0.000    0.000    0.000    0.000    0.000    0.000 
#
# Total GULP energy -371981.788332 kJ/mol
# GULP energy per Si atom -12399.392944 kJ/mol
# Density = 2.219801 g / cm^3
# Si number density = 22.248648 Si / 1000 Ang^3
#
#
#
# Elastic Constant Matrix: (Units=GPa)
#
#
# Indices 1 2 3 4 5 6 
#
# 1 55.6221 27.6601 30.2415 -0.0002 0.0001 0.0000
# 2 27.6601 108.1657 11.2304 -0.0009 0.0005 0.0000
# 3 30.2415 11.2304 105.3250 -0.0033 0.0018 0.0007
# 4 -0.0002 -0.0009 -0.0033 37.8119 0.0002 0.0001
# 5 0.0001 0.0005 0.0018 0.0002 29.0047 -0.0001
# 6 0.0000 0.0000 0.0007 0.0001 -0.0001 24.0425
#
#
#
# Elastic Compliance Matrix: (Units=1/GPa)
#
#
# Indices 1 2 3 4 5 6 
#
# 1 0.024180 -0.005524 -0.006354 -0.000001 0.000000 0.000000
# 2 -0.005524 0.010610 0.000455 0.000000 0.000000 0.000000
# 3 -0.006354 0.000455 0.011270 0.000001 -0.000001 0.000000
# 4 -0.000001 0.000000 0.000001 0.026447 0.000000 0.000000
# 5 0.000000 0.000000 -0.000001 0.000000 0.034477 0.000000
# 6 0.000000 0.000000 0.000000 0.000000 0.000000 0.041593
#
#
# Mechanical properties :
#
#
# Convention : Reuss Voigt Hill
#
# Bulk Modulus (GPa) = 43.07540 45.26410 44.16975
# Shear Modulus (GPa) = 27.90787 31.50385 29.70586
#
# Velocity S-wave (km/s) = 3.54554 3.76705 3.65797
# Velocity P-wave (km/s) = 6.01366 6.26974 6.14303
#
# Compressibility (1/GPa) = 0.02321511
#
# Stress axis : x y z
#
# Youngs Moduli (GPa) = 41.35692 94.24752 88.72913
#
# Poissons Ratio (x) = 0.52058 0.56376
# Poissons Ratio (y) = 0.22844 -0.04034
# Poissons Ratio (z) = 0.26277 -0.04285
#
# Static dielectric constant tensor:
#      x y z
#    x 3.713120 0.000000 0.000000 
#    y 0.000000 4.267390 0.000000 
#    z 0.000000 0.000000 3.994790 
# 
# 
# High freq. dielectric constant tensor:
#      x y z
#    x 1.839820 0.000000 0.000000 
#    y 0.000000 1.894550 0.000000 
#    z 0.000000 0.000000 1.883700 
# 
# From -- ./inp_files/1461.got.cif
#   From: 2010.03.12/outbox.cif.g09.slc.cpg/sg45_1_cif.got.tgz:1461.got - 2010.04.14 02:50:11.
