data_PCOD8190773
_publ_section_title
;
Structure prediction by ZEFSAII (Michael W. Deem and Ramdas Pophale) SiO2 
 PCOD8190773
Probable space group: I B A 2
;
_chemical_formula_sum "Si O2"
_cell_formula_units_Z 44
_cell_length_a 25.616337
_cell_length_b 9.615021
_cell_length_c 8.831861
_cell_angle_alpha 90.000000
_cell_angle_beta 90.000000
_cell_angle_gamma 90.000000
_cell_volume 2175.301656
_symmetry_space_group_name_H-M "I B A 2"
_symmetry_group_IT_number 45
_symmetry_cell_setting 'orthorhombic'
loop_
_space_group_symop_operation_xyz
x,y,z
-x,-y,z
-x,y,1/2+z
x,-y,1/2+z
1/2+x,1/2+y,1/2+z
1/2-x,1/2-y,1/2+z
1/2-x,1/2+y,z
1/2+x,1/2-y,z
loop_
_atom_site_type_symbol
_atom_site_label
_atom_site_fract_x
_atom_site_fract_y
_atom_site_fract_z
Si Si1 0.729847 0.097947 0.092920
Si Si2 0.326495 0.900815 0.401555
Si Si3 0.428206 0.602334 0.034654
Si Si4 0.350323 0.651310 0.585121
Si Si5 0.500000 0.500000 0.781403
Si Si6 0.144739 0.304456 0.898111
O O1 0.710432 0.135054 0.260349
O O2 0.791426 0.098038 0.077982
O O3 0.703042 0.205079 0.972151
O O4 0.710340 0.942522 0.045811
O O5 0.359320 0.766515 0.453764
O O6 0.365595 0.030931 0.363780
O O7 0.389136 0.472584 0.048612
O O8 0.466960 0.606892 0.177392
O O9 0.461660 0.591938 0.881906
O O10 0.396065 0.746260 0.023317
O O11 0.361591 0.711280 0.750432
#
# Coordination Sequence:
#
# PCOD8190773 Si02
#       6
#     8   8   8   8   4   8
#     4  10  23  34  61  89 139 168 212 245 309 382
#     4  10  22  40  57  89 136 172 205 261 299 386
#     4  11  24  41  71  91 122 163 221 272 335 373
#     4  12  23  38  64  94 127 179 215 254 322 391
#     4  10  24  46  62  96 120 158 218 294 320 378
#     4  10  22  41  58  94 125 173 203 265 317 389
#
# _framework density 20.227079
#
# number of rings (size 3 to 8) (size 9 to 14) (size 15 to 20)
#    1.091    0.364    3.636    1.091    7.636    0.000 
#    0.000    0.000    0.000    6.545    0.000    0.000 
#    0.000    0.000    0.000    0.000    0.000    0.000 
#
# Total GULP energy -272640.339139 kJ/mol
# GULP energy per Si atom -12392.742688 kJ/mol
# Density = 2.018104 g / cm^3
# Si number density = 20.227079 Si / 1000 Ang^3
#
#
#
# Elastic Constant Matrix: (Units=GPa)
#
#
# Indices 1 2 3 4 5 6 
#
# 1 104.8368 41.6103 35.6292 0.0000 0.0000 0.0000
# 2 41.6103 86.7461 18.2470 0.0000 0.0000 0.0000
# 3 35.6292 18.2470 101.1190 0.0000 0.0000 0.0000
# 4 0.0000 0.0000 0.0000 22.8469 0.0000 0.0000
# 5 0.0000 0.0000 0.0000 0.0000 27.3733 0.0000
# 6 0.0000 0.0000 0.0000 0.0000 0.0000 17.2912
#
#
#
# Elastic Compliance Matrix: (Units=1/GPa)
#
#
# Indices 1 2 3 4 5 6 
#
# 1 0.012911 -0.005443 -0.003567 0.000000 0.000000 0.000000
# 2 -0.005443 0.014277 -0.000659 0.000000 0.000000 0.000000
# 3 -0.003567 -0.000659 0.011265 0.000000 0.000000 0.000000
# 4 0.000000 0.000000 0.000000 0.043770 0.000000 0.000000
# 5 0.000000 0.000000 0.000000 0.000000 0.036532 0.000000
# 6 0.000000 0.000000 0.000000 0.000000 0.000000 0.057833
#
#
# Mechanical properties :
#
#
# Convention : Reuss Voigt Hill
#
# Bulk Modulus (GPa) = 52.31092 53.74165 53.02628
# Shear Modulus (GPa) = 24.71610 26.64996 25.68303
#
# Velocity S-wave (km/s) = 3.49941 3.63373 3.56720
# Velocity P-wave (km/s) = 6.49967 6.65073 6.57563
#
# Compressibility (1/GPa) = 0.01911647
#
# Stress axis : x y z
#
# Youngs Moduli (GPa) = 77.45185 70.04137 88.77024
#
# Poissons Ratio (x) = 0.38123 0.31665
# Poissons Ratio (y) = 0.42156 0.05846
# Poissons Ratio (z) = 0.27628 0.04612
#
# Static dielectric constant tensor:
#      x y z
#    x 3.620760 0.000000 0.000000 
#    y 0.000000 3.517020 0.000000 
#    z 0.000000 0.000000 3.798750 
# 
# 
# High freq. dielectric constant tensor:
#      x y z
#    x 1.768420 0.000000 0.000000 
#    y 0.000000 1.772680 0.000000 
#    z 0.000000 0.000000 1.808110 
# 
# From -- ./inp_files/2479.got.cif
#   From: 2010.03.12/outbox.cif.g09.slc.cpg/sg45_2_cif.got.tgz:2479.got - 2010.04.14 02:50:11.
