data_PCOD8190466
_publ_section_title
;
Structure prediction by ZEFSAII (Michael W. Deem and Ramdas Pophale) SiO2 
 PCOD8190466
Probable space group: I B A 2
;
_chemical_formula_sum "Si O2"
_cell_formula_units_Z 60
_cell_length_a 9.947455
_cell_length_b 16.567116
_cell_length_c 16.566833
_cell_angle_alpha 90.000000
_cell_angle_beta 90.000000
_cell_angle_gamma 90.000000
_cell_volume 2730.224696
_symmetry_space_group_name_H-M "I B A 2"
_symmetry_group_IT_number 45
_symmetry_cell_setting 'orthorhombic'
loop_
_space_group_symop_operation_xyz
x,y,z
-x,-y,z
-x,y,1/2+z
x,-y,1/2+z
1/2+x,1/2+y,1/2+z
1/2-x,1/2-y,1/2+z
1/2-x,1/2+y,z
1/2+x,1/2-y,z
loop_
_atom_site_type_symbol
_atom_site_label
_atom_site_fract_x
_atom_site_fract_y
_atom_site_fract_z
Si Si1 0.627730 0.944103 0.158310
Si Si2 0.465353 0.405027 0.264811
Si Si3 0.254437 0.888061 0.813908
Si Si4 0.178428 0.695975 0.482041
Si Si5 0.317781 0.587424 0.611905
Si Si6 0.725511 0.445532 0.892582
Si Si7 0.618456 0.162417 0.501227
Si Si8 0.000000 0.000000 0.509806
O O1 0.649729 0.884017 0.235187
O O2 0.603906 0.885120 0.083983
O O3 0.500000 0.000000 0.174470
O O4 0.754751 0.002108 0.140673
O O5 0.500000 0.500000 0.253502
O O6 0.605721 0.360899 0.284048
O O7 0.378188 0.367427 0.190809
O O8 0.369464 0.386590 0.341000
O O9 0.289925 0.834022 0.891378
O O10 0.272638 0.981400 0.837334
O O11 0.213755 0.634857 0.555216
O O12 0.254845 0.778122 0.501883
O O13 0.018652 0.710988 0.484941
O O14 0.456779 0.575668 0.563536
O O15 0.855848 0.401037 0.928538
O O16 0.634568 0.480392 0.963073
#
# Coordination Sequence:
#
# PCOD8190466 Si02
#       8
#     8   8   8   8   8   8   8   4
#     4  12  24  45  72 108 141 179 253 313 365 427
#     4  10  19  36  65 111 132 164 226 292 358 416
#     4  11  23  43  73 108 140 178 238 309 367 434
#     4  12  29  49  68 101 147 201 239 297 379 458
#     4  12  21  39  72 102 142 178 239 298 361 427
#     4  11  21  38  69 101 136 176 239 299 351 427
#     4  12  30  48  69 102 147 199 245 301 377 455
#     4  12  18  32  72 102 130 176 216 298 352 416
#
# _framework density 21.976212
#
# number of rings (size 3 to 8) (size 9 to 14) (size 15 to 20)
#    0.000    0.533    9.333    0.000    5.600    0.000 
#    2.400    0.000    0.000    0.000    0.000    0.000 
#    0.000    0.000    0.000    0.000    0.000    0.000 
#
# Total GULP energy -371773.804939 kJ/mol
# GULP energy per Si atom -12392.460165 kJ/mol
# Density = 2.192619 g / cm^3
# Si number density = 21.976212 Si / 1000 Ang^3
#
#
#
# Elastic Constant Matrix: (Units=GPa)
#
#
# Indices 1 2 3 4 5 6 
#
# 1 118.2108 15.8159 42.7959 0.0000 0.0000 0.0000
# 2 15.8159 32.8298 12.3964 0.0000 0.0000 0.0000
# 3 42.7959 12.3964 133.8604 0.0000 0.0000 0.0000
# 4 0.0000 0.0000 0.0000 4.9081 0.0000 0.0000
# 5 0.0000 0.0000 0.0000 0.0000 31.6792 0.0000
# 6 0.0000 0.0000 0.0000 0.0000 0.0000 34.5368
#
#
#
# Elastic Compliance Matrix: (Units=1/GPa)
#
#
# Indices 1 2 3 4 5 6 
#
# 1 0.009991 -0.003738 -0.002848 0.000000 0.000000 0.000000
# 2 -0.003738 0.032962 -0.001858 0.000000 0.000000 0.000000
# 3 -0.002848 -0.001858 0.008553 0.000000 0.000000 0.000000
# 4 0.000000 0.000000 0.000000 0.203745 0.000000 0.000000
# 5 0.000000 0.000000 0.000000 0.000000 0.031566 0.000000
# 6 0.000000 0.000000 0.000000 0.000000 0.000000 0.028955
#
#
# Mechanical properties :
#
#
# Convention : Reuss Voigt Hill
#
# Bulk Modulus (GPa) = 28.88548 47.43529 38.16039
# Shear Modulus (GPa) = 14.52653 28.48434 21.50544
#
# Velocity S-wave (km/s) = 2.57380 3.60411 3.13162
# Velocity P-wave (km/s) = 4.69096 6.24108 5.52070
#
# Compressibility (1/GPa) = 0.03461947
#
# Stress axis : x y z
#
# Youngs Moduli (GPa) = 100.09443 30.33778 116.91820
#
# Poissons Ratio (x) = 0.11339 0.33297
# Poissons Ratio (y) = 0.37412 0.21719
# Poissons Ratio (z) = 0.28506 0.05636
#
# Static dielectric constant tensor:
#      x y z
#    x 4.059610 0.000000 0.000000 
#    y 0.000000 4.091970 0.000000 
#    z 0.000000 0.000000 4.381050 
# 
# 
# High freq. dielectric constant tensor:
#      x y z
#    x 1.873930 0.000000 0.000000 
#    y 0.000000 1.811620 0.000000 
#    z 0.000000 0.000000 1.891730 
# 
# From -- ./inp_files/7702.got.cif
#   From: 2010.03.12/outbox.cif.g09.slc.cpg/sg45_4_cif.got.tgz:7702.got - 2010.04.14 02:50:11.
