data_PCOD8190918
_publ_section_title
;
Structure prediction by ZEFSAII (Michael W. Deem and Ramdas Pophale) SiO2 
 PCOD8190918
Probable space group: I B A 2
;
_chemical_formula_sum "Si O2"
_cell_formula_units_Z 44
_cell_length_a 30.541054
_cell_length_b 7.590788
_cell_length_c 8.757235
_cell_angle_alpha 90.000000
_cell_angle_beta 90.000000
_cell_angle_gamma 90.000000
_cell_volume 2030.195624
_symmetry_space_group_name_H-M "I B A 2"
_symmetry_group_IT_number 45
_symmetry_cell_setting 'orthorhombic'
loop_
_space_group_symop_operation_xyz
x,y,z
-x,-y,z
-x,y,1/2+z
x,-y,1/2+z
1/2+x,1/2+y,1/2+z
1/2-x,1/2-y,1/2+z
1/2-x,1/2+y,z
1/2+x,1/2-y,z
loop_
_atom_site_type_symbol
_atom_site_label
_atom_site_fract_x
_atom_site_fract_y
_atom_site_fract_z
Si Si1 0.210853 0.266576 0.634860
Si Si2 0.381037 0.615241 0.663813
Si Si3 0.000000 0.500000 0.787609
Si Si4 0.061796 0.403126 0.537919
Si Si5 0.793201 0.387510 0.473255
Si Si6 0.113015 0.234919 0.001586
O O1 0.171528 0.126382 0.649328
O O2 0.197945 0.407098 0.504594
O O3 0.219281 0.362220 0.796715
O O4 0.254070 0.165576 0.585140
O O5 0.401227 0.754240 0.542809
O O6 0.397110 0.419223 0.622968
O O7 0.397212 0.664857 0.832350
O O8 0.969410 0.623359 0.684164
O O9 0.968526 0.376462 0.889765
O O10 0.083022 0.597980 0.539659
O O11 0.836112 0.280172 0.517736
#
# Coordination Sequence:
#
# PCOD8190918 Si02
#       6
#     8   8   4   8   8   8
#     4  11  23  40  62  95 134 180 226 277 328 387
#     4  11  25  42  68  99 135 180 224 273 334 399
#     4  10  24  42  78  94 136 168 216 286 338 410
#     4  11  22  48  68 102 130 176 220 274 346 395
#     4  11  23  40  62  95 134 180 226 277 328 387
#     4  11  25  42  68  99 135 180 224 273 334 399
#
# _framework density 21.672789000000002
#
# number of rings (size 3 to 8) (size 9 to 14) (size 15 to 20)
#    0.000    1.091    3.636    2.182    2.545    5.818 
#    0.000    5.455    0.000    0.000    0.000    0.000 
#    0.000    0.000    0.000    0.000    0.000    0.000 
#
# Total GULP energy -272844.583409 kJ/mol
# GULP energy per Si atom -12402.026519 kJ/mol
# Density = 2.162346 g / cm^3
# Si number density = 21.672789 Si / 1000 Ang^3
#
#
#
# Elastic Constant Matrix: (Units=GPa)
#
#
# Indices 1 2 3 4 5 6 
#
# 1 100.8820 28.3645 43.5191 0.0000 0.0000 0.0000
# 2 28.3645 110.6321 18.3209 0.0000 0.0000 0.0000
# 3 43.5191 18.3209 87.2680 0.0000 0.0000 0.0000
# 4 0.0000 0.0000 0.0000 32.3840 0.0000 0.0000
# 5 0.0000 0.0000 0.0000 0.0000 24.3966 0.0000
# 6 0.0000 0.0000 0.0000 0.0000 0.0000 18.7360
#
#
#
# Elastic Compliance Matrix: (Units=1/GPa)
#
#
# Indices 1 2 3 4 5 6 
#
# 1 0.013207 -0.002378 -0.006087 0.000000 0.000000 0.000000
# 2 -0.002378 0.009793 -0.000870 0.000000 0.000000 0.000000
# 3 -0.006087 -0.000870 0.014677 0.000000 0.000000 0.000000
# 4 0.000000 0.000000 0.000000 0.030879 0.000000 0.000000
# 5 0.000000 0.000000 0.000000 0.000000 0.040989 0.000000
# 6 0.000000 0.000000 0.000000 0.000000 0.000000 0.053373
#
#
# Mechanical properties :
#
#
# Convention : Reuss Voigt Hill
#
# Bulk Modulus (GPa) = 52.61238 53.24346 52.92792
# Shear Modulus (GPa) = 26.60649 29.00849 27.80749
#
# Velocity S-wave (km/s) = 3.50758 3.66249 3.58587
# Velocity P-wave (km/s) = 6.38221 6.51961 6.45128
#
# Compressibility (1/GPa) = 0.01900693
#
# Stress axis : x y z
#
# Youngs Moduli (GPa) = 75.71748 102.11639 68.13380
#
# Poissons Ratio (x) = 0.24284 0.41472
# Poissons Ratio (y) = 0.18006 0.05927
# Poissons Ratio (z) = 0.46088 0.08884
#
# Static dielectric constant tensor:
#      x y z
#    x 3.981420 0.000000 0.000000 
#    y 0.000000 3.714950 0.000000 
#    z 0.000000 0.000000 4.044350 
# 
# 
# High freq. dielectric constant tensor:
#      x y z
#    x 1.859940 0.000000 0.000000 
#    y 0.000000 1.834040 0.000000 
#    z 0.000000 0.000000 1.861400 
# 
# From -- ./inp_files/1043.got.cif
#   From: 2010.03.12/outbox.cif.g09.slc.cpg/sg45_1_cif.got.tgz:1043.got - 2010.04.14 02:50:11.
