data_PCOD8190314
_publ_section_title
;
Structure prediction by ZEFSAII (Michael W. Deem and Ramdas Pophale) SiO2 
 PCOD8190314
Probable space group: I M M 2
;
_chemical_formula_sum "Si O2"
_cell_formula_units_Z 40
_cell_length_a 14.060075
_cell_length_b 14.060082
_cell_length_c 7.699753
_cell_angle_alpha 90.000000
_cell_angle_beta 90.000000
_cell_angle_gamma 90.000000
_cell_volume 1522.131889
_symmetry_space_group_name_H-M "I M M 2"
_symmetry_group_IT_number 44
_symmetry_cell_setting 'orthorhombic'
loop_
_space_group_symop_operation_xyz
x,y,z
-x,-y,z
-x,y,z
x,-y,z
1/2+x,1/2+y,1/2+z
1/2-x,1/2-y,1/2+z
1/2-x,1/2+y,1/2+z
1/2+x,1/2-y,1/2+z
loop_
_atom_site_type_symbol
_atom_site_label
_atom_site_fract_x
_atom_site_fract_y
_atom_site_fract_z
Si Si1 0.393181 0.394154 0.158540
Si Si2 0.106146 0.387694 0.309568
Si Si3 0.887696 0.606144 0.918755
Si Si4 0.894154 0.893180 0.069796
Si Si5 0.211368 0.288632 0.614163
O O1 0.500000 0.368107 0.093330
O O2 0.365371 0.500000 0.092817
O O3 0.391568 0.391563 0.364168
O O4 0.314250 0.322021 0.081138
O O5 0.107726 0.500000 0.332599
O O6 0.181751 0.344844 0.441604
O O7 0.000000 0.349731 0.350081
O O8 0.138413 0.361555 0.114159
O O9 0.849703 0.500000 0.878300
O O10 0.844851 0.681746 0.786709
O O11 0.000000 0.607687 0.895669
O O12 0.822018 0.814254 0.147199
O O13 0.000000 0.865369 0.135524
O O14 0.868109 0.000000 0.135000
#
# Coordination Sequence:
#
# PCOD8190314 Si02
#       5
#     8   8   8   8   8
#     4   9  20  41  69 103 146 192 237 297 369 430
#     4   9  18  32  54  98 156 195 228 292 371 440
#     4   9  18  32  54  98 156 195 228 292 371 440
#     4   9  20  41  69 103 146 192 237 297 369 430
#     4  12  20  35  72 105 128 186 260 302 348 436
#
# _framework density 26.278931
#
# number of rings (size 3 to 8) (size 9 to 14) (size 15 to 20)
#    0.000    2.400    0.000    6.000    0.000    1.600 
#    3.600    0.000    0.000    7.800    0.000   25.200 
#    0.000    0.000    0.000    0.000    0.000    0.000 
#
# Total GULP energy -248004.563860 kJ/mol
# GULP energy per Si atom -12400.228193 kJ/mol
# Density = 2.621912 g / cm^3
# Si number density = 26.278931 Si / 1000 Ang^3
#
#
#
# Elastic Constant Matrix: (Units=GPa)
#
#
# Indices 1 2 3 4 5 6 
#
# 1 164.0748 88.4992 32.3668 0.0000 0.0000 0.0000
# 2 88.4992 164.0433 32.3669 0.0000 0.0000 0.0000
# 3 32.3668 32.3669 100.9571 0.0000 0.0000 0.0000
# 4 0.0000 0.0000 0.0000 -89.0251 0.0000 0.0000
# 5 0.0000 0.0000 0.0000 0.0000 -88.9593 0.0000
# 6 0.0000 0.0000 0.0000 0.0000 0.0000 41.1216
#
#
#
# Elastic Compliance Matrix: (Units=1/GPa)
#
#
# Indices 1 2 3 4 5 6 
#
# 1 0.008773 -0.004460 -0.001383 0.000000 0.000000 0.000000
# 2 -0.004460 0.008775 -0.001383 0.000000 0.000000 0.000000
# 3 -0.001383 -0.001383 0.010792 0.000000 0.000000 0.000000
# 4 0.000000 0.000000 0.000000 -0.011233 0.000000 0.000000
# 5 0.000000 0.000000 0.000000 0.000000 -0.011241 0.000000
# 6 0.000000 0.000000 0.000000 0.000000 0.000000 0.024318
#
#
# Mechanical properties :
#
#
# Convention : Reuss Voigt Hill
#
# Bulk Modulus (GPa) = 72.00602 81.72676 76.86639
# Shear Modulus (GPa) = 101.48824 -8.98306 46.25259
#
# Velocity S-wave (km/s) = 6.22121 -1.85088 4.19986
# Velocity P-wave (km/s) = 8.89184 5.15747 7.26857
#
# Compressibility (1/GPa) = 0.01388773
#
# Stress axis : x y z
#
# Youngs Moduli (GPa) = 113.98142 113.95802 92.66112
#
# Poissons Ratio (x) = 0.50828 0.12813
# Poissons Ratio (y) = 0.50839 0.12818
# Poissons Ratio (z) = 0.15761 0.15764
#
# Static dielectric constant tensor:
#      x y z
#    x 5.386080 0.000000 0.000000 
#    y 0.000000 5.386450 0.000000 
#    z 0.000000 0.000000 4.532120 
# 
# 
# High freq. dielectric constant tensor:
#      x y z
#    x 2.064870 0.000000 0.000000 
#    y 0.000000 2.064880 0.000000 
#    z 0.000000 0.000000 2.031530 
# 
# From -- ./inp_files/6815.got.cif
#   From: 2010.03.12/outbox.cif.g09.slc.cpg/sg44_4_cif.got.tgz:6815.got - 2010.04.14 02:36:11.
