data_PCOD8190979
_publ_section_title
;
Structure prediction by ZEFSAII (Michael W. Deem and Ramdas Pophale) SiO2 
 PCOD8190979
Probable space group: I B A 2
;
_chemical_formula_sum "Si O2"
_cell_formula_units_Z 60
_cell_length_a 22.279442
_cell_length_b 11.122898
_cell_length_c 11.391167
_cell_angle_alpha 90.000000
_cell_angle_beta 90.000000
_cell_angle_gamma 90.000000
_cell_volume 2822.867431
_symmetry_space_group_name_H-M "I B A 2"
_symmetry_group_IT_number 45
_symmetry_cell_setting 'orthorhombic'
loop_
_space_group_symop_operation_xyz
x,y,z
-x,-y,z
-x,y,1/2+z
x,-y,1/2+z
1/2+x,1/2+y,1/2+z
1/2-x,1/2-y,1/2+z
1/2-x,1/2+y,z
1/2+x,1/2-y,z
loop_
_atom_site_type_symbol
_atom_site_label
_atom_site_fract_x
_atom_site_fract_y
_atom_site_fract_z
Si Si1 0.143125 0.312666 0.593830
Si Si2 0.836154 0.153472 0.867721
Si Si3 0.378086 0.609849 0.915261
Si Si4 0.409203 0.284171 0.647942
Si Si5 0.533533 0.755849 0.246787
Si Si6 0.500000 0.000000 0.872632
Si Si7 0.300143 0.193282 0.332658
Si Si8 0.384567 0.051578 0.496405
O O1 0.152063 0.229483 0.482676
O O2 0.076537 0.285925 0.639142
O O3 0.192030 0.285000 0.693916
O O4 0.154474 0.452713 0.564264
O O5 0.861270 0.219400 0.752979
O O6 0.764875 0.140846 0.857926
O O7 0.869420 0.026024 0.875031
O O8 0.432106 0.674118 0.842981
O O9 0.314669 0.679496 0.895818
O O10 0.393860 0.611663 0.053628
O O11 0.475387 0.313273 0.697408
O O12 0.404815 0.156385 0.583605
O O13 0.509474 0.880557 0.297920
O O14 0.557671 0.978325 0.953090
O O15 0.349083 0.099343 0.382534
#
# Coordination Sequence:
#
# PCOD8190979 Si02
#       8
#     8   8   8   8   8   4   8   8
#     4  11  25  44  72 108 137 185 239 294 361 423
#     4  12  29  44  76 103 141 198 242 286 367 433
#     4  10  26  51  66 104 145 187 239 294 359 425
#     4  11  25  44  72 104 140 189 236 293 362 418
#     4  11  23  45  71 106 146 179 234 296 357 425
#     4  12  18  42  72 106 144 178 234 290 360 420
#     4  10  26  48  68 103 140 187 235 301 356 418
#     4  11  23  42  72 106 141 182 234 301 355 420
#
# _framework density 21.254982999999999
#
# number of rings (size 3 to 8) (size 9 to 14) (size 15 to 20)
#    0.000    1.067    4.000    2.400   13.067    0.533 
#    0.000    0.000    0.000    0.000    0.000    0.000 
#    0.000    0.000    0.000    0.000    0.000    0.000 
#
# Total GULP energy -372039.760226 kJ/mol
# GULP energy per Si atom -12401.325341 kJ/mol
# Density = 2.120661 g / cm^3
# Si number density = 21.254983 Si / 1000 Ang^3
#
#
#
# Elastic Constant Matrix: (Units=GPa)
#
#
# Indices 1 2 3 4 5 6 
#
# 1 121.7154 56.2954 66.2885 0.0000 0.0000 0.0000
# 2 56.2954 70.7079 40.3710 0.0000 0.0000 0.0000
# 3 66.2885 40.3710 155.4485 0.0000 0.0000 0.0000
# 4 0.0000 0.0000 0.0000 18.6106 0.0000 0.0000
# 5 0.0000 0.0000 0.0000 0.0000 24.3977 0.0000
# 6 0.0000 0.0000 0.0000 0.0000 0.0000 31.0549
#
#
#
# Elastic Compliance Matrix: (Units=1/GPa)
#
#
# Indices 1 2 3 4 5 6 
#
# 1 0.014687 -0.009531 -0.003788 0.000000 0.000000 0.000000
# 2 -0.009531 0.022789 -0.001854 0.000000 0.000000 0.000000
# 3 -0.003788 -0.001854 0.008530 0.000000 0.000000 0.000000
# 4 0.000000 0.000000 0.000000 0.053733 0.000000 0.000000
# 5 0.000000 0.000000 0.000000 0.000000 0.040987 0.000000
# 6 0.000000 0.000000 0.000000 0.000000 0.000000 0.032201
#
#
# Mechanical properties :
#
#
# Convention : Reuss Voigt Hill
#
# Bulk Modulus (GPa) = 63.85468 74.86461 69.35965
# Shear Modulus (GPa) = 23.98162 27.14045 25.56103
#
# Velocity S-wave (km/s) = 3.36264 3.57725 3.47160
# Velocity P-wave (km/s) = 6.72189 7.23608 6.98372
#
# Compressibility (1/GPa) = 0.01566056
#
# Stress axis : x y z
#
# Youngs Moduli (GPa) = 68.08818 43.88003 117.23531
#
# Poissons Ratio (x) = 0.41820 0.44407
# Poissons Ratio (y) = 0.64892 0.21740
# Poissons Ratio (z) = 0.25791 0.08137
#
# Static dielectric constant tensor:
#      x y z
#    x 4.070190 0.000000 0.000000 
#    y 0.000000 3.804020 0.000000 
#    z 0.000000 0.000000 4.032930 
# 
# 
# High freq. dielectric constant tensor:
#      x y z
#    x 1.832630 0.000000 0.000000 
#    y 0.000000 1.827460 0.000000 
#    z 0.000000 0.000000 1.851910 
# 
# From -- ./inp_files/4669.got.cif
#   From: 2010.03.12/outbox.cif.g09.slc.cpg/sg45_3_cif.got.tgz:4669.got - 2010.04.14 02:50:11.
