data_PCOD8190146
_publ_section_title
;
Structure prediction by ZEFSAII (Michael W. Deem and Ramdas Pophale) SiO2 
 PCOD8190146
Probable space group: I M M 2
;
_chemical_formula_sum "Si O2"
_cell_formula_units_Z 56
_cell_length_a 10.610155
_cell_length_b 13.331347
_cell_length_c 18.470162
_cell_angle_alpha 90.000000
_cell_angle_beta 90.000000
_cell_angle_gamma 90.000000
_cell_volume 2612.561158
_symmetry_space_group_name_H-M "I M M 2"
_symmetry_group_IT_number 44
_symmetry_cell_setting 'orthorhombic'
loop_
_space_group_symop_operation_xyz
x,y,z
-x,-y,z
-x,y,z
x,-y,z
1/2+x,1/2+y,1/2+z
1/2-x,1/2-y,1/2+z
1/2-x,1/2+y,1/2+z
1/2+x,1/2-y,1/2+z
loop_
_atom_site_type_symbol
_atom_site_label
_atom_site_fract_x
_atom_site_fract_y
_atom_site_fract_z
Si Si1 0.645895 0.888886 0.994940
Si Si2 0.140371 0.380613 0.655325
Si Si3 0.139217 0.884567 0.262124
Si Si4 0.859629 0.119387 0.581906
Si Si5 0.860783 0.384567 0.975107
Si Si6 0.749999 0.746612 0.368616
Si Si7 0.645895 0.611113 0.242290
O O1 0.500000 0.900734 0.979400
O O2 0.703136 0.821469 0.933180
O O3 0.708899 0.000000 0.992338
O O4 0.667025 0.837112 0.074293
O O5 0.141212 0.500000 0.647161
O O6 0.250587 0.344829 0.709007
O O7 0.000000 0.346351 0.682714
O O8 0.142585 0.819547 0.335782
O O9 0.000000 0.871153 0.226695
O O10 0.162820 0.000000 0.282593
O O11 0.749413 0.155171 0.528223
O O12 0.832974 0.162888 0.662937
O O13 0.000000 0.153649 0.554517
O O14 0.858787 0.000000 0.590069
O O15 0.837180 0.500000 0.954638
O O16 0.000000 0.371152 0.010537
O O17 0.857416 0.319548 0.901449
O O18 0.703131 0.678532 0.304052
O O19 0.500000 0.599261 0.257828
O O20 0.708903 0.500000 0.244893
#
# Coordination Sequence:
#
# PCOD8190146 Si02
#       7
#     8   8   8   8   8   8   8
#     4   9  19  37  59  83 111 144 186 233 279 332
#     4   8  16  35  62  84 104 140 189 235 278 327
#     4  10  22  39  57  81 115 151 188 232 279 328
#     4   8  16  35  62  84 104 140 189 235 278 327
#     4  10  22  39  57  81 115 151 188 232 279 328
#     4  12  22  34  54  84 116 152 186 224 276 338
#     4   9  19  37  59  83 111 144 186 233 279 332
#
# _framework density 21.434905000000001
#
# number of rings (size 3 to 8) (size 9 to 14) (size 15 to 20)
#    0.000    2.571    0.000    3.429    0.000    3.429 
#    0.000   10.000    0.000    6.857    0.000    0.000 
#    0.000    0.000    0.000    0.000    0.000    0.000 
#
# Total GULP energy -347030.754481 kJ/mol
# GULP energy per Si atom -12393.955517 kJ/mol
# Density = 2.138612 g / cm^3
# Si number density = 21.434905 Si / 1000 Ang^3
#
#
#
# Elastic Constant Matrix: (Units=GPa)
#
#
# Indices 1 2 3 4 5 6 
#
# 1 135.3001 43.5689 74.7998 0.0000 0.0000 0.0000
# 2 43.5689 61.1172 50.1582 0.0000 0.0000 0.0000
# 3 74.7998 50.1582 118.0084 0.0000 0.0000 0.0000
# 4 0.0000 0.0000 0.0000 63.3263 0.0000 0.0000
# 5 0.0000 0.0000 0.0000 0.0000 33.5618 0.0000
# 6 0.0000 0.0000 0.0000 0.0000 0.0000 1.7428
#
#
#
# Elastic Compliance Matrix: (Units=1/GPa)
#
#
# Indices 1 2 3 4 5 6 
#
# 1 0.011848 -0.003506 -0.006020 0.000000 0.000000 0.000000
# 2 -0.003506 0.026164 -0.008899 0.000000 0.000000 0.000000
# 3 -0.006020 -0.008899 0.016072 0.000000 0.000000 0.000000
# 4 0.000000 0.000000 0.000000 0.015791 0.000000 0.000000
# 5 0.000000 0.000000 0.000000 0.000000 0.029796 0.000000
# 6 0.000000 0.000000 0.000000 0.000000 0.000000 0.573794
#
#
# Mechanical properties :
#
#
# Convention : Reuss Voigt Hill
#
# Bulk Modulus (GPa) = 58.01923 72.38659 65.20291
# Shear Modulus (GPa) = 6.98268 29.45276 18.21772
#
# Velocity S-wave (km/s) = 1.80685 3.71085 2.91848
# Velocity P-wave (km/s) = 5.61064 7.22525 6.46852
#
# Compressibility (1/GPa) = 0.01723567
#
# Stress axis : x y z
#
# Youngs Moduli (GPa) = 84.40371 38.22013 62.22057
#
# Poissons Ratio (x) = 0.13399 0.37455
# Poissons Ratio (y) = 0.29590 0.55368
# Poissons Ratio (z) = 0.50808 0.34011
#
# Static dielectric constant tensor:
#      x y z
#    x 3.702170 0.000000 0.000000 
#    y 0.000000 4.711670 0.000000 
#    z 0.000000 0.000000 4.001440 
# 
# 
# High freq. dielectric constant tensor:
#      x y z
#    x 1.817640 0.000000 0.000000 
#    y 0.000000 1.868060 0.000000 
#    z 0.000000 0.000000 1.834030 
# 
# From -- ./inp_files/23076.got.cif
#   From: 2010.03.12/outbox.cif.g09.slc.cpg/sg44_12_cif.got.tgz:23076.got - 2010.04.14 02:36:11.
