data_PCOD8190922
_publ_section_title
;
Structure prediction by ZEFSAII (Michael W. Deem and Ramdas Pophale) SiO2 
 PCOD8190922
Probable space group: I B A 2
;
_chemical_formula_sum "Si O2"
_cell_formula_units_Z 40
_cell_length_a 9.906448
_cell_length_b 10.128771
_cell_length_c 18.857046
_cell_angle_alpha 90.000000
_cell_angle_beta 90.000000
_cell_angle_gamma 90.000000
_cell_volume 1892.118696
_symmetry_space_group_name_H-M "I B A 2"
_symmetry_group_IT_number 45
_symmetry_cell_setting 'orthorhombic'
loop_
_space_group_symop_operation_xyz
x,y,z
-x,-y,z
-x,y,1/2+z
x,-y,1/2+z
1/2+x,1/2+y,1/2+z
1/2-x,1/2-y,1/2+z
1/2-x,1/2+y,z
1/2+x,1/2-y,z
loop_
_atom_site_type_symbol
_atom_site_label
_atom_site_fract_x
_atom_site_fract_y
_atom_site_fract_z
Si Si1 0.354939 0.364842 0.605480
Si Si2 0.997771 0.650880 0.807452
Si Si3 0.712409 0.326743 0.258680
Si Si4 0.417359 0.628536 0.398455
Si Si5 0.155318 0.145845 0.551948
O O1 0.347164 0.398087 0.689375
O O2 0.258780 0.241664 0.590654
O O3 0.301781 0.494525 0.565351
O O4 0.505873 0.327969 0.582235
O O5 0.873897 0.685051 0.754666
O O6 0.986628 0.747654 0.876055
O O7 0.000000 0.500000 0.832241
O O8 0.137276 0.683620 0.765262
O O9 0.678080 0.408814 0.331187
O O10 0.500000 0.500000 0.421181
O O11 0.334679 0.673040 0.467727
#
# Coordination Sequence:
#
# PCOD8190922 Si02
#       5
#     8   8   8   8   8
#     4  11  25  45  68 100 140 182 229 280 358 409
#     4  10  25  41  69 105 132 174 242 282 347 401
#     4  10  25  40  74  95 142 173 234 287 343 405
#     4  10  24  43  70  95 141 181 233 275 351 406
#     4  11  26  45  67  99 143 182 229 282 350 420
#
# _framework density 21.140322999999999
#
# number of rings (size 3 to 8) (size 9 to 14) (size 15 to 20)
#    1.200    0.400    2.000    1.200   11.200    2.400 
#    0.000    0.000    0.000    0.000    0.000    0.000 
#    0.000    0.000    0.000    0.000    0.000    0.000 
#
# Total GULP energy -247880.610358 kJ/mol
# GULP energy per Si atom -12394.030518 kJ/mol
# Density = 2.109221 g / cm^3
# Si number density = 21.140323 Si / 1000 Ang^3
#
#
#
# Elastic Constant Matrix: (Units=GPa)
#
#
# Indices 1 2 3 4 5 6 
#
# 1 91.9625 44.0130 16.4359 0.0000 0.0000 0.0000
# 2 44.0130 112.9983 3.3570 0.0000 0.0000 0.0000
# 3 16.4359 3.3570 143.5852 0.0000 0.0000 0.0000
# 4 0.0000 0.0000 0.0000 23.4355 0.0000 0.0000
# 5 0.0000 0.0000 0.0000 0.0000 31.4049 0.0000
# 6 0.0000 0.0000 0.0000 0.0000 0.0000 31.0888
#
#
#
# Elastic Compliance Matrix: (Units=1/GPa)
#
#
# Indices 1 2 3 4 5 6 
#
# 1 0.013657 -0.005277 -0.001440 0.000000 0.000000 0.000000
# 2 -0.005277 0.010895 0.000349 0.000000 0.000000 0.000000
# 3 -0.001440 0.000349 0.007121 0.000000 0.000000 0.000000
# 4 0.000000 0.000000 0.000000 0.042670 0.000000 0.000000
# 5 0.000000 0.000000 0.000000 0.000000 0.031842 0.000000
# 6 0.000000 0.000000 0.000000 0.000000 0.000000 0.032166
#
#
# Mechanical properties :
#
#
# Convention : Reuss Voigt Hill
#
# Bulk Modulus (GPa) = 52.80359 52.90642 52.85501
# Shear Modulus (GPa) = 31.76666 36.16850 33.96758
#
# Velocity S-wave (km/s) = 3.88062 4.14076 4.01280
# Velocity P-wave (km/s) = 6.71646 6.92401 6.82102
#
# Compressibility (1/GPa) = 0.01893811
#
# Stress axis : x y z
#
# Youngs Moduli (GPa) = 73.22432 91.78921 140.42650
#
# Poissons Ratio (x) = 0.48433 0.20220
# Poissons Ratio (y) = 0.38637 -0.04905
# Poissons Ratio (z) = 0.10543 -0.03206
#
# Static dielectric constant tensor:
#      x y z
#    x 3.688930 0.000000 0.000000 
#    y 0.000000 3.570870 0.000000 
#    z 0.000000 0.000000 3.809290 
# 
# 
# High freq. dielectric constant tensor:
#      x y z
#    x 1.821060 0.000000 0.000000 
#    y 0.000000 1.818280 0.000000 
#    z 0.000000 0.000000 1.834430 
# 
# From -- ./inp_files/7842.got.cif
#   From: 2010.03.12/outbox.cif.g09.slc.cpg/sg45_4_cif.got.tgz:7842.got - 2010.04.14 02:50:11.
