data_PCOD8190671
_publ_section_title
;
Structure prediction by ZEFSAII (Michael W. Deem and Ramdas Pophale) SiO2 
 PCOD8190671
Probable space group: I B A 2
;
_chemical_formula_sum "Si O2"
_cell_formula_units_Z 64
_cell_length_a 13.461613
_cell_length_b 8.907781
_cell_length_c 24.402951
_cell_angle_alpha 90.000000
_cell_angle_beta 90.000000
_cell_angle_gamma 90.000000
_cell_volume 2926.233516
_symmetry_space_group_name_H-M "I B A 2"
_symmetry_group_IT_number 45
_symmetry_cell_setting 'orthorhombic'
loop_
_space_group_symop_operation_xyz
x,y,z
-x,-y,z
-x,y,1/2+z
x,-y,1/2+z
1/2+x,1/2+y,1/2+z
1/2-x,1/2-y,1/2+z
1/2-x,1/2+y,z
1/2+x,1/2-y,z
loop_
_atom_site_type_symbol
_atom_site_label
_atom_site_fract_x
_atom_site_fract_y
_atom_site_fract_z
Si Si1 0.316946 0.150363 0.552760
Si Si2 0.838951 0.103604 0.703338
Si Si3 0.519004 0.329447 0.108443
Si Si4 0.315052 0.699373 0.651760
Si Si5 0.179157 0.360687 0.483839
Si Si6 0.010565 0.323876 0.405328
Si Si7 0.347282 0.653283 0.329619
Si Si8 0.684648 0.344685 0.885503
O O1 0.417592 0.246393 0.561416
O O2 0.262995 0.120386 0.610474
O O3 0.237588 0.231675 0.514606
O O4 0.346484 0.995081 0.524783
O O5 0.923585 0.177520 0.666031
O O6 0.730952 0.158666 0.682647
O O7 0.858027 0.154851 0.764657
O O8 0.843784 0.924142 0.697355
O O9 0.500000 0.500000 0.088698
O O10 0.413013 0.247876 0.118033
O O11 0.075851 0.294730 0.460084
O O12 0.244961 0.415370 0.432274
O O13 0.061464 0.249806 0.352450
O O14 0.000000 0.500000 0.393936
O O15 0.904204 0.246766 0.414598
O O16 0.355869 0.482799 0.350245
O O17 0.243252 0.728509 0.346730
#
# Coordination Sequence:
#
# PCOD8190671 Si02
#       8
#     8   8   8   8   8   8   8   8
#     4  11  22  40  65  90 122 165 206 250 308 367
#     4  10  21  39  62  89 120 159 201 248 308 368
#     4   9  20  39  60  89 124 157 203 252 299 366
#     4  10  21  39  60  88 124 156 201 255 300 364
#     4  11  23  41  62  89 124 163 206 252 307 363
#     4  11  24  42  62  92 128 161 210 263 307 371
#     4  11  23  40  65  92 123 167 208 253 317 372
#     4  11  23  42  63  91 128 162 208 261 307 371
#
# _framework density 21.871117999999999
#
# number of rings (size 3 to 8) (size 9 to 14) (size 15 to 20)
#    0.000    1.500    0.000    7.125    0.000    6.000 
#    0.000   10.000    0.000    0.000    0.000    0.000 
#    0.000    0.000    0.000    0.000    0.000    0.000 
#
# Total GULP energy -396904.679867 kJ/mol
# GULP energy per Si atom -12403.271246 kJ/mol
# Density = 2.182134 g / cm^3
# Si number density = 21.871118 Si / 1000 Ang^3
#
#
#
# Elastic Constant Matrix: (Units=GPa)
#
#
# Indices 1 2 3 4 5 6 
#
# 1 112.3332 27.4559 15.9517 0.0000 0.0000 0.0000
# 2 27.4559 74.4599 16.9622 0.0000 0.0000 0.0000
# 3 15.9517 16.9622 84.6021 0.0000 0.0000 0.0000
# 4 0.0000 0.0000 0.0000 34.4761 0.0000 0.0000
# 5 0.0000 0.0000 0.0000 0.0000 27.8493 0.0000
# 6 0.0000 0.0000 0.0000 0.0000 0.0000 40.8571
#
#
#
# Elastic Compliance Matrix: (Units=1/GPa)
#
#
# Indices 1 2 3 4 5 6 
#
# 1 0.009897 -0.003378 -0.001189 0.000000 0.000000 0.000000
# 2 -0.003378 0.015226 -0.002416 0.000000 0.000000 0.000000
# 3 -0.001189 -0.002416 0.012528 0.000000 0.000000 0.000000
# 4 0.000000 0.000000 0.000000 0.029006 0.000000 0.000000
# 5 0.000000 0.000000 0.000000 0.000000 0.035908 0.000000
# 6 0.000000 0.000000 0.000000 0.000000 0.000000 0.024476
#
#
# Mechanical properties :
#
#
# Convention : Reuss Voigt Hill
#
# Bulk Modulus (GPa) = 42.21979 43.57053 42.89516
# Shear Modulus (GPa) = 33.57940 34.70486 34.14213
#
# Velocity S-wave (km/s) = 3.92258 3.98777 3.95531
# Velocity P-wave (km/s) = 6.31358 6.41622 6.36511
#
# Compressibility (1/GPa) = 0.02368557
#
# Stress axis : x y z
#
# Youngs Moduli (GPa) = 101.04455 65.67666 79.81802
#
# Poissons Ratio (x) = 0.22188 0.09488
# Poissons Ratio (y) = 0.34137 0.19282
# Poissons Ratio (z) = 0.12011 0.15866
#
# Static dielectric constant tensor:
#      x y z
#    x 4.213390 0.000000 0.000000 
#    y 0.000000 3.888950 0.000000 
#    z 0.000000 0.000000 3.874830 
# 
# 
# High freq. dielectric constant tensor:
#      x y z
#    x 1.872150 0.000000 0.000000 
#    y 0.000000 1.854300 0.000000 
#    z 0.000000 0.000000 1.856480 
# 
# From -- ./inp_files/9787.got.cif
#   From: 2010.03.12/outbox.cif.g09.slc.cpg/sg45_5_cif.got.tgz:9787.got - 2010.04.14 02:50:11.
