data_PCOD8190799
_publ_section_title
;
Structure prediction by ZEFSAII (Michael W. Deem and Ramdas Pophale) SiO2 
 PCOD8190799
Probable space group: I B A 2
;
_chemical_formula_sum "Si O2"
_cell_formula_units_Z 56
_cell_length_a 12.147830
_cell_length_b 9.080122
_cell_length_c 22.870282
_cell_angle_alpha 90.000000
_cell_angle_beta 90.000000
_cell_angle_gamma 90.000000
_cell_volume 2522.678518
_symmetry_space_group_name_H-M "I B A 2"
_symmetry_group_IT_number 45
_symmetry_cell_setting 'orthorhombic'
loop_
_space_group_symop_operation_xyz
x,y,z
-x,-y,z
-x,y,1/2+z
x,-y,1/2+z
1/2+x,1/2+y,1/2+z
1/2-x,1/2-y,1/2+z
1/2-x,1/2+y,z
1/2+x,1/2-y,z
loop_
_atom_site_type_symbol
_atom_site_label
_atom_site_fract_x
_atom_site_fract_y
_atom_site_fract_z
Si Si1 0.090157 0.610860 0.810860
Si Si2 0.029408 0.159599 0.727592
Si Si3 0.500000 0.000000 0.986672
Si Si4 0.647674 0.282570 0.145060
Si Si5 0.255977 0.042285 0.711924
Si Si6 0.352344 0.743509 0.014207
Si Si7 0.500000 0.500000 0.958329
Si Si8 0.145516 0.255970 0.426295
O O1 0.174134 0.518179 0.770878
O O2 0.165676 0.692792 0.859638
O O3 0.000000 0.500000 0.839273
O O4 0.021227 0.724678 0.772253
O O5 0.160655 0.164291 0.723225
O O6 0.980201 0.183432 0.661264
O O7 0.000000 0.000000 0.752993
O O8 0.436717 0.120878 0.949405
O O9 0.589102 0.096543 0.022895
O O10 0.668883 0.113184 0.161477
O O11 0.715304 0.386421 0.189216
O O12 0.686395 0.306873 0.078451
O O13 0.437395 0.617326 0.997745
O O14 0.254838 0.754516 0.966281
O O15 0.588634 0.594492 0.921379
#
# Coordination Sequence:
#
# PCOD8190799 Si02
#       8
#     8   8   4   8   8   8   4   8
#     4  11  23  43  68  99 140 179 224 288 343 416
#     4   9  21  42  62  96 132 172 228 275 341 409
#     4  10  24  46  62 102 136 178 234 288 350 422
#     4  10  23  40  67  97 135 173 226 283 343 416
#     4  10  22  41  66 102 131 180 224 279 345 411
#     4  11  25  45  70 100 136 184 233 294 355 423
#     4  10  26  44  66 100 132 182 236 282 356 414
#     4  11  24  45  69 101 137 184 233 287 356 422
#
# _framework density 22.198625
#
# number of rings (size 3 to 8) (size 9 to 14) (size 15 to 20)
#    0.000    1.714    0.714    1.714    8.000    3.429 
#   20.571    0.000    0.000    0.000    0.000    0.000 
#    0.000    0.000    0.000    0.000    0.000    0.000 
#
# Total GULP energy -346898.440841 kJ/mol
# GULP energy per Si atom -12389.230030 kJ/mol
# Density = 2.214810 g / cm^3
# Si number density = 22.198625 Si / 1000 Ang^3
#
#
#
# Elastic Constant Matrix: (Units=GPa)
#
#
# Indices 1 2 3 4 5 6 
#
# 1 109.9256 34.9832 43.8589 0.0000 0.0000 0.0000
# 2 34.9832 100.1083 31.1329 0.0000 0.0000 0.0000
# 3 43.8589 31.1329 138.8459 0.0000 0.0000 0.0000
# 4 0.0000 0.0000 0.0000 13.0859 0.0000 0.0000
# 5 0.0000 0.0000 0.0000 0.0000 21.0377 0.0000
# 6 0.0000 0.0000 0.0000 0.0000 0.0000 33.4397
#
#
#
# Elastic Compliance Matrix: (Units=1/GPa)
#
#
# Indices 1 2 3 4 5 6 
#
# 1 0.011201 -0.003025 -0.002860 0.000000 0.000000 0.000000
# 2 -0.003025 0.011555 -0.001635 0.000000 0.000000 0.000000
# 3 -0.002860 -0.001635 0.008472 0.000000 0.000000 0.000000
# 4 0.000000 0.000000 0.000000 0.076418 0.000000 0.000000
# 5 0.000000 0.000000 0.000000 0.000000 0.047534 0.000000
# 6 0.000000 0.000000 0.000000 0.000000 0.000000 0.029905
#
#
# Mechanical properties :
#
#
# Convention : Reuss Voigt Hill
#
# Bulk Modulus (GPa) = 61.77509 63.20329 62.48919
# Shear Modulus (GPa) = 24.32849 29.43966 26.88407
#
# Velocity S-wave (km/s) = 3.31410 3.64564 3.48382
# Velocity P-wave (km/s) = 6.52174 6.80106 6.66287
#
# Compressibility (1/GPa) = 0.01618776
#
# Stress axis : x y z
#
# Youngs Moduli (GPa) = 89.28001 86.54423 118.03147
#
# Poissons Ratio (x) = 0.26177 0.33756
# Poissons Ratio (y) = 0.27005 0.19303
# Poissons Ratio (z) = 0.25533 0.14154
#
# Static dielectric constant tensor:
#      x y z
#    x 4.299980 0.000000 0.000000 
#    y 0.000000 4.287090 0.000000 
#    z 0.000000 0.000000 3.769710 
# 
# 
# High freq. dielectric constant tensor:
#      x y z
#    x 1.875900 0.000000 0.000000 
#    y 0.000000 1.892810 0.000000 
#    z 0.000000 0.000000 1.853760 
# 
# From -- ./inp_files/9200.got.cif
#   From: 2010.03.12/outbox.cif.g09.slc.cpg/sg45_5_cif.got.tgz:9200.got - 2010.04.14 02:50:11.
