data_PCOD8190739
_publ_section_title
;
Structure prediction by ZEFSAII (Michael W. Deem and Ramdas Pophale) SiO2 
 PCOD8190739
Probable space group: I B A 2
;
_chemical_formula_sum "Si O2"
_cell_formula_units_Z 60
_cell_length_a 8.915885
_cell_length_b 11.888334
_cell_length_c 23.772483
_cell_angle_alpha 90.000000
_cell_angle_beta 90.000000
_cell_angle_gamma 90.000000
_cell_volume 2519.764782
_symmetry_space_group_name_H-M "I B A 2"
_symmetry_group_IT_number 45
_symmetry_cell_setting 'orthorhombic'
loop_
_space_group_symop_operation_xyz
x,y,z
-x,-y,z
-x,y,1/2+z
x,-y,1/2+z
1/2+x,1/2+y,1/2+z
1/2-x,1/2-y,1/2+z
1/2-x,1/2+y,z
1/2+x,1/2-y,z
loop_
_atom_site_type_symbol
_atom_site_label
_atom_site_fract_x
_atom_site_fract_y
_atom_site_fract_z
Si Si1 0.171398 0.702027 0.313570
Si Si2 0.769648 0.346580 0.919881
Si Si3 0.500000 0.000000 0.367480
Si Si4 0.115414 0.908247 0.633656
Si Si5 0.428578 0.727596 0.236983
Si Si6 0.848889 0.562705 0.172768
Si Si7 0.012280 0.777880 0.492205
Si Si8 0.242722 0.292194 0.067927
O O1 0.215280 0.777085 0.366414
O O2 0.315560 0.660565 0.278460
O O3 0.060406 0.600806 0.329426
O O4 0.084311 0.778501 0.269108
O O5 0.898667 0.272460 0.948046
O O6 0.624024 0.368460 0.960541
O O7 0.853617 0.462437 0.903809
O O8 0.031507 0.821378 0.675282
O O9 0.209408 0.839812 0.585670
O O10 0.225340 0.965812 0.680107
O O11 0.000000 0.000000 0.607403
O O12 0.368457 0.855741 0.226340
O O13 0.788556 0.626222 0.118076
O O14 0.000000 0.500000 0.157190
O O15 0.913881 0.817797 0.546798
O O16 0.128220 0.683800 0.516156
#
# Coordination Sequence:
#
# PCOD8190739 Si02
#       8
#     8   8   4   8   8   8   8   8
#     4  12  24  45  69 100 139 184 236 295 350 418
#     4  11  23  47  70 103 139 180 233 301 348 425
#     4  12  26  44  76  98 142 182 236 288 368 418
#     4  11  23  40  63  99 140 180 233 287 339 418
#     4  11  25  40  68  99 141 186 233 285 349 412
#     4  11  23  41  66 100 140 184 231 282 348 417
#     4  10  21  44  73  95 142 179 225 298 356 401
#     4  10  22  42  66 100 137 180 229 289 347 418
#
# _framework density 23.811744999999998
#
# number of rings (size 3 to 8) (size 9 to 14) (size 15 to 20)
#    0.000    1.067    2.667    3.200    2.800    5.333 
#    6.000    6.000    0.000    0.000    0.000    0.000 
#    0.000    0.000    0.000    0.000    0.000    0.000 
#
# Total GULP energy -371645.666717 kJ/mol
# GULP energy per Si atom -12388.188891 kJ/mol
# Density = 2.375755 g / cm^3
# Si number density = 23.811745 Si / 1000 Ang^3
#
#
#
# Elastic Constant Matrix: (Units=GPa)
#
#
# Indices 1 2 3 4 5 6 
#
# 1 124.4058 34.0728 31.8567 0.0000 0.0000 0.0000
# 2 34.0728 76.9027 26.9323 0.0000 0.0000 0.0000
# 3 31.8567 26.9323 109.7028 0.0000 0.0000 0.0000
# 4 0.0000 0.0000 0.0000 -3.8381 0.0000 0.0000
# 5 0.0000 0.0000 0.0000 0.0000 -57.0056 0.0000
# 6 0.0000 0.0000 0.0000 0.0000 0.0000 37.1444
#
#
#
# Elastic Compliance Matrix: (Units=1/GPa)
#
#
# Indices 1 2 3 4 5 6 
#
# 1 0.009492 -0.003545 -0.001886 0.000000 0.000000 0.000000
# 2 -0.003545 0.015551 -0.002788 0.000000 0.000000 0.000000
# 3 -0.001886 -0.002788 0.010348 0.000000 0.000000 0.000000
# 4 0.000000 0.000000 0.000000 -0.260546 0.000000 0.000000
# 5 0.000000 0.000000 0.000000 0.000000 -0.017542 0.000000
# 6 0.000000 0.000000 0.000000 0.000000 0.000000 0.026922
#
#
# Mechanical properties :
#
#
# Convention : Reuss Voigt Hill
#
# Bulk Modulus (GPa) = 52.76588 55.19277 53.97933
# Shear Modulus (GPa) = -25.90418 9.80344 -8.05037
#
# Velocity S-wave (km/s) = -3.30187 2.03126 -1.84070
# Velocity P-wave (km/s) = 2.76970 5.36008 4.26624
#
# Compressibility (1/GPa) = 0.01895164
#
# Stress axis : x y z
#
# Youngs Moduli (GPa) = 105.35042 64.30615 96.63919
#
# Poissons Ratio (x) = 0.22797 0.18227
# Poissons Ratio (y) = 0.37348 0.26945
# Poissons Ratio (z) = 0.19870 0.17930
#
# Static dielectric constant tensor:
#      x y z
#    x 5.253470 0.000000 0.000000 
#    y 0.000000 4.310620 0.000000 
#    z 0.000000 0.000000 4.397480 
# 
# 
# High freq. dielectric constant tensor:
#      x y z
#    x 1.971140 0.000000 0.000000 
#    y 0.000000 1.908700 0.000000 
#    z 0.000000 0.000000 1.957000 
# 
# From -- ./inp_files/9952.got.cif
#   From: 2010.03.12/outbox.cif.g09.slc.cpg/sg45_5_cif.got.tgz:9952.got - 2010.04.14 02:50:11.
