data_PCOD8190325
_publ_section_title
;
Structure prediction by ZEFSAII (Michael W. Deem and Ramdas Pophale) SiO2 
 PCOD8190325
Probable space group: I M M 2
;
_chemical_formula_sum "Si O2"
_cell_formula_units_Z 64
_cell_length_a 9.100145
_cell_length_b 9.985699
_cell_length_c 41.263463
_cell_angle_alpha 90.000000
_cell_angle_beta 90.000000
_cell_angle_gamma 90.000000
_cell_volume 3749.664890
_symmetry_space_group_name_H-M "I M M 2"
_symmetry_group_IT_number 44
_symmetry_cell_setting 'orthorhombic'
loop_
_space_group_symop_operation_xyz
x,y,z
-x,-y,z
-x,y,z
x,-y,z
1/2+x,1/2+y,1/2+z
1/2-x,1/2-y,1/2+z
1/2-x,1/2+y,1/2+z
1/2+x,1/2-y,1/2+z
loop_
_atom_site_type_symbol
_atom_site_label
_atom_site_fract_x
_atom_site_fract_y
_atom_site_fract_z
Si Si1 0.834517 0.840715 0.366230
Si Si2 0.174881 0.850038 0.674113
Si Si3 0.825400 0.350071 0.548766
Si Si4 0.326893 0.654102 0.993326
Si Si5 0.665483 0.840715 0.428707
Si Si6 0.826893 0.345897 0.801610
Si Si7 0.325119 0.149962 0.120824
Si Si8 0.825400 0.850070 0.746171
O O1 0.750000 0.781831 0.397468
O O2 0.751613 0.792986 0.333951
O O3 0.000000 0.784027 0.366033
O O4 0.835289 0.000000 0.367917
O O5 0.243935 0.750000 0.647468
O O6 0.230584 0.810237 0.710152
O O7 0.000000 0.842530 0.673266
O O8 0.227374 0.000000 0.665589
O O9 0.770428 0.500000 0.539873
O O10 0.764682 0.243021 0.522946
O O11 0.769417 0.310236 0.584784
O O12 0.000000 0.347285 0.548484
O O13 0.500000 0.672344 0.988259
O O14 0.287123 0.500000 0.000794
O O15 0.248387 0.707014 0.960985
O O16 0.500000 0.784027 0.428904
O O17 0.664711 0.000000 0.427020
O O18 0.787124 0.500000 0.794142
O O19 0.764682 0.256979 0.771991
O O20 0.000000 0.327655 0.806678
O O21 0.500000 0.157471 0.121671
O O22 0.272627 0.000000 0.129348
O O23 0.000000 0.847284 0.746452
O O24 0.770429 0.000000 0.755063
#
# Coordination Sequence:
#
# PCOD8190325 Si02
#       8
#     8   8   8   8   8   8   8   8
#     4   9  16  26  41  61  85 110 134 164 204 245
#     4   8  13  20  30  46  70 101 135 167 199 237
#     4   8  14  24  36  51  75 108 140 167 201 245
#     4   9  16  25  39  60  82 104 135 172 204 237
#     4   9  16  26  41  61  85 110 134 164 204 245
#     4   9  16  25  39  60  82 104 135 172 204 237
#     4   8  13  20  30  46  70 101 135 167 199 237
#     4   8  14  24  36  51  75 108 140 167 201 245
#
# _framework density 17.068192
#
# number of rings (size 3 to 8) (size 9 to 14) (size 15 to 20)
#    0.000    3.500    0.000    2.250    0.000    4.000 
#    0.000    5.000    0.000    1.500    0.000    0.000 
#    0.000    1.000    0.000    2.250    0.000    4.500 
#
# Total GULP energy -396589.112670 kJ/mol
# GULP energy per Si atom -12393.409771 kJ/mol
# Density = 1.702934 g / cm^3
# Si number density = 17.068192 Si / 1000 Ang^3
#
#
#
# Elastic Constant Matrix: (Units=GPa)
#
#
# Indices 1 2 3 4 5 6 
#
# 1 38.7286 21.7199 38.7734 0.0000 0.0000 0.0000
# 2 21.7199 81.5327 91.4287 0.0000 0.0000 0.0000
# 3 38.7734 91.4287 185.8527 0.0000 0.0000 0.0000
# 4 0.0000 0.0000 0.0000 27.5160 0.0000 0.0000
# 5 0.0000 0.0000 0.0000 0.0000 14.6033 0.0000
# 6 0.0000 0.0000 0.0000 0.0000 0.0000 5.0435
#
#
#
# Elastic Compliance Matrix: (Units=1/GPa)
#
#
# Indices 1 2 3 4 5 6 
#
# 1 0.032843 -0.002377 -0.005682 0.000000 0.000000 0.000000
# 2 -0.002377 0.027528 -0.013046 0.000000 0.000000 0.000000
# 3 -0.005682 -0.013046 0.012984 0.000000 0.000000 0.000000
# 4 0.000000 0.000000 0.000000 0.036343 0.000000 0.000000
# 5 0.000000 0.000000 0.000000 0.000000 0.068478 0.000000
# 6 0.000000 0.000000 0.000000 0.000000 0.000000 0.198274
#
#
# Mechanical properties :
#
#
# Convention : Reuss Voigt Hill
#
# Bulk Modulus (GPa) = 32.10946 67.77311 49.94128
# Shear Modulus (GPa) = 11.65388 19.71203 15.68295
#
# Velocity S-wave (km/s) = 2.61585 3.40207 3.03453
# Velocity P-wave (km/s) = 5.28931 7.43139 6.44990
#
# Compressibility (1/GPa) = 0.03114347
#
# Stress axis : x y z
#
# Youngs Moduli (GPa) = 30.44805 36.32667 77.01724
#
# Poissons Ratio (x) = 0.08635 0.43765
# Poissons Ratio (y) = 0.07237 1.00479
# Poissons Ratio (z) = 0.17302 0.47393
#
# Static dielectric constant tensor:
#      x y z
#    x 2.748010 0.000000 0.000000 
#    y 0.000000 3.126140 0.000000 
#    z 0.000000 0.000000 3.572650 
# 
# 
# High freq. dielectric constant tensor:
#      x y z
#    x 1.605430 0.000000 0.000000 
#    y 0.000000 1.629330 0.000000 
#    z 0.000000 0.000000 1.673410 
# 
# From -- ./inp_files/27199.got.cif
#   From: 2010.03.12/outbox.cif.g09.slc.cpg/sg44_14_cif.got.tgz:27199.got - 2010.04.14 02:36:11.
