data_PCOD8190295
_publ_section_title
;
Structure prediction by ZEFSAII (Michael W. Deem and Ramdas Pophale) SiO2 
 PCOD8190295
Probable space group: I M M 2
;
_chemical_formula_sum "Si O2"
_cell_formula_units_Z 24
_cell_length_a 9.958632
_cell_length_b 10.331304
_cell_length_c 10.000420
_cell_angle_alpha 90.000000
_cell_angle_beta 90.000000
_cell_angle_gamma 90.000000
_cell_volume 1028.899758
_symmetry_space_group_name_H-M "I M M 2"
_symmetry_group_IT_number 44
_symmetry_cell_setting 'orthorhombic'
loop_
_space_group_symop_operation_xyz
x,y,z
-x,-y,z
-x,y,z
x,-y,z
1/2+x,1/2+y,1/2+z
1/2-x,1/2-y,1/2+z
1/2-x,1/2+y,1/2+z
1/2+x,1/2-y,1/2+z
loop_
_atom_site_type_symbol
_atom_site_label
_atom_site_fract_x
_atom_site_fract_y
_atom_site_fract_z
Si Si1 0.149218 0.500000 0.188890
Si Si2 0.661629 0.500000 0.930258
Si Si3 0.276143 0.263421 0.738579
Si Si4 0.500000 0.651280 0.241389
Si Si5 0.500000 0.644156 0.556046
O O1 0.171249 0.377625 0.287911
O O2 0.000000 0.500000 0.125574
O O3 0.260100 0.500000 0.070213
O O4 0.500000 0.500000 0.951350
O O5 0.706582 0.627957 0.850336
O O6 0.363643 0.290616 0.606744
O O7 0.124142 0.237737 0.689701
O O8 0.500000 0.500000 0.191969
O O9 0.500000 0.651598 0.399509
O O10 0.500000 0.500000 0.614552
#
# Coordination Sequence:
#
# PCOD8190295 Si02
#       5
#     4   4   8   4   4
#     4  12  26  44  72 104 139 189 237 291 356 420
#     4  12  26  46  72 104 139 187 237 289 356 426
#     4  12  23  46  67 101 136 183 226 297 339 422
#     4  11  26  43  69 100 137 185 234 282 357 419
#     4  11  22  47  69  96 137 185 226 286 357 423
#
# _framework density 23.325886000000001
#
# number of rings (size 3 to 8) (size 9 to 14) (size 15 to 20)
#    0.000    0.333    6.667    2.000    4.667    0.000 
#    0.000    0.000    0.000    4.000    0.000    0.000 
#    0.000    0.000    0.000    0.000    0.000    0.000 
#
# Total GULP energy -148679.430190 kJ/mol
# GULP energy per Si atom -12389.952516 kJ/mol
# Density = 2.327280 g / cm^3
# Si number density = 23.325886 Si / 1000 Ang^3
#
#
#
# Elastic Constant Matrix: (Units=GPa)
#
#
# Indices 1 2 3 4 5 6 
#
# 1 242.1091 68.8582 35.0896 0.0000 0.0000 0.0000
# 2 68.8582 203.1016 47.4589 0.0000 0.0000 0.0000
# 3 35.0896 47.4589 59.6533 0.0000 0.0000 0.0000
# 4 0.0000 0.0000 0.0000 21.5144 0.0000 0.0000
# 5 0.0000 0.0000 0.0000 0.0000 26.0419 0.0000
# 6 0.0000 0.0000 0.0000 0.0000 0.0000 45.2013
#
#
#
# Elastic Compliance Matrix: (Units=1/GPa)
#
#
# Indices 1 2 3 4 5 6 
#
# 1 0.004732 -0.001172 -0.001851 0.000000 0.000000 0.000000
# 2 -0.001172 0.006338 -0.004353 0.000000 0.000000 0.000000
# 3 -0.001851 -0.004353 0.021316 0.000000 0.000000 0.000000
# 4 0.000000 0.000000 0.000000 0.046480 0.000000 0.000000
# 5 0.000000 0.000000 0.000000 0.000000 0.038400 0.000000
# 6 0.000000 0.000000 0.000000 0.000000 0.000000 0.022123
#
#
# Mechanical properties :
#
#
# Convention : Reuss Voigt Hill
#
# Bulk Modulus (GPa) = 56.71037 89.74196 73.22617
# Shear Modulus (GPa) = 31.24619 42.11534 36.68077
#
# Velocity S-wave (km/s) = 3.66396 4.25375 3.96982
# Velocity P-wave (km/s) = 6.50111 7.91723 7.24386
#
# Compressibility (1/GPa) = 0.01763346
#
# Stress axis : x y z
#
# Youngs Moduli (GPa) = 211.33077 157.77559 46.91347
#
# Poissons Ratio (x) = 0.18486 0.08685
# Poissons Ratio (y) = 0.24761 0.20423
# Poissons Ratio (z) = 0.39123 0.68684
#
# Static dielectric constant tensor:
#      x y z
#    x 4.902120 0.000000 0.000000 
#    y 0.000000 4.888540 0.000000 
#    z 0.000000 0.000000 3.778900 
# 
# 
# High freq. dielectric constant tensor:
#      x y z
#    x 1.950380 0.000000 0.000000 
#    y 0.000000 1.948680 0.000000 
#    z 0.000000 0.000000 1.891480 
# 
# From -- ./inp_files/10503.got.cif
#   From: 2010.03.12/outbox.cif.g09.slc.cpg/sg44_6_cif.got.tgz:10503.got - 2010.04.14 02:36:11.
