data_PCOD8190904
_publ_section_title
;
Structure prediction by ZEFSAII (Michael W. Deem and Ramdas Pophale) SiO2 
 PCOD8190904
Probable space group: I B A 2
;
_chemical_formula_sum "Si O2"
_cell_formula_units_Z 44
_cell_length_a 10.163765
_cell_length_b 24.586417
_cell_length_c 8.436953
_cell_angle_alpha 90.000000
_cell_angle_beta 90.000000
_cell_angle_gamma 90.000000
_cell_volume 2108.314949
_symmetry_space_group_name_H-M "I B A 2"
_symmetry_group_IT_number 45
_symmetry_cell_setting 'orthorhombic'
loop_
_space_group_symop_operation_xyz
x,y,z
-x,-y,z
-x,y,1/2+z
x,-y,1/2+z
1/2+x,1/2+y,1/2+z
1/2-x,1/2-y,1/2+z
1/2-x,1/2+y,z
1/2+x,1/2-y,z
loop_
_atom_site_type_symbol
_atom_site_label
_atom_site_fract_x
_atom_site_fract_y
_atom_site_fract_z
Si Si1 0.825207 0.290646 0.770100
Si Si2 0.500000 0.500000 0.939275
Si Si3 0.688193 0.520278 0.688708
Si Si4 0.903970 0.405249 0.296151
Si Si5 0.608147 0.789338 0.142409
Si Si6 0.822459 0.591501 0.161051
O O1 0.706787 0.249994 0.735015
O O2 0.770404 0.349411 0.713949
O O3 0.955448 0.272829 0.671090
O O4 0.861781 0.290777 0.955818
O O5 0.597075 0.537538 0.836460
O O6 0.401871 0.537989 0.040704
O O7 0.824111 0.551234 0.692539
O O8 0.712390 0.454829 0.684825
O O9 0.870234 0.347676 0.220744
O O10 0.869633 0.406642 0.479956
O O11 0.055027 0.422119 0.275641
#
# Coordination Sequence:
#
# PCOD8190904 Si02
#       6
#     8   4   8   8   8   8
#     4  11  23  43  66  94 127 163 210 259 311 370
#     4  10  24  42  58  86 132 166 200 252 292 380
#     4  11  23  42  62  88 127 163 206 246 312 361
#     4  11  23  39  65  92 123 159 209 259 306 363
#     4  11  23  43  66  94 127 163 210 259 311 370
#     4  11  23  39  65  92 123 159 209 259 306 363
#
# _framework density 20.869745999999999
#
# number of rings (size 3 to 8) (size 9 to 14) (size 15 to 20)
#    0.000    1.091    1.818    7.091    5.091    1.455 
#    6.545    0.000    0.000    0.000    0.000    0.000 
#    0.000    0.000    0.000    0.000    0.000    0.000 
#
# Total GULP energy -272685.811933 kJ/mol
# GULP energy per Si atom -12394.809633 kJ/mol
# Density = 2.082225 g / cm^3
# Si number density = 20.869746 Si / 1000 Ang^3
#
#
#
# Elastic Constant Matrix: (Units=GPa)
#
#
# Indices 1 2 3 4 5 6 
#
# 1 85.4154 60.4646 22.3994 -0.0001 -0.0025 -0.0003
# 2 60.4646 86.3145 20.5590 0.0004 -0.0011 0.0000
# 3 22.3994 20.5590 121.3167 0.0006 -0.0101 -0.0012
# 4 -0.0001 0.0004 0.0006 23.1436 -0.0021 -0.0001
# 5 -0.0025 -0.0011 -0.0101 -0.0021 136.8117 0.0008
# 6 -0.0003 0.0000 -0.0012 -0.0001 0.0008 26.0464
#
#
#
# Elastic Compliance Matrix: (Units=1/GPa)
#
#
# Indices 1 2 3 4 5 6 
#
# 1 0.023524 -0.016094 -0.001616 0.000000 0.000000 0.000000
# 2 -0.016094 0.023084 -0.000940 0.000000 0.000000 0.000000
# 3 -0.001616 -0.000940 0.008701 0.000000 0.000001 0.000000
# 4 0.000000 0.000000 0.000000 0.043208 0.000001 0.000000
# 5 0.000000 0.000000 0.000001 0.000001 0.007309 0.000000
# 6 0.000000 0.000000 0.000000 0.000000 0.000000 0.038393
#
#
# Mechanical properties :
#
#
# Convention : Reuss Voigt Hill
#
# Bulk Modulus (GPa) = 55.53229 55.54362 55.53795
# Shear Modulus (GPa) = 26.66346 49.84191 38.25269
#
# Velocity S-wave (km/s) = 3.57825 4.89226 4.28591
# Velocity P-wave (km/s) = 6.61352 7.65405 7.15273
#
# Compressibility (1/GPa) = 0.01800754
#
# Stress axis : x y z
#
# Youngs Moduli (GPa) = 42.50960 43.32068 114.93438
#
# Poissons Ratio (x) = 0.69721 0.18573
# Poissons Ratio (y) = 0.68415 0.10808
# Poissons Ratio (z) = 0.06870 0.04074
#
# Static dielectric constant tensor:
#      x y z
#    x 3.892220 0.000000 0.000000 
#    y 0.000000 3.688610 0.000000 
#    z 0.000000 0.000000 4.154480 
# 
# 
# High freq. dielectric constant tensor:
#      x y z
#    x 1.826300 0.000000 0.000000 
#    y 0.000000 1.795020 0.000000 
#    z 0.000000 0.000000 1.845520 
# 
# From -- ./inp_files/1033.got.cif
#   From: 2010.03.12/outbox.cif.g09.slc.cpg/sg45_1_cif.got.tgz:1033.got - 2010.04.14 02:50:11.
