data_PCOD8190980
_publ_section_title
;
Structure prediction by ZEFSAII (Michael W. Deem and Ramdas Pophale) SiO2 
 PCOD8190980
Probable space group: I B A 2
;
_chemical_formula_sum "Si O2"
_cell_formula_units_Z 28
_cell_length_a 15.806295
_cell_length_b 7.226934
_cell_length_c 9.537266
_cell_angle_alpha 90.000000
_cell_angle_beta 90.000000
_cell_angle_gamma 90.000000
_cell_volume 1089.451916
_symmetry_space_group_name_H-M "I B A 2"
_symmetry_group_IT_number 45
_symmetry_cell_setting 'orthorhombic'
loop_
_space_group_symop_operation_xyz
x,y,z
-x,-y,z
-x,y,1/2+z
x,-y,1/2+z
1/2+x,1/2+y,1/2+z
1/2-x,1/2-y,1/2+z
1/2-x,1/2+y,z
1/2+x,1/2-y,z
loop_
_atom_site_type_symbol
_atom_site_label
_atom_site_fract_x
_atom_site_fract_y
_atom_site_fract_z
Si Si1 0.153394 0.937531 0.544700
Si Si2 0.340159 0.032777 0.595683
Si Si3 0.594129 0.283089 0.757380
Si Si4 0.000000 0.500000 0.899798
O O1 0.148499 0.748300 0.634558
O O2 0.125922 0.905940 0.385512
O O3 0.247417 0.017090 0.529688
O O4 0.090838 0.085939 0.620472
O O5 0.344654 0.895521 0.729285
O O6 0.415450 0.974125 0.490475
O O7 0.505431 0.184540 0.800361
#
# Coordination Sequence:
#
# PCOD8190980 Si02
#       4
#     8   8   8   4
#     4  11  26  44  85 114 154 214 283 320 408 483
#     4  11  24  47  74 116 159 211 260 338 396 484
#     4  11  26  50  78 116 159 208 268 334 396 484
#     4  10  26  48  74 108 166 208 252 338 414 456
#
# _framework density 25.700997000000001
#
# number of rings (size 3 to 8) (size 9 to 14) (size 15 to 20)
#    0.000    1.143    2.857    0.857    8.000    4.571 
#    0.000   24.286    0.000    1.714    0.000    0.000 
#    0.000    0.000    0.000    0.000    0.000    0.000 
#
# Total GULP energy -173452.751601 kJ/mol
# GULP energy per Si atom -12389.482257 kJ/mol
# Density = 2.564250 g / cm^3
# Si number density = 25.700997 Si / 1000 Ang^3
#
#
#
# Elastic Constant Matrix: (Units=GPa)
#
#
# Indices 1 2 3 4 5 6 
#
# 1 117.5333 41.9202 43.9763 0.0000 0.0000 0.0000
# 2 41.9202 172.1342 58.2911 0.0000 0.0000 0.0000
# 3 43.9763 58.2911 120.0664 0.0000 0.0000 0.0000
# 4 0.0000 0.0000 0.0000 68.0981 0.0000 0.0000
# 5 0.0000 0.0000 0.0000 0.0000 17.9915 0.0000
# 6 0.0000 0.0000 0.0000 0.0000 0.0000 49.9123
#
#
#
# Elastic Compliance Matrix: (Units=1/GPa)
#
#
# Indices 1 2 3 4 5 6 
#
# 1 0.010154 -0.001452 -0.003014 0.000000 0.000000 0.000000
# 2 -0.001452 0.007160 -0.002944 0.000000 0.000000 0.000000
# 3 -0.003014 -0.002944 0.010862 0.000000 0.000000 0.000000
# 4 0.000000 0.000000 0.000000 0.014685 0.000000 0.000000
# 5 0.000000 0.000000 0.000000 0.000000 0.055582 0.000000
# 6 0.000000 0.000000 0.000000 0.000000 0.000000 0.020035
#
#
# Mechanical properties :
#
#
# Convention : Reuss Voigt Hill
#
# Bulk Modulus (GPa) = 74.87738 77.56765 76.22251
# Shear Modulus (GPa) = 36.29751 44.90345 40.60048
#
# Velocity S-wave (km/s) = 3.76213 4.18442 3.97889
# Velocity P-wave (km/s) = 6.93317 7.32067 7.12955
#
# Compressibility (1/GPa) = 0.01335517
#
# Stress axis : x y z
#
# Youngs Moduli (GPa) = 98.48445 139.66260 92.06332
#
# Poissons Ratio (x) = 0.20281 0.27748
# Poissons Ratio (y) = 0.14301 0.27106
# Poissons Ratio (z) = 0.29684 0.41121
#
# Static dielectric constant tensor:
#      x y z
#    x 4.621160 0.000000 0.000000 
#    y 0.000000 5.256710 0.000000 
#    z 0.000000 0.000000 4.566350 
# 
# 
# High freq. dielectric constant tensor:
#      x y z
#    x 2.017550 0.000000 0.000000 
#    y 0.000000 2.050690 0.000000 
#    z 0.000000 0.000000 2.018590 
# 
# From -- ./inp_files/861.got.cif
#   From: 2010.03.12/outbox.cif.g09.slc.cpg/sg45_1_cif.got.tgz:861.got - 2010.04.14 02:50:11.
