data_PCOD8190858
_publ_section_title
;
Structure prediction by ZEFSAII (Michael W. Deem and Ramdas Pophale) SiO2 
 PCOD8190858
Probable space group: I B A 2
;
_chemical_formula_sum "Si O2"
_cell_formula_units_Z 56
_cell_length_a 28.993806
_cell_length_b 5.652766
_cell_length_c 14.171129
_cell_angle_alpha 90.000000
_cell_angle_beta 90.000000
_cell_angle_gamma 90.000000
_cell_volume 2322.580033
_symmetry_space_group_name_H-M "I B A 2"
_symmetry_group_IT_number 45
_symmetry_cell_setting 'orthorhombic'
loop_
_space_group_symop_operation_xyz
x,y,z
-x,-y,z
-x,y,1/2+z
x,-y,1/2+z
1/2+x,1/2+y,1/2+z
1/2-x,1/2-y,1/2+z
1/2-x,1/2+y,z
1/2+x,1/2-y,z
loop_
_atom_site_type_symbol
_atom_site_label
_atom_site_fract_x
_atom_site_fract_y
_atom_site_fract_z
Si Si1 0.126082 0.829000 0.646270
Si Si2 0.579211 1.000000 0.000836
Si Si3 0.768920 0.096447 0.641635
Si Si4 0.126082 0.171000 0.355402
Si Si5 0.958540 0.831639 0.855719
Si Si6 0.958540 0.168361 0.145952
Si Si7 0.731080 0.403553 0.360037
O O1 0.113728 0.652509 0.563332
O O2 0.176570 0.930839 0.627097
O O3 0.123934 0.707368 0.750836
O O4 0.090805 0.044217 0.643085
O O5 0.543479 0.125376 0.931116
O O6 0.613728 0.847491 0.938340
O O7 0.543479 0.874624 0.070555
O O8 0.752159 0.351418 0.596476
O O9 0.753960 0.104482 0.750836
O O10 0.176570 0.069161 0.374575
O O11 0.090805 0.955783 0.358587
O O12 0.968702 0.731295 0.750836
O O13 0.000000 0.000000 0.887691
O O14 0.000000 0.000000 0.113981
O O15 0.752159 0.648582 0.405196
#
# Coordination Sequence:
#
# PCOD8190858 Si02
#       7
#     8   8   8   8   8   8   8
#     4  10  23  41  65  99 138 179 228 287 349 418
#     4  12  24  41  70 100 132 178 228 282 349 414
#     4   9  19  37  65  97 133 184 240 291 353 424
#     4  10  23  41  65  99 138 179 228 287 349 418
#     4  10  24  46  70  99 136 178 228 282 345 417
#     4  10  24  46  70  99 136 178 228 282 345 417
#     4   9  19  37  65  97 133 184 240 291 353 424
#
# _framework density 24.111118000000001
#
# number of rings (size 3 to 8) (size 9 to 14) (size 15 to 20)
#    0.000    2.000    0.000    1.714    4.000    4.571 
#    0.000    5.714    0.000    2.571    0.000    0.000 
#    0.000    0.000    0.000    0.000    0.000    0.000 
#
# Total GULP energy -347086.473629 kJ/mol
# GULP energy per Si atom -12395.945487 kJ/mol
# Density = 2.405624 g / cm^3
# Si number density = 24.111118 Si / 1000 Ang^3
#
#
#
# Elastic Constant Matrix: (Units=GPa)
#
#
# Indices 1 2 3 4 5 6 
#
# 1 142.4972 46.8529 12.2401 0.0000 0.0000 0.0000
# 2 46.8529 134.3084 44.4811 0.0000 0.0000 0.0000
# 3 12.2401 44.4811 101.2197 0.0000 0.0000 0.0000
# 4 0.0000 0.0000 0.0000 9.8598 0.0000 0.0000
# 5 0.0000 0.0000 0.0000 0.0000 28.1273 0.0000
# 6 0.0000 0.0000 0.0000 0.0000 0.0000 31.3811
#
#
#
# Elastic Compliance Matrix: (Units=1/GPa)
#
#
# Indices 1 2 3 4 5 6 
#
# 1 0.007935 -0.002868 0.000301 0.000000 0.000000 0.000000
# 2 -0.002868 0.009750 -0.003938 0.000000 0.000000 0.000000
# 3 0.000301 -0.003938 0.011574 0.000000 0.000000 0.000000
# 4 0.000000 0.000000 0.000000 0.101422 0.000000 0.000000
# 5 0.000000 0.000000 0.000000 0.000000 0.035553 0.000000
# 6 0.000000 0.000000 0.000000 0.000000 0.000000 0.031866
#
#
# Mechanical properties :
#
#
# Convention : Reuss Voigt Hill
#
# Bulk Modulus (GPa) = 61.54309 65.01926 63.28117
# Shear Modulus (GPa) = 23.09199 32.17038 27.63118
#
# Velocity S-wave (km/s) = 3.09808 3.65671 3.38892
# Velocity P-wave (km/s) = 6.19497 6.69729 6.45102
#
# Compressibility (1/GPa) = 0.01624878
#
# Stress axis : x y z
#
# Youngs Moduli (GPa) = 126.02858 102.56336 86.40306
#
# Poissons Ratio (x) = 0.29411 -0.02598
# Poissons Ratio (y) = 0.36139 0.34025
# Poissons Ratio (z) = -0.03789 0.40389
#
# Static dielectric constant tensor:
#      x y z
#    x 4.212470 0.000000 0.000000 
#    y 0.000000 4.356540 0.000000 
#    z 0.000000 0.000000 4.656340 
# 
# 
# High freq. dielectric constant tensor:
#      x y z
#    x 1.967410 0.000000 0.000000 
#    y 0.000000 1.944290 0.000000 
#    z 0.000000 0.000000 1.965370 
# 
# From -- ./inp_files/5282.got.cif
#   From: 2010.03.12/outbox.cif.g09.slc.cpg/sg45_3_cif.got.tgz:5282.got - 2010.04.14 02:50:11.
