data_PCOD8190714
_publ_section_title
;
Structure prediction by ZEFSAII (Michael W. Deem and Ramdas Pophale) SiO2 
 PCOD8190714
Probable space group: I B A 2
;
_chemical_formula_sum "Si O2"
_cell_formula_units_Z 40
_cell_length_a 8.646176
_cell_length_b 22.166631
_cell_length_c 9.733291
_cell_angle_alpha 90.000000
_cell_angle_beta 90.000000
_cell_angle_gamma 90.000000
_cell_volume 1865.449391
_symmetry_space_group_name_H-M "I B A 2"
_symmetry_group_IT_number 45
_symmetry_cell_setting 'orthorhombic'
loop_
_space_group_symop_operation_xyz
x,y,z
-x,-y,z
-x,y,1/2+z
x,-y,1/2+z
1/2+x,1/2+y,1/2+z
1/2-x,1/2-y,1/2+z
1/2-x,1/2+y,z
1/2+x,1/2-y,z
loop_
_atom_site_type_symbol
_atom_site_label
_atom_site_fract_x
_atom_site_fract_y
_atom_site_fract_z
Si Si1 0.646559 0.674306 0.765490
Si Si2 0.853553 0.959884 0.187085
Si Si3 0.975227 0.291883 0.239545
Si Si4 0.667942 0.983919 0.455322
Si Si5 0.141674 0.651316 0.495882
O O1 0.598064 0.610223 0.699941
O O2 0.799783 0.698617 0.683596
O O3 0.504089 0.720311 0.756878
O O4 0.692272 0.669167 0.927913
O O5 0.786634 0.983153 0.330219
O O6 0.000000 0.000000 0.145821
O O7 0.726412 0.967672 0.067378
O O8 0.990102 0.328443 0.384147
O O9 0.107263 0.316613 0.138978
O O10 0.647452 0.919316 0.527056
O O11 0.500000 0.000000 0.396510
#
# Coordination Sequence:
#
# PCOD8190714 Si02
#       5
#     8   8   8   8   8
#     4   9  23  40  61  94 129 164 219 260 338 391
#     4  11  24  45  64 100 133 176 222 279 336 403
#     4  10  21  41  62  91 130 166 215 271 326 400
#     4  11  23  43  68  97 133 174 226 271 335 400
#     4   9  23  39  64  92 128 163 225 266 328 397
#
# _framework density 21.442556
#
# number of rings (size 3 to 8) (size 9 to 14) (size 15 to 20)
#    1.200    0.800    0.000    2.400    5.600    1.600 
#    7.200    0.000    0.000    0.000    0.000    0.000 
#    0.000    0.000    0.000    0.000    0.000    0.000 
#
# Total GULP energy -247847.112576 kJ/mol
# GULP energy per Si atom -12392.355629 kJ/mol
# Density = 2.139375 g / cm^3
# Si number density = 21.442556 Si / 1000 Ang^3
#
#
#
# Elastic Constant Matrix: (Units=GPa)
#
#
# Indices 1 2 3 4 5 6 
#
# 1 70.6257 30.8038 -4.3767 0.0015 0.0023 -0.0004
# 2 30.8038 101.8187 13.0189 0.0010 0.0022 -0.0002
# 3 -4.3767 13.0189 68.5872 0.0092 0.0179 -0.0032
# 4 0.0015 0.0010 0.0092 25.7799 0.0025 -0.0011
# 5 0.0023 0.0022 0.0179 0.0025 11.0915 0.0003
# 6 -0.0004 -0.0002 -0.0032 -0.0011 0.0003 43.2694
#
#
#
# Elastic Compliance Matrix: (Units=1/GPa)
#
#
# Indices 1 2 3 4 5 6 
#
# 1 0.016591 -0.005283 0.002061 -0.000002 -0.000006 0.000000
# 2 -0.005283 0.011748 -0.002567 0.000001 0.000003 0.000000
# 3 0.002061 -0.002567 0.015199 -0.000005 -0.000024 0.000001
# 4 -0.000002 0.000001 -0.000005 0.038790 -0.000009 0.000001
# 5 -0.000006 0.000003 -0.000024 -0.000009 0.090160 -0.000001
# 6 0.000000 0.000000 0.000001 0.000001 -0.000001 0.023111
#
#
# Mechanical properties :
#
#
# Convention : Reuss Voigt Hill
#
# Bulk Modulus (GPa) = 31.28839 35.54706 33.41772
# Shear Modulus (GPa) = 22.95379 29.46719 26.21049
#
# Velocity S-wave (km/s) = 3.27537 3.71109 3.50002
# Velocity P-wave (km/s) = 5.37842 5.91412 5.65262
#
# Compressibility (1/GPa) = 0.03196074
#
# Stress axis : x y z
#
# Youngs Moduli (GPa) = 60.27330 85.12163 65.79465
#
# Poissons Ratio (x) = 0.44970 -0.13564
# Poissons Ratio (y) = 0.31842 0.16890
# Poissons Ratio (z) = -0.12425 0.21851
#
# Static dielectric constant tensor:
#      x y z
#    x 3.615800 0.000000 0.000000 
#    y 0.000000 3.892400 0.000000 
#    z 0.000000 0.000000 3.566730 
# 
# 
# High freq. dielectric constant tensor:
#      x y z
#    x 1.822870 0.000000 0.000000 
#    y 0.000000 1.848800 0.000000 
#    z 0.000000 0.000000 1.827600 
# 
# From -- ./inp_files/949.got.cif
#   From: 2010.03.12/outbox.cif.g09.slc.cpg/sg45_1_cif.got.tgz:949.got - 2010.04.14 02:50:11.
