data_PCOD8190493
_publ_section_title
;
Structure prediction by ZEFSAII (Michael W. Deem and Ramdas Pophale) SiO2 
 PCOD8190493
Probable space group: I B A 2
;
_chemical_formula_sum "Si O2"
_cell_formula_units_Z 64
_cell_length_a 23.125984
_cell_length_b 17.794345
_cell_length_c 8.849125
_cell_angle_alpha 90.000000
_cell_angle_beta 90.000000
_cell_angle_gamma 90.000000
_cell_volume 3641.518806
_symmetry_space_group_name_H-M "I B A 2"
_symmetry_group_IT_number 45
_symmetry_cell_setting 'orthorhombic'
loop_
_space_group_symop_operation_xyz
x,y,z
-x,-y,z
-x,y,1/2+z
x,-y,1/2+z
1/2+x,1/2+y,1/2+z
1/2-x,1/2-y,1/2+z
1/2-x,1/2+y,z
1/2+x,1/2-y,z
loop_
_atom_site_type_symbol
_atom_site_label
_atom_site_fract_x
_atom_site_fract_y
_atom_site_fract_z
Si Si1 0.439639 0.779502 0.635550
Si Si2 0.060361 0.720498 0.775023
Si Si3 0.380504 0.922025 0.776129
Si Si4 0.671528 0.302121 0.621788
Si Si5 0.772764 0.639303 0.622306
Si Si6 0.328472 0.302121 0.788785
Si Si7 0.727236 0.139303 0.288267
Si Si8 0.880504 0.577975 0.134444
O O1 0.442599 0.789064 0.455287
O O2 0.500000 0.752873 0.705287
O O3 0.421755 0.858581 0.707572
O O4 0.393322 0.714780 0.681237
O O5 0.106678 0.785220 0.729336
O O6 0.078245 0.641419 0.703001
O O7 0.313390 0.908914 0.732558
O O8 0.402065 0.000000 0.705287
O O9 0.386997 0.923163 0.955287
O O10 0.704537 0.223499 0.613498
O O11 0.669173 0.338393 0.455287
O O12 0.706484 0.359653 0.728674
O O13 0.706484 0.640347 0.681899
O O14 0.773614 0.602651 0.455287
O O15 0.295463 0.223499 0.797075
O O16 0.686610 0.091086 0.178015
#
# Coordination Sequence:
#
# PCOD8190493 Si02
#       8
#     8   8   8   8   8   8   8   8
#     4  10  20  33  47  65  89 118 153 187 221 260
#     4  10  20  33  47  65  89 118 153 187 221 260
#     4  11  21  33  47  63  87 118 152 187 223 261
#     4   8  15  27  43  63  86 111 140 177 220 264
#     4   9  16  27  44  65  86 109 141 179 221 265
#     4   8  15  27  43  63  86 111 140 177 220 264
#     4   9  16  27  44  65  86 109 141 179 221 265
#     4  11  21  33  47  63  87 118 152 187 223 261
#
# _framework density 17.575084
#
# number of rings (size 3 to 8) (size 9 to 14) (size 15 to 20)
#    0.000    2.500    0.000    5.250    0.000    7.500 
#    0.000    2.500    0.000    0.000    0.000    0.000 
#    0.000    1.000    0.000   10.500    0.000    6.250 
#
# Total GULP energy -396657.952348 kJ/mol
# GULP energy per Si atom -12395.561011 kJ/mol
# Density = 1.753508 g / cm^3
# Si number density = 17.575084 Si / 1000 Ang^3
#
#
#
# Elastic Constant Matrix: (Units=GPa)
#
#
# Indices 1 2 3 4 5 6 
#
# 1 130.3332 7.7713 41.6512 0.0000 0.0000 0.0000
# 2 7.7713 2.8089 3.6028 0.0000 0.0000 0.0000
# 3 41.6512 3.6028 108.7293 0.0000 0.0000 0.0000
# 4 0.0000 0.0000 0.0000 18.4964 0.0000 0.0000
# 5 0.0000 0.0000 0.0000 0.0000 31.4114 0.0000
# 6 0.0000 0.0000 0.0000 0.0000 0.0000 11.8139
#
#
#
# Elastic Compliance Matrix: (Units=1/GPa)
#
#
# Indices 1 2 3 4 5 6 
#
# 1 0.010082 -0.023957 -0.003068 0.000000 0.000000 0.000000
# 2 -0.023957 0.428738 -0.005029 0.000000 0.000000 0.000000
# 3 -0.003068 -0.005029 0.010539 0.000000 0.000000 0.000000
# 4 0.000000 0.000000 0.000000 0.054065 0.000000 0.000000
# 5 0.000000 0.000000 0.000000 0.000000 0.031836 0.000000
# 6 0.000000 0.000000 0.000000 0.000000 0.000000 0.084646
#
#
# Mechanical properties :
#
#
# Convention : Reuss Voigt Hill
#
# Bulk Modulus (GPa) = 2.59572 38.65801 20.62687
# Shear Modulus (GPa) = 6.15437 24.93407 15.54422
#
# Velocity S-wave (km/s) = 1.87333 3.77067 2.97719
# Velocity P-wave (km/s) = 2.48179 6.40320 4.85594
#
# Compressibility (1/GPa) = 0.38524951
#
# Stress axis : x y z
#
# Youngs Moduli (GPa) = 99.19034 2.33243 94.88456
#
# Poissons Ratio (x) = 0.05588 0.29112
# Poissons Ratio (y) = 2.37631 0.47720
# Poissons Ratio (z) = 0.30433 0.01173
#
# Static dielectric constant tensor:
#      x y z
#    x 3.481230 0.000000 0.000000 
#    y 0.000000 2.831150 0.000000 
#    z 0.000000 0.000000 3.506570 
# 
# 
# High freq. dielectric constant tensor:
#      x y z
#    x 1.676040 0.000000 0.000000 
#    y 0.000000 1.618620 0.000000 
#    z 0.000000 0.000000 1.694960 
# 
# From -- ./inp_files/2376.got.cif
#   From: 2010.03.12/outbox.cif.g09.slc.cpg/sg45_2_cif.got.tgz:2376.got - 2010.04.14 02:50:11.
