data_PCOD8190449
_publ_section_title
;
Structure prediction by ZEFSAII (Michael W. Deem and Ramdas Pophale) SiO2 
 PCOD8190449
Probable space group: I B A 2
;
_chemical_formula_sum "Si O2"
_cell_formula_units_Z 48
_cell_length_a 26.816226
_cell_length_b 8.471204
_cell_length_c 8.886401
_cell_angle_alpha 90.000000
_cell_angle_beta 90.000000
_cell_angle_gamma 90.000000
_cell_volume 2018.685690
_symmetry_space_group_name_H-M "I B A 2"
_symmetry_group_IT_number 45
_symmetry_cell_setting 'orthorhombic'
loop_
_space_group_symop_operation_xyz
x,y,z
-x,-y,z
-x,y,1/2+z
x,-y,1/2+z
1/2+x,1/2+y,1/2+z
1/2-x,1/2-y,1/2+z
1/2-x,1/2+y,z
1/2+x,1/2-y,z
loop_
_atom_site_type_symbol
_atom_site_label
_atom_site_fract_x
_atom_site_fract_y
_atom_site_fract_z
Si Si1 0.056190 0.619466 0.411660
Si Si2 0.466653 0.202780 0.757090
Si Si3 0.715410 0.150110 0.614409
Si Si4 0.187233 0.014669 0.537091
Si Si5 0.658181 0.004032 0.354599
Si Si6 0.869576 0.160018 0.764926
O O1 0.044105 0.437669 0.375139
O O2 0.042224 0.655295 0.584241
O O3 0.115464 0.631093 0.376063
O O4 0.025006 0.737747 0.298238
O O5 0.429249 0.348118 0.799945
O O6 0.709014 0.337355 0.629530
O O7 0.671072 0.075442 0.516334
O O8 0.768709 0.114959 0.538636
O O9 0.707063 0.078519 0.781414
O O10 0.168867 0.073580 0.375907
O O11 0.139117 0.930314 0.608828
O O12 0.641746 0.152618 0.250476
#
# Coordination Sequence:
#
# PCOD8190449 Si02
#       6
#     8   8   8   8   8   8
#     4  10  19  34  61  94 131 167 217 276 328 390
#     4  10  20  36  62  98 132 172 221 280 338 395
#     4  11  23  38  62  92 127 166 214 268 341 408
#     4  11  24  41  62  91 126 168 215 274 335 415
#     4  10  21  38  61  94 127 165 212 268 329 400
#     4  10  23  41  62  90 127 167 217 269 333 398
#
# _framework density 23.777847000000001
#
# number of rings (size 3 to 8) (size 9 to 14) (size 15 to 20)
#    0.000    1.667    0.000    6.000    0.000    9.333 
#    0.000    0.000    0.000    8.000    0.000    0.000 
#    0.000    0.000    0.000    0.000    0.000    0.000 
#
# Total GULP energy -297358.523111 kJ/mol
# GULP energy per Si atom -12389.938463 kJ/mol
# Density = 2.372373 g / cm^3
# Si number density = 23.777847 Si / 1000 Ang^3
#
#
#
# Elastic Constant Matrix: (Units=GPa)
#
#
# Indices 1 2 3 4 5 6 
#
# 1 155.8974 33.6405 26.0783 0.0000 0.0000 0.0000
# 2 33.6405 66.1887 19.4987 0.0000 0.0000 0.0000
# 3 26.0783 19.4987 82.8384 0.0000 0.0000 0.0000
# 4 0.0000 0.0000 0.0000 18.0706 0.0000 0.0000
# 5 0.0000 0.0000 0.0000 0.0000 41.2518 0.0000
# 6 0.0000 0.0000 0.0000 0.0000 0.0000 48.8765
#
#
#
# Elastic Compliance Matrix: (Units=1/GPa)
#
#
# Indices 1 2 3 4 5 6 
#
# 1 0.007385 -0.003297 -0.001549 0.000000 0.000000 0.000000
# 2 -0.003297 0.017706 -0.003130 0.000000 0.000000 0.000000
# 3 -0.001549 -0.003130 0.013296 0.000000 0.000000 0.000000
# 4 0.000000 0.000000 0.000000 0.055338 0.000000 0.000000
# 5 0.000000 0.000000 0.000000 0.000000 0.024241 0.000000
# 6 0.000000 0.000000 0.000000 0.000000 0.000000 0.020460
#
#
# Mechanical properties :
#
#
# Convention : Reuss Voigt Hill
#
# Bulk Modulus (GPa) = 44.57178 51.48438 48.02808
# Shear Modulus (GPa) = 30.89156 36.68693 33.78924
#
# Velocity S-wave (km/s) = 3.60832 3.93224 3.77376
# Velocity P-wave (km/s) = 6.01213 6.50507 6.26345
#
# Compressibility (1/GPa) = 0.02243572
#
# Stress axis : x y z
#
# Youngs Moduli (GPa) = 135.40882 56.47769 75.21089
#
# Poissons Ratio (x) = 0.18622 0.11649
# Poissons Ratio (y) = 0.44647 0.23539
# Poissons Ratio (z) = 0.20972 0.17676
#
# Static dielectric constant tensor:
#      x y z
#    x 4.955330 0.000000 0.000000 
#    y 0.000000 4.028550 0.000000 
#    z 0.000000 0.000000 4.047390 
# 
# 
# High freq. dielectric constant tensor:
#      x y z
#    x 1.955400 0.000000 0.000000 
#    y 0.000000 1.906740 0.000000 
#    z 0.000000 0.000000 1.937990 
# 
# From -- ./inp_files/2730.got.cif
#   From: 2010.03.12/outbox.cif.g09.slc.cpg/sg45_2_cif.got.tgz:2730.got - 2010.04.14 02:50:11.
