data_PCOD8190784
_publ_section_title
;
Structure prediction by ZEFSAII (Michael W. Deem and Ramdas Pophale) SiO2 
 PCOD8190784
Probable space group: I B A 2
;
_chemical_formula_sum "Si O2"
_cell_formula_units_Z 60
_cell_length_a 8.874636
_cell_length_b 22.220839
_cell_length_c 13.717002
_cell_angle_alpha 90.000000
_cell_angle_beta 90.000000
_cell_angle_gamma 90.000000
_cell_volume 2705.018277
_symmetry_space_group_name_H-M "I B A 2"
_symmetry_group_IT_number 45
_symmetry_cell_setting 'orthorhombic'
loop_
_space_group_symop_operation_xyz
x,y,z
-x,-y,z
-x,y,1/2+z
x,-y,1/2+z
1/2+x,1/2+y,1/2+z
1/2-x,1/2-y,1/2+z
1/2-x,1/2+y,z
1/2+x,1/2-y,z
loop_
_atom_site_type_symbol
_atom_site_label
_atom_site_fract_x
_atom_site_fract_y
_atom_site_fract_z
Si Si1 0.658674 0.600105 0.841500
Si Si2 0.883697 0.181617 0.154502
Si Si3 0.441754 0.204087 0.626854
Si Si4 0.018811 0.345566 0.824416
Si Si5 0.429213 0.705740 0.859644
Si Si6 0.681835 0.838324 0.988884
Si Si7 0.117226 0.911516 0.618422
Si Si8 0.000000 0.000000 0.973280
O O1 0.835053 0.615023 0.851360
O O2 0.575461 0.662611 0.867544
O O3 0.633530 0.574997 0.732313
O O4 0.598349 0.546519 0.909761
O O5 0.734256 0.200366 0.095265
O O6 0.832772 0.178591 0.268179
O O7 0.021910 0.229077 0.163951
O O8 0.955722 0.122570 0.106442
O O9 0.480041 0.152868 0.708669
O O10 0.541784 0.199540 0.529984
O O11 0.027370 0.274889 0.850355
O O12 0.885736 0.373037 0.893555
O O13 0.326242 0.700620 0.955944
O O14 0.735597 0.877125 0.080527
O O15 0.115865 0.968188 0.546741
#
# Coordination Sequence:
#
# PCOD8190784 Si02
#       8
#     8   8   8   8   8   8   8   4
#     4  11  24  47  71 102 140 186 234 294 351 418
#     4  10  23  41  62  97 145 180 227 284 355 418
#     4  11  23  38  64 102 143 189 218 282 358 428
#     4  11  24  40  66 105 149 182 221 285 367 423
#     4  10  22  40  67 100 142 183 225 280 351 433
#     4  12  23  38  64  98 137 177 233 276 338 427
#     4  11  25  45  70  98 131 179 239 291 337 412
#     4  12  26  46  78  94 132 190 256 284 342 408
#
# _framework density 22.180996
#
# number of rings (size 3 to 8) (size 9 to 14) (size 15 to 20)
#    0.000    1.067    4.000    2.000   13.067    0.000 
#    0.000    0.667    0.000    1.600    0.000    0.000 
#    0.000    0.000    0.000    0.000    0.000    0.000 
#
# Total GULP energy -371674.446516 kJ/mol
# GULP energy per Si atom -12389.148217 kJ/mol
# Density = 2.213051 g / cm^3
# Si number density = 22.180996 Si / 1000 Ang^3
#
#
#
# Elastic Constant Matrix: (Units=GPa)
#
#
# Indices 1 2 3 4 5 6 
#
# 1 98.9719 26.9170 28.1162 0.0000 0.0000 0.0000
# 2 26.9170 78.8093 30.1564 0.0001 -0.0001 -0.0001
# 3 28.1162 30.1564 113.3633 -0.0002 -0.0002 -0.0002
# 4 0.0000 0.0001 -0.0002 34.7473 -0.0001 -0.0001
# 5 0.0000 -0.0001 -0.0002 -0.0001 35.5863 0.0000
# 6 0.0000 -0.0001 -0.0002 -0.0001 0.0000 9.3663
#
#
#
# Elastic Compliance Matrix: (Units=1/GPa)
#
#
# Indices 1 2 3 4 5 6 
#
# 1 0.011539 -0.003169 -0.002019 0.000000 0.000000 0.000000
# 2 -0.003169 0.014997 -0.003204 0.000000 0.000000 0.000000
# 3 -0.002019 -0.003204 0.010174 0.000000 0.000000 0.000000
# 4 0.000000 0.000000 0.000000 0.028779 0.000000 0.000000
# 5 0.000000 0.000000 0.000000 0.000000 0.028101 0.000000
# 6 0.000000 0.000000 0.000000 0.000000 0.000000 0.106765
#
#
# Mechanical properties :
#
#
# Convention : Reuss Voigt Hill
#
# Bulk Modulus (GPa) = 50.18084 51.28042 50.73063
# Shear Modulus (GPa) = 22.34331 29.67031 26.00681
#
# Velocity S-wave (km/s) = 3.17727 3.66135 3.42787
# Velocity P-wave (km/s) = 6.01103 6.40650 6.21192
#
# Compressibility (1/GPa) = 0.01992792
#
# Stress axis : x y z
#
# Youngs Moduli (GPa) = 86.66115 66.68036 98.28830
#
# Poissons Ratio (x) = 0.21128 0.19845
# Poissons Ratio (y) = 0.27459 0.31487
# Poissons Ratio (z) = 0.17497 0.21361
#
# Static dielectric constant tensor:
#      x y z
#    x 4.011300 0.000000 0.000000 
#    y 0.000000 3.620330 0.000000 
#    z 0.000000 0.000000 4.469960 
# 
# 
# High freq. dielectric constant tensor:
#      x y z
#    x 1.877620 0.000000 0.000000 
#    y 0.000000 1.814720 0.000000 
#    z 0.000000 0.000000 1.907190 
# 
# From -- ./inp_files/5810.got.cif
#   From: 2010.03.12/outbox.cif.g09.slc.cpg/sg45_3_cif.got.tgz:5810.got - 2010.04.14 02:50:11.
