data_PCOD8190561
_publ_section_title
;
Structure prediction by ZEFSAII (Michael W. Deem and Ramdas Pophale) SiO2 
 PCOD8190561
Probable space group: I B A 2
;
_chemical_formula_sum "Si O2"
_cell_formula_units_Z 44
_cell_length_a 14.836128
_cell_length_b 16.802895
_cell_length_c 8.749310
_cell_angle_alpha 90.000000
_cell_angle_beta 90.000000
_cell_angle_gamma 90.000000
_cell_volume 2181.114624
_symmetry_space_group_name_H-M "I B A 2"
_symmetry_group_IT_number 45
_symmetry_cell_setting 'orthorhombic'
loop_
_space_group_symop_operation_xyz
x,y,z
-x,-y,z
-x,y,1/2+z
x,-y,1/2+z
1/2+x,1/2+y,1/2+z
1/2-x,1/2-y,1/2+z
1/2-x,1/2+y,z
1/2+x,1/2-y,z
loop_
_atom_site_type_symbol
_atom_site_label
_atom_site_fract_x
_atom_site_fract_y
_atom_site_fract_z
Si Si1 0.116233 0.917868 0.925510
Si Si2 0.909076 0.261935 0.964451
Si Si3 0.500000 0.500000 0.175188
Si Si4 0.817659 0.443425 0.461264
Si Si5 0.886101 0.410284 0.789176
Si Si6 0.936900 0.327217 0.289953
O O1 0.131669 0.823430 0.926284
O O2 0.213320 0.959874 0.925126
O O3 0.063739 0.943606 0.774481
O O4 0.060515 0.941764 0.074526
O O5 0.851654 0.328710 0.871370
O O6 0.013979 0.267205 0.909426
O O7 0.903152 0.278355 0.144464
O O8 0.827201 0.429754 0.641665
O O9 0.876072 0.519681 0.412717
O O10 0.850474 0.365596 0.370478
O O11 0.991723 0.397596 0.743190
#
# Coordination Sequence:
#
# PCOD8190561 Si02
#       6
#     8   8   4   8   8   8
#     4  11  24  43  69  90 122 169 217 275 305 400
#     4  10  21  39  61  90 126 172 206 252 335 368
#     4  10  24  46  64  88 124 170 214 262 342 364
#     4  12  22  38  63  96 126 164 225 254 319 381
#     4  10  22  37  59  93 132 167 200 263 318 392
#     4  10  20  38  61  91 128 171 201 259 323 395
#
# _framework density 20.173172000000001
#
# number of rings (size 3 to 8) (size 9 to 14) (size 15 to 20)
#    1.091    0.364    1.818    3.818    0.000    2.909 
#    0.000    3.636    0.000    0.000    0.000    0.000 
#    0.000    0.000    0.000    0.000    0.000    0.000 
#
# Total GULP energy -272798.034358 kJ/mol
# GULP energy per Si atom -12399.910653 kJ/mol
# Density = 2.012726 g / cm^3
# Si number density = 20.173172 Si / 1000 Ang^3
#
#
#
# Elastic Constant Matrix: (Units=GPa)
#
#
# Indices 1 2 3 4 5 6 
#
# 1 76.3521 0.1612 10.7242 0.0000 0.0000 0.0000
# 2 0.1612 97.4378 32.1116 0.0000 0.0000 0.0000
# 3 10.7242 32.1116 112.7616 0.0000 0.0000 0.0000
# 4 0.0000 0.0000 0.0000 26.7672 0.0000 0.0000
# 5 0.0000 0.0000 0.0000 0.0000 -27.5206 0.0000
# 6 0.0000 0.0000 0.0000 0.0000 0.0000 18.3196
#
#
#
# Elastic Compliance Matrix: (Units=1/GPa)
#
#
# Indices 1 2 3 4 5 6 
#
# 1 0.013291 0.000435 -0.001388 0.000000 0.000000 0.000000
# 2 0.000435 0.011340 -0.003271 0.000000 0.000000 0.000000
# 3 -0.001388 -0.003271 0.009932 0.000000 0.000000 0.000000
# 4 0.000000 0.000000 0.000000 0.037359 0.000000 0.000000
# 5 0.000000 0.000000 0.000000 0.000000 -0.036336 0.000000
# 6 0.000000 0.000000 0.000000 0.000000 0.000000 0.054586
#
#
# Mechanical properties :
#
#
# Convention : Reuss Voigt Hill
#
# Bulk Modulus (GPa) = 38.29022 41.39394 39.84208
# Shear Modulus (GPa) = 46.58766 19.75020 33.16893
#
# Velocity S-wave (km/s) = 4.81082 3.13235 4.05929
# Velocity P-wave (km/s) = 7.06262 5.80051 6.46245
#
# Compressibility (1/GPa) = 0.02611633
#
# Stress axis : x y z
#
# Youngs Moduli (GPa) = 75.23735 88.18211 100.68747
#
# Poissons Ratio (x) = -0.03840 0.13976
# Poissons Ratio (y) = -0.03276 0.32933
# Poissons Ratio (z) = 0.10444 0.28843
#
# Static dielectric constant tensor:
#      x y z
#    x 3.403180 0.000000 0.000000 
#    y 0.000000 3.473410 0.000000 
#    z 0.000000 0.000000 3.635480 
# 
# 
# High freq. dielectric constant tensor:
#      x y z
#    x 1.765550 0.000000 0.000000 
#    y 0.000000 1.781620 0.000000 
#    z 0.000000 0.000000 1.799470 
# 
# From -- ./inp_files/1674.got.cif
#   From: 2010.03.12/outbox.cif.g09.slc.cpg/sg45_1_cif.got.tgz:1674.got - 2010.04.14 02:50:11.
