data_PCOD8190266
_publ_section_title
;
Structure prediction by ZEFSAII (Michael W. Deem and Ramdas Pophale) SiO2 
 PCOD8190266
Probable space group: I M M 2
;
_chemical_formula_sum "Si O2"
_cell_formula_units_Z 48
_cell_length_a 8.696644
_cell_length_b 16.530601
_cell_length_c 18.343561
_cell_angle_alpha 90.000000
_cell_angle_beta 90.000000
_cell_angle_gamma 90.000000
_cell_volume 2637.084124
_symmetry_space_group_name_H-M "I M M 2"
_symmetry_group_IT_number 44
_symmetry_cell_setting 'orthorhombic'
loop_
_space_group_symop_operation_xyz
x,y,z
-x,-y,z
-x,y,z
x,-y,z
1/2+x,1/2+y,1/2+z
1/2-x,1/2-y,1/2+z
1/2-x,1/2+y,1/2+z
1/2+x,1/2-y,1/2+z
loop_
_atom_site_type_symbol
_atom_site_label
_atom_site_fract_x
_atom_site_fract_y
_atom_site_fract_z
Si Si1 0.326085 0.763120 0.880700
Si Si2 0.324695 0.672770 0.028614
Si Si3 0.821262 0.184908 0.109069
Si Si4 0.682080 0.500000 0.991145
Si Si5 0.318616 0.500000 0.829459
Si Si6 0.678726 0.841340 0.263432
Si Si7 0.179813 0.407564 0.479527
O O1 0.500000 0.770320 0.851610
O O2 0.220513 0.735947 0.813585
O O3 0.269291 0.849964 0.912368
O O4 0.315410 0.695977 0.943691
O O5 0.500000 0.684211 0.056497
O O6 0.210273 0.726771 0.075760
O O7 0.267536 0.579965 0.035571
O O8 0.720861 0.177747 0.180906
O O9 0.000000 0.175546 0.127539
O O10 0.772350 0.115337 0.052200
O O11 0.500000 0.500000 0.981705
O O12 0.755667 0.500000 0.910287
O O13 0.500000 0.500000 0.833777
O O14 0.269002 0.420711 0.786635
O O15 0.500000 0.859033 0.269925
O O16 0.215304 0.500000 0.458156
O O17 0.000000 0.392734 0.496017
#
# Coordination Sequence:
#
# PCOD8190266 Si02
#       7
#     8   8   8   4   4   8   8
#     4   9  17  33  57  81 108 143 180 220 270 325
#     4   9  17  34  57  82 109 143 181 219 268 326
#     4  11  23  37  54  78 111 149 184 225 272 321
#     4   9  16  31  59  85 109 140 175 216 267 325
#     4  11  21  37  57  83 113 144 177 216 273 331
#     4  12  24  37  54  80 113 148 183 224 270 324
#     4   9  19  37  60  83 108 140 180 224 273 327
#
# _framework density 18.201922
#
# number of rings (size 3 to 8) (size 9 to 14) (size 15 to 20)
#    0.000    2.000    1.667    4.250    1.167    3.000 
#    0.000    0.417    1.833    0.000    0.000    0.000 
#    0.000    0.000    0.000    0.000    0.000    0.000 
#
# Total GULP energy -297617.700481 kJ/mol
# GULP energy per Si atom -12400.737520 kJ/mol
# Density = 1.816049 g / cm^3
# Si number density = 18.201922 Si / 1000 Ang^3
#
#
#
# Elastic Constant Matrix: (Units=GPa)
#
#
# Indices 1 2 3 4 5 6 
#
# 1 65.1416 19.1734 20.4342 0.0000 0.0000 0.0000
# 2 19.1734 138.9247 35.5143 0.0000 0.0000 0.0000
# 3 20.4342 35.5143 73.0060 0.0000 0.0000 0.0000
# 4 0.0000 0.0000 0.0000 13.5400 0.0000 0.0000
# 5 0.0000 0.0000 0.0000 0.0000 27.7736 0.0000
# 6 0.0000 0.0000 0.0000 0.0000 0.0000 25.3296
#
#
#
# Elastic Compliance Matrix: (Units=1/GPa)
#
#
# Indices 1 2 3 4 5 6 
#
# 1 0.017030 -0.001293 -0.004138 0.000000 0.000000 0.000000
# 2 -0.001293 0.008319 -0.003685 0.000000 0.000000 0.000000
# 3 -0.004138 -0.003685 0.016648 0.000000 0.000000 0.000000
# 4 0.000000 0.000000 0.000000 0.073855 0.000000 0.000000
# 5 0.000000 0.000000 0.000000 0.000000 0.036005 0.000000
# 6 0.000000 0.000000 0.000000 0.000000 0.000000 0.039480
#
#
# Mechanical properties :
#
#
# Convention : Reuss Voigt Hill
#
# Bulk Modulus (GPa) = 42.07694 47.47958 44.77826
# Shear Modulus (GPa) = 22.98968 26.79199 24.89084
#
# Velocity S-wave (km/s) = 3.55778 3.84074 3.70196
# Velocity P-wave (km/s) = 6.32803 6.76830 6.55187
#
# Compressibility (1/GPa) = 0.02376599
#
# Stress axis : x y z
#
# Youngs Moduli (GPa) = 58.72131 120.21388 60.06666
#
# Poissons Ratio (x) = 0.15538 0.24854
# Poissons Ratio (y) = 0.07590 0.22134
# Poissons Ratio (z) = 0.24298 0.44297
#
# Static dielectric constant tensor:
#      x y z
#    x 3.207430 0.000000 0.000000 
#    y 0.000000 3.543880 0.000000 
#    z 0.000000 0.000000 3.194760 
# 
# 
# High freq. dielectric constant tensor:
#      x y z
#    x 1.694380 0.000000 0.000000 
#    y 0.000000 1.713160 0.000000 
#    z 0.000000 0.000000 1.685540 
# 
# From -- ./inp_files/16197.got.cif
#   From: 2010.03.12/outbox.cif.g09.slc.cpg/sg44_9_cif.got.tgz:16197.got - 2010.04.14 02:36:11.
