data_PCOD8190043
_publ_section_title
;
Structure prediction by ZEFSAII (Michael W. Deem and Ramdas Pophale) SiO2 
 PCOD8190043
Probable space group: I M M 2
;
_chemical_formula_sum "Si O2"
_cell_formula_units_Z 48
_cell_length_a 23.407132
_cell_length_b 8.500007
_cell_length_c 11.800983
_cell_angle_alpha 90.000000
_cell_angle_beta 90.000000
_cell_angle_gamma 90.000000
_cell_volume 2347.932851
_symmetry_space_group_name_H-M "I M M 2"
_symmetry_group_IT_number 44
_symmetry_cell_setting 'orthorhombic'
loop_
_space_group_symop_operation_xyz
x,y,z
-x,-y,z
-x,y,z
x,-y,z
1/2+x,1/2+y,1/2+z
1/2-x,1/2-y,1/2+z
1/2-x,1/2+y,1/2+z
1/2+x,1/2-y,1/2+z
loop_
_atom_site_type_symbol
_atom_site_label
_atom_site_fract_x
_atom_site_fract_y
_atom_site_fract_z
Si Si1 0.341760 0.679119 0.023630
Si Si2 0.724954 0.816079 0.220915
Si Si3 0.372486 0.177149 0.383600
Si Si4 0.565069 0.813613 0.602181
Si Si5 0.343266 0.181513 0.783809
Si Si6 0.935845 0.322923 0.661317
O O1 0.331783 0.500000 0.985066
O O2 0.288836 0.734417 0.100920
O O3 0.398692 0.694015 0.097311
O O4 0.351157 0.789870 0.916125
O O5 0.684693 0.747742 0.324088
O O6 0.790992 0.788265 0.243075
O O7 0.711016 0.000000 0.208430
O O8 0.397040 0.259665 0.497957
O O9 0.424428 0.184715 0.295116
O O10 0.355885 0.000000 0.417011
O O11 0.500000 0.744249 0.606380
O O12 0.598731 0.769782 0.717720
O O13 0.560466 0.000000 0.586310
O O14 0.328424 0.000000 0.760805
O O15 0.922119 0.500000 0.617729
O O16 0.000000 0.275266 0.636769
#
# Coordination Sequence:
#
# PCOD8190043 Si02
#       6
#     8   8   8   8   8   8
#     4  11  23  39  57  80 114 154 199 247 294 349
#     4  10  21  38  61  88 117 149 191 247 307 365
#     4   8  15  30  55  86 115 144 185 238 292 349
#     4   9  18  33  55  85 119 154 194 239 289 352
#     4  11  23  37  57  86 119 156 196 243 298 360
#     4   9  17  32  57  86 115 148 189 240 298 357
#
# _framework density 20.443514
#
# number of rings (size 3 to 8) (size 9 to 14) (size 15 to 20)
#    0.000    2.333    0.000    4.000    2.333    3.000 
#    0.000    1.667    0.000    2.500    0.000    0.000 
#    0.000    0.000    0.000    0.000    0.000    0.000 
#
# Total GULP energy -297458.195785 kJ/mol
# GULP energy per Si atom -12394.091491 kJ/mol
# Density = 2.039698 g / cm^3
# Si number density = 20.443514 Si / 1000 Ang^3
#
#
#
# Elastic Constant Matrix: (Units=GPa)
#
#
# Indices 1 2 3 4 5 6 
#
# 1 118.2556 14.1599 44.0643 0.0000 0.0000 0.0000
# 2 14.1599 39.8757 8.7826 0.0000 0.0000 0.0000
# 3 44.0643 8.7826 121.7099 0.0000 0.0000 0.0000
# 4 0.0000 0.0000 0.0000 18.4489 0.0000 0.0000
# 5 0.0000 0.0000 0.0000 0.0000 21.1852 0.0000
# 6 0.0000 0.0000 0.0000 0.0000 0.0000 22.8588
#
#
#
# Elastic Compliance Matrix: (Units=1/GPa)
#
#
# Indices 1 2 3 4 5 6 
#
# 1 0.010078 -0.002820 -0.003445 0.000000 0.000000 0.000000
# 2 -0.002820 0.026272 -0.000875 0.000000 0.000000 0.000000
# 3 -0.003445 -0.000875 0.009527 0.000000 0.000000 0.000000
# 4 0.000000 0.000000 0.000000 0.054204 0.000000 0.000000
# 5 0.000000 0.000000 0.000000 0.000000 0.047203 0.000000
# 6 0.000000 0.000000 0.000000 0.000000 0.000000 0.043747
#
#
# Mechanical properties :
#
#
# Convention : Reuss Voigt Hill
#
# Bulk Modulus (GPa) = 31.64892 45.98388 38.81640
# Shear Modulus (GPa) = 23.16518 26.68754 24.92636
#
# Velocity S-wave (km/s) = 3.36985 3.61699 3.49561
# Velocity P-wave (km/s) = 5.53678 6.32341 5.94312
#
# Compressibility (1/GPa) = 0.03159666
#
# Stress axis : x y z
#
# Youngs Moduli (GPa) = 99.23002 38.06346 104.96869
#
# Poissons Ratio (x) = 0.10733 0.36162
# Poissons Ratio (y) = 0.27981 0.09184
# Poissons Ratio (z) = 0.34185 0.03330
#
# Static dielectric constant tensor:
#      x y z
#    x 3.734180 0.000000 0.000000 
#    y 0.000000 3.258680 0.000000 
#    z 0.000000 0.000000 3.779870 
# 
# 
# High freq. dielectric constant tensor:
#      x y z
#    x 1.804260 0.000000 0.000000 
#    y 0.000000 1.755520 0.000000 
#    z 0.000000 0.000000 1.801990 
# 
# From -- ./inp_files/14592.got.cif
#   From: 2010.03.12/outbox.cif.g09.slc.cpg/sg44_8_cif.got.tgz:14592.got - 2010.04.14 02:36:11.
