data_PCOD8190592
_publ_section_title
;
Structure prediction by ZEFSAII (Michael W. Deem and Ramdas Pophale) SiO2 
 PCOD8190592
Probable space group: I B A 2
;
_chemical_formula_sum "Si O2"
_cell_formula_units_Z 44
_cell_length_a 28.714248
_cell_length_b 7.401918
_cell_length_c 9.144550
_cell_angle_alpha 90.000000
_cell_angle_beta 90.000000
_cell_angle_gamma 90.000000
_cell_volume 1943.587313
_symmetry_space_group_name_H-M "I B A 2"
_symmetry_group_IT_number 45
_symmetry_cell_setting 'orthorhombic'
loop_
_space_group_symop_operation_xyz
x,y,z
-x,-y,z
-x,y,1/2+z
x,-y,1/2+z
1/2+x,1/2+y,1/2+z
1/2-x,1/2-y,1/2+z
1/2-x,1/2+y,z
1/2+x,1/2-y,z
loop_
_atom_site_type_symbol
_atom_site_label
_atom_site_fract_x
_atom_site_fract_y
_atom_site_fract_z
Si Si1 0.500000 0.000000 0.980280
Si Si2 0.425211 0.592797 0.196848
Si Si3 0.637959 0.482430 0.450019
Si Si4 0.293364 0.189336 0.392631
Si Si5 0.201877 0.674954 0.052814
Si Si6 0.979698 0.268186 0.227130
O O1 0.531459 0.126427 0.876443
O O2 0.465206 0.118016 0.083045
O O3 0.382417 0.618659 0.307799
O O4 0.404463 0.577344 0.035308
O O5 0.463785 0.748781 0.209826
O O6 0.451801 0.411807 0.238395
O O7 0.673153 0.639452 0.404609
O O8 0.661144 0.324431 0.546578
O O9 0.244651 0.241917 0.464121
O O10 0.285445 0.139469 0.222291
O O11 0.313564 0.014287 0.478044
#
# Coordination Sequence:
#
# PCOD8190592 Si02
#       6
#     4   8   8   8   8   8
#     4  10  20  40  68 104 124 172 240 288 332 428
#     4  11  24  46  68  96 140 192 228 288 346 433
#     4  12  26  47  68 107 144 184 244 292 352 420
#     4  12  27  47  75 103 141 188 235 293 365 428
#     4  12  27  47  75 103 141 188 235 293 365 428
#     4  10  22  44  70  96 140 186 228 280 366 402
#
# _framework density 22.638551
#
# number of rings (size 3 to 8) (size 9 to 14) (size 15 to 20)
#    0.000    0.727    3.636    3.273    5.091    2.909 
#   19.636    0.000    0.000    0.000    0.000    0.000 
#    0.000    0.000    0.000    0.000    0.000    0.000 
#
# Total GULP energy -272786.273487 kJ/mol
# GULP energy per Si atom -12399.376068 kJ/mol
# Density = 2.258702 g / cm^3
# Si number density = 22.638551 Si / 1000 Ang^3
#
#
#
# Elastic Constant Matrix: (Units=GPa)
#
#
# Indices 1 2 3 4 5 6 
#
# 1 71.6285 16.9825 9.4902 0.0000 0.0000 0.0000
# 2 16.9825 95.4486 34.6579 0.0000 0.0000 0.0000
# 3 9.4902 34.6579 149.5766 0.0000 0.0000 0.0000
# 4 0.0000 0.0000 0.0000 30.3343 0.0000 0.0000
# 5 0.0000 0.0000 0.0000 0.0000 25.2379 0.0000
# 6 0.0000 0.0000 0.0000 0.0000 0.0000 10.7196
#
#
#
# Elastic Compliance Matrix: (Units=1/GPa)
#
#
# Indices 1 2 3 4 5 6 
#
# 1 0.014593 -0.002468 -0.000354 0.000000 0.000000 0.000000
# 2 -0.002468 0.011857 -0.002591 0.000000 0.000000 0.000000
# 3 -0.000354 -0.002591 0.007308 0.000000 0.000000 0.000000
# 4 0.000000 0.000000 0.000000 0.032966 0.000000 0.000000
# 5 0.000000 0.000000 0.000000 0.000000 0.039623 0.000000
# 6 0.000000 0.000000 0.000000 0.000000 0.000000 0.093287
#
#
# Mechanical properties :
#
#
# Convention : Reuss Voigt Hill
#
# Bulk Modulus (GPa) = 43.60595 48.76831 46.18713
# Shear Modulus (GPa) = 22.92488 30.29323 26.60905
#
# Velocity S-wave (km/s) = 3.18567 3.66201 3.43211
# Velocity P-wave (km/s) = 5.73018 6.28246 6.01266
#
# Compressibility (1/GPa) = 0.02293265
#
# Stress axis : x y z
#
# Youngs Moduli (GPa) = 68.52631 84.34107 136.83116
#
# Poissons Ratio (x) = 0.20814 0.04845
# Poissons Ratio (y) = 0.16911 0.35449
# Poissons Ratio (z) = 0.02426 0.21850
#
# Static dielectric constant tensor:
#      x y z
#    x 4.476190 0.000000 0.000000 
#    y 0.000000 4.330570 0.000000 
#    z 0.000000 0.000000 4.233710 
# 
# 
# High freq. dielectric constant tensor:
#      x y z
#    x 1.870410 0.000000 0.000000 
#    y 0.000000 1.906990 0.000000 
#    z 0.000000 0.000000 1.914960 
# 
# From -- ./inp_files/2719.got.cif
#   From: 2010.03.12/outbox.cif.g09.slc.cpg/sg45_2_cif.got.tgz:2719.got - 2010.04.14 02:50:11.
