data_PCOD8190526
_publ_section_title
;
Structure prediction by ZEFSAII (Michael W. Deem and Ramdas Pophale) SiO2 
 PCOD8190526
Probable space group: I B A 2
;
_chemical_formula_sum "Si O2"
_cell_formula_units_Z 56
_cell_length_a 18.767297
_cell_length_b 9.188812
_cell_length_c 16.761807
_cell_angle_alpha 90.000000
_cell_angle_beta 90.000000
_cell_angle_gamma 90.000000
_cell_volume 2890.559602
_symmetry_space_group_name_H-M "I B A 2"
_symmetry_group_IT_number 45
_symmetry_cell_setting 'orthorhombic'
loop_
_space_group_symop_operation_xyz
x,y,z
-x,-y,z
-x,y,1/2+z
x,-y,1/2+z
1/2+x,1/2+y,1/2+z
1/2-x,1/2-y,1/2+z
1/2-x,1/2+y,z
1/2+x,1/2-y,z
loop_
_atom_site_type_symbol
_atom_site_label
_atom_site_fract_x
_atom_site_fract_y
_atom_site_fract_z
Si Si1 0.787019 0.504931 0.267480
Si Si2 0.478414 0.665227 0.397841
Si Si3 0.707627 0.930027 0.086161
Si Si4 0.109053 0.357554 0.881211
Si Si5 0.265546 0.199520 0.487023
Si Si6 0.674166 0.693054 0.839455
Si Si7 0.564161 0.091287 0.506919
O O1 0.778281 0.488450 0.173459
O O2 0.851144 0.404473 0.300155
O O3 0.713554 0.453421 0.309322
O O4 0.801514 0.673889 0.283780
O O5 0.500000 0.500000 0.416902
O O6 0.543574 0.753541 0.356991
O O7 0.410830 0.668370 0.337708
O O8 0.460648 0.746834 0.481191
O O9 0.757273 0.791106 0.068387
O O10 0.624174 0.895554 0.074418
O O11 0.732306 0.034676 0.015129
O O12 0.162199 0.264939 0.938355
O O13 0.086156 0.505810 0.925831
O O14 0.196814 0.226699 0.430860
O O15 0.500000 0.000000 0.547370
#
# Coordination Sequence:
#
# PCOD8190526 Si02
#       7
#     8   8   8   8   8   8   8
#     4  11  23  38  61  90 123 159 201 253 309 363
#     4  11  22  35  63  92 115 152 209 257 294 350
#     4  11  21  37  60  90 119 157 194 257 306 361
#     4   9  20  37  60  83 118 157 199 246 299 363
#     4  10  20  36  63  85 113 156 204 245 300 358
#     4  11  22  40  61  89 120 158 207 249 297 363
#     4   9  18  39  57  83 117 154 201 248 295 366
#
# _framework density 19.37341
#
# number of rings (size 3 to 8) (size 9 to 14) (size 15 to 20)
#    0.000    1.714    2.857    2.571    6.000    0.000 
#    2.571    0.000    0.000    0.857    0.000    0.000 
#    0.000    0.000    0.000    0.000    0.000    0.000 
#
# Total GULP energy -347160.719839 kJ/mol
# GULP energy per Si atom -12398.597137 kJ/mol
# Density = 1.932932 g / cm^3
# Si number density = 19.373410 Si / 1000 Ang^3
#
#
#
# Elastic Constant Matrix: (Units=GPa)
#
#
# Indices 1 2 3 4 5 6 
#
# 1 116.2961 39.0154 19.9094 0.0000 0.0000 0.0000
# 2 39.0154 98.8454 14.6220 0.0000 0.0000 0.0000
# 3 19.9094 14.6220 74.0102 0.0000 0.0000 0.0000
# 4 0.0000 0.0000 0.0000 26.1235 0.0000 0.0000
# 5 0.0000 0.0000 0.0000 0.0000 17.9231 0.0000
# 6 0.0000 0.0000 0.0000 0.0000 0.0000 28.3106
#
#
#
# Elastic Compliance Matrix: (Units=1/GPa)
#
#
# Indices 1 2 3 4 5 6 
#
# 1 0.010192 -0.003726 -0.002006 0.000000 0.000000 0.000000
# 2 -0.003726 0.011784 -0.001326 0.000000 0.000000 0.000000
# 3 -0.002006 -0.001326 0.014313 0.000000 0.000000 0.000000
# 4 0.000000 0.000000 0.000000 0.038280 0.000000 0.000000
# 5 0.000000 0.000000 0.000000 0.000000 0.055794 0.000000
# 6 0.000000 0.000000 0.000000 0.000000 0.000000 0.035322
#
#
# Mechanical properties :
#
#
# Convention : Reuss Voigt Hill
#
# Bulk Modulus (GPa) = 45.09811 48.47171 46.78491
# Shear Modulus (GPa) = 26.71060 28.84509 27.77785
#
# Velocity S-wave (km/s) = 3.71715 3.86281 3.79068
# Velocity P-wave (km/s) = 6.46156 6.70590 6.58487
#
# Compressibility (1/GPa) = 0.02217388
#
# Stress axis : x y z
#
# Youngs Moduli (GPa) = 98.11420 84.86282 69.86611
#
# Poissons Ratio (x) = 0.31622 0.14012
# Poissons Ratio (y) = 0.36560 0.09262
# Poissons Ratio (z) = 0.19678 0.11250
#
# Static dielectric constant tensor:
#      x y z
#    x 3.790600 0.000000 0.000000 
#    y 0.000000 3.539110 0.000000 
#    z 0.000000 0.000000 3.126940 
# 
# 
# High freq. dielectric constant tensor:
#      x y z
#    x 1.764240 0.000000 0.000000 
#    y 0.000000 1.760710 0.000000 
#    z 0.000000 0.000000 1.715640 
# 
# From -- ./inp_files/6948.got.cif
#   From: 2010.03.12/outbox.cif.g09.slc.cpg/sg45_4_cif.got.tgz:6948.got - 2010.04.14 02:50:11.
