data_PCOD8190358
_publ_section_title
;
Structure prediction by ZEFSAII (Michael W. Deem and Ramdas Pophale) SiO2 
 PCOD8190358
Probable space group: I B A 2
;
_chemical_formula_sum "Si O2"
_cell_formula_units_Z 64
_cell_length_a 5.142040
_cell_length_b 25.618296
_cell_length_c 27.803930
_cell_angle_alpha 90.000000
_cell_angle_beta 90.000000
_cell_angle_gamma 90.000000
_cell_volume 3662.620117
_symmetry_space_group_name_H-M "I B A 2"
_symmetry_group_IT_number 45
_symmetry_cell_setting 'orthorhombic'
loop_
_space_group_symop_operation_xyz
x,y,z
-x,-y,z
-x,y,1/2+z
x,-y,1/2+z
1/2+x,1/2+y,1/2+z
1/2-x,1/2-y,1/2+z
1/2-x,1/2+y,z
1/2+x,1/2-y,z
loop_
_atom_site_type_symbol
_atom_site_label
_atom_site_fract_x
_atom_site_fract_y
_atom_site_fract_z
Si Si1 0.795190 0.283080 0.743990
Si Si2 0.087235 0.945436 0.679702
Si Si3 0.798187 0.716710 0.005155
Si Si4 0.793136 0.307889 0.395181
Si Si5 0.928270 0.380260 0.679956
Si Si6 0.713771 0.307302 0.852795
Si Si7 0.928118 0.619737 0.069658
Si Si8 0.912619 0.945444 0.069965
O O1 0.500243 0.263877 0.735744
O O2 0.896716 0.326710 0.708042
O O3 0.793652 0.306466 0.797373
O O4 0.342903 0.917229 0.702446
O O5 0.162709 0.958723 0.624847
O O6 0.847384 0.907270 0.684148
O O7 0.000000 0.000000 0.705232
O O8 0.505187 0.736826 0.013310
O O9 0.896587 0.673263 0.041611
O O10 0.784249 0.692248 0.952280
O O11 0.554224 0.336602 0.367629
O O12 0.844519 0.250085 0.374123
O O13 0.056808 0.338087 0.380374
O O14 0.999741 0.366797 0.624819
O O15 0.652411 0.592731 0.065643
O O16 0.156805 0.582689 0.047231
O O17 0.000000 0.000000 0.044450
#
# Coordination Sequence:
#
# PCOD8190358 Si02
#       8
#     8   8   8   8   8   8   8   8
#     4  12  21  31  48  68  99 141 163 193 241 287
#     4   9  17  33  54  70  90 124 163 211 256 278
#     4  12  21  31  48  68  99 141 163 193 241 287
#     4  10  16  30  47  65  86 121 163 211 238 263
#     4  10  21  33  46  72 102 128 168 202 231 300
#     4  10  16  30  47  65  86 121 163 211 238 263
#     4  10  21  33  46  72 102 128 168 202 231 300
#     4   9  17  33  54  70  90 124 163 211 256 278
#
# _framework density 17.47383
#
# number of rings (size 3 to 8) (size 9 to 14) (size 15 to 20)
#    0.000    1.750    5.000    2.250    0.000    4.000 
#    0.000    0.000    0.000    0.000    0.000    0.000 
#    0.000   15.000    0.000    0.000    0.000    0.000 
#
# Total GULP energy -396429.740026 kJ/mol
# GULP energy per Si atom -12388.429376 kJ/mol
# Density = 1.743406 g / cm^3
# Si number density = 17.473830 Si / 1000 Ang^3
#
#
#
# Elastic Constant Matrix: (Units=GPa)
#
#
# Indices 1 2 3 4 5 6 
#
# 1 109.1687 9.6479 9.7133 0.0000 0.0000 0.0000
# 2 9.6479 51.3239 28.8119 0.0000 0.0000 0.0000
# 3 9.7133 28.8119 56.8286 0.0000 0.0000 0.0000
# 4 0.0000 0.0000 0.0000 -1.6105 0.0000 0.0000
# 5 0.0000 0.0000 0.0000 0.0000 21.0074 0.0000
# 6 0.0000 0.0000 0.0000 0.0000 0.0000 14.3384
#
#
#
# Elastic Compliance Matrix: (Units=1/GPa)
#
#
# Indices 1 2 3 4 5 6 
#
# 1 0.009354 -0.001203 -0.000989 0.000000 0.000000 0.000000
# 2 -0.001203 0.027391 -0.013681 0.000000 0.000000 0.000000
# 3 -0.000989 -0.013681 0.024702 0.000000 0.000000 0.000000
# 4 0.000000 0.000000 0.000000 -0.620914 0.000000 0.000000
# 5 0.000000 0.000000 0.000000 0.000000 0.047602 0.000000
# 6 0.000000 0.000000 0.000000 0.000000 0.000000 0.069743
#
#
# Mechanical properties :
#
#
# Convention : Reuss Voigt Hill
#
# Bulk Modulus (GPa) = 33.66961 34.85192 34.26077
# Shear Modulus (GPa) = -12.48520 18.02359 2.76920
#
# Velocity S-wave (km/s) = -2.67593 3.21512 1.26024
# Velocity P-wave (km/s) = 3.12457 5.81130 4.66552
#
# Compressibility (1/GPa) = 0.02970037
#
# Stress axis : x y z
#
# Youngs Moduli (GPa) = 106.90083 36.50890 40.48236
#
# Poissons Ratio (x) = 0.04393 0.04003
# Poissons Ratio (y) = 0.12864 0.55385
# Poissons Ratio (z) = 0.10570 0.49949
#
# Static dielectric constant tensor:
#      x y z
#    x 4.091020 0.000000 0.000000 
#    y 0.000000 2.997500 0.000000 
#    z 0.000000 0.000000 3.138660 
# 
# 
# High freq. dielectric constant tensor:
#      x y z
#    x 1.714850 0.000000 0.000000 
#    y 0.000000 1.632160 0.000000 
#    z 0.000000 0.000000 1.638190 
# 
# From -- ./inp_files/9463.got.cif
#   From: 2010.03.12/outbox.cif.g09.slc.cpg/sg45_5_cif.got.tgz:9463.got - 2010.04.14 02:50:11.
