data_PCOD8190854
_publ_section_title
;
Structure prediction by ZEFSAII (Michael W. Deem and Ramdas Pophale) SiO2 
 PCOD8190854
Probable space group: I B A 2
;
_chemical_formula_sum "Si O2"
_cell_formula_units_Z 48
_cell_length_a 9.414448
_cell_length_b 25.650791
_cell_length_c 8.997434
_cell_angle_alpha 90.000000
_cell_angle_beta 90.000000
_cell_angle_gamma 90.000000
_cell_volume 2172.772684
_symmetry_space_group_name_H-M "I B A 2"
_symmetry_group_IT_number 45
_symmetry_cell_setting 'orthorhombic'
loop_
_space_group_symop_operation_xyz
x,y,z
-x,-y,z
-x,y,1/2+z
x,-y,1/2+z
1/2+x,1/2+y,1/2+z
1/2-x,1/2-y,1/2+z
1/2-x,1/2+y,z
1/2+x,1/2-y,z
loop_
_atom_site_type_symbol
_atom_site_label
_atom_site_fract_x
_atom_site_fract_y
_atom_site_fract_z
Si Si1 0.921507 0.050114 0.995260
Si Si2 0.127225 0.890057 0.285521
Si Si3 0.583207 0.219536 0.132984
Si Si4 0.605873 0.954145 0.427142
Si Si5 0.934276 0.395711 0.714365
Si Si6 0.644298 0.271966 0.818059
O O1 0.773771 0.032933 0.915016
O O2 0.029485 0.070576 0.872968
O O3 0.893950 0.096732 0.111160
O O4 0.000000 0.000000 0.068616
O O5 0.294308 0.897787 0.320175
O O6 0.085161 0.830949 0.326421
O O7 0.558004 0.157749 0.120855
O O8 0.436979 0.244546 0.183604
O O9 0.693019 0.230390 0.266561
O O10 0.630611 0.242428 0.974577
O O11 0.571078 0.904826 0.319416
O O12 0.570477 0.942300 0.597040
O O13 0.500000 0.000000 0.374138
#
# Coordination Sequence:
#
# PCOD8190854 Si02
#       6
#     8   8   8   8   8   8
#     4  11  23  40  63  91 124 163 208 256 310 372
#     4  10  23  41  61  90 125 162 208 256 309 372
#     4  11  23  40  64  93 129 169 215 267 321 380
#     4  11  23  39  62  90 124 164 207 256 310 371
#     4  10  23  41  60  90 125 161 210 257 307 371
#     4  11  23  41  64  94 129 169 216 266 321 382
#
# _framework density 22.09159
#
# number of rings (size 3 to 8) (size 9 to 14) (size 15 to 20)
#    0.000    1.333    0.000    5.000    0.000   10.667 
#    0.000    0.000    0.000    0.000    0.000    0.000 
#    0.000    0.000    0.000    0.000    0.000    0.000 
#
# Total GULP energy -297589.307965 kJ/mol
# GULP energy per Si atom -12399.554499 kJ/mol
# Density = 2.204131 g / cm^3
# Si number density = 22.091590 Si / 1000 Ang^3
#
#
#
# Elastic Constant Matrix: (Units=GPa)
#
#
# Indices 1 2 3 4 5 6 
#
# 1 85.7346 53.9571 19.4776 0.0047 -0.0009 -0.0016
# 2 53.9571 117.1775 35.5691 0.0026 -0.0004 -0.0007
# 3 19.4776 35.5691 81.1873 0.0002 -0.0009 0.0000
# 4 0.0047 0.0026 0.0002 43.0219 -0.0007 0.0003
# 5 -0.0009 -0.0004 -0.0009 -0.0007 34.1893 -0.0001
# 6 -0.0016 -0.0007 0.0000 0.0003 -0.0001 34.1524
#
#
#
# Elastic Compliance Matrix: (Units=1/GPa)
#
#
# Indices 1 2 3 4 5 6 
#
# 1 0.016460 -0.007360 -0.000725 -0.000001 0.000000 0.000001
# 2 -0.007360 0.013134 -0.003988 0.000000 0.000000 0.000000
# 3 -0.000725 -0.003988 0.014238 0.000000 0.000000 0.000000
# 4 -0.000001 0.000000 0.000000 0.023244 0.000001 0.000000
# 5 0.000000 0.000000 0.000000 0.000001 0.029249 0.000000
# 6 0.000001 0.000000 0.000000 0.000000 0.000000 0.029281
#
#
# Mechanical properties :
#
#
# Convention : Reuss Voigt Hill
#
# Bulk Modulus (GPa) = 50.79463 55.78966 53.29214
# Shear Modulus (GPa) = 31.98706 33.94576 32.96641
#
# Velocity S-wave (km/s) = 3.80929 3.92419 3.86717
# Velocity P-wave (km/s) = 6.51078 6.77060 6.64196
#
# Compressibility (1/GPa) = 0.01968712
#
# Stress axis : x y z
#
# Youngs Moduli (GPa) = 60.75237 76.14057 70.23257
#
# Poissons Ratio (x) = 0.56036 0.05090
# Poissons Ratio (y) = 0.44711 0.28011
# Poissons Ratio (z) = 0.04403 0.30368
#
# Static dielectric constant tensor:
#      x y z
#    x 4.134000 0.000010 -0.000010 
#    y 0.000010 4.087600 0.000000 
#    z -0.000010 0.000000 3.649760 
# 
# 
# High freq. dielectric constant tensor:
#      x y z
#    x 1.875290 0.000000 0.000000 
#    y 0.000000 1.877290 0.000000 
#    z 0.000000 0.000000 1.864150 
# 
# From -- ./inp_files/1067.got.cif
#   From: 2010.03.12/outbox.cif.g09.slc.cpg/sg45_1_cif.got.tgz:1067.got - 2010.04.14 02:50:11.
