data_PCOD8190350
_publ_section_title
;
Structure prediction by ZEFSAII (Michael W. Deem and Ramdas Pophale) SiO2 
 PCOD8190350
Probable space group: I M M 2
;
_chemical_formula_sum "Si O2"
_cell_formula_units_Z 64
_cell_length_a 9.339583
_cell_length_b 9.502494
_cell_length_c 41.117197
_cell_angle_alpha 90.000000
_cell_angle_beta 90.000000
_cell_angle_gamma 90.000000
_cell_volume 3649.123744
_symmetry_space_group_name_H-M "I M M 2"
_symmetry_group_IT_number 44
_symmetry_cell_setting 'orthorhombic'
loop_
_space_group_symop_operation_xyz
x,y,z
-x,-y,z
-x,y,z
x,-y,z
1/2+x,1/2+y,1/2+z
1/2-x,1/2-y,1/2+z
1/2-x,1/2+y,1/2+z
1/2+x,1/2-y,1/2+z
loop_
_atom_site_type_symbol
_atom_site_label
_atom_site_fract_x
_atom_site_fract_y
_atom_site_fract_z
Si Si1 0.665973 0.663441 0.449710
Si Si2 0.665973 0.836559 0.512625
Si Si3 0.333863 0.163967 0.637248
Si Si4 0.338249 0.167320 0.887408
Si Si5 0.661751 0.667320 0.074928
Si Si6 0.666512 0.337785 0.699496
Si Si7 0.666511 0.837784 0.262839
Si Si8 0.166138 0.163967 0.825087
O O1 0.500000 0.688925 0.441476
O O2 0.697312 0.500000 0.456489
O O3 0.714676 0.750001 0.481168
O O4 0.757347 0.722196 0.419485
O O5 0.500000 0.811071 0.520859
O O6 0.757347 0.777804 0.542850
O O7 0.697308 0.000000 0.505846
O O8 0.500000 0.193331 0.629805
O O9 0.243727 0.222696 0.606820
O O10 0.280778 0.247225 0.668903
O O11 0.304928 0.000000 0.643457
O O12 0.500000 0.225760 0.887317
O O13 0.256273 0.222696 0.855515
O O14 0.335429 0.000000 0.887342
O O15 0.500000 0.725760 0.075018
O O16 0.664571 0.500000 0.074993
O O17 0.500000 0.313490 0.706231
O O18 0.702033 0.500000 0.692103
O O19 0.749999 0.283894 0.731168
O O20 0.500000 0.813478 0.256104
O O21 0.719224 0.747227 0.293432
O O22 0.702023 0.000000 0.270231
O O23 0.000000 0.193330 0.832530
O O24 0.195074 0.000000 0.818878
#
# Coordination Sequence:
#
# PCOD8190350 Si02
#       8
#     8   8   8   8   8   8   8   8
#     4   9  17  30  48  68  90 118 151 184 219 262
#     4   9  17  30  48  68  90 118 151 184 219 262
#     4   9  17  30  48  68  89 115 149 186 221 260
#     4   9  17  29  46  68  92 118 148 183 224 266
#     4   9  17  29  46  68  92 118 148 183 224 266
#     4   9  18  32  48  66  90 120 150 180 219 266
#     4   9  18  32  48  66  90 120 150 180 219 266
#     4   9  17  30  48  68  89 115 149 186 221 260
#
# _framework density 17.538457999999999
#
# number of rings (size 3 to 8) (size 9 to 14) (size 15 to 20)
#    0.000    3.000    0.000    0.750    0.000    5.000 
#    0.000    1.250    0.000    7.500    0.000    0.000 
#    0.000    0.000    0.000    0.000    0.000    0.000 
#
# Total GULP energy -396837.279474 kJ/mol
# GULP energy per Si atom -12401.164984 kJ/mol
# Density = 1.749854 g / cm^3
# Si number density = 17.538458 Si / 1000 Ang^3
#
#
#
# Elastic Constant Matrix: (Units=GPa)
#
#
# Indices 1 2 3 4 5 6 
#
# 1 92.0000 33.1722 93.9478 0.0000 0.0000 0.0000
# 2 33.1722 41.6745 60.2805 0.0000 0.0000 0.0000
# 3 93.9478 60.2805 202.5010 0.0000 0.0000 0.0000
# 4 0.0000 0.0000 0.0000 31.2348 0.0000 0.0000
# 5 0.0000 0.0000 0.0000 0.0000 36.3620 0.0000
# 6 0.0000 0.0000 0.0000 0.0000 0.0000 15.2130
#
#
#
# Elastic Compliance Matrix: (Units=1/GPa)
#
#
# Indices 1 2 3 4 5 6 
#
# 1 0.021154 -0.004641 -0.008433 0.000000 0.000000 0.000000
# 2 -0.004641 0.043158 -0.010694 0.000000 0.000000 0.000000
# 3 -0.008433 -0.010694 0.012034 0.000000 0.000000 0.000000
# 4 0.000000 0.000000 0.000000 0.032016 0.000000 0.000000
# 5 0.000000 0.000000 0.000000 0.000000 0.027501 0.000000
# 6 0.000000 0.000000 0.000000 0.000000 0.000000 0.065733
#
#
# Mechanical properties :
#
#
# Convention : Reuss Voigt Hill
#
# Bulk Modulus (GPa) = 34.70912 78.99738 56.85325
# Shear Modulus (GPa) = 19.32472 26.48029 22.90251
#
# Velocity S-wave (km/s) = 3.32301 3.88988 3.61757
# Velocity P-wave (km/s) = 5.87847 8.08177 7.06652
#
# Compressibility (1/GPa) = 0.02881087
#
# Stress axis : x y z
#
# Youngs Moduli (GPa) = 47.27208 23.17045 83.09771
#
# Poissons Ratio (x) = 0.10753 0.70074
# Poissons Ratio (y) = 0.21938 0.88868
# Poissons Ratio (z) = 0.39863 0.24779
#
# Static dielectric constant tensor:
#      x y z
#    x 3.299960 0.000000 0.000000 
#    y 0.000000 2.982730 0.000000 
#    z 0.000000 0.000000 3.425260 
# 
# 
# High freq. dielectric constant tensor:
#      x y z
#    x 1.675900 0.000000 0.000000 
#    y 0.000000 1.644300 0.000000 
#    z 0.000000 0.000000 1.689110 
# 
# From -- ./inp_files/27192.got.cif
#   From: 2010.03.12/outbox.cif.g09.slc.cpg/sg44_14_cif.got.tgz:27192.got - 2010.04.14 02:36:11.
