data_PCOD8190924
_publ_section_title
;
Structure prediction by ZEFSAII (Michael W. Deem and Ramdas Pophale) SiO2 
 PCOD8190924
Probable space group: I B A 2
;
_chemical_formula_sum "Si O2"
_cell_formula_units_Z 48
_cell_length_a 10.961082
_cell_length_b 22.420315
_cell_length_c 8.739394
_cell_angle_alpha 90.000000
_cell_angle_beta 90.000000
_cell_angle_gamma 90.000000
_cell_volume 2147.714039
_symmetry_space_group_name_H-M "I B A 2"
_symmetry_group_IT_number 45
_symmetry_cell_setting 'orthorhombic'
loop_
_space_group_symop_operation_xyz
x,y,z
-x,-y,z
-x,y,1/2+z
x,-y,1/2+z
1/2+x,1/2+y,1/2+z
1/2-x,1/2-y,1/2+z
1/2-x,1/2+y,z
1/2+x,1/2-y,z
loop_
_atom_site_type_symbol
_atom_site_label
_atom_site_fract_x
_atom_site_fract_y
_atom_site_fract_z
Si Si1 0.920747 0.444237 0.989270
Si Si2 0.097608 0.331444 0.016439
Si Si3 0.122850 0.173927 0.505089
Si Si4 0.731989 0.006192 0.747507
Si Si5 0.896296 0.953941 0.505671
Si Si6 0.998352 0.250333 0.263987
O O1 0.861194 0.457214 0.821958
O O2 0.000000 0.500000 0.037410
O O3 0.003841 0.385322 0.980817
O O4 0.823455 0.444512 0.129168
O O5 0.238381 0.349805 0.016539
O O6 0.086793 0.278920 0.892678
O O7 0.069147 0.303765 0.181550
O O8 0.045326 0.112390 0.511383
O O9 0.088902 0.215243 0.647855
O O10 0.096502 0.206967 0.344947
O O11 0.840536 0.969324 0.670338
O O12 0.786892 0.045475 0.883226
O O13 0.000000 0.000000 0.457850
#
# Coordination Sequence:
#
# PCOD8190924 Si02
#       6
#     8   8   8   8   8   8
#     4  11  24  40  68 104 136 171 215 279 353 402
#     4  11  24  45  74  97 137 176 232 282 346 413
#     4  11  25  46  69  97 139 178 230 286 335 410
#     4  10  24  44  64 108 138 171 221 280 352 404
#     4  11  25  43  71 100 135 184 226 273 343 409
#     4  10  26  46  68 100 134 182 234 280 340 408
#
# _framework density 22.349343999999999
#
# number of rings (size 3 to 8) (size 9 to 14) (size 15 to 20)
#    0.000    1.333    0.000    4.000   14.000    0.000 
#    0.000    0.000    0.000    0.000    0.000    0.000 
#    0.000    0.000    0.000    0.000    0.000    0.000 
#
# Total GULP energy -297570.671580 kJ/mol
# GULP energy per Si atom -12398.777983 kJ/mol
# Density = 2.229848 g / cm^3
# Si number density = 22.349344 Si / 1000 Ang^3
#
#
#
# Elastic Constant Matrix: (Units=GPa)
#
#
# Indices 1 2 3 4 5 6 
#
# 1 93.3009 34.8820 28.4898 -0.0001 -0.0001 0.0000
# 2 34.8820 127.9809 22.0314 -0.0001 0.0000 -0.0001
# 3 28.4898 22.0314 102.5364 0.0044 -0.0029 0.0005
# 4 -0.0001 -0.0001 0.0044 23.4497 -0.0008 0.0002
# 5 -0.0001 0.0000 -0.0029 -0.0008 28.2978 -0.0001
# 6 0.0000 -0.0001 0.0005 0.0002 -0.0001 37.1690
#
#
#
# Elastic Compliance Matrix: (Units=1/GPa)
#
#
# Indices 1 2 3 4 5 6 
#
# 1 0.012711 -0.002966 -0.002894 0.000001 0.000000 0.000000
# 2 -0.002966 0.008806 -0.001068 0.000000 0.000000 0.000000
# 3 -0.002894 -0.001068 0.010786 -0.000002 0.000001 0.000000
# 4 0.000001 0.000000 -0.000002 0.042644 0.000001 0.000000
# 5 0.000000 0.000000 0.000001 0.000001 0.035338 0.000000
# 6 0.000000 0.000000 0.000000 0.000000 0.000000 0.026904
#
#
# Mechanical properties :
#
#
# Convention : Reuss Voigt Hill
#
# Bulk Modulus (GPa) = 54.21202 54.95830 54.58516
# Shear Modulus (GPa) = 31.80750 33.67765 32.74257
#
# Velocity S-wave (km/s) = 3.77662 3.88606 3.83173
# Velocity P-wave (km/s) = 6.58228 6.69173 6.63723
#
# Compressibility (1/GPa) = 0.01844609
#
# Stress axis : x y z
#
# Youngs Moduli (GPa) = 78.67356 113.55964 92.71024
#
# Poissons Ratio (x) = 0.33683 0.26834
# Poissons Ratio (y) = 0.23336 0.09901
# Poissons Ratio (z) = 0.22771 0.12127
#
# Static dielectric constant tensor:
#      x y z
#    x 4.005040 0.000000 0.000000 
#    y 0.000000 4.080210 0.000000 
#    z 0.000000 0.000000 4.179540 
# 
# 
# High freq. dielectric constant tensor:
#      x y z
#    x 1.871790 0.000000 0.000000 
#    y 0.000000 1.881550 0.000000 
#    z 0.000000 0.000000 1.899180 
# 
# From -- ./inp_files/1354.got.cif
#   From: 2010.03.12/outbox.cif.g09.slc.cpg/sg45_1_cif.got.tgz:1354.got - 2010.04.14 02:50:11.
