data_PCOD8190583
_publ_section_title
;
Structure prediction by ZEFSAII (Michael W. Deem and Ramdas Pophale) SiO2 
 PCOD8190583
Probable space group: I B A 2
;
_chemical_formula_sum "Si O2"
_cell_formula_units_Z 64
_cell_length_a 14.675189
_cell_length_b 13.081680
_cell_length_c 16.957810
_cell_angle_alpha 90.000000
_cell_angle_beta 90.000000
_cell_angle_gamma 90.000000
_cell_volume 3255.494677
_symmetry_space_group_name_H-M "I B A 2"
_symmetry_group_IT_number 45
_symmetry_cell_setting 'orthorhombic'
loop_
_space_group_symop_operation_xyz
x,y,z
-x,-y,z
-x,y,1/2+z
x,-y,1/2+z
1/2+x,1/2+y,1/2+z
1/2-x,1/2-y,1/2+z
1/2-x,1/2+y,z
1/2+x,1/2-y,z
loop_
_atom_site_type_symbol
_atom_site_label
_atom_site_fract_x
_atom_site_fract_y
_atom_site_fract_z
Si Si1 0.336114 0.394739 0.513180
Si Si2 0.555153 0.598005 0.664041
Si Si3 0.096668 0.283334 0.908445
Si Si4 0.939816 0.596968 0.477042
Si Si5 0.284357 0.502473 0.735709
Si Si6 0.783064 0.481582 0.410564
Si Si7 0.175012 0.615915 0.122981
Si Si8 0.104496 0.212258 0.731651
O O1 0.422931 0.409588 0.570581
O O2 0.362209 0.318396 0.444380
O O3 0.302578 0.501126 0.470975
O O4 0.255254 0.347140 0.565204
O O5 0.500000 0.500000 0.690500
O O6 0.647274 0.591821 0.715762
O O7 0.492953 0.694683 0.688126
O O8 0.166680 0.375041 0.928107
O O9 0.083691 0.259660 0.816734
O O10 0.997131 0.305142 0.946965
O O11 0.848588 0.579916 0.425164
O O12 0.915662 0.600874 0.570165
O O13 0.000000 0.500000 0.459357
O O14 0.247081 0.482574 0.821413
O O15 0.203324 0.489018 0.670064
O O16 0.332111 0.612085 0.730893
O O17 0.160897 0.704015 0.185596
#
# Coordination Sequence:
#
# PCOD8190583 Si02
#       8
#     8   8   8   8   8   8   8   8
#     4  10  21  39  61  88 117 156 200 247 298 356
#     4   9  21  39  58  85 123 154 194 244 300 362
#     4  11  21  38  61  90 123 156 199 252 301 358
#     4   9  21  39  58  85 123 154 194 244 300 362
#     4  10  20  40  61  83 120 157 199 244 291 352
#     4  10  20  40  61  83 120 157 199 244 291 352
#     4  10  21  39  61  88 117 156 200 247 298 356
#     4  11  21  38  61  90 123 156 199 252 301 358
#
# _framework density 19.65907
#
# number of rings (size 3 to 8) (size 9 to 14) (size 15 to 20)
#    0.000    2.000    2.500    0.750    0.000    5.000 
#   13.500    0.000    0.000    0.000    0.000    0.000 
#    0.000    0.000    0.000    0.000    0.000    0.000 
#
# Total GULP energy -396555.483591 kJ/mol
# GULP energy per Si atom -12392.358862 kJ/mol
# Density = 1.961433 g / cm^3
# Si number density = 19.659070 Si / 1000 Ang^3
#
#
#
# Elastic Constant Matrix: (Units=GPa)
#
#
# Indices 1 2 3 4 5 6 
#
# 1 62.1487 23.0241 36.3097 0.0000 0.0000 0.0000
# 2 23.0241 55.2124 12.8571 0.0000 0.0000 0.0000
# 3 36.3097 12.8571 102.3110 0.0000 0.0000 0.0000
# 4 0.0000 0.0000 0.0000 32.3510 0.0000 0.0000
# 5 0.0000 0.0000 0.0000 0.0000 46.1876 0.0000
# 6 0.0000 0.0000 0.0000 0.0000 0.0000 25.8080
#
#
#
# Elastic Compliance Matrix: (Units=1/GPa)
#
#
# Indices 1 2 3 4 5 6 
#
# 1 0.023308 -0.008028 -0.007263 0.000000 0.000000 0.000000
# 2 -0.008028 0.021423 0.000157 0.000000 0.000000 0.000000
# 3 -0.007263 0.000157 0.012332 0.000000 0.000000 0.000000
# 4 0.000000 0.000000 0.000000 0.030911 0.000000 0.000000
# 5 0.000000 0.000000 0.000000 0.000000 0.021651 0.000000
# 6 0.000000 0.000000 0.000000 0.000000 0.000000 0.038748
#
#
# Mechanical properties :
#
#
# Convention : Reuss Voigt Hill
#
# Bulk Modulus (GPa) = 37.32100 40.45043 38.88571
# Shear Modulus (GPa) = 26.65631 30.70140 28.67885
#
# Velocity S-wave (km/s) = 3.68629 3.95611 3.82358
# Velocity P-wave (km/s) = 6.09456 6.44115 6.27025
#
# Compressibility (1/GPa) = 0.02679457
#
# Stress axis : x y z
#
# Youngs Moduli (GPa) = 42.90368 46.67838 81.08984
#
# Poissons Ratio (x) = 0.37475 0.58896
# Poissons Ratio (y) = 0.34445 -0.01273
# Poissons Ratio (z) = 0.31161 -0.00733
#
# Static dielectric constant tensor:
#      x y z
#    x 4.077080 0.000000 0.000000 
#    y 0.000000 3.516120 0.000000 
#    z 0.000000 0.000000 3.706230 
# 
# 
# High freq. dielectric constant tensor:
#      x y z
#    x 1.772250 0.000000 0.000000 
#    y 0.000000 1.743550 0.000000 
#    z 0.000000 0.000000 1.779000 
# 
# From -- ./inp_files/4500.got.cif
#   From: 2010.03.12/outbox.cif.g09.slc.cpg/sg45_3_cif.got.tgz:4500.got - 2010.04.14 02:50:11.
