data_PCOD8190518
_publ_section_title
;
Structure prediction by ZEFSAII (Michael W. Deem and Ramdas Pophale) SiO2 
 PCOD8190518
Probable space group: I B A 2
;
_chemical_formula_sum "Si O2"
_cell_formula_units_Z 48
_cell_length_a 14.349581
_cell_length_b 9.071591
_cell_length_c 17.513336
_cell_angle_alpha 90.000000
_cell_angle_beta 90.000000
_cell_angle_gamma 90.000000
_cell_volume 2279.772767
_symmetry_space_group_name_H-M "I B A 2"
_symmetry_group_IT_number 45
_symmetry_cell_setting 'orthorhombic'
loop_
_space_group_symop_operation_xyz
x,y,z
-x,-y,z
-x,y,1/2+z
x,-y,1/2+z
1/2+x,1/2+y,1/2+z
1/2-x,1/2-y,1/2+z
1/2-x,1/2+y,z
1/2+x,1/2-y,z
loop_
_atom_site_type_symbol
_atom_site_label
_atom_site_fract_x
_atom_site_fract_y
_atom_site_fract_z
Si Si1 0.285511 0.474646 0.403980
Si Si2 0.142729 0.272422 0.654899
Si Si3 0.142729 0.727578 0.974432
Si Si4 0.951483 0.842975 0.148872
Si Si5 0.951483 0.842975 0.980459
Si Si6 0.785511 0.025354 0.725351
O O1 0.186310 0.413172 0.432148
O O2 0.305308 0.624677 0.447991
O O3 0.364968 0.350939 0.422160
O O4 0.282983 0.500000 0.314666
O O5 0.155873 0.287115 0.564666
O O6 0.186310 0.413172 0.697183
O O7 0.032430 0.269558 0.676567
O O8 0.194692 0.124677 0.681340
O O9 0.032430 0.730442 0.952764
O O10 0.864968 0.850939 0.207171
O O11 0.913845 0.797980 0.064666
O O12 0.000000 0.000000 0.142934
O O13 0.000000 0.000000 0.986397
#
# Coordination Sequence:
#
# PCOD8190518 Si02
#       6
#     8   8   8   8   8   8
#     4  11  21  35  56  86 116 146 191 245 298 340
#     4  10  20  36  58  82 113 155 197 235 282 349
#     4  10  20  36  58  82 113 155 197 235 282 349
#     4   8  16  32  54  78 106 147 191 224 270 344
#     4   8  16  32  54  78 106 147 191 224 270 344
#     4  11  21  35  56  86 116 146 191 245 298 340
#
# _framework density 21.054729999999999
#
# number of rings (size 3 to 8) (size 9 to 14) (size 15 to 20)
#    0.000    2.333    0.000    6.000    0.000    6.000 
#    0.000    1.667    0.000    8.000    0.000    0.000 
#    0.000    0.000    0.000    0.000    0.000    0.000 
#
# Total GULP energy -297508.020345 kJ/mol
# GULP energy per Si atom -12396.167514 kJ/mol
# Density = 2.100681 g / cm^3
# Si number density = 21.054730 Si / 1000 Ang^3
#
#
#
# Elastic Constant Matrix: (Units=GPa)
#
#
# Indices 1 2 3 4 5 6 
#
# 1 47.8310 6.5370 60.4851 0.0000 0.0000 0.0000
# 2 6.5370 29.3852 27.9356 0.0000 0.0000 0.0000
# 3 60.4851 27.9356 151.4294 0.0000 0.0000 0.0000
# 4 0.0000 0.0000 0.0000 10.1854 0.0000 0.0000
# 5 0.0000 0.0000 0.0000 0.0000 48.3734 0.0000
# 6 0.0000 0.0000 0.0000 0.0000 0.0000 40.5100
#
#
#
# Elastic Compliance Matrix: (Units=1/GPa)
#
#
# Indices 1 2 3 4 5 6 
#
# 1 0.043878 0.008368 -0.019070 0.000000 0.000000 0.000000
# 2 0.008368 0.042864 -0.011250 0.000000 0.000000 0.000000
# 3 -0.019070 -0.011250 0.016296 0.000000 0.000000 0.000000
# 4 0.000000 0.000000 0.000000 0.098180 0.000000 0.000000
# 5 0.000000 0.000000 0.000000 0.000000 0.020673 0.000000
# 6 0.000000 0.000000 0.000000 0.000000 0.000000 0.024685
#
#
# Mechanical properties :
#
#
# Convention : Reuss Voigt Hill
#
# Bulk Modulus (GPa) = 16.91044 46.50679 31.70862
# Shear Modulus (GPa) = 16.11906 28.72629 22.42268
#
# Velocity S-wave (km/s) = 2.76991 3.69774 3.26693
# Velocity P-wave (km/s) = 4.27539 6.35354 5.41509
#
# Compressibility (1/GPa) = 0.05913505
#
# Stress axis : x y z
#
# Youngs Moduli (GPa) = 22.79024 23.32950 61.36386
#
# Poissons Ratio (x) = -0.19522 1.17021
# Poissons Ratio (y) = -0.19071 0.69035
# Poissons Ratio (z) = 0.43461 0.26246
#
# Static dielectric constant tensor:
#      x y z
#    x 4.381160 0.000000 0.000000 
#    y 0.000000 3.601580 0.000000 
#    z 0.000000 0.000000 3.767370 
# 
# 
# High freq. dielectric constant tensor:
#      x y z
#    x 1.831770 0.000000 0.000000 
#    y 0.000000 1.794080 0.000000 
#    z 0.000000 0.000000 1.818870 
# 
# From -- ./inp_files/7916.got.cif
#   From: 2010.03.12/outbox.cif.g09.slc.cpg/sg45_4_cif.got.tgz:7916.got - 2010.04.14 02:50:11.
