data_PCOD8190299
_publ_section_title
;
Structure prediction by ZEFSAII (Michael W. Deem and Ramdas Pophale) SiO2 
 PCOD8190299
Probable space group: I M M 2
;
_chemical_formula_sum "Si O2"
_cell_formula_units_Z 56
_cell_length_a 15.417293
_cell_length_b 14.422952
_cell_length_c 11.714002
_cell_angle_alpha 90.000000
_cell_angle_beta 90.000000
_cell_angle_gamma 90.000000
_cell_volume 2604.759185
_symmetry_space_group_name_H-M "I M M 2"
_symmetry_group_IT_number 44
_symmetry_cell_setting 'orthorhombic'
loop_
_space_group_symop_operation_xyz
x,y,z
-x,-y,z
-x,y,z
x,-y,z
1/2+x,1/2+y,1/2+z
1/2-x,1/2-y,1/2+z
1/2-x,1/2+y,1/2+z
1/2+x,1/2-y,1/2+z
loop_
_atom_site_type_symbol
_atom_site_label
_atom_site_fract_x
_atom_site_fract_y
_atom_site_fract_z
Si Si1 0.398520 0.263416 0.796650
Si Si2 0.898520 0.736584 0.824406
Si Si3 0.195874 0.894225 0.451433
Si Si4 0.676495 0.750000 0.560528
Si Si5 0.600242 0.400168 0.170229
Si Si6 0.195874 0.605775 0.669623
Si Si7 0.600242 0.900169 0.950826
O O1 0.500000 0.286348 0.816501
O O2 0.336555 0.351528 0.829575
O O3 0.385099 0.227600 0.668088
O O4 0.359086 0.183871 0.879268
O O5 0.859086 0.816129 0.741787
O O6 0.836555 0.648472 0.791481
O O7 0.000000 0.713651 0.804554
O O8 0.885098 0.772401 0.952967
O O9 0.269270 0.839597 0.522129
O O10 0.112691 0.887334 0.534765
O O11 0.225987 0.000000 0.429880
O O12 0.730730 0.660404 0.598927
O O13 0.500000 0.400210 0.199254
O O14 0.640899 0.500000 0.207477
O O15 0.225987 0.500000 0.691176
O O16 0.112692 0.612667 0.586290
O O17 0.500000 0.900212 0.921802
O O18 0.640899 0.000000 0.913581
#
# Coordination Sequence:
#
# PCOD8190299 Si02
#       7
#     8   8   8   8   8   8   8
#     4  11  23  41  63  89 125 168 210 254 308 377
#     4  11  23  41  63  89 125 168 210 254 308 377
#     4  11  23  40  65  94 125 161 208 263 317 370
#     4  12  25  40  59  92 130 166 206 254 317 378
#     4   9  18  35  62  93 120 152 200 255 308 364
#     4  11  23  40  65  94 125 161 208 263 317 370
#     4   9  18  35  62  93 120 152 200 255 308 364
#
# _framework density 21.499109000000001
#
# number of rings (size 3 to 8) (size 9 to 14) (size 15 to 20)
#    0.000    1.429    2.857    2.143    0.000    7.429 
#    0.000    2.857    0.000    5.143    0.000    0.000 
#    0.000    0.000    0.000    0.000    0.000    0.000 
#
# Total GULP energy -347026.307560 kJ/mol
# GULP energy per Si atom -12393.796699 kJ/mol
# Density = 2.145018 g / cm^3
# Si number density = 21.499109 Si / 1000 Ang^3
#
#
#
# Elastic Constant Matrix: (Units=GPa)
#
#
# Indices 1 2 3 4 5 6 
#
# 1 54.3935 25.0089 8.6311 0.0000 0.0000 0.0000
# 2 25.0089 119.1506 38.1232 0.0000 0.0000 0.0000
# 3 8.6311 38.1232 126.9674 0.0000 0.0000 0.0000
# 4 0.0000 0.0000 0.0000 14.9698 0.0000 0.0000
# 5 0.0000 0.0000 0.0000 0.0000 34.6847 0.0000
# 6 0.0000 0.0000 0.0000 0.0000 0.0000 17.0349
#
#
#
# Elastic Compliance Matrix: (Units=1/GPa)
#
#
# Indices 1 2 3 4 5 6 
#
# 1 0.020350 -0.004236 -0.000112 0.000000 0.000000 0.000000
# 2 -0.004236 0.010166 -0.002765 0.000000 0.000000 0.000000
# 3 -0.000112 -0.002765 0.008714 0.000000 0.000000 0.000000
# 4 0.000000 0.000000 0.000000 0.066801 0.000000 0.000000
# 5 0.000000 0.000000 0.000000 0.000000 0.028831 0.000000
# 6 0.000000 0.000000 0.000000 0.000000 0.000000 0.058703
#
#
# Mechanical properties :
#
#
# Convention : Reuss Voigt Hill
#
# Bulk Modulus (GPa) = 39.99005 49.33755 44.66380
# Shear Modulus (GPa) = 23.13486 28.58775 25.86131
#
# Velocity S-wave (km/s) = 3.28393 3.65049 3.47205
# Velocity P-wave (km/s) = 5.74631 6.38487 6.07399
#
# Compressibility (1/GPa) = 0.02500622
#
# Stress axis : x y z
#
# Youngs Moduli (GPa) = 49.14083 98.36406 114.76145
#
# Poissons Ratio (x) = 0.41663 0.01281
# Poissons Ratio (y) = 0.20814 0.31727
# Poissons Ratio (z) = 0.00548 0.27194
#
# Static dielectric constant tensor:
#      x y z
#    x 3.668700 0.000000 0.000000 
#    y 0.000000 4.256100 0.000000 
#    z 0.000000 0.000000 4.081100 
# 
# 
# High freq. dielectric constant tensor:
#      x y z
#    x 1.831250 0.000000 0.000000 
#    y 0.000000 1.848010 0.000000 
#    z 0.000000 0.000000 1.849150 
# 
# From -- ./inp_files/13228.got.cif
#   From: 2010.03.12/outbox.cif.g09.slc.cpg/sg44_7_cif.got.tgz:13228.got - 2010.04.14 02:36:11.
