data_PCOD8190972
_publ_section_title
;
Structure prediction by ZEFSAII (Michael W. Deem and Ramdas Pophale) SiO2 
 PCOD8190972
Probable space group: I B A 2
;
_chemical_formula_sum "Si O2"
_cell_formula_units_Z 56
_cell_length_a 14.851452
_cell_length_b 10.914767
_cell_length_c 15.022252
_cell_angle_alpha 90.000000
_cell_angle_beta 90.000000
_cell_angle_gamma 90.000000
_cell_volume 2435.109125
_symmetry_space_group_name_H-M "I B A 2"
_symmetry_group_IT_number 45
_symmetry_cell_setting 'orthorhombic'
loop_
_space_group_symop_operation_xyz
x,y,z
-x,-y,z
-x,y,1/2+z
x,-y,1/2+z
1/2+x,1/2+y,1/2+z
1/2-x,1/2-y,1/2+z
1/2-x,1/2+y,z
1/2+x,1/2-y,z
loop_
_atom_site_type_symbol
_atom_site_label
_atom_site_fract_x
_atom_site_fract_y
_atom_site_fract_z
Si Si1 0.934101 0.900848 0.052400
Si Si2 0.488278 0.863157 0.293510
Si Si3 0.809744 0.068075 0.149133
Si Si4 0.929040 0.703440 0.612692
Si Si5 0.216053 0.362406 0.324273
Si Si6 0.368635 0.762199 0.912772
Si Si7 0.830937 0.494986 0.000172
O O1 0.986203 0.779789 0.080249
O O2 0.888260 0.965561 0.138964
O O3 0.865728 0.859218 0.974922
O O4 0.000000 0.000000 0.007763
O O5 0.536231 0.870361 0.197919
O O6 0.383625 0.821646 0.291920
O O7 0.542602 0.762767 0.350801
O O8 0.500000 0.000000 0.334590
O O9 0.845393 0.206093 0.133238
O O10 0.763816 0.060949 0.245368
O O11 0.741203 0.029508 0.073498
O O12 0.900083 0.606273 0.537557
O O13 0.277749 0.244917 0.352059
O O14 0.212098 0.450243 0.408551
O O15 0.378973 0.878771 0.976227
#
# Coordination Sequence:
#
# PCOD8190972 Si02
#       7
#     8   8   8   8   8   8   8
#     4  10  25  48  72 107 150 199 251 307 388 459
#     4  12  26  48  75 114 151 195 257 319 379 453
#     4  11  25  49  76 109 149 201 252 310 381 459
#     4  11  26  47  74 111 151 199 251 312 385 449
#     4  12  26  48  76 113 151 203 251 321 380 454
#     4  12  26  50  75 111 152 198 256 316 385 455
#     4  12  26  46  77 109 149 196 257 310 381 447
#
# _framework density 22.996915000000001
#
# number of rings (size 3 to 8) (size 9 to 14) (size 15 to 20)
#    0.000    0.571    4.286    2.571    4.000    2.286 
#    2.571    0.000    0.000    0.000    0.000    0.000 
#    0.000    0.000    0.000    0.000    0.000    0.000 
#
# Total GULP energy -347112.417303 kJ/mol
# GULP energy per Si atom -12396.872047 kJ/mol
# Density = 2.294457 g / cm^3
# Si number density = 22.996915 Si / 1000 Ang^3
#
#
#
# Elastic Constant Matrix: (Units=GPa)
#
#
# Indices 1 2 3 4 5 6 
#
# 1 135.0954 64.0177 54.0012 0.0000 0.0000 0.0000
# 2 64.0177 115.4872 63.0048 0.0000 0.0000 0.0000
# 3 54.0012 63.0048 151.2562 0.0000 0.0000 0.0000
# 4 0.0000 0.0000 0.0000 34.4791 0.0000 0.0000
# 5 0.0000 0.0000 0.0000 0.0000 34.9544 0.0000
# 6 0.0000 0.0000 0.0000 0.0000 0.0000 40.7868
#
#
#
# Elastic Compliance Matrix: (Units=1/GPa)
#
#
# Indices 1 2 3 4 5 6 
#
# 1 0.010363 -0.004822 -0.001691 0.000000 0.000000 0.000000
# 2 -0.004822 0.013449 -0.003881 0.000000 0.000000 0.000000
# 3 -0.001691 -0.003881 0.008832 0.000000 0.000000 0.000000
# 4 0.000000 0.000000 0.000000 0.029003 0.000000 0.000000
# 5 0.000000 0.000000 0.000000 0.000000 0.028609 0.000000
# 6 0.000000 0.000000 0.000000 0.000000 0.000000 0.024518
#
#
# Mechanical properties :
#
#
# Convention : Reuss Voigt Hill
#
# Bulk Modulus (GPa) = 84.34452 84.87625 84.61039
# Shear Modulus (GPa) = 35.83900 36.76506 36.30203
#
# Velocity S-wave (km/s) = 3.95197 4.00271 3.97742
# Velocity P-wave (km/s) = 7.58816 7.63872 7.61348
#
# Compressibility (1/GPa) = 0.01185613
#
# Stress axis : x y z
#
# Youngs Moduli (GPa) = 96.49537 74.35528 113.23035
#
# Poissons Ratio (x) = 0.35853 0.19151
# Poissons Ratio (y) = 0.46529 0.43940
# Poissons Ratio (z) = 0.16320 0.28854
#
# Static dielectric constant tensor:
#      x y z
#    x 4.377970 0.000000 0.000000 
#    y 0.000000 4.203570 0.000000 
#    z 0.000000 0.000000 4.274330 
# 
# 
# High freq. dielectric constant tensor:
#      x y z
#    x 1.922310 0.000000 0.000000 
#    y 0.000000 1.903930 0.000000 
#    z 0.000000 0.000000 1.912820 
# 
# From -- ./inp_files/6526.got.cif
#   From: 2010.03.12/outbox.cif.g09.slc.cpg/sg45_4_cif.got.tgz:6526.got - 2010.04.14 02:50:11.
