data_PCOD8190558
_publ_section_title
;
Structure prediction by ZEFSAII (Michael W. Deem and Ramdas Pophale) SiO2 
 PCOD8190558
Probable space group: I B A 2
;
_chemical_formula_sum "Si O2"
_cell_formula_units_Z 40
_cell_length_a 9.256579
_cell_length_b 13.023339
_cell_length_c 15.072126
_cell_angle_alpha 90.000000
_cell_angle_beta 90.000000
_cell_angle_gamma 90.000000
_cell_volume 1816.968397
_symmetry_space_group_name_H-M "I B A 2"
_symmetry_group_IT_number 45
_symmetry_cell_setting 'orthorhombic'
loop_
_space_group_symop_operation_xyz
x,y,z
-x,-y,z
-x,y,1/2+z
x,-y,1/2+z
1/2+x,1/2+y,1/2+z
1/2-x,1/2-y,1/2+z
1/2-x,1/2+y,z
1/2+x,1/2-y,z
loop_
_atom_site_type_symbol
_atom_site_label
_atom_site_fract_x
_atom_site_fract_y
_atom_site_fract_z
Si Si1 0.260877 0.861255 0.393750
Si Si2 0.239146 0.361245 0.198595
Si Si3 0.450222 0.317659 0.956360
Si Si4 0.780798 0.999991 0.546168
Si Si5 0.049806 0.817669 0.635990
O O1 0.297782 0.906875 0.296169
O O2 0.339583 0.751942 0.402263
O O3 0.088870 0.843847 0.397013
O O4 0.313428 0.937359 0.473012
O O5 0.186584 0.437334 0.119325
O O6 0.160464 0.251919 0.190085
O O7 0.411160 0.343857 0.195341
O O8 0.376808 0.423267 0.987591
O O9 0.500011 0.258132 0.046178
O O10 0.876797 0.076723 0.604745
#
# Coordination Sequence:
#
# PCOD8190558 Si02
#       5
#     8   8   8   8   8
#     4  11  22  37  60  87 115 150 191 236 284 335
#     4  11  22  37  60  87 115 150 191 236 284 335
#     4  10  20  38  60  83 115 150 188 235 284 336
#     4  10  21  38  61  86 113 152 195 234 279 336
#     4  10  20  38  60  83 115 150 188 235 284 336
#
# _framework density 22.014693000000001
#
# number of rings (size 3 to 8) (size 9 to 14) (size 15 to 20)
#    0.000    1.600    0.000   11.400    0.000    4.800 
#    0.000    9.000    0.000   12.000    0.000    0.000 
#    0.000    0.000    0.000    0.000    0.000    0.000 
#
# Total GULP energy -247801.122963 kJ/mol
# GULP energy per Si atom -12390.056148 kJ/mol
# Density = 2.196459 g / cm^3
# Si number density = 22.014693 Si / 1000 Ang^3
#
#
#
# Elastic Constant Matrix: (Units=GPa)
#
#
# Indices 1 2 3 4 5 6 
#
# 1 15.7462 24.3497 14.4228 0.0000 0.0000 0.0000
# 2 24.3497 106.7465 59.6812 0.0000 0.0000 0.0000
# 3 14.4228 59.6812 154.2956 0.0000 0.0000 0.0000
# 4 0.0000 0.0000 0.0000 29.4400 0.0000 0.0000
# 5 0.0000 0.0000 0.0000 0.0000 17.4730 0.0000
# 6 0.0000 0.0000 0.0000 0.0000 0.0000 21.3665
#
#
#
# Elastic Compliance Matrix: (Units=1/GPa)
#
#
# Indices 1 2 3 4 5 6 
#
# 1 0.098170 -0.022026 -0.000657 0.000000 0.000000 0.000000
# 2 -0.022026 0.016895 -0.004476 0.000000 0.000000 0.000000
# 3 -0.000657 -0.004476 0.008274 0.000000 0.000000 0.000000
# 4 0.000000 0.000000 0.000000 0.033967 0.000000 0.000000
# 5 0.000000 0.000000 0.000000 0.000000 0.057231 0.000000
# 6 0.000000 0.000000 0.000000 0.000000 0.000000 0.046802
#
#
# Mechanical properties :
#
#
# Convention : Reuss Voigt Hill
#
# Bulk Modulus (GPa) = 14.48840 52.63287 33.56063
# Shear Modulus (GPa) = 14.76389 25.54488 20.15438
#
# Velocity S-wave (km/s) = 2.59248 3.41010 3.02900
# Velocity P-wave (km/s) = 3.94421 6.28211 5.24508
#
# Compressibility (1/GPa) = 0.06902074
#
# Stress axis : x y z
#
# Youngs Moduli (GPa) = 10.18640 59.18977 120.86408
#
# Poissons Ratio (x) = 1.30372 0.07939
# Poissons Ratio (y) = 0.22437 0.54098
# Poissons Ratio (z) = 0.00669 0.26493
#
# Static dielectric constant tensor:
#      x y z
#    x 3.823340 0.000000 0.000000 
#    y 0.000000 3.859980 0.000000 
#    z 0.000000 0.000000 4.340320 
# 
# 
# High freq. dielectric constant tensor:
#      x y z
#    x 1.839430 0.000000 0.000000 
#    y 0.000000 1.855340 0.000000 
#    z 0.000000 0.000000 1.875370 
# 
# From -- ./inp_files/5467.got.cif
#   From: 2010.03.12/outbox.cif.g09.slc.cpg/sg45_3_cif.got.tgz:5467.got - 2010.04.14 02:50:11.
