data_PCOD8190014
_publ_section_title
;
Structure prediction by ZEFSAII (Michael W. Deem and Ramdas Pophale) SiO2 
 PCOD8190014
Probable space group: I M M 2
;
_chemical_formula_sum "Si O2"
_cell_formula_units_Z 48
_cell_length_a 18.233888
_cell_length_b 8.929988
_cell_length_c 15.008258
_cell_angle_alpha 90.000000
_cell_angle_beta 90.000000
_cell_angle_gamma 90.000000
_cell_volume 2443.770652
_symmetry_space_group_name_H-M "I M M 2"
_symmetry_group_IT_number 44
_symmetry_cell_setting 'orthorhombic'
loop_
_space_group_symop_operation_xyz
x,y,z
-x,-y,z
-x,y,z
x,-y,z
1/2+x,1/2+y,1/2+z
1/2-x,1/2-y,1/2+z
1/2-x,1/2+y,1/2+z
1/2+x,1/2-y,1/2+z
loop_
_atom_site_type_symbol
_atom_site_label
_atom_site_fract_x
_atom_site_fract_y
_atom_site_fract_z
Si Si1 0.843441 0.678357 0.430070
Si Si2 0.395139 0.331057 0.314587
Si Si3 0.222326 0.177003 0.070927
Si Si4 0.000000 0.330095 0.483425
Si Si5 0.581493 0.827363 0.495814
Si Si6 0.500000 0.170491 0.192999
Si Si7 0.766055 0.331468 0.255149
O O1 0.844151 0.500000 0.440831
O O2 0.783566 0.741064 0.501785
O O3 0.924579 0.747006 0.448864
O O4 0.824977 0.725068 0.328316
O O5 0.424769 0.500000 0.323944
O O6 0.422960 0.234716 0.396590
O O7 0.427433 0.255363 0.226108
O O8 0.308208 0.330985 0.311241
O O9 0.241502 0.222345 0.171643
O O10 0.219187 0.000000 0.063686
O O11 0.141325 0.238671 0.052381
O O12 0.000000 0.500000 0.448798
O O13 0.000000 0.322072 0.588354
O O14 0.500000 0.808655 0.538788
O O15 0.604831 0.000000 0.493060
O O16 0.500000 0.000000 0.227281
O O17 0.784559 0.500000 0.221779
#
# Coordination Sequence:
#
# PCOD8190014 Si02
#       7
#     8   8   8   4   8   4   8
#     4   9  18  36  58  82 116 156 196 241 291 348
#     4  11  21  35  57  84 119 158 194 240 302 362
#     4  11  22  39  62  88 119 158 201 246 301 362
#     4   9  18  33  57  84 113 152 197 243 288 340
#     4  11  23  39  60  87 118 152 197 250 303 361
#     4  11  21  33  53  88 121 148 195 251 300 362
#     4  10  21  38  58  85 118 154 202 249 296 354
#
# _framework density 19.641777000000001
#
# number of rings (size 3 to 8) (size 9 to 14) (size 15 to 20)
#    0.000    1.667    2.500    2.750    0.000    3.667 
#    1.500    0.000    0.000    2.000    0.000    0.000 
#    0.000    0.000    0.000    0.000    0.000    0.000 
#
# Total GULP energy -297548.128623 kJ/mol
# GULP energy per Si atom -12397.838693 kJ/mol
# Density = 1.959707 g / cm^3
# Si number density = 19.641777 Si / 1000 Ang^3
#
#
#
# Elastic Constant Matrix: (Units=GPa)
#
#
# Indices 1 2 3 4 5 6 
#
# 1 128.0040 31.5861 42.1944 0.0000 0.0000 0.0000
# 2 31.5861 71.5217 26.7161 0.0000 0.0000 0.0000
# 3 42.1944 26.7161 81.6340 0.0000 0.0000 0.0000
# 4 0.0000 0.0000 0.0000 31.1680 0.0000 0.0000
# 5 0.0000 0.0000 0.0000 0.0000 37.0555 0.0000
# 6 0.0000 0.0000 0.0000 0.0000 0.0000 23.2000
#
#
#
# Elastic Compliance Matrix: (Units=1/GPa)
#
#
# Indices 1 2 3 4 5 6 
#
# 1 0.009885 -0.002799 -0.004193 0.000000 0.000000 0.000000
# 2 -0.002799 0.016722 -0.004026 0.000000 0.000000 0.000000
# 3 -0.004193 -0.004026 0.015735 0.000000 0.000000 0.000000
# 4 0.000000 0.000000 0.000000 0.032084 0.000000 0.000000
# 5 0.000000 0.000000 0.000000 0.000000 0.026987 0.000000
# 6 0.000000 0.000000 0.000000 0.000000 0.000000 0.043104
#
#
# Mechanical properties :
#
#
# Convention : Reuss Voigt Hill
#
# Bulk Modulus (GPa) = 49.24829 53.57254 51.41041
# Shear Modulus (GPa) = 28.84825 30.32889 29.58857
#
# Velocity S-wave (km/s) = 3.83654 3.93377 3.88546
# Velocity P-wave (km/s) = 6.68978 6.92580 6.80881
#
# Compressibility (1/GPa) = 0.02030528
#
# Stress axis : x y z
#
# Youngs Moduli (GPa) = 101.16082 59.80244 63.55390
#
# Poissons Ratio (x) = 0.16740 0.26650
# Poissons Ratio (y) = 0.28317 0.25584
# Poissons Ratio (z) = 0.42420 0.24074
#
# Static dielectric constant tensor:
#      x y z
#    x 3.809050 0.000000 0.000000 
#    y 0.000000 3.443770 0.000000 
#    z 0.000000 0.000000 3.426180 
# 
# 
# High freq. dielectric constant tensor:
#      x y z
#    x 1.781030 0.000000 0.000000 
#    y 0.000000 1.742690 0.000000 
#    z 0.000000 0.000000 1.757760 
# 
# From -- ./inp_files/16148.got.cif
#   From: 2010.03.12/outbox.cif.g09.slc.cpg/sg44_9_cif.got.tgz:16148.got - 2010.04.14 02:36:11.
