data_PCOD8190205
_publ_section_title
;
Structure prediction by ZEFSAII (Michael W. Deem and Ramdas Pophale) SiO2 
 PCOD8190205
Probable space group: I M M 2
;
_chemical_formula_sum "Si O2"
_cell_formula_units_Z 32
_cell_length_a 11.559888
_cell_length_b 18.122490
_cell_length_c 7.298014
_cell_angle_alpha 90.000000
_cell_angle_beta 90.000000
_cell_angle_gamma 90.000000
_cell_volume 1528.889814
_symmetry_space_group_name_H-M "I M M 2"
_symmetry_group_IT_number 44
_symmetry_cell_setting 'orthorhombic'
loop_
_space_group_symop_operation_xyz
x,y,z
-x,-y,z
-x,y,z
x,-y,z
1/2+x,1/2+y,1/2+z
1/2-x,1/2-y,1/2+z
1/2-x,1/2+y,1/2+z
1/2+x,1/2-y,1/2+z
loop_
_atom_site_type_symbol
_atom_site_label
_atom_site_fract_x
_atom_site_fract_y
_atom_site_fract_z
Si Si1 0.227991 0.659715 0.275850
Si Si2 0.366118 0.689757 0.924372
Si Si3 0.000000 0.418397 0.233059
Si Si4 0.500000 0.080505 0.165013
Si Si5 0.250125 0.587695 0.651786
O O1 0.205186 0.739674 0.360285
O O2 0.272953 0.607400 0.439519
O O3 0.114480 0.626528 0.174019
O O4 0.328251 0.664481 0.125905
O O5 0.500000 0.710718 0.930166
O O6 0.346309 0.623579 0.780665
O O7 0.000000 0.500000 0.140895
O O8 0.000000 0.427706 0.448435
O O9 0.622047 0.119491 0.216199
O O10 0.500000 0.000000 0.257224
O O11 0.254991 0.500000 0.671959
#
# Coordination Sequence:
#
# PCOD8190205 Si02
#       5
#     8   8   4   4   8
#     4  11  22  42  68  97 130 172 218 274 327 383
#     4  12  26  43  65  98 133 173 218 266 327 400
#     4   9  18  37  67  97 125 159 217 279 321 369
#     4   7  14  33  63  93 122 157 207 265 310 359
#     4  10  22  42  67  98 135 175 217 268 326 383
#
# _framework density 20.930221
#
# number of rings (size 3 to 8) (size 9 to 14) (size 15 to 20)
#    0.000    1.750    3.750    2.250    0.000    4.500 
#    2.250    1.250    0.000    0.000    0.000    0.000 
#    0.000    0.000    0.000    0.000    0.000    0.000 
#
# Total GULP energy -198341.735072 kJ/mol
# GULP energy per Si atom -12396.358442 kJ/mol
# Density = 2.088258 g / cm^3
# Si number density = 20.930221 Si / 1000 Ang^3
#
#
#
# Elastic Constant Matrix: (Units=GPa)
#
#
# Indices 1 2 3 4 5 6 
#
# 1 54.9904 1.7559 23.3411 0.0001 0.0000 0.0000
# 2 1.7559 92.2022 16.9248 0.0000 0.0000 0.0000
# 3 23.3411 16.9248 78.8200 -0.0013 0.0000 -0.0002
# 4 0.0001 0.0000 -0.0013 17.2547 0.0000 -0.0001
# 5 0.0000 0.0000 0.0000 0.0000 32.6866 0.0000
# 6 0.0000 0.0000 -0.0002 -0.0001 0.0000 31.7313
#
#
#
# Elastic Compliance Matrix: (Units=1/GPa)
#
#
# Indices 1 2 3 4 5 6 
#
# 1 0.020851 0.000767 -0.006339 -0.000001 0.000000 0.000000
# 2 0.000767 0.011319 -0.002657 0.000000 0.000000 0.000000
# 3 -0.006339 -0.002657 0.015135 0.000001 0.000000 0.000000
# 4 -0.000001 0.000000 0.000001 0.057955 0.000000 0.000000
# 5 0.000000 0.000000 0.000000 0.000000 0.030594 0.000000
# 6 0.000000 0.000000 0.000000 0.000000 0.000000 0.031515
#
#
# Mechanical properties :
#
#
# Convention : Reuss Voigt Hill
#
# Bulk Modulus (GPa) = 32.42038 34.45068 33.43553
# Shear Modulus (GPa) = 25.75846 28.60056 27.17951
#
# Velocity S-wave (km/s) = 3.51191 3.70059 3.60749
# Velocity P-wave (km/s) = 5.65403 5.89531 5.77593
#
# Compressibility (1/GPa) = 0.03084480
#
# Stress axis : x y z
#
# Youngs Moduli (GPa) = 47.95863 88.34740 66.07181
#
# Poissons Ratio (x) = -0.06773 0.41885
# Poissons Ratio (y) = -0.03676 0.17559
# Poissons Ratio (z) = 0.30403 0.23478
#
# Static dielectric constant tensor:
#      x y z
#    x 3.932070 0.000000 0.000000 
#    y 0.000000 3.857230 0.000000 
#    z 0.000000 0.000000 3.644870 
# 
# 
# High freq. dielectric constant tensor:
#      x y z
#    x 1.806350 0.000000 0.000000 
#    y 0.000000 1.820790 0.000000 
#    z 0.000000 0.000000 1.812110 
# 
# From -- ./inp_files/5575.got.cif
#   From: 2010.03.12/outbox.cif.g09.slc.cpg/sg44_3_cif.got.tgz:5575.got - 2010.04.14 02:36:11.
