data_PCOD8190551
_publ_section_title
;
Structure prediction by ZEFSAII (Michael W. Deem and Ramdas Pophale) SiO2 
 PCOD8190551
Probable space group: I B A 2
;
_chemical_formula_sum "Si O2"
_cell_formula_units_Z 60
_cell_length_a 8.594041
_cell_length_b 18.417587
_cell_length_c 16.352792
_cell_angle_alpha 90.000000
_cell_angle_beta 90.000000
_cell_angle_gamma 90.000000
_cell_volume 2588.344411
_symmetry_space_group_name_H-M "I B A 2"
_symmetry_group_IT_number 45
_symmetry_cell_setting 'orthorhombic'
loop_
_space_group_symop_operation_xyz
x,y,z
-x,-y,z
-x,y,1/2+z
x,-y,1/2+z
1/2+x,1/2+y,1/2+z
1/2-x,1/2-y,1/2+z
1/2-x,1/2+y,z
1/2+x,1/2-y,z
loop_
_atom_site_type_symbol
_atom_site_label
_atom_site_fract_x
_atom_site_fract_y
_atom_site_fract_z
Si Si1 0.524208 0.914831 0.162390
Si Si2 0.466079 0.417395 0.250531
Si Si3 0.289707 0.886897 0.823971
Si Si4 0.183891 0.716087 0.471497
Si Si5 0.312745 0.617588 0.598630
Si Si6 0.749425 0.456855 0.888702
Si Si7 0.633239 0.149616 0.503620
Si Si8 0.000000 0.000000 0.508176
O O1 0.588399 0.884805 0.248825
O O2 0.357734 0.883933 0.138162
O O3 0.647791 0.891640 0.091155
O O4 0.500000 0.000000 0.169308
O O5 0.500000 0.500000 0.222643
O O6 0.612399 0.382312 0.294463
O O7 0.431220 0.365749 0.172826
O O8 0.308494 0.420753 0.304597
O O9 0.311304 0.815472 0.879425
O O10 0.310657 0.961088 0.876143
O O11 0.314770 0.677568 0.528063
O O12 0.216455 0.801938 0.479165
O O13 0.013545 0.702429 0.506417
O O14 0.370893 0.541958 0.560779
O O15 0.887350 0.409972 0.930633
O O16 0.601874 0.448792 0.949497
#
# Coordination Sequence:
#
# PCOD8190551 Si02
#       8
#     8   8   8   8   8   8   8   4
#     4  11  25  45  71 109 144 183 252 312 387 431
#     4  10  20  37  64 106 134 174 229 294 369 427
#     4  11  24  44  73 109 142 183 244 314 377 452
#     4  11  27  49  68 101 143 199 248 297 382 462
#     4  11  23  41  68 102 140 187 240 295 361 453
#     4  11  22  40  70 106 138 186 240 310 362 437
#     4  11  29  47  72 101 148 200 248 311 376 461
#     4  12  20  38  74 102 146 182 238 306 368 444
#
# _framework density 23.180841999999998
#
# number of rings (size 3 to 8) (size 9 to 14) (size 15 to 20)
#    0.000    1.067    4.000    2.400   11.200    0.000 
#    2.400    0.000    0.000    0.000    0.000    0.000 
#    0.000    0.000    0.000    0.000    0.000    0.000 
#
# Total GULP energy -371841.761527 kJ/mol
# GULP energy per Si atom -12394.725384 kJ/mol
# Density = 2.312808 g / cm^3
# Si number density = 23.180842 Si / 1000 Ang^3
#
#
#
# Elastic Constant Matrix: (Units=GPa)
#
#
# Indices 1 2 3 4 5 6 
#
# 1 48.5464 12.7376 20.2921 0.0000 0.0000 0.0000
# 2 12.7376 62.8431 46.3590 0.0000 0.0000 0.0000
# 3 20.2921 46.3590 149.2847 -0.0001 0.0000 0.0000
# 4 0.0000 0.0000 -0.0001 15.9783 0.0000 0.0000
# 5 0.0000 0.0000 0.0000 0.0000 36.0647 0.0000
# 6 0.0000 0.0000 0.0000 0.0000 0.0000 35.8561
#
#
#
# Elastic Compliance Matrix: (Units=1/GPa)
#
#
# Indices 1 2 3 4 5 6 
#
# 1 0.022255 -0.002957 -0.002107 0.000000 0.000000 0.000000
# 2 -0.002957 0.021034 -0.006130 0.000000 0.000000 0.000000
# 3 -0.002107 -0.006130 0.008889 0.000000 0.000000 0.000000
# 4 0.000000 0.000000 0.000000 0.062585 0.000000 0.000000
# 5 0.000000 0.000000 0.000000 0.000000 0.027728 0.000000
# 6 0.000000 0.000000 0.000000 0.000000 0.000000 0.027889
#
#
# Mechanical properties :
#
#
# Convention : Reuss Voigt Hill
#
# Bulk Modulus (GPa) = 33.56751 46.60575 40.08663
# Shear Modulus (GPa) = 24.66732 29.66553 27.16642
#
# Velocity S-wave (km/s) = 3.26563 3.58123 3.42707
# Velocity P-wave (km/s) = 5.36016 6.10321 5.74371
#
# Compressibility (1/GPa) = 0.02979071
#
# Stress axis : x y z
#
# Youngs Moduli (GPa) = 44.93309 47.54207 112.50314
#
# Poissons Ratio (x) = 0.14056 0.23704
# Poissons Ratio (y) = 0.13285 0.68965
# Poissons Ratio (z) = 0.09467 0.29143
#
# Static dielectric constant tensor:
#      x y z
#    x 4.358300 0.000000 0.000000 
#    y 0.000000 3.901860 0.000000 
#    z 0.000000 0.000000 4.510360 
# 
# 
# High freq. dielectric constant tensor:
#      x y z
#    x 1.922420 0.000000 0.000000 
#    y 0.000000 1.879630 0.000000 
#    z 0.000000 0.000000 1.932750 
# 
# From -- ./inp_files/7701.got.cif
#   From: 2010.03.12/outbox.cif.g09.slc.cpg/sg45_4_cif.got.tgz:7701.got - 2010.04.14 02:50:11.
