data_PCOD8190144
_publ_section_title
;
Structure prediction by ZEFSAII (Michael W. Deem and Ramdas Pophale) SiO2 
 PCOD8190144
Probable space group: I M M 2
;
_chemical_formula_sum "Si O2"
_cell_formula_units_Z 64
_cell_length_a 9.018186
_cell_length_b 24.436946
_cell_length_c 14.751243
_cell_angle_alpha 90.000000
_cell_angle_beta 90.000000
_cell_angle_gamma 90.000000
_cell_volume 3250.833562
_symmetry_space_group_name_H-M "I M M 2"
_symmetry_group_IT_number 44
_symmetry_cell_setting 'orthorhombic'
loop_
_space_group_symop_operation_xyz
x,y,z
-x,-y,z
-x,y,z
x,-y,z
1/2+x,1/2+y,1/2+z
1/2-x,1/2-y,1/2+z
1/2-x,1/2+y,1/2+z
1/2+x,1/2-y,1/2+z
loop_
_atom_site_type_symbol
_atom_site_label
_atom_site_fract_x
_atom_site_fract_y
_atom_site_fract_z
Si Si1 0.324474 0.060348 0.458940
Si Si2 0.167061 0.261230 0.587362
Si Si3 0.325334 0.874852 0.285603
Si Si4 0.673670 0.150103 0.798539
Si Si5 0.663402 0.244164 0.302819
Si Si6 0.823883 0.128156 0.095276
Si Si7 0.676357 0.152655 0.592662
Si Si8 0.326993 0.937015 0.944549
O O1 0.500000 0.058820 0.468159
O O2 0.281440 0.078914 0.357668
O O3 0.262100 0.101770 0.534427
O O4 0.256859 0.000000 0.475657
O O5 0.165630 0.258356 0.694860
O O6 0.253801 0.315666 0.556609
O O7 0.252201 0.207699 0.550789
O O8 0.000000 0.263254 0.548082
O O9 0.500000 0.875492 0.259779
O O10 0.285675 0.816485 0.333586
O O11 0.229741 0.885524 0.196418
O O12 0.500000 0.154666 0.799176
O O13 0.732229 0.207574 0.839899
O O14 0.730467 0.141881 0.695696
O O15 0.727261 0.099094 0.858880
O O16 0.500000 0.257528 0.339739
O O17 0.000000 0.132922 0.094147
O O18 0.769292 0.078770 0.031915
O O19 0.500000 0.158990 0.586268
O O20 0.500000 0.926734 0.965929
O O21 0.296716 0.000000 0.919883
#
# Coordination Sequence:
#
# PCOD8190144 Si02
#       8
#     8   8   8   8   8   8   8   8
#     4   9  18  32  52  79 109 143 183 220 256 307
#     4   9  17  32  54  80 109 140 174 210 259 324
#     4   9  18  34  54  77 107 143 180 213 255 317
#     4   9  18  32  52  78 106 135 170 215 262 308
#     4   8  15  28  48  74 104 136 169 210 259 312
#     4  11  22  36  56  81 107 134 170 222 277 318
#     4   9  17  31  53  83 114 140 173 219 264 304
#     4  10  22  39  55  73 102 143 187 222 258 313
#
# _framework density 19.687259000000001
#
# number of rings (size 3 to 8) (size 9 to 14) (size 15 to 20)
#    0.000    2.750    0.000    2.250    0.000    5.750 
#    0.000    5.625    0.000    1.125    0.000    3.500 
#    0.000    0.000    0.000    0.000    0.000    0.000 
#
# Total GULP energy -396729.685594 kJ/mol
# GULP energy per Si atom -12397.802675 kJ/mol
# Density = 1.964245 g / cm^3
# Si number density = 19.687259 Si / 1000 Ang^3
#
#
#
# Elastic Constant Matrix: (Units=GPa)
#
#
# Indices 1 2 3 4 5 6 
#
# 1 56.9128 23.6227 21.9935 0.0000 0.0000 0.0000
# 2 23.6227 113.2106 23.0707 0.0001 0.0000 0.0000
# 3 21.9935 23.0707 44.1342 0.0001 0.0000 0.0000
# 4 0.0000 0.0001 0.0001 33.6284 0.0000 0.0000
# 5 0.0000 0.0000 0.0000 0.0000 14.6795 0.0000
# 6 0.0000 0.0000 0.0000 0.0000 0.0000 27.4152
#
#
#
# Elastic Compliance Matrix: (Units=1/GPa)
#
#
# Indices 1 2 3 4 5 6 
#
# 1 0.022472 -0.002694 -0.009790 0.000000 0.000000 0.000000
# 2 -0.002694 0.010209 -0.003994 0.000000 0.000000 0.000000
# 3 -0.009790 -0.003994 0.029625 0.000000 0.000000 0.000000
# 4 0.000000 0.000000 0.000000 0.029737 0.000000 0.000000
# 5 0.000000 0.000000 0.000000 0.000000 0.068122 0.000000
# 6 0.000000 0.000000 0.000000 0.000000 0.000000 0.036476
#
#
# Mechanical properties :
#
#
# Convention : Reuss Voigt Hill
#
# Bulk Modulus (GPa) = 34.07247 39.07016 36.57132
# Shear Modulus (GPa) = 20.88710 24.84933 22.86821
#
# Velocity S-wave (km/s) = 3.26075 3.55660 3.41189
# Velocity P-wave (km/s) = 5.61436 6.06254 5.84275
#
# Compressibility (1/GPa) = 0.02934921
#
# Stress axis : x y z
#
# Youngs Moduli (GPa) = 44.49908 97.95089 33.75523
#
# Poissons Ratio (x) = 0.26388 0.33048
# Poissons Ratio (y) = 0.11988 0.13483
# Poissons Ratio (z) = 0.43567 0.39124
#
# Static dielectric constant tensor:
#      x y z
#    x 3.398980 0.000000 0.000000 
#    y 0.000000 3.882010 0.000000 
#    z 0.000000 0.000000 3.542390 
# 
# 
# High freq. dielectric constant tensor:
#      x y z
#    x 1.739950 0.000000 0.000000 
#    y 0.000000 1.771410 0.000000 
#    z 0.000000 0.000000 1.759470 
# 
# From -- ./inp_files/16890.got.cif
#   From: 2010.03.12/outbox.cif.g09.slc.cpg/sg44_9_cif.got.tgz:16890.got - 2010.04.14 02:36:11.
