data_PCOD8190717
_publ_section_title
;
Structure prediction by ZEFSAII (Michael W. Deem and Ramdas Pophale) SiO2 
 PCOD8190717
Probable space group: I B A 2
;
_chemical_formula_sum "Si O2"
_cell_formula_units_Z 64
_cell_length_a 24.491004
_cell_length_b 9.108515
_cell_length_c 13.767949
_cell_angle_alpha 90.000000
_cell_angle_beta 90.000000
_cell_angle_gamma 90.000000
_cell_volume 3071.308316
_symmetry_space_group_name_H-M "I B A 2"
_symmetry_group_IT_number 45
_symmetry_cell_setting 'orthorhombic'
loop_
_space_group_symop_operation_xyz
x,y,z
-x,-y,z
-x,y,1/2+z
x,-y,1/2+z
1/2+x,1/2+y,1/2+z
1/2-x,1/2-y,1/2+z
1/2-x,1/2+y,z
1/2+x,1/2-y,z
loop_
_atom_site_type_symbol
_atom_site_label
_atom_site_fract_x
_atom_site_fract_y
_atom_site_fract_z
Si Si1 0.913846 0.341149 0.064880
Si Si2 0.250203 0.942432 0.492130
Si Si3 0.672998 0.701590 0.927584
Si Si4 0.982626 0.160340 0.597539
Si Si5 0.680516 0.813741 0.566684
Si Si6 0.921505 0.366920 0.454291
Si Si7 0.606502 0.740609 0.744951
Si Si8 0.939030 0.464976 0.252212
O O1 0.896737 0.425543 0.164224
O O2 0.961772 0.247101 0.115533
O O3 0.867673 0.235063 0.018999
O O4 0.934877 0.466790 0.990657
O O5 0.288241 0.846967 0.416962
O O6 0.218188 0.827211 0.556913
O O7 0.209143 0.055502 0.440117
O O8 0.286042 0.034352 0.568921
O O9 0.637918 0.658755 0.832016
O O10 0.954424 0.240605 0.508127
O O11 0.943211 0.151625 0.692888
O O12 0.000000 0.000000 0.563613
O O13 0.641914 0.830504 0.472023
O O14 0.648971 0.792272 0.665162
O O15 0.936822 0.350092 0.340980
O O16 0.582339 0.883092 0.797632
O O17 0.000000 0.500000 0.212226
#
# Coordination Sequence:
#
# PCOD8190717 Si02
#       8
#     8   8   8   8   8   8   8   8
#     4  12  21  41  66  94 129 184 217 277 328 417
#     4  10  22  44  66  92 131 173 226 285 348 396
#     4  11  24  42  70  97 133 178 226 283 348 402
#     4  11  25  42  64  97 146 175 223 279 346 400
#     4  10  21  41  64  93 127 171 214 285 337 404
#     4  11  22  40  67  94 129 181 227 273 337 410
#     4  11  22  41  66  98 133 171 229 279 334 421
#     4  12  20  37  64  95 125 173 231 267 313 411
#
# _framework density 20.838024000000001
#
# number of rings (size 3 to 8) (size 9 to 14) (size 15 to 20)
#    0.000    1.000    6.250    1.125    3.500    1.000 
#    2.250    6.250    0.000    0.000    0.000    0.000 
#    0.000    0.000    0.000    0.000    0.000    0.000 
#
# Total GULP energy -396444.105325 kJ/mol
# GULP energy per Si atom -12388.878291 kJ/mol
# Density = 2.079060 g / cm^3
# Si number density = 20.838024 Si / 1000 Ang^3
#
#
#
# Elastic Constant Matrix: (Units=GPa)
#
#
# Indices 1 2 3 4 5 6 
#
# 1 104.2465 34.8308 33.5346 0.0000 0.0000 0.0000
# 2 34.8308 101.2652 14.8691 0.0000 0.0000 0.0000
# 3 33.5346 14.8691 110.6447 0.0000 0.0000 0.0000
# 4 0.0000 0.0000 0.0000 15.9624 0.0000 0.0000
# 5 0.0000 0.0000 0.0000 0.0000 31.1682 0.0000
# 6 0.0000 0.0000 0.0000 0.0000 0.0000 20.5117
#
#
#
# Elastic Compliance Matrix: (Units=1/GPa)
#
#
# Indices 1 2 3 4 5 6 
#
# 1 0.011790 -0.003602 -0.003089 0.000000 0.000000 0.000000
# 2 -0.003602 0.011174 -0.000410 0.000000 0.000000 0.000000
# 3 -0.003089 -0.000410 0.010029 0.000000 0.000000 0.000000
# 4 0.000000 0.000000 0.000000 0.062647 0.000000 0.000000
# 5 0.000000 0.000000 0.000000 0.000000 0.032084 0.000000
# 6 0.000000 0.000000 0.000000 0.000000 0.000000 0.048753
#
#
# Mechanical properties :
#
#
# Convention : Reuss Voigt Hill
#
# Bulk Modulus (GPa) = 53.21596 53.62507 53.42052
# Shear Modulus (GPa) = 25.38812 29.05658 27.22235
#
# Velocity S-wave (km/s) = 3.49428 3.73822 3.61831
# Velocity P-wave (km/s) = 6.47096 6.66502 6.56871
#
# Compressibility (1/GPa) = 0.01879136
#
# Stress axis : x y z
#
# Youngs Moduli (GPa) = 84.81924 89.49302 99.70727
#
# Poissons Ratio (x) = 0.32231 0.30802
# Poissons Ratio (y) = 0.30548 0.04089
# Poissons Ratio (z) = 0.26203 0.03670
#
# Static dielectric constant tensor:
#      x y z
#    x 4.244840 0.000000 0.000000 
#    y 0.000000 3.862300 0.000000 
#    z 0.000000 0.000000 3.450630 
# 
# 
# High freq. dielectric constant tensor:
#      x y z
#    x 1.828460 0.000000 0.000000 
#    y 0.000000 1.811720 0.000000 
#    z 0.000000 0.000000 1.796700 
# 
# From -- ./inp_files/7072.got.cif
#   From: 2010.03.12/outbox.cif.g09.slc.cpg/sg45_4_cif.got.tgz:7072.got - 2010.04.14 02:50:11.
