data_PCOD8190275
_publ_section_title
;
Structure prediction by ZEFSAII (Michael W. Deem and Ramdas Pophale) SiO2 
 PCOD8190275
Probable space group: I M M 2
;
_chemical_formula_sum "Si O2"
_cell_formula_units_Z 64
_cell_length_a 9.110317
_cell_length_b 19.675280
_cell_length_c 20.110959
_cell_angle_alpha 90.000000
_cell_angle_beta 90.000000
_cell_angle_gamma 90.000000
_cell_volume 3604.849940
_symmetry_space_group_name_H-M "I M M 2"
_symmetry_group_IT_number 44
_symmetry_cell_setting 'orthorhombic'
loop_
_space_group_symop_operation_xyz
x,y,z
-x,-y,z
-x,y,z
x,-y,z
1/2+x,1/2+y,1/2+z
1/2-x,1/2-y,1/2+z
1/2-x,1/2+y,1/2+z
1/2+x,1/2-y,1/2+z
loop_
_atom_site_type_symbol
_atom_site_label
_atom_site_fract_x
_atom_site_fract_y
_atom_site_fract_z
Si Si1 0.831152 0.420538 0.612990
Si Si2 0.167373 0.826555 0.363955
Si Si3 0.327045 0.924426 0.264047
Si Si4 0.827678 0.182950 0.514355
Si Si5 0.829554 0.671284 0.376400
Si Si6 0.827896 0.923038 0.624773
Si Si7 0.674390 0.677253 0.513148
Si Si8 0.171362 0.422032 0.256777
O O1 0.810424 0.500000 0.597826
O O2 0.784812 0.404180 0.688820
O O3 0.723561 0.378707 0.566035
O O4 0.000000 0.399228 0.600258
O O5 0.265431 0.870165 0.315141
O O6 0.211724 0.841797 0.440166
O O7 0.194591 0.747282 0.349470
O O8 0.000000 0.847055 0.350775
O O9 0.500000 0.925018 0.271481
O O10 0.265566 0.000000 0.280274
O O11 0.778702 0.122858 0.563082
O O12 0.738625 0.249902 0.534504
O O13 0.000000 0.200499 0.519174
O O14 0.734051 0.655686 0.441132
O O15 0.773118 0.620740 0.319533
O O16 0.000000 0.659174 0.394649
O O17 0.751641 0.894877 0.691064
O O18 0.000000 0.919012 0.636519
O O19 0.776778 0.000000 0.609510
O O20 0.500000 0.681216 0.511204
O O21 0.212497 0.500000 0.270730
O O22 0.000000 0.411383 0.245281
#
# Coordination Sequence:
#
# PCOD8190275 Si02
#       8
#     8   8   8   8   8   8   8   8
#     4   9  19  37  57  74  99 138 175 204 245 306
#     4   9  18  32  51  74 100 131 167 211 254 293
#     4   9  19  35  53  74 100 130 166 207 250 301
#     4   9  19  36  54  73 102 139 174 204 245 307
#     4   9  19  36  53  71 101 138 173 205 244 302
#     4   9  18  33  53  76 102 133 170 212 253 294
#     4  11  22  34  52  79 106 130 165 215 260 295
#     4   9  18  33  53  76 102 133 168 205 247 298
#
# _framework density 17.75386
#
# number of rings (size 3 to 8) (size 9 to 14) (size 15 to 20)
#    0.000    2.750    0.000    2.625    0.000    6.000 
#    0.000    6.250    0.000    1.500    0.000    0.000 
#    0.000    0.000    0.000    0.000    0.000    0.000 
#
# Total GULP energy -396825.891246 kJ/mol
# GULP energy per Si atom -12400.809101 kJ/mol
# Density = 1.771345 g / cm^3
# Si number density = 17.753860 Si / 1000 Ang^3
#
#
#
# Elastic Constant Matrix: (Units=GPa)
#
#
# Indices 1 2 3 4 5 6 
#
# 1 63.1038 44.5071 53.6755 0.0000 0.0000 0.0000
# 2 44.5071 93.9335 86.3229 0.0000 0.0000 0.0000
# 3 53.6755 86.3229 132.7338 0.0000 0.0000 0.0000
# 4 0.0000 0.0000 0.0000 19.5082 0.0000 0.0000
# 5 0.0000 0.0000 0.0000 0.0000 33.5361 0.0000
# 6 0.0000 0.0000 0.0000 0.0000 0.0000 27.2781
#
#
#
# Elastic Compliance Matrix: (Units=1/GPa)
#
#
# Indices 1 2 3 4 5 6 
#
# 1 0.025667 -0.006519 -0.006140 0.000000 0.000000 0.000000
# 2 -0.006519 0.028115 -0.015648 0.000000 0.000000 0.000000
# 3 -0.006140 -0.015648 0.020193 0.000000 0.000000 0.000000
# 4 0.000000 0.000000 0.000000 0.051260 0.000000 0.000000
# 5 0.000000 0.000000 0.000000 0.000000 0.029819 0.000000
# 6 0.000000 0.000000 0.000000 0.000000 0.000000 0.036660
#
#
# Mechanical properties :
#
#
# Convention : Reuss Voigt Hill
#
# Bulk Modulus (GPa) = 57.59899 73.19803 65.39851
# Shear Modulus (GPa) = 19.67602 23.08218 21.37910
#
# Velocity S-wave (km/s) = 3.33268 3.60963 3.47392
# Velocity P-wave (km/s) = 6.87913 7.66103 7.28059
#
# Compressibility (1/GPa) = 0.01736142
#
# Stress axis : x y z
#
# Youngs Moduli (GPa) = 38.96003 35.56781 49.52093
#
# Poissons Ratio (x) = 0.23188 0.30404
# Poissons Ratio (y) = 0.25400 0.77492
# Poissons Ratio (z) = 0.23920 0.55658
#
# Static dielectric constant tensor:
#      x y z
#    x 3.142120 0.000000 0.000000 
#    y 0.000000 3.414420 0.000000 
#    z 0.000000 0.000000 3.392920 
# 
# 
# High freq. dielectric constant tensor:
#      x y z
#    x 1.676320 0.000000 0.000000 
#    y 0.000000 1.687550 0.000000 
#    z 0.000000 0.000000 1.691950 
# 
# From -- ./inp_files/20782.got.cif
#   From: 2010.03.12/outbox.cif.g09.slc.cpg/sg44_11_cif.got.tgz:20782.got - 2010.04.14 02:36:11.
