data_PCOD8190094
_publ_section_title
;
Structure prediction by ZEFSAII (Michael W. Deem and Ramdas Pophale) SiO2 
 PCOD8190094
Probable space group: I M M 2
;
_chemical_formula_sum "Si O2"
_cell_formula_units_Z 56
_cell_length_a 18.198696
_cell_length_b 13.105720
_cell_length_c 11.812024
_cell_angle_alpha 90.000000
_cell_angle_beta 90.000000
_cell_angle_gamma 90.000000
_cell_volume 2817.250575
_symmetry_space_group_name_H-M "I M M 2"
_symmetry_group_IT_number 44
_symmetry_cell_setting 'orthorhombic'
loop_
_space_group_symop_operation_xyz
x,y,z
-x,-y,z
-x,y,z
x,-y,z
1/2+x,1/2+y,1/2+z
1/2-x,1/2-y,1/2+z
1/2-x,1/2+y,1/2+z
1/2+x,1/2-y,1/2+z
loop_
_atom_site_type_symbol
_atom_site_label
_atom_site_fract_x
_atom_site_fract_y
_atom_site_fract_z
Si Si1 0.919467 0.211188 0.420660
Si Si2 0.918949 0.750909 0.680876
Si Si3 0.413889 0.618263 0.396105
Si Si4 0.084935 0.383741 0.248756
Si Si5 0.176170 0.752734 0.079767
Si Si6 0.774759 0.110700 0.441971
Si Si7 0.715104 0.888295 0.206625
O O1 0.920894 0.204562 0.555637
O O2 0.903047 0.323431 0.367463
O O3 0.854020 0.136132 0.385657
O O4 0.000000 0.174476 0.375232
O O5 0.895832 0.838803 0.770481
O O6 0.862493 0.659222 0.676036
O O7 0.000000 0.708873 0.713630
O O8 0.500000 0.626595 0.424094
O O9 0.388287 0.500000 0.400926
O O10 0.370215 0.686163 0.486669
O O11 0.114425 0.500000 0.263595
O O12 0.125926 0.328120 0.145473
O O13 0.000000 0.385689 0.214748
O O14 0.211980 0.830807 0.166536
O O15 0.247153 0.695385 0.028866
O O16 0.716000 0.105936 0.341813
O O17 0.779273 0.000000 0.501925
O O18 0.716938 0.000000 0.150975
#
# Coordination Sequence:
#
# PCOD8190094 Si02
#       7
#     8   8   8   8   8   8   8
#     4  10  21  40  62  86 118 158 200 245 298 355
#     4  10  21  40  62  86 118 158 200 245 298 355
#     4  10  22  40  63  91 122 157 201 252 303 361
#     4  10  22  40  63  91 122 157 201 252 303 361
#     4  12  21  40  65  90 118 162 196 250 307 366
#     4  11  23  39  58  86 122 157 196 244 295 351
#     4  11  23  39  58  86 122 157 196 244 295 351
#
# _framework density 19.877535999999999
#
# number of rings (size 3 to 8) (size 9 to 14) (size 15 to 20)
#    0.000    1.429    4.286    1.286    0.000    1.714 
#    0.000    4.286    0.000    0.000    0.000    0.000 
#    0.000    0.000    0.000    0.000    0.000    0.000 
#
# Total GULP energy -347053.402031 kJ/mol
# GULP energy per Si atom -12394.764358 kJ/mol
# Density = 1.983229 g / cm^3
# Si number density = 19.877536 Si / 1000 Ang^3
#
#
#
# Elastic Constant Matrix: (Units=GPa)
#
#
# Indices 1 2 3 4 5 6 
#
# 1 84.8045 44.8124 21.6776 0.0000 0.0000 0.0000
# 2 44.8124 130.6796 39.2685 0.0000 0.0000 0.0000
# 3 21.6776 39.2685 86.8116 0.0000 0.0000 0.0000
# 4 0.0000 0.0000 0.0000 19.4021 0.0000 0.0000
# 5 0.0000 0.0000 0.0000 0.0000 23.3730 0.0000
# 6 0.0000 0.0000 0.0000 0.0000 0.0000 30.2582
#
#
#
# Elastic Compliance Matrix: (Units=1/GPa)
#
#
# Indices 1 2 3 4 5 6 
#
# 1 0.014590 -0.004523 -0.001597 0.000000 0.000000 0.000000
# 2 -0.004523 0.010258 -0.003511 0.000000 0.000000 0.000000
# 3 -0.001597 -0.003511 0.013506 0.000000 0.000000 0.000000
# 4 0.000000 0.000000 0.000000 0.051541 0.000000 0.000000
# 5 0.000000 0.000000 0.000000 0.000000 0.042784 0.000000
# 6 0.000000 0.000000 0.000000 0.000000 0.000000 0.033049
#
#
# Mechanical properties :
#
#
# Convention : Reuss Voigt Hill
#
# Bulk Modulus (GPa) = 52.37759 57.09032 54.73396
# Shear Modulus (GPa) = 26.12932 27.70912 26.91922
#
# Velocity S-wave (km/s) = 3.62956 3.73767 3.68401
# Velocity P-wave (km/s) = 6.63116 6.88551 6.75953
#
# Compressibility (1/GPa) = 0.01909213
#
# Stress axis : x y z
#
# Youngs Moduli (GPa) = 68.53855 97.48096 74.04044
#
# Poissons Ratio (x) = 0.44094 0.11826
# Poissons Ratio (y) = 0.31002 0.25994
# Poissons Ratio (z) = 0.10947 0.34224
#
# Static dielectric constant tensor:
#      x y z
#    x 3.797920 0.000000 0.000000 
#    y 0.000000 3.679270 0.000000 
#    z 0.000000 0.000000 3.533340 
# 
# 
# High freq. dielectric constant tensor:
#      x y z
#    x 1.786800 0.000000 0.000000 
#    y 0.000000 1.770990 0.000000 
#    z 0.000000 0.000000 1.773200 
# 
# From -- ./inp_files/13246.got.cif
#   From: 2010.03.12/outbox.cif.g09.slc.cpg/sg44_7_cif.got.tgz:13246.got - 2010.04.14 02:36:11.
