data_PCOD8190852
_publ_section_title
;
Structure prediction by ZEFSAII (Michael W. Deem and Ramdas Pophale) SiO2 
 PCOD8190852
Probable space group: I B A 2
;
_chemical_formula_sum "Si O2"
_cell_formula_units_Z 60
_cell_length_a 28.876343
_cell_length_b 8.007612
_cell_length_c 12.971338
_cell_angle_alpha 90.000000
_cell_angle_beta 90.000000
_cell_angle_gamma 90.000000
_cell_volume 2999.369629
_symmetry_space_group_name_H-M "I B A 2"
_symmetry_group_IT_number 45
_symmetry_cell_setting 'orthorhombic'
loop_
_space_group_symop_operation_xyz
x,y,z
-x,-y,z
-x,y,1/2+z
x,-y,1/2+z
1/2+x,1/2+y,1/2+z
1/2-x,1/2-y,1/2+z
1/2-x,1/2+y,z
1/2+x,1/2-y,z
loop_
_atom_site_type_symbol
_atom_site_label
_atom_site_fract_x
_atom_site_fract_y
_atom_site_fract_z
Si Si1 0.531646 0.341665 0.648520
Si Si2 0.808025 0.220026 0.265363
Si Si3 0.903269 0.145688 0.969392
Si Si4 0.264363 0.998712 0.391028
Si Si5 0.000000 0.500000 0.185548
Si Si6 0.948344 0.520126 0.381552
Si Si7 0.301856 0.714001 0.519650
Si Si8 0.910544 0.181372 0.343884
O O1 0.500000 0.500000 0.626485
O O2 0.578053 0.361001 0.584385
O O3 0.546068 0.328191 0.766796
O O4 0.506577 0.166709 0.616456
O O5 0.773372 0.088570 0.317799
O O6 0.797355 0.398776 0.314836
O O7 0.860883 0.170670 0.288337
O O8 0.799662 0.230865 0.142939
O O9 0.921517 0.313961 0.915515
O O10 0.848617 0.131886 0.979616
O O11 0.919694 0.979688 0.912803
O O12 0.298546 0.886048 0.457824
O O13 0.240563 0.103601 0.481304
O O14 0.045511 0.468117 0.257182
O O15 0.917056 0.355393 0.407349
O O16 0.000000 0.500000 0.432407
#
# Coordination Sequence:
#
# PCOD8190852 Si02
#       8
#     8   8   8   8   4   8   8   8
#     4  11  24  38  62  90 123 166 212 257 306 372
#     4  11  21  42  64  91 126 163 202 265 319 379
#     4  12  24  38  64  92 124 162 211 261 308 371
#     4  10  23  40  67  89 126 163 201 257 327 390
#     4   8  20  40  58  82 122 164 208 248 306 366
#     4   9  22  39  60  84 121 171 204 250 310 365
#     4  11  22  41  63  95 121 162 212 254 318 397
#     4  11  23  42  62  89 129 161 207 262 314 362
#
# _framework density 20.004204000000001
#
# number of rings (size 3 to 8) (size 9 to 14) (size 15 to 20)
#    0.400    1.067    2.667    2.400    2.800    0.000 
#    0.000    0.000    2.933    0.000    0.000    0.000 
#    0.000    0.000    0.000    0.000    0.000    0.000 
#
# Total GULP energy -371815.465402 kJ/mol
# GULP energy per Si atom -12393.848847 kJ/mol
# Density = 1.995867 g / cm^3
# Si number density = 20.004204 Si / 1000 Ang^3
#
#
#
# Elastic Constant Matrix: (Units=GPa)
#
#
# Indices 1 2 3 4 5 6 
#
# 1 54.6987 25.0225 16.5756 0.0000 0.0000 0.0000
# 2 25.0225 141.2338 39.3761 0.0000 0.0000 0.0000
# 3 16.5756 39.3761 87.5428 0.0000 0.0000 0.0000
# 4 0.0000 0.0000 0.0000 4.1694 0.0000 0.0000
# 5 0.0000 0.0000 0.0000 0.0000 20.8150 0.0000
# 6 0.0000 0.0000 0.0000 0.0000 0.0000 35.3262
#
#
#
# Elastic Compliance Matrix: (Units=1/GPa)
#
#
# Indices 1 2 3 4 5 6 
#
# 1 0.020382 -0.002899 -0.002555 0.000000 0.000000 0.000000
# 2 -0.002899 0.008508 -0.003278 0.000000 0.000000 0.000000
# 3 -0.002555 -0.003278 0.013381 0.000000 0.000000 0.000000
# 4 0.000000 0.000000 0.000000 0.239840 0.000000 0.000000
# 5 0.000000 0.000000 0.000000 0.000000 0.048042 0.000000
# 6 0.000000 0.000000 0.000000 0.000000 0.000000 0.028308
#
#
# Mechanical properties :
#
#
# Convention : Reuss Voigt Hill
#
# Bulk Modulus (GPa) = 40.31062 49.49150 44.90106
# Shear Modulus (GPa) = 13.01423 25.56221 19.28822
#
# Velocity S-wave (km/s) = 2.55340 3.57857 3.10854
# Velocity P-wave (km/s) = 5.37475 6.47064 5.94799
#
# Compressibility (1/GPa) = 0.02480736
#
# Stress axis : x y z
#
# Youngs Moduli (GPa) = 49.06194 117.53760 74.73152
#
# Poissons Ratio (x) = 0.34071 0.19097
# Poissons Ratio (y) = 0.14222 0.24497
# Poissons Ratio (z) = 0.12538 0.38528
#
# Static dielectric constant tensor:
#      x y z
#    x 3.466110 0.000000 0.000000 
#    y 0.000000 3.823350 0.000000 
#    z 0.000000 0.000000 3.482780 
# 
# 
# High freq. dielectric constant tensor:
#      x y z
#    x 1.779970 0.000000 0.000000 
#    y 0.000000 1.794500 0.000000 
#    z 0.000000 0.000000 1.776900 
# 
# From -- ./inp_files/4940.got.cif
#   From: 2010.03.12/outbox.cif.g09.slc.cpg/sg45_3_cif.got.tgz:4940.got - 2010.04.14 02:50:11.
