data_PCOD8190683
_publ_section_title
;
Structure prediction by ZEFSAII (Michael W. Deem and Ramdas Pophale) SiO2 
 PCOD8190683
Probable space group: I B A 2
;
_chemical_formula_sum "Si O2"
_cell_formula_units_Z 40
_cell_length_a 14.652806
_cell_length_b 9.031925
_cell_length_c 15.007769
_cell_angle_alpha 90.000000
_cell_angle_beta 90.000000
_cell_angle_gamma 90.000000
_cell_volume 1986.173846
_symmetry_space_group_name_H-M "I B A 2"
_symmetry_group_IT_number 45
_symmetry_cell_setting 'orthorhombic'
loop_
_space_group_symop_operation_xyz
x,y,z
-x,-y,z
-x,y,1/2+z
x,-y,1/2+z
1/2+x,1/2+y,1/2+z
1/2-x,1/2-y,1/2+z
1/2-x,1/2+y,z
1/2+x,1/2-y,z
loop_
_atom_site_type_symbol
_atom_site_label
_atom_site_fract_x
_atom_site_fract_y
_atom_site_fract_z
Si Si1 0.403771 0.071160 0.259730
Si Si2 0.141523 0.354766 0.411997
Si Si3 0.974024 0.839823 0.858996
Si Si4 0.679395 0.318286 0.997147
Si Si5 0.818443 0.491421 0.578034
O O1 0.419528 0.243604 0.285464
O O2 0.338130 0.052708 0.175884
O O3 0.500000 0.000000 0.234616
O O4 0.356232 0.989819 0.342373
O O5 0.242672 0.281609 0.421615
O O6 0.113852 0.427445 0.507366
O O7 0.069590 0.233607 0.383658
O O8 0.915322 0.855825 0.949290
O O9 0.000000 0.000000 0.819041
O O10 0.713765 0.461239 0.053664
O O11 0.669328 0.184244 0.067704
#
# Coordination Sequence:
#
# PCOD8190683 Si02
#       5
#     8   8   8   8   8
#     4  10  22  39  63  92 121 176 209 255 320 382
#     4   9  22  41  63  88 128 171 206 256 321 376
#     4  11  21  39  68  94 125 166 213 267 316 375
#     4  10  21  39  64  90 125 172 205 263 317 371
#     4  10  22  39  61  90 129 161 213 255 316 379
#
# _framework density 20.139223999999999
#
# number of rings (size 3 to 8) (size 9 to 14) (size 15 to 20)
#    1.200    0.800    2.000    1.200    2.800    1.600 
#    0.000    5.000    0.000    0.000    0.000    0.000 
#    0.000    0.000    0.000    0.000    0.000    0.000 
#
# Total GULP energy -247844.601343 kJ/mol
# GULP energy per Si atom -12392.230067 kJ/mol
# Density = 2.009339 g / cm^3
# Si number density = 20.139224 Si / 1000 Ang^3
#
#
#
# Elastic Constant Matrix: (Units=GPa)
#
#
# Indices 1 2 3 4 5 6 
#
# 1 55.8566 22.1650 26.2452 0.0000 0.0000 0.0000
# 2 22.1650 125.6083 44.0160 0.0000 0.0000 0.0000
# 3 26.2452 44.0160 112.7430 0.0000 0.0000 0.0000
# 4 0.0000 0.0000 0.0000 14.7698 0.0000 0.0000
# 5 0.0000 0.0000 0.0000 0.0000 27.9328 0.0000
# 6 0.0000 0.0000 0.0000 0.0000 0.0000 26.1657
#
#
#
# Elastic Compliance Matrix: (Units=1/GPa)
#
#
# Indices 1 2 3 4 5 6 
#
# 1 0.020645 -0.002269 -0.003920 0.000000 0.000000 0.000000
# 2 -0.002269 0.009473 -0.003170 0.000000 0.000000 0.000000
# 3 -0.003920 -0.003170 0.011020 0.000000 0.000000 0.000000
# 4 0.000000 0.000000 0.000000 0.067706 0.000000 0.000000
# 5 0.000000 0.000000 0.000000 0.000000 0.035800 0.000000
# 6 0.000000 0.000000 0.000000 0.000000 0.000000 0.038218
#
#
# Mechanical properties :
#
#
# Convention : Reuss Voigt Hill
#
# Bulk Modulus (GPa) = 44.60480 53.22895 48.91688
# Shear Modulus (GPa) = 23.91735 27.22578 25.57156
#
# Velocity S-wave (km/s) = 3.44990 3.68078 3.56721
# Velocity P-wave (km/s) = 6.16971 6.67473 6.42718
#
# Compressibility (1/GPa) = 0.02241911
#
# Stress axis : x y z
#
# Youngs Moduli (GPa) = 48.43689 105.56848 90.74576
#
# Poissons Ratio (x) = 0.23958 0.35572
# Poissons Ratio (y) = 0.10993 0.28765
# Poissons Ratio (z) = 0.18987 0.33464
#
# Static dielectric constant tensor:
#      x y z
#    x 3.515240 0.000000 0.000000 
#    y 0.000000 3.655680 0.000000 
#    z 0.000000 0.000000 3.391470 
# 
# 
# High freq. dielectric constant tensor:
#      x y z
#    x 1.776580 0.000000 0.000000 
#    y 0.000000 1.787750 0.000000 
#    z 0.000000 0.000000 1.766050 
# 
# From -- ./inp_files/5531.got.cif
#   From: 2010.03.12/outbox.cif.g09.slc.cpg/sg45_3_cif.got.tgz:5531.got - 2010.04.14 02:50:11.
