data_PCOD8190997
_publ_section_title
;
Structure prediction by ZEFSAII (Michael W. Deem and Ramdas Pophale) SiO2 
 PCOD8190997
Probable space group: I B A 2
;
_chemical_formula_sum "Si O2"
_cell_formula_units_Z 64
_cell_length_a 18.559607
_cell_length_b 9.660413
_cell_length_c 17.942919
_cell_angle_alpha 90.000000
_cell_angle_beta 90.000000
_cell_angle_gamma 90.000000
_cell_volume 3217.048187
_symmetry_space_group_name_H-M "I B A 2"
_symmetry_group_IT_number 45
_symmetry_cell_setting 'orthorhombic'
loop_
_space_group_symop_operation_xyz
x,y,z
-x,-y,z
-x,y,1/2+z
x,-y,1/2+z
1/2+x,1/2+y,1/2+z
1/2-x,1/2-y,1/2+z
1/2-x,1/2+y,z
1/2+x,1/2-y,z
loop_
_atom_site_type_symbol
_atom_site_label
_atom_site_fract_x
_atom_site_fract_y
_atom_site_fract_z
Si Si1 0.444276 0.376658 0.801910
Si Si2 0.813941 0.253943 0.028918
Si Si3 0.208083 0.997167 0.777512
Si Si4 0.088925 0.402896 0.911318
Si Si5 0.449469 0.793391 0.446190
Si Si6 0.812879 0.713029 0.698470
Si Si7 0.240995 0.480703 0.944991
Si Si8 0.537757 0.855975 0.249742
O O1 0.500000 0.500000 0.801467
O O2 0.368092 0.421218 0.767604
O O3 0.434705 0.328138 0.887274
O O4 0.474603 0.257756 0.747351
O O5 0.788592 0.262822 0.113656
O O6 0.901020 0.270128 0.019552
O O7 0.774365 0.371770 0.981614
O O8 0.795540 0.103080 0.996868
O O9 0.269285 0.914797 0.733050
O O10 0.227055 0.009435 0.864052
O O11 0.203751 0.151208 0.745909
O O12 0.072588 0.565373 0.904398
O O13 0.169871 0.383461 0.939668
O O14 0.077552 0.342885 0.829258
O O15 0.034479 0.316055 0.966113
O O16 0.897811 0.676194 0.692596
O O17 0.500000 0.000000 0.230403
#
# Coordination Sequence:
#
# PCOD8190997 Si02
#       8
#     8   8   8   8   8   8   8   8
#     4  11  21  38  63  98 122 164 216 282 313 369
#     4  11  24  43  61  93 135 169 204 265 330 385
#     4  12  25  41  70  97 128 173 229 266 322 385
#     4   9  17  34  63  93 117 153 218 267 298 363
#     4   9  18  36  62  87 123 158 205 265 312 369
#     4  12  27  43  63  98 137 173 210 272 334 392
#     4  11  22  39  67  94 124 168 218 263 310 382
#     4  11  21  39  65  92 129 164 216 267 324 376
#
# _framework density 19.894013000000001
#
# number of rings (size 3 to 8) (size 9 to 14) (size 15 to 20)
#    0.000    1.250    6.250    1.500    3.500    0.000 
#    4.500    0.000    2.750    0.000    0.000    0.000 
#    0.000    0.000    0.000    0.000    0.000    0.000 
#
# Total GULP energy -396761.166268 kJ/mol
# GULP energy per Si atom -12398.786446 kJ/mol
# Density = 1.984873 g / cm^3
# Si number density = 19.894013 Si / 1000 Ang^3
#
#
#
# Elastic Constant Matrix: (Units=GPa)
#
#
# Indices 1 2 3 4 5 6 
#
# 1 101.2313 35.4211 24.2461 0.0000 0.0000 0.0000
# 2 35.4211 101.4409 28.1979 0.0000 0.0000 0.0000
# 3 24.2461 28.1979 95.7754 0.0000 0.0000 0.0000
# 4 0.0000 0.0000 0.0000 14.7741 0.0000 0.0000
# 5 0.0000 0.0000 0.0000 0.0000 14.0036 0.0000
# 6 0.0000 0.0000 0.0000 0.0000 0.0000 33.5428
#
#
#
# Elastic Compliance Matrix: (Units=1/GPa)
#
#
# Indices 1 2 3 4 5 6 
#
# 1 0.011560 -0.003510 -0.001893 0.000000 0.000000 0.000000
# 2 -0.003510 0.011803 -0.002586 0.000000 0.000000 0.000000
# 3 -0.001893 -0.002586 0.011682 0.000000 0.000000 0.000000
# 4 0.000000 0.000000 0.000000 0.067686 0.000000 0.000000
# 5 0.000000 0.000000 0.000000 0.000000 0.071410 0.000000
# 6 0.000000 0.000000 0.000000 0.000000 0.000000 0.029813
#
#
# Mechanical properties :
#
#
# Convention : Reuss Voigt Hill
#
# Bulk Modulus (GPa) = 52.45133 52.68641 52.56887
# Shear Modulus (GPa) = 22.09577 26.50292 24.29934
#
# Velocity S-wave (km/s) = 3.33629 3.65390 3.49870
# Velocity P-wave (km/s) = 6.42369 6.65901 6.54240
#
# Compressibility (1/GPa) = 0.01906529
#
# Stress axis : x y z
#
# Youngs Moduli (GPa) = 86.50492 84.72712 85.60365
#
# Poissons Ratio (x) = 0.29742 0.16205
# Poissons Ratio (y) = 0.30366 0.22139
# Poissons Ratio (z) = 0.16375 0.21912
#
# Static dielectric constant tensor:
#      x y z
#    x 4.087670 0.000000 0.000000 
#    y 0.000000 3.965010 0.000000 
#    z 0.000000 0.000000 3.295170 
# 
# 
# High freq. dielectric constant tensor:
#      x y z
#    x 1.791570 0.000000 0.000000 
#    y 0.000000 1.783150 0.000000 
#    z 0.000000 0.000000 1.742220 
# 
# From -- ./inp_files/8447.got.cif
#   From: 2010.03.12/outbox.cif.g09.slc.cpg/sg45_5_cif.got.tgz:8447.got - 2010.04.14 02:50:11.
