data_PCOD8190729
_publ_section_title
;
Structure prediction by ZEFSAII (Michael W. Deem and Ramdas Pophale) SiO2 
 PCOD8190729
Probable space group: I B A 2
;
_chemical_formula_sum "Si O2"
_cell_formula_units_Z 56
_cell_length_a 18.529980
_cell_length_b 8.504272
_cell_length_c 16.408962
_cell_angle_alpha 90.000000
_cell_angle_beta 90.000000
_cell_angle_gamma 90.000000
_cell_volume 2585.789705
_symmetry_space_group_name_H-M "I B A 2"
_symmetry_group_IT_number 45
_symmetry_cell_setting 'orthorhombic'
loop_
_space_group_symop_operation_xyz
x,y,z
-x,-y,z
-x,y,1/2+z
x,-y,1/2+z
1/2+x,1/2+y,1/2+z
1/2-x,1/2-y,1/2+z
1/2-x,1/2+y,z
1/2+x,1/2-y,z
loop_
_atom_site_type_symbol
_atom_site_label
_atom_site_fract_x
_atom_site_fract_y
_atom_site_fract_z
Si Si1 0.575170 0.583938 0.817670
Si Si2 0.521305 0.826321 0.695146
Si Si3 0.218011 0.338410 0.598864
Si Si4 0.667638 0.893953 0.389697
Si Si5 0.646157 0.832666 0.570235
Si Si6 0.319573 0.748904 0.423392
Si Si7 0.625395 0.711293 0.236142
O O1 0.500000 0.500000 0.839588
O O2 0.565780 0.742572 0.766229
O O3 0.614134 0.634378 0.900920
O O4 0.627593 0.467921 0.766923
O O5 0.568635 0.827188 0.613067
O O6 0.446400 0.733741 0.680815
O O7 0.500000 0.000000 0.723005
O O8 0.305155 0.321235 0.591170
O O9 0.194374 0.519642 0.600853
O O10 0.182324 0.253959 0.520840
O O11 0.194162 0.249354 0.680866
O O12 0.629541 0.842143 0.474169
O O13 0.747690 0.824610 0.385658
O O14 0.621727 0.826633 0.314491
O O15 0.670434 0.081152 0.382913
#
# Coordination Sequence:
#
# PCOD8190729 Si02
#       7
#     8   8   8   8   8   8   8
#     4  10  24  42  62  94 131 168 218 267 332 395
#     4  11  22  43  65  92 132 168 219 268 327 391
#     4  10  23  40  67  95 130 166 220 266 322 387
#     4  10  22  40  69  97 133 169 217 270 325 390
#     4  10  23  42  66  98 129 174 213 270 326 390
#     4  10  21  42  64  97 130 170 216 268 330 392
#     4  11  23  42  64  99 129 172 218 271 321 392
#
# _framework density 21.656825999999999
#
# number of rings (size 3 to 8) (size 9 to 14) (size 15 to 20)
#    0.000    1.714    1.429    1.714    4.000    1.143 
#    5.143    1.429    0.000    0.000    0.000    0.000 
#    0.000    0.000    0.000    0.000    0.000    0.000 
#
# Total GULP energy -347238.393571 kJ/mol
# GULP energy per Si atom -12401.371199 kJ/mol
# Density = 2.160753 g / cm^3
# Si number density = 21.656826 Si / 1000 Ang^3
#
#
#
# Elastic Constant Matrix: (Units=GPa)
#
#
# Indices 1 2 3 4 5 6 
#
# 1 82.7190 34.8227 58.2903 0.0000 0.0000 0.0000
# 2 34.8227 98.4917 47.0837 0.0000 0.0000 0.0000
# 3 58.2903 47.0837 109.6628 0.0000 0.0000 0.0000
# 4 0.0000 0.0000 0.0000 23.5708 0.0000 0.0000
# 5 0.0000 0.0000 0.0000 0.0000 40.1806 0.0000
# 6 0.0000 0.0000 0.0000 0.0000 0.0000 38.1117
#
#
#
# Elastic Compliance Matrix: (Units=1/GPa)
#
#
# Indices 1 2 3 4 5 6 
#
# 1 0.019798 -0.002478 -0.009460 0.000000 0.000000 0.000000
# 2 -0.002478 0.013085 -0.004301 0.000000 0.000000 0.000000
# 3 -0.009460 -0.004301 0.015994 0.000000 0.000000 0.000000
# 4 0.000000 0.000000 0.000000 0.042425 0.000000 0.000000
# 5 0.000000 0.000000 0.000000 0.000000 0.024888 0.000000
# 6 0.000000 0.000000 0.000000 0.000000 0.000000 0.026239
#
#
# Mechanical properties :
#
#
# Convention : Reuss Voigt Hill
#
# Bulk Modulus (GPa) = 60.97515 63.47409 62.22462
# Shear Modulus (GPa) = 27.72032 30.41774 29.06903
#
# Velocity S-wave (km/s) = 3.58156 3.75178 3.66766
# Velocity P-wave (km/s) = 6.73199 6.93833 6.83594
#
# Compressibility (1/GPa) = 0.01640012
#
# Stress axis : x y z
#
# Youngs Moduli (GPa) = 50.50948 76.42150 62.52399
#
# Poissons Ratio (x) = 0.18934 0.59147
# Poissons Ratio (y) = 0.12514 0.26893
# Poissons Ratio (z) = 0.47781 0.32871
#
# Static dielectric constant tensor:
#      x y z
#    x 3.804130 0.000000 0.000000 
#    y 0.000000 4.047640 0.000000 
#    z 0.000000 0.000000 3.774220 
# 
# 
# High freq. dielectric constant tensor:
#      x y z
#    x 1.842350 0.000000 0.000000 
#    y 0.000000 1.860510 0.000000 
#    z 0.000000 0.000000 1.843410 
# 
# From -- ./inp_files/6931.got.cif
#   From: 2010.03.12/outbox.cif.g09.slc.cpg/sg45_4_cif.got.tgz:6931.got - 2010.04.14 02:50:11.
