data_PCOD8190019
_publ_section_title
;
Structure prediction by ZEFSAII (Michael W. Deem and Ramdas Pophale) SiO2 
 PCOD8190019
Probable space group: I M M 2
;
_chemical_formula_sum "Si O2"
_cell_formula_units_Z 64
_cell_length_a 18.407342
_cell_length_b 27.740244
_cell_length_c 6.704640
_cell_angle_alpha 90.000000
_cell_angle_beta 90.000000
_cell_angle_gamma 90.000000
_cell_volume 3423.551158
_symmetry_space_group_name_H-M "I M M 2"
_symmetry_group_IT_number 44
_symmetry_cell_setting 'orthorhombic'
loop_
_space_group_symop_operation_xyz
x,y,z
-x,-y,z
-x,y,z
x,-y,z
1/2+x,1/2+y,1/2+z
1/2-x,1/2-y,1/2+z
1/2-x,1/2+y,1/2+z
1/2+x,1/2-y,1/2+z
loop_
_atom_site_type_symbol
_atom_site_label
_atom_site_fract_x
_atom_site_fract_y
_atom_site_fract_z
Si Si1 0.915402 0.303223 0.681660
Si Si2 0.415459 0.876386 0.852314
Si Si3 0.170968 0.625583 0.950824
Si Si4 0.822345 0.443524 0.601045
Si Si5 0.084541 0.876385 0.099349
Si Si6 0.415402 0.303222 0.270002
Si Si7 0.822348 0.943524 0.850618
Si Si8 0.329033 0.625583 0.000839
O O1 0.900631 0.323974 0.457809
O O2 0.879414 0.337327 0.840377
O O3 0.883830 0.250000 0.725830
O O4 0.000000 0.303915 0.728866
O O5 0.500000 0.881928 0.797751
O O6 0.366196 0.884599 0.660791
O O7 0.392832 0.918689 0.003533
O O8 0.183529 0.576161 0.826863
O O9 0.250000 0.649719 0.975837
O O10 0.836026 0.500000 0.609961
O O11 0.749998 0.430393 0.475830
O O12 0.133806 0.884598 0.290868
O O13 0.000000 0.881924 0.153917
O O14 0.099371 0.823974 0.993851
O O15 0.107165 0.918688 0.948130
O O16 0.500000 0.303914 0.222804
O O17 0.379417 0.337326 0.111279
O O18 0.816475 0.923839 0.624800
O O19 0.836030 0.000000 0.841702
#
# Coordination Sequence:
#
# PCOD8190019 Si02
#       8
#     8   8   8   8   8   8   8   8
#     4   9  20  39  59  82 115 154 193 233 286 349
#     4  10  21  38  60  85 117 152 191 241 289 341
#     4  11  21  36  57  87 115 151 193 239 290 346
#     4  10  21  38  59  82 114 154 195 238 290 350
#     4  10  21  38  60  85 117 152 191 241 289 341
#     4   9  20  39  59  82 115 154 193 233 286 349
#     4  10  21  38  59  82 114 154 195 238 290 350
#     4  11  21  36  57  87 115 151 193 239 290 346
#
# _framework density 18.694040999999999
#
# number of rings (size 3 to 8) (size 9 to 14) (size 15 to 20)
#    0.000    2.000    2.500    0.750    0.000    4.000 
#    4.500    3.750    0.000    0.000    0.000    0.000 
#    0.000    0.000    0.000    0.000    0.000    0.000 
#
# Total GULP energy -396682.981701 kJ/mol
# GULP energy per Si atom -12396.343178 kJ/mol
# Density = 1.865149 g / cm^3
# Si number density = 18.694041 Si / 1000 Ang^3
#
#
#
# Elastic Constant Matrix: (Units=GPa)
#
#
# Indices 1 2 3 4 5 6 
#
# 1 54.4278 33.2369 38.8369 0.0000 0.0001 0.0000
# 2 33.2369 125.1417 48.4518 0.0000 0.0000 0.0000
# 3 38.8369 48.4518 114.6540 0.0001 0.0000 0.0000
# 4 0.0000 0.0000 0.0001 17.1223 0.0000 0.0000
# 5 0.0001 0.0000 0.0000 0.0000 40.0772 0.0000
# 6 0.0000 0.0000 0.0000 0.0000 0.0000 25.9939
#
#
#
# Elastic Compliance Matrix: (Units=1/GPa)
#
#
# Indices 1 2 3 4 5 6 
#
# 1 0.025928 -0.004168 -0.007021 0.000000 0.000000 0.000000
# 2 -0.004168 0.010224 -0.002909 0.000000 0.000000 0.000000
# 3 -0.007021 -0.002909 0.012330 0.000000 0.000000 0.000000
# 4 0.000000 0.000000 0.000000 0.058403 0.000000 0.000000
# 5 0.000000 0.000000 0.000000 0.000000 0.024952 0.000000
# 6 0.000000 0.000000 0.000000 0.000000 0.000000 0.038471
#
#
# Mechanical properties :
#
#
# Convention : Reuss Voigt Hill
#
# Bulk Modulus (GPa) = 49.29592 59.47496 54.38544
# Shear Modulus (GPa) = 24.35868 28.21855 26.28862
#
# Velocity S-wave (km/s) = 3.61365 3.88944 3.75408
# Velocity P-wave (km/s) = 6.62106 7.21487 6.92433
#
# Compressibility (1/GPa) = 0.02028565
#
# Stress axis : x y z
#
# Youngs Moduli (GPa) = 38.56803 97.80779 81.10625
#
# Poissons Ratio (x) = 0.40765 0.56948
# Poissons Ratio (y) = 0.16075 0.23593
# Poissons Ratio (z) = 0.27080 0.28451
#
# Static dielectric constant tensor:
#      x y z
#    x 3.532410 0.000000 0.000000 
#    y 0.000000 3.457400 0.000000 
#    z 0.000000 0.000000 3.601440 
# 
# 
# High freq. dielectric constant tensor:
#      x y z
#    x 1.734420 0.000000 0.000000 
#    y 0.000000 1.716000 0.000000 
#    z 0.000000 0.000000 1.734060 
# 
# From -- ./inp_files/2529.got.cif
#   From: 2010.03.12/outbox.cif.g09.slc.cpg/sg44_2_cif.got.tgz:2529.got - 2010.04.14 02:36:11.
