data_PCOD8190993
_publ_section_title
;
Structure prediction by ZEFSAII (Michael W. Deem and Ramdas Pophale) SiO2 
 PCOD8190993
Probable space group: I B A 2
;
_chemical_formula_sum "Si O2"
_cell_formula_units_Z 60
_cell_length_a 15.907616
_cell_length_b 9.790982
_cell_length_c 17.267779
_cell_angle_alpha 90.000000
_cell_angle_beta 90.000000
_cell_angle_gamma 90.000000
_cell_volume 2689.476988
_symmetry_space_group_name_H-M "I B A 2"
_symmetry_group_IT_number 45
_symmetry_cell_setting 'orthorhombic'
loop_
_space_group_symop_operation_xyz
x,y,z
-x,-y,z
-x,y,1/2+z
x,-y,1/2+z
1/2+x,1/2+y,1/2+z
1/2-x,1/2-y,1/2+z
1/2-x,1/2+y,z
1/2+x,1/2-y,z
loop_
_atom_site_type_symbol
_atom_site_label
_atom_site_fract_x
_atom_site_fract_y
_atom_site_fract_z
Si Si1 0.969330 0.648625 0.761330
Si Si2 0.389532 0.655259 0.211877
Si Si3 0.000000 0.000000 0.597802
Si Si4 0.258378 0.843216 0.156080
Si Si5 0.376180 0.302944 0.027263
Si Si6 0.595359 0.952587 0.113349
Si Si7 0.819813 0.196747 0.317121
Si Si8 0.184936 0.088278 0.366371
O O1 0.900743 0.636311 0.692218
O O2 0.917633 0.749680 0.818828
O O3 0.000000 0.500000 0.795511
O O4 0.052252 0.712267 0.723509
O O5 0.425194 0.546509 0.152805
O O6 0.299799 0.695487 0.174025
O O7 0.382645 0.592589 0.297269
O O8 0.964571 0.877849 0.545155
O O9 0.195921 0.850267 0.085085
O O10 0.210706 0.879048 0.236816
O O11 0.335418 0.933499 0.125478
O O12 0.385781 0.139990 0.037935
O O13 0.352439 0.336355 0.940185
O O14 0.500000 0.000000 0.104167
O O15 0.768333 0.331064 0.341199
O O16 0.803602 0.075569 0.380555
#
# Coordination Sequence:
#
# PCOD8190993 Si02
#       8
#     8   8   4   8   8   8   8   8
#     4  11  20  40  73 107 132 174 243 301 341 414
#     4  11  22  41  67 101 134 184 239 293 352 429
#     4  12  24  42  70  98 132 184 242 288 358 428
#     4  11  22  39  73  97 135 186 242 288 347 424
#     4  12  27  43  68 105 141 183 236 303 365 429
#     4  11  21  43  70 103 138 176 242 301 352 423
#     4  11  24  45  69 104 142 195 239 293 358 437
#     4  11  28  43  68 100 149 182 236 294 371 427
#
# _framework density 22.309170999999999
#
# number of rings (size 3 to 8) (size 9 to 14) (size 15 to 20)
#    0.000    0.800    5.333    2.400    7.467    1.600 
#    0.000    2.000    0.000    0.000    0.000    0.000 
#    0.000    0.000    0.000    0.000    0.000    0.000 
#
# Total GULP energy -371740.866764 kJ/mol
# GULP energy per Si atom -12391.362225 kJ/mol
# Density = 2.225839 g / cm^3
# Si number density = 22.309171 Si / 1000 Ang^3
#
#
#
# Elastic Constant Matrix: (Units=GPa)
#
#
# Indices 1 2 3 4 5 6 
#
# 1 86.7654 23.5082 30.5839 0.0000 0.0000 0.0000
# 2 23.5082 104.1964 24.4048 0.0000 0.0000 0.0000
# 3 30.5839 24.4048 91.5967 0.0000 0.0000 0.0000
# 4 0.0000 0.0000 0.0000 28.3160 0.0000 0.0000
# 5 0.0000 0.0000 0.0000 0.0000 24.1967 0.0000
# 6 0.0000 0.0000 0.0000 0.0000 0.0000 34.1353
#
#
#
# Elastic Compliance Matrix: (Units=1/GPa)
#
#
# Indices 1 2 3 4 5 6 
#
# 1 0.013488 -0.002121 -0.003939 0.000000 0.000000 0.000000
# 2 -0.002121 0.010569 -0.002108 0.000000 0.000000 0.000000
# 3 -0.003939 -0.002108 0.012794 0.000000 0.000000 0.000000
# 4 0.000000 0.000000 0.000000 0.035316 0.000000 0.000000
# 5 0.000000 0.000000 0.000000 0.000000 0.041328 0.000000
# 6 0.000000 0.000000 0.000000 0.000000 0.000000 0.029295
#
#
# Mechanical properties :
#
#
# Convention : Reuss Voigt Hill
#
# Bulk Modulus (GPa) = 48.73956 48.83917 48.78936
# Shear Modulus (GPa) = 30.12693 30.93371 30.53032
#
# Velocity S-wave (km/s) = 3.67880 3.72774 3.70335
# Velocity P-wave (km/s) = 6.31977 6.36141 6.34063
#
# Compressibility (1/GPa) = 0.02051722
#
# Stress axis : x y z
#
# Youngs Moduli (GPa) = 74.13870 94.61237 78.16050
#
# Poissons Ratio (x) = 0.20064 0.30785
# Poissons Ratio (y) = 0.15722 0.16476
# Poissons Ratio (z) = 0.29201 0.19944
#
# Static dielectric constant tensor:
#      x y z
#    x 4.169710 0.000000 0.000000 
#    y 0.000000 4.211800 0.000000 
#    z 0.000000 0.000000 3.784840 
# 
# 
# High freq. dielectric constant tensor:
#      x y z
#    x 1.894000 0.000000 0.000000 
#    y 0.000000 1.894250 0.000000 
#    z 0.000000 0.000000 1.840680 
# 
# From -- ./inp_files/8350.got.cif
#   From: 2010.03.12/outbox.cif.g09.slc.cpg/sg45_5_cif.got.tgz:8350.got - 2010.04.14 02:50:11.
