data_PCOD8190343
_publ_section_title
;
Structure prediction by ZEFSAII (Michael W. Deem and Ramdas Pophale) SiO2 
 PCOD8190343
Probable space group: I M M 2
;
_chemical_formula_sum "Si O2"
_cell_formula_units_Z 48
_cell_length_a 9.533066
_cell_length_b 12.010478
_cell_length_c 25.637441
_cell_angle_alpha 90.000000
_cell_angle_beta 90.000000
_cell_angle_gamma 90.000000
_cell_volume 2935.401864
_symmetry_space_group_name_H-M "I M M 2"
_symmetry_group_IT_number 44
_symmetry_cell_setting 'orthorhombic'
loop_
_space_group_symop_operation_xyz
x,y,z
-x,-y,z
-x,y,z
x,-y,z
1/2+x,1/2+y,1/2+z
1/2-x,1/2-y,1/2+z
1/2-x,1/2+y,1/2+z
1/2+x,1/2-y,1/2+z
loop_
_atom_site_type_symbol
_atom_site_label
_atom_site_fract_x
_atom_site_fract_y
_atom_site_fract_z
Si Si1 0.667665 0.000000 0.823261
Si Si2 0.333464 0.000000 0.939748
Si Si3 0.832752 0.874664 0.357884
Si Si4 0.167058 0.742638 0.459414
Si Si5 0.661582 0.370270 0.060571
Si Si6 0.663097 0.870480 0.660368
Si Si7 0.166273 0.716972 0.268642
O O1 0.730614 0.108163 0.795648
O O2 0.500000 0.000000 0.821318
O O3 0.724353 0.000000 0.881506
O O4 0.278961 0.114847 0.965829
O O5 0.500000 0.000000 0.940301
O O6 0.775445 0.800645 0.406348
O O7 0.781162 0.823784 0.302001
O O8 0.000000 0.876217 0.359669
O O9 0.772955 0.000000 0.362316
O O10 0.222462 0.808065 0.509894
O O11 0.000000 0.746847 0.457120
O O12 0.500000 0.339550 0.070827
O O13 0.681370 0.500000 0.049715
O O14 0.748914 0.331307 0.110602
O O15 0.500000 0.854391 0.647381
O O16 0.711088 0.788644 0.707779
O O17 0.692868 0.000000 0.674927
O O18 0.000000 0.710902 0.271610
#
# Coordination Sequence:
#
# PCOD8190343 Si02
#       7
#     4   4   8   8   8   8   8
#     4   9  12  18  32  54  79  99 119 156 207 240
#     4   9  14  20  34  56  79 103 131 164 201 240
#     4   9  15  21  32  53  81 109 130 154 199 253
#     4   9  15  23  36  55  80 106 132 164 202 242
#     4   9  17  28  41  59  84 110 134 165 205 242
#     4   9  16  26  42  62  81 105 139 173 200 230
#     4   9  14  21  35  55  79 101 125 162 204 239
#
# _framework density 16.352105000000002
#
# number of rings (size 3 to 8) (size 9 to 14) (size 15 to 20)
#    0.000    3.000    2.500    0.500    0.000    2.000 
#    0.000    0.000    1.833    0.000    0.000    1.167 
#    0.000    2.667    0.000    0.000    0.000    0.000 
#
# Total GULP energy -297356.919257 kJ/mol
# GULP energy per Si atom -12389.871636 kJ/mol
# Density = 1.631489 g / cm^3
# Si number density = 16.352105 Si / 1000 Ang^3
#
#
#
# Elastic Constant Matrix: (Units=GPa)
#
#
# Indices 1 2 3 4 5 6 
#
# 1 15.1935 12.7812 27.5042 0.0000 0.0000 0.0000
# 2 12.7812 111.8956 70.7137 0.0000 0.0000 0.0000
# 3 27.5042 70.7137 153.5628 0.0000 0.0000 0.0000
# 4 0.0000 0.0000 0.0000 30.5954 0.0000 0.0000
# 5 0.0000 0.0000 0.0000 0.0000 18.3492 0.0000
# 6 0.0000 0.0000 0.0000 0.0000 0.0000 6.0089
#
#
#
# Elastic Compliance Matrix: (Units=1/GPa)
#
#
# Indices 1 2 3 4 5 6 
#
# 1 0.097398 -0.000142 -0.017379 0.000000 0.000000 0.000000
# 2 -0.000142 0.012605 -0.005779 0.000000 0.000000 0.000000
# 3 -0.017379 -0.005779 0.012286 0.000000 0.000000 0.000000
# 4 0.000000 0.000000 0.000000 0.032685 0.000000 0.000000
# 5 0.000000 0.000000 0.000000 0.000000 0.054498 0.000000
# 6 0.000000 0.000000 0.000000 0.000000 0.000000 0.166419
#
#
# Mechanical properties :
#
#
# Convention : Reuss Voigt Hill
#
# Bulk Modulus (GPa) = 13.21208 55.85001 34.53104
# Shear Modulus (GPa) = 11.16763 22.30087 16.73425
#
# Velocity S-wave (km/s) = 2.61616 3.69696 3.20249
# Velocity P-wave (km/s) = 4.15006 7.24239 5.90234
#
# Compressibility (1/GPa) = 0.07568831
#
# Stress axis : x y z
#
# Youngs Moduli (GPa) = 10.26713 79.33145 81.39378
#
# Poissons Ratio (x) = 0.01128 1.41456
# Poissons Ratio (y) = 0.00146 0.47038
# Poissons Ratio (z) = 0.17843 0.45847
#
# Static dielectric constant tensor:
#      x y z
#    x 2.424790 0.000000 0.000000 
#    y 0.000000 3.277460 0.000000 
#    z 0.000000 0.000000 3.283590 
# 
# 
# High freq. dielectric constant tensor:
#      x y z
#    x 1.548900 0.000000 0.000000 
#    y 0.000000 1.623280 0.000000 
#    z 0.000000 0.000000 1.637650 
# 
# From -- ./inp_files/23718.got.cif
#   From: 2010.03.12/outbox.cif.g09.slc.cpg/sg44_12_cif.got.tgz:23718.got - 2010.04.14 02:36:11.
