data_PCOD8190502
_publ_section_title
;
Structure prediction by ZEFSAII (Michael W. Deem and Ramdas Pophale) SiO2 
 PCOD8190502
Probable space group: I B A 2
;
_chemical_formula_sum "Si O2"
_cell_formula_units_Z 60
_cell_length_a 22.681783
_cell_length_b 9.685451
_cell_length_c 12.260511
_cell_angle_alpha 90.000000
_cell_angle_beta 90.000000
_cell_angle_gamma 90.000000
_cell_volume 2693.429490
_symmetry_space_group_name_H-M "I B A 2"
_symmetry_group_IT_number 45
_symmetry_cell_setting 'orthorhombic'
loop_
_space_group_symop_operation_xyz
x,y,z
-x,-y,z
-x,y,1/2+z
x,-y,1/2+z
1/2+x,1/2+y,1/2+z
1/2-x,1/2-y,1/2+z
1/2-x,1/2+y,z
1/2+x,1/2-y,z
loop_
_atom_site_type_symbol
_atom_site_label
_atom_site_fract_x
_atom_site_fract_y
_atom_site_fract_z
Si Si1 0.066927 0.239553 0.416410
Si Si2 0.933073 0.239553 0.163432
Si Si3 0.317943 0.369223 0.843053
Si Si4 0.305703 0.148855 0.662359
Si Si5 0.682057 0.369223 0.736789
Si Si6 0.500000 0.500000 0.289921
Si Si7 0.194297 0.648855 0.417483
Si Si8 0.902357 0.500000 0.789921
O O1 0.043905 0.267082 0.539921
O O2 0.137220 0.211123 0.422120
O O3 0.057067 0.375592 0.339245
O O4 0.036795 0.103019 0.367347
O O5 0.862780 0.211123 0.157722
O O6 0.963205 0.103019 0.212495
O O7 0.942933 0.375592 0.240596
O O8 0.302189 0.279382 0.738664
O O9 0.350835 0.500000 0.789921
O O10 0.259115 0.421363 0.906353
O O11 0.240885 0.078637 0.673489
O O12 0.316607 0.198419 0.539921
O O13 0.359590 0.048255 0.692262
O O14 0.697811 0.279382 0.841178
O O15 0.140410 0.548255 0.387580
#
# Coordination Sequence:
#
# PCOD8190502 Si02
#       8
#     8   8   8   8   8   4   8   8
#     4  11  24  45  69  93 128 169 207 271 328 369
#     4  11  24  45  69  93 128 169 207 271 328 369
#     4  10  20  38  55  91 129 163 214 252 297 381
#     4  10  20  34  58  90 129 169 201 247 302 364
#     4  10  20  38  55  91 129 163 214 252 297 381
#     4  12  26  48  68  98 124 152 222 268 328 410
#     4  10  20  34  58  90 129 169 201 247 302 364
#     4  10  22  42  64  96 130 160 220 252 300 392
#
# _framework density 22.276432
#
# number of rings (size 3 to 8) (size 9 to 14) (size 15 to 20)
#    0.000    1.600    2.667    2.000    0.000    2.667 
#    0.000    5.333    0.000    0.000    0.000    0.000 
#    0.000    0.000    0.000    0.000    0.000    0.000 
#
# Total GULP energy -371723.878207 kJ/mol
# GULP energy per Si atom -12390.795940 kJ/mol
# Density = 2.222573 g / cm^3
# Si number density = 22.276432 Si / 1000 Ang^3
#
#
#
# Elastic Constant Matrix: (Units=GPa)
#
#
# Indices 1 2 3 4 5 6 
#
# 1 57.4904 36.8351 45.1343 0.0000 0.0000 0.0000
# 2 36.8351 137.0795 44.5642 0.0000 0.0000 0.0000
# 3 45.1343 44.5642 145.7716 0.0000 0.0000 0.0000
# 4 0.0000 0.0000 0.0000 19.8479 0.0000 0.0000
# 5 0.0000 0.0000 0.0000 0.0000 14.2695 0.0000
# 6 0.0000 0.0000 0.0000 0.0000 0.0000 33.1681
#
#
#
# Elastic Compliance Matrix: (Units=1/GPa)
#
#
# Indices 1 2 3 4 5 6 
#
# 1 0.025499 -0.004758 -0.006441 0.000000 0.000000 0.000000
# 2 -0.004758 0.008988 -0.001274 0.000000 0.000000 0.000000
# 3 -0.006441 -0.001274 0.009244 0.000000 0.000000 0.000000
# 4 0.000000 0.000000 0.000000 0.050383 0.000000 0.000000
# 5 0.000000 0.000000 0.000000 0.000000 0.070080 0.000000
# 6 0.000000 0.000000 0.000000 0.000000 0.000000 0.030149
#
#
# Mechanical properties :
#
#
# Convention : Reuss Voigt Hill
#
# Bulk Modulus (GPa) = 53.23517 65.93432 59.58474
# Shear Modulus (GPa) = 22.16793 27.71095 24.93944
#
# Velocity S-wave (km/s) = 3.15799 3.53081 3.34959
# Velocity P-wave (km/s) = 6.10300 6.80328 6.46263
#
# Compressibility (1/GPa) = 0.01878458
#
# Stress axis : x y z
#
# Youngs Moduli (GPa) = 39.21700 111.26005 108.18052
#
# Poissons Ratio (x) = 0.52939 0.69674
# Poissons Ratio (y) = 0.18660 0.13787
# Poissons Ratio (z) = 0.25258 0.14180
#
# Static dielectric constant tensor:
#      x y z
#    x 3.963200 0.000000 0.000000 
#    y 0.000000 4.131810 0.000000 
#    z 0.000000 0.000000 3.818670 
# 
# 
# High freq. dielectric constant tensor:
#      x y z
#    x 1.866780 0.000000 0.000000 
#    y 0.000000 1.881920 0.000000 
#    z 0.000000 0.000000 1.867630 
# 
# From -- ./inp_files/4892.got.cif
#   From: 2010.03.12/outbox.cif.g09.slc.cpg/sg45_3_cif.got.tgz:4892.got - 2010.04.14 02:50:11.
