data_PCOD8190489
_publ_section_title
;
Structure prediction by ZEFSAII (Michael W. Deem and Ramdas Pophale) SiO2 
 PCOD8190489
Probable space group: I B A 2
;
_chemical_formula_sum "Si O2"
_cell_formula_units_Z 44
_cell_length_a 22.820994
_cell_length_b 12.130337
_cell_length_c 8.835171
_cell_angle_alpha 90.000000
_cell_angle_beta 90.000000
_cell_angle_gamma 90.000000
_cell_volume 2445.808121
_symmetry_space_group_name_H-M "I B A 2"
_symmetry_group_IT_number 45
_symmetry_cell_setting 'orthorhombic'
loop_
_space_group_symop_operation_xyz
x,y,z
-x,-y,z
-x,y,1/2+z
x,-y,1/2+z
1/2+x,1/2+y,1/2+z
1/2-x,1/2-y,1/2+z
1/2-x,1/2+y,z
1/2+x,1/2-y,z
loop_
_atom_site_type_symbol
_atom_site_label
_atom_site_fract_x
_atom_site_fract_y
_atom_site_fract_z
Si Si1 0.195495 0.358618 0.902750
Si Si2 0.082336 0.060351 0.282755
Si Si3 0.663429 0.645974 0.241746
Si Si4 0.000000 0.000000 0.032934
Si Si5 0.173260 0.213884 0.405995
Si Si6 0.203692 0.423105 0.240501
O O1 0.160498 0.247446 0.860097
O O2 0.263875 0.338968 0.882110
O O3 0.180526 0.456165 0.785160
O O4 0.180267 0.392755 0.073968
O O5 0.130717 0.155021 0.285543
O O6 0.112557 0.939543 0.284399
O O7 0.041699 0.076842 0.136006
O O8 0.041370 0.075579 0.429418
O O9 0.725776 0.583941 0.247883
O O10 0.651397 0.696048 0.076289
O O11 0.175400 0.342233 0.364903
#
# Coordination Sequence:
#
# PCOD8190489 Si02
#       6
#     8   8   8   4   8   8
#     4  10  20  32  50  80 110 146 179 208 256 340
#     4  11  20  38  54  82 106 144 174 235 266 320
#     4  10  20  33  53  75 111 146 175 216 270 316
#     4  10  24  34  56  78 106 134 196 222 280 306
#     4  10  20  33  53  75 111 146 175 216 270 316
#     4  10  20  32  50  80 110 146 179 208 256 340
#
# _framework density 17.989962999999999
#
# number of rings (size 3 to 8) (size 9 to 14) (size 15 to 20)
#    0.000    1.818    3.636    1.091    2.545    1.455 
#    0.000    0.000    0.000    0.000    0.000    7.636 
#    0.000    0.000    0.000    0.000    0.000    0.000 
#
# Total GULP energy -272768.633706 kJ/mol
# GULP energy per Si atom -12398.574259 kJ/mol
# Density = 1.794902 g / cm^3
# Si number density = 17.989963 Si / 1000 Ang^3
#
#
#
# Elastic Constant Matrix: (Units=GPa)
#
#
# Indices 1 2 3 4 5 6 
#
# 1 58.4755 20.8403 26.2386 0.0000 0.0000 0.0000
# 2 20.8403 78.1942 29.1064 0.0000 0.0000 0.0000
# 3 26.2386 29.1064 86.5653 0.0000 0.0000 0.0000
# 4 0.0000 0.0000 0.0000 28.8711 0.0000 0.0000
# 5 0.0000 0.0000 0.0000 0.0000 19.9351 0.0000
# 6 0.0000 0.0000 0.0000 0.0000 0.0000 14.2590
#
#
#
# Elastic Compliance Matrix: (Units=1/GPa)
#
#
# Indices 1 2 3 4 5 6 
#
# 1 0.020656 -0.003629 -0.005041 0.000000 0.000000 0.000000
# 2 -0.003629 0.015256 -0.004030 0.000000 0.000000 0.000000
# 3 -0.005041 -0.004030 0.014435 0.000000 0.000000 0.000000
# 4 0.000000 0.000000 0.000000 0.034637 0.000000 0.000000
# 5 0.000000 0.000000 0.000000 0.000000 0.050163 0.000000
# 6 0.000000 0.000000 0.000000 0.000000 0.000000 0.070131
#
#
# Mechanical properties :
#
#
# Convention : Reuss Voigt Hill
#
# Bulk Modulus (GPa) = 40.08323 41.73396 40.90859
# Shear Modulus (GPa) = 20.92115 22.41636 21.66875
#
# Velocity S-wave (km/s) = 3.41388 3.53377 3.47434
# Velocity P-wave (km/s) = 6.15376 6.31656 6.23569
#
# Compressibility (1/GPa) = 0.02494809
#
# Stress axis : x y z
#
# Youngs Moduli (GPa) = 48.41108 65.54890 69.27695
#
# Poissons Ratio (x) = 0.23787 0.34922
# Poissons Ratio (y) = 0.17568 0.27916
# Poissons Ratio (z) = 0.24404 0.26413
#
# Static dielectric constant tensor:
#      x y z
#    x 3.155800 0.000000 0.000000 
#    y 0.000000 3.223190 0.000000 
#    z 0.000000 0.000000 3.572400 
# 
# 
# High freq. dielectric constant tensor:
#      x y z
#    x 1.662550 0.000000 0.000000 
#    y 0.000000 1.681990 0.000000 
#    z 0.000000 0.000000 1.714220 
# 
# From -- ./inp_files/1330.got.cif
#   From: 2010.03.12/outbox.cif.g09.slc.cpg/sg45_1_cif.got.tgz:1330.got - 2010.04.14 02:50:11.
