data_PCOD8190600
_publ_section_title
;
Structure prediction by ZEFSAII (Michael W. Deem and Ramdas Pophale) SiO2 
 PCOD8190600
Probable space group: I B A 2
;
_chemical_formula_sum "Si O2"
_cell_formula_units_Z 64
_cell_length_a 14.327395
_cell_length_b 18.321872
_cell_length_c 10.124688
_cell_angle_alpha 90.000000
_cell_angle_beta 90.000000
_cell_angle_gamma 90.000000
_cell_volume 2657.778159
_symmetry_space_group_name_H-M "I B A 2"
_symmetry_group_IT_number 45
_symmetry_cell_setting 'orthorhombic'
loop_
_space_group_symop_operation_xyz
x,y,z
-x,-y,z
-x,y,1/2+z
x,-y,1/2+z
1/2+x,1/2+y,1/2+z
1/2-x,1/2-y,1/2+z
1/2-x,1/2+y,z
1/2+x,1/2-y,z
loop_
_atom_site_type_symbol
_atom_site_label
_atom_site_fract_x
_atom_site_fract_y
_atom_site_fract_z
Si Si1 0.894818 0.304696 0.782350
Si Si2 0.651154 0.040261 0.373864
Si Si3 0.111170 0.285064 0.761789
Si Si4 0.105182 0.195303 0.505241
Si Si5 0.853354 0.939404 0.126791
Si Si6 0.651154 0.459739 0.413727
Si Si7 0.888830 0.785064 0.025802
Si Si8 0.646646 0.939405 0.160800
O O1 0.842250 0.381194 0.803066
O O2 0.856344 0.249999 0.893795
O O3 0.873810 0.276493 0.635865
O O4 0.006313 0.311008 0.793448
O O5 0.598388 0.052876 0.515514
O O6 0.750000 0.000000 0.393795
O O7 0.593319 0.987738 0.272696
O O8 0.126190 0.223508 0.651724
O O9 0.162005 0.357229 0.711118
O O10 0.156109 0.250000 0.893795
O O11 0.157750 0.118806 0.484526
O O12 0.993687 0.188992 0.494144
O O13 0.901612 0.947123 0.272077
O O14 0.837994 0.857228 0.076474
O O15 0.750000 0.972526 0.143795
O O16 0.906681 0.987737 0.014894
#
# Coordination Sequence:
#
# PCOD8190600 Si02
#       8
#     8   8   8   8   8   8   8   8
#     4  10  20  41  67  91 128 171 210 272 329 388
#     4  10  22  41  64  88 128 170 215 269 327 399
#     4  10  22  39  64  98 127 164 224 266 326 402
#     4  10  20  41  67  91 128 171 210 272 329 388
#     4  10  22  42  59  91 127 170 219 264 328 395
#     4  10  22  41  64  88 128 170 215 269 327 399
#     4  10  22  39  64  98 127 164 224 266 326 402
#     4  10  22  42  59  91 127 170 219 264 328 395
#
# _framework density 24.080265000000001
#
# number of rings (size 3 to 8) (size 9 to 14) (size 15 to 20)
#    0.000    2.000    2.500    0.000    3.500    1.000 
#    9.000    2.500    0.000    0.000    0.000    0.000 
#    0.000    0.000    0.000    0.000    0.000    0.000 
#
# Total GULP energy -396436.882130 kJ/mol
# GULP energy per Si atom -12388.652567 kJ/mol
# Density = 2.402546 g / cm^3
# Si number density = 24.080265 Si / 1000 Ang^3
#
#
#
# Elastic Constant Matrix: (Units=GPa)
#
#
# Indices 1 2 3 4 5 6 
#
# 1 26.6575 27.0779 12.5173 0.0000 0.0000 0.0000
# 2 27.0779 187.4730 100.5442 0.0000 0.0000 0.0000
# 3 12.5173 100.5442 252.2491 0.0000 0.0000 0.0000
# 4 0.0000 0.0000 0.0000 57.4419 0.0000 0.0000
# 5 0.0000 0.0000 0.0000 0.0000 11.2808 0.0000
# 6 0.0000 0.0000 0.0000 0.0000 0.0000 21.1856
#
#
#
# Elastic Compliance Matrix: (Units=1/GPa)
#
#
# Indices 1 2 3 4 5 6 
#
# 1 0.044002 -0.006594 0.000445 0.000000 0.000000 0.000000
# 2 -0.006594 0.007773 -0.002771 0.000000 0.000000 0.000000
# 3 0.000445 -0.002771 0.005047 0.000000 0.000000 0.000000
# 4 0.000000 0.000000 0.000000 0.017409 0.000000 0.000000
# 5 0.000000 0.000000 0.000000 0.000000 0.088646 0.000000
# 6 0.000000 0.000000 0.000000 0.000000 0.000000 0.047202
#
#
# Mechanical properties :
#
#
# Convention : Reuss Voigt Hill
#
# Bulk Modulus (GPa) = 25.65347 82.96207 54.30777
# Shear Modulus (GPa) = 20.75445 39.73100 30.24273
#
# Velocity S-wave (km/s) = 2.93897 4.06635 3.54773
# Velocity P-wave (km/s) = 4.71097 7.52157 6.27564
#
# Compressibility (1/GPa) = 0.03898109
#
# Stress axis : x y z
#
# Youngs Moduli (GPa) = 22.72624 128.65760 198.14926
#
# Poissons Ratio (x) = 0.84838 -0.08814
# Poissons Ratio (y) = 0.14986 0.54904
# Poissons Ratio (z) = -0.01011 0.35649
#
# Static dielectric constant tensor:
#      x y z
#    x 3.735080 0.000000 0.000000 
#    y 0.000000 4.273100 0.000000 
#    z 0.000000 0.000000 5.942960 
# 
# 
# High freq. dielectric constant tensor:
#      x y z
#    x 1.907780 0.000000 0.000000 
#    y 0.000000 1.959390 0.000000 
#    z 0.000000 0.000000 1.990410 
# 
# From -- ./inp_files/4514.got.cif
#   From: 2010.03.12/outbox.cif.g09.slc.cpg/sg45_3_cif.got.tgz:4514.got - 2010.04.14 02:50:11.
