data_PCOD8190851
_publ_section_title
;
Structure prediction by ZEFSAII (Michael W. Deem and Ramdas Pophale) SiO2 
 PCOD8190851
Probable space group: I B A 2
;
_chemical_formula_sum "Si O2"
_cell_formula_units_Z 60
_cell_length_a 8.078585
_cell_length_b 15.830066
_cell_length_c 20.324627
_cell_angle_alpha 90.000000
_cell_angle_beta 90.000000
_cell_angle_gamma 90.000000
_cell_volume 2599.205447
_symmetry_space_group_name_H-M "I B A 2"
_symmetry_group_IT_number 45
_symmetry_cell_setting 'orthorhombic'
loop_
_space_group_symop_operation_xyz
x,y,z
-x,-y,z
-x,y,1/2+z
x,-y,1/2+z
1/2+x,1/2+y,1/2+z
1/2-x,1/2-y,1/2+z
1/2-x,1/2+y,z
1/2+x,1/2-y,z
loop_
_atom_site_type_symbol
_atom_site_label
_atom_site_fract_x
_atom_site_fract_y
_atom_site_fract_z
Si Si1 0.227914 0.642305 0.145350
Si Si2 0.815001 0.468385 0.703469
Si Si3 0.819016 0.806891 0.327713
Si Si4 0.088205 0.712424 0.699052
Si Si5 0.607334 0.845147 0.998561
Si Si6 0.000000 0.500000 0.926144
Si Si7 0.186576 0.011404 0.332652
Si Si8 0.090033 0.214146 0.924642
O O1 0.269377 0.542797 0.158820
O O2 0.385261 0.705543 0.151463
O O3 0.105570 0.687759 0.198413
O O4 0.141809 0.647375 0.075076
O O5 0.817498 0.373213 0.672436
O O6 0.714345 0.450033 0.770589
O O7 0.000000 0.500000 0.718918
O O8 0.869408 0.735974 0.274699
O O9 0.778738 0.897706 0.296468
O O10 0.669756 0.780022 0.374042
O O11 0.964941 0.835740 0.378131
O O12 0.490502 0.920338 0.974468
O O13 0.777825 0.848484 0.956972
O O14 0.508529 0.759303 0.983935
O O15 0.171074 0.504978 0.886042
O O16 0.000000 0.000000 0.360882
#
# Coordination Sequence:
#
# PCOD8190851 Si02
#       8
#     8   8   8   8   8   4   8   8
#     4  11  24  45  66  98 133 187 235 277 348 423
#     4  10  24  41  66  99 135 177 229 285 348 426
#     4  11  22  40  65  99 133 169 223 291 360 406
#     4  11  24  39  69  96 133 176 225 293 346 411
#     4  11  24  44  68  93 138 181 236 277 347 424
#     4  12  26  44  70 104 136 192 224 298 358 420
#     4  12  25  41  67 103 145 173 232 294 363 422
#     4  10  23  40  66  98 127 176 226 283 344 424
#
# _framework density 23.083977000000001
#
# number of rings (size 3 to 8) (size 9 to 14) (size 15 to 20)
#    0.000    1.067    3.333    2.400   12.133    0.000 
#    0.000    0.000    0.000    0.800    0.000    0.000 
#    0.000    0.000    0.000    0.000    0.000    0.000 
#
# Total GULP energy -371694.249210 kJ/mol
# GULP energy per Si atom -12389.808307 kJ/mol
# Density = 2.303144 g / cm^3
# Si number density = 23.083977 Si / 1000 Ang^3
#
#
#
# Elastic Constant Matrix: (Units=GPa)
#
#
# Indices 1 2 3 4 5 6 
#
# 1 63.8520 3.9495 4.9299 0.0000 0.0000 0.0000
# 2 3.9495 124.4127 19.2133 0.0000 0.0000 0.0000
# 3 4.9299 19.2133 89.1854 0.0000 0.0000 0.0000
# 4 0.0000 0.0000 0.0000 16.4027 0.0000 0.0000
# 5 0.0000 0.0000 0.0000 0.0000 -2.2751 0.0000
# 6 0.0000 0.0000 0.0000 0.0000 0.0000 21.3839
#
#
#
# Elastic Compliance Matrix: (Units=1/GPa)
#
#
# Indices 1 2 3 4 5 6 
#
# 1 0.015746 -0.000378 -0.000789 0.000000 0.000000 0.000000
# 2 -0.000378 0.008323 -0.001772 0.000000 0.000000 0.000000
# 3 -0.000789 -0.001772 0.011638 0.000000 0.000000 0.000000
# 4 0.000000 0.000000 0.000000 0.060966 0.000000 0.000000
# 5 0.000000 0.000000 0.000000 0.000000 -0.439542 0.000000
# 6 0.000000 0.000000 0.000000 0.000000 0.000000 0.046764
#
#
# Mechanical properties :
#
#
# Convention : Reuss Voigt Hill
#
# Bulk Modulus (GPa) = 33.52483 37.07060 35.29771
# Shear Modulus (GPa) = -17.83906 23.72614 2.94354
#
# Velocity S-wave (km/s) = -2.78293 3.20944 1.13045
# Velocity P-wave (km/s) = 2.05628 5.46149 4.12651
#
# Compressibility (1/GPa) = 0.02982864
#
# Stress axis : x y z
#
# Youngs Moduli (GPa) = 63.51014 120.14243 85.92545
#
# Poissons Ratio (x) = 0.04541 0.06779
# Poissons Ratio (y) = 0.02401 0.15228
# Poissons Ratio (z) = 0.05010 0.21292
#
# Static dielectric constant tensor:
#      x y z
#    x 4.358510 0.000000 0.000000 
#    y 0.000000 4.335800 0.000000 
#    z 0.000000 0.000000 3.919770 
# 
# 
# High freq. dielectric constant tensor:
#      x y z
#    x 1.908570 0.000000 0.000000 
#    y 0.000000 1.923810 0.000000 
#    z 0.000000 0.000000 1.892500 
# 
# From -- ./inp_files/7705.got.cif
#   From: 2010.03.12/outbox.cif.g09.slc.cpg/sg45_4_cif.got.tgz:7705.got - 2010.04.14 02:50:11.
