data_PCOD8190769
_publ_section_title
;
Structure prediction by ZEFSAII (Michael W. Deem and Ramdas Pophale) SiO2 
 PCOD8190769
Probable space group: I B A 2
;
_chemical_formula_sum "Si O2"
_cell_formula_units_Z 64
_cell_length_a 9.466161
_cell_length_b 13.794467
_cell_length_c 24.694763
_cell_angle_alpha 90.000000
_cell_angle_beta 90.000000
_cell_angle_gamma 90.000000
_cell_volume 3224.658094
_symmetry_space_group_name_H-M "I B A 2"
_symmetry_group_IT_number 45
_symmetry_cell_setting 'orthorhombic'
loop_
_space_group_symop_operation_xyz
x,y,z
-x,-y,z
-x,y,1/2+z
x,-y,1/2+z
1/2+x,1/2+y,1/2+z
1/2-x,1/2-y,1/2+z
1/2-x,1/2+y,z
1/2+x,1/2-y,z
loop_
_atom_site_type_symbol
_atom_site_label
_atom_site_fract_x
_atom_site_fract_y
_atom_site_fract_z
Si Si1 0.081322 0.399793 0.436730
Si Si2 0.472267 0.262134 0.022326
Si Si3 0.774825 0.749802 0.096744
Si Si4 0.741725 0.238011 0.773551
Si Si5 0.487764 0.749014 0.347802
Si Si6 0.660671 0.115742 0.191304
Si Si7 0.914998 0.097760 0.434498
Si Si8 0.170270 0.607872 0.179388
O O1 0.248332 0.420390 0.440588
O O2 0.000000 0.500000 0.440049
O O3 0.027263 0.334571 0.486341
O O4 0.039877 0.347667 0.380760
O O5 0.314668 0.280422 0.043892
O O6 0.565001 0.251689 0.076317
O O7 0.523485 0.354740 0.988764
O O8 0.757357 0.670297 0.143383
O O9 0.724998 0.853753 0.121014
O O10 0.582710 0.232472 0.795150
O O11 0.783079 0.343612 0.748985
O O12 0.760786 0.159428 0.726300
O O13 0.839171 0.210804 0.824759
O O14 0.560287 0.667719 0.384027
O O15 0.493998 0.132187 0.186261
O O16 0.702836 0.004684 0.185116
O O17 0.000000 0.000000 0.423432
#
# Coordination Sequence:
#
# PCOD8190769 Si02
#       8
#     8   8   8   8   8   8   8   8
#     4  11  26  42  65  95 125 165 211 259 312 372
#     4  11  24  43  64  88 130 167 209 252 313 374
#     4  11  22  41  64  91 124 168 204 257 310 368
#     4  11  22  41  64  91 124 168 204 257 310 368
#     4  11  24  43  64  88 130 167 209 252 313 374
#     4  10  22  39  63  93 124 160 210 259 307 370
#     4  11  26  42  63  97 129 161 209 263 310 368
#     4  10  22  39  63  93 124 160 210 259 307 370
#
# _framework density 19.847065000000001
#
# number of rings (size 3 to 8) (size 9 to 14) (size 15 to 20)
#    0.000    1.250    5.000    0.000    3.500    4.000 
#    0.000    1.250    0.000    0.000    0.000    0.000 
#    0.000    0.000    0.000    0.000    0.000    0.000 
#
# Total GULP energy -396920.040937 kJ/mol
# GULP energy per Si atom -12403.751279 kJ/mol
# Density = 1.980189 g / cm^3
# Si number density = 19.847065 Si / 1000 Ang^3
#
#
#
# Elastic Constant Matrix: (Units=GPa)
#
#
# Indices 1 2 3 4 5 6 
#
# 1 69.1400 36.3618 16.6674 0.0000 0.0000 0.0000
# 2 36.3618 92.1818 24.4673 0.0000 0.0000 0.0000
# 3 16.6674 24.4673 85.5923 0.0000 0.0000 0.0000
# 4 0.0000 0.0000 0.0000 18.0886 0.0000 0.0000
# 5 0.0000 0.0000 0.0000 0.0000 47.5998 0.0000
# 6 0.0000 0.0000 0.0000 0.0000 0.0000 31.6790
#
#
#
# Elastic Compliance Matrix: (Units=1/GPa)
#
#
# Indices 1 2 3 4 5 6 
#
# 1 0.018459 -0.006847 -0.001637 0.000000 0.000000 0.000000
# 2 -0.006847 0.014278 -0.002748 0.000000 0.000000 0.000000
# 3 -0.001637 -0.002748 0.012788 0.000000 0.000000 0.000000
# 4 0.000000 0.000000 0.000000 0.055283 0.000000 0.000000
# 5 0.000000 0.000000 0.000000 0.000000 0.021009 0.000000
# 6 0.000000 0.000000 0.000000 0.000000 0.000000 0.031567
#
#
# Mechanical properties :
#
#
# Convention : Reuss Voigt Hill
#
# Bulk Modulus (GPa) = 43.36448 44.65633 44.01041
# Shear Modulus (GPa) = 27.24277 30.76799 29.00538
#
# Velocity S-wave (km/s) = 3.70893 3.94160 3.82703
# Velocity P-wave (km/s) = 6.34336 6.57754 6.46151
#
# Compressibility (1/GPa) = 0.02306035
#
# Stress axis : x y z
#
# Youngs Moduli (GPa) = 54.17446 70.03629 78.19972
#
# Poissons Ratio (x) = 0.47951 0.12804
# Poissons Ratio (y) = 0.37091 0.21492
# Poissons Ratio (z) = 0.08870 0.19248
#
# Static dielectric constant tensor:
#      x y z
#    x 3.613200 0.000000 0.000000 
#    y 0.000000 3.473240 0.000000 
#    z 0.000000 0.000000 3.696130 
# 
# 
# High freq. dielectric constant tensor:
#      x y z
#    x 1.784030 0.000000 0.000000 
#    y 0.000000 1.762790 0.000000 
#    z 0.000000 0.000000 1.788450 
# 
# From -- ./inp_files/9610.got.cif
#   From: 2010.03.12/outbox.cif.g09.slc.cpg/sg45_5_cif.got.tgz:9610.got - 2010.04.14 02:50:11.
