data_PCOD8190539
_publ_section_title
;
Structure prediction by ZEFSAII (Michael W. Deem and Ramdas Pophale) SiO2 
 PCOD8190539
Probable space group: I B A 2
;
_chemical_formula_sum "Si O2"
_cell_formula_units_Z 64
_cell_length_a 15.380015
_cell_length_b 12.832072
_cell_length_c 15.248541
_cell_angle_alpha 90.000000
_cell_angle_beta 90.000000
_cell_angle_gamma 90.000000
_cell_volume 3009.413318
_symmetry_space_group_name_H-M "I B A 2"
_symmetry_group_IT_number 45
_symmetry_cell_setting 'orthorhombic'
loop_
_space_group_symop_operation_xyz
x,y,z
-x,-y,z
-x,y,1/2+z
x,-y,1/2+z
1/2+x,1/2+y,1/2+z
1/2-x,1/2-y,1/2+z
1/2-x,1/2+y,z
1/2+x,1/2-y,z
loop_
_atom_site_type_symbol
_atom_site_label
_atom_site_fract_x
_atom_site_fract_y
_atom_site_fract_z
Si Si1 0.677565 0.840672 0.989820
Si Si2 0.969822 0.117806 0.140690
Si Si3 0.724388 0.688003 0.128903
Si Si4 0.909993 0.537899 0.744488
Si Si5 0.319218 0.153291 0.799560
Si Si6 0.985997 0.741654 0.798981
Si Si7 0.988096 0.732599 0.994987
Si Si8 0.375039 0.047151 0.559661
O O1 0.722646 0.821688 0.894775
O O2 0.730698 0.797127 0.073949
O O3 0.590388 0.775322 0.988860
O O4 0.658884 0.963386 0.990272
O O5 0.867796 0.130611 0.121198
O O6 0.985722 0.155071 0.240104
O O7 0.030090 0.183807 0.072191
O O8 0.000000 0.000000 0.131404
O O9 0.754311 0.706438 0.229456
O O10 0.792858 0.613930 0.084186
O O11 0.828458 0.473094 0.784799
O O12 0.910922 0.662798 0.760574
O O13 0.913934 0.517698 0.640565
O O14 0.000000 0.500000 0.789161
O O15 0.417304 0.195271 0.789340
O O16 0.957616 0.770332 0.898412
O O17 0.948302 0.619878 0.017025
#
# Coordination Sequence:
#
# PCOD8190539 Si02
#       8
#     8   8   8   8   8   8   8   8
#     4  10  20  37  59  85 119 153 192 240 298 359
#     4  11  24  42  59  79 116 164 206 244 290 358
#     4  10  23  38  54  84 120 156 198 241 288 347
#     4   9  15  28  54  87 118 141 172 224 293 358
#     4   9  19  36  59  89 119 147 187 246 304 349
#     4  10  20  37  63  89 114 148 193 247 303 359
#     4  10  21  38  63  91 114 145 196 252 304 357
#     4  11  20  34  60  90 120 154 187 238 302 351
#
# _framework density 21.266603
#
# number of rings (size 3 to 8) (size 9 to 14) (size 15 to 20)
#    0.000    2.000    0.000    5.625    0.000    5.500 
#    0.000    6.250    0.000    0.000    0.000    0.000 
#    0.000    0.000    0.000    0.000    0.000    0.000 
#
# Total GULP energy -396545.681851 kJ/mol
# GULP energy per Si atom -12392.052558 kJ/mol
# Density = 2.121820 g / cm^3
# Si number density = 21.266603 Si / 1000 Ang^3
#
#
#
# Elastic Constant Matrix: (Units=GPa)
#
#
# Indices 1 2 3 4 5 6 
#
# 1 48.2956 8.7455 30.9498 0.0000 0.0000 0.0000
# 2 8.7455 98.9223 67.9424 0.0000 0.0000 0.0000
# 3 30.9498 67.9424 193.4334 0.0000 0.0000 0.0000
# 4 0.0000 0.0000 0.0000 24.5388 0.0000 0.0000
# 5 0.0000 0.0000 0.0000 0.0000 25.2683 0.0000
# 6 0.0000 0.0000 0.0000 0.0000 0.0000 22.0126
#
#
#
# Elastic Compliance Matrix: (Units=1/GPa)
#
#
# Indices 1 2 3 4 5 6 
#
# 1 0.023104 0.000654 -0.003926 0.000000 0.000000 0.000000
# 2 0.000654 0.013342 -0.004791 0.000000 0.000000 0.000000
# 3 -0.003926 -0.004791 0.007481 0.000000 0.000000 0.000000
# 4 0.000000 0.000000 0.000000 0.040752 0.000000 0.000000
# 5 0.000000 0.000000 0.000000 0.000000 0.039575 0.000000
# 6 0.000000 0.000000 0.000000 0.000000 0.000000 0.045429
#
#
# Mechanical properties :
#
#
# Convention : Reuss Voigt Hill
#
# Bulk Modulus (GPa) = 35.97149 61.76964 48.87056
# Shear Modulus (GPa) = 25.63128 29.89818 27.76473
#
# Velocity S-wave (km/s) = 3.47542 3.75357 3.61717
# Velocity P-wave (km/s) = 5.74943 6.92056 6.36200
#
# Compressibility (1/GPa) = 0.02779980
#
# Stress axis : x y z
#
# Youngs Moduli (GPa) = 43.28339 74.95377 133.67695
#
# Poissons Ratio (x) = -0.04904 0.52487
# Poissons Ratio (y) = -0.02832 0.64042
# Poissons Ratio (z) = 0.16995 0.35909
#
# Static dielectric constant tensor:
#      x y z
#    x 3.631170 0.000000 0.000000 
#    y 0.000000 3.718040 0.000000 
#    z 0.000000 0.000000 4.261880 
# 
# 
# High freq. dielectric constant tensor:
#      x y z
#    x 1.811220 0.000000 0.000000 
#    y 0.000000 1.813970 0.000000 
#    z 0.000000 0.000000 1.849400 
# 
# From -- ./inp_files/6818.got.cif
#   From: 2010.03.12/outbox.cif.g09.slc.cpg/sg45_4_cif.got.tgz:6818.got - 2010.04.14 02:50:11.
