data_PCOD8190782
_publ_section_title
;
Structure prediction by ZEFSAII (Michael W. Deem and Ramdas Pophale) SiO2 
 PCOD8190782
Probable space group: I B A 2
;
_chemical_formula_sum "Si O2"
_cell_formula_units_Z 60
_cell_length_a 8.302659
_cell_length_b 15.004060
_cell_length_c 22.010574
_cell_angle_alpha 90.000000
_cell_angle_beta 90.000000
_cell_angle_gamma 90.000000
_cell_volume 2741.936305
_symmetry_space_group_name_H-M "I B A 2"
_symmetry_group_IT_number 45
_symmetry_cell_setting 'orthorhombic'
loop_
_space_group_symop_operation_xyz
x,y,z
-x,-y,z
-x,y,1/2+z
x,-y,1/2+z
1/2+x,1/2+y,1/2+z
1/2-x,1/2-y,1/2+z
1/2-x,1/2+y,z
1/2+x,1/2-y,z
loop_
_atom_site_type_symbol
_atom_site_label
_atom_site_fract_x
_atom_site_fract_y
_atom_site_fract_z
Si Si1 0.386397 0.364455 0.017800
Si Si2 0.148729 0.314850 0.271609
Si Si3 0.585906 0.783246 0.474766
Si Si4 0.154785 0.960675 0.896761
Si Si5 0.316389 0.016789 0.695227
Si Si6 0.695486 0.143379 0.404584
Si Si7 0.209574 0.363417 0.787969
Si Si8 0.500000 0.500000 0.615343
O O1 0.464661 0.266494 0.020140
O O2 0.192047 0.350696 0.016607
O O3 0.461925 0.414353 0.074858
O O4 0.426976 0.414731 0.955311
O O5 0.201120 0.380043 0.216245
O O6 0.239077 0.338948 0.334133
O O7 0.179580 0.211068 0.254946
O O8 0.963784 0.321099 0.287228
O O9 0.490002 0.839258 0.423622
O O10 0.693826 0.708051 0.443534
O O11 0.236664 0.882985 0.857071
O O12 0.276780 0.038480 0.916878
O O13 0.000000 0.000000 0.860318
O O14 0.167767 0.987511 0.652138
O O15 0.500000 0.000000 0.668430
O O16 0.292366 0.957870 0.754894
#
# Coordination Sequence:
#
# PCOD8190782 Si02
#       8
#     8   8   8   8   8   8   8   4
#     4  11  23  46  65  99 132 177 232 288 352 428
#     4  11  23  41  66 101 137 179 219 285 347 430
#     4  10  22  40  65 100 138 174 227 284 348 432
#     4  12  23  37  66 100 143 185 225 285 360 439
#     4  10  26  50  68 100 138 180 244 296 349 427
#     4  11  20  37  63 100 144 177 215 273 352 430
#     4  11  25  41  68 102 138 173 229 281 362 432
#     4  12  26  52  72  90 136 188 240 302 358 410
#
# _framework density 21.882345999999998
#
# number of rings (size 3 to 8) (size 9 to 14) (size 15 to 20)
#    0.000    1.067    3.333    3.200    4.667    1.600 
#    9.600    0.000    0.000    0.000    0.000    0.000 
#    0.000    0.000    0.000    0.000    0.000    0.000 
#
# Total GULP energy -371784.330488 kJ/mol
# GULP energy per Si atom -12392.811016 kJ/mol
# Density = 2.183254 g / cm^3
# Si number density = 21.882346 Si / 1000 Ang^3
#
#
#
# Elastic Constant Matrix: (Units=GPa)
#
#
# Indices 1 2 3 4 5 6 
#
# 1 124.6094 50.3614 42.5737 0.0000 0.0000 0.0000
# 2 50.3614 124.5334 18.5580 0.0000 0.0000 0.0000
# 3 42.5737 18.5580 66.5789 0.0000 0.0000 0.0000
# 4 0.0000 0.0000 0.0000 22.7663 0.0000 0.0000
# 5 0.0000 0.0000 0.0000 0.0000 34.3423 0.0000
# 6 0.0000 0.0000 0.0000 0.0000 0.0000 38.9517
#
#
#
# Elastic Compliance Matrix: (Units=1/GPa)
#
#
# Indices 1 2 3 4 5 6 
#
# 1 0.011769 -0.003795 -0.006468 0.000000 0.000000 0.000000
# 2 -0.003795 0.009602 -0.000249 0.000000 0.000000 0.000000
# 3 -0.006468 -0.000249 0.019225 0.000000 0.000000 0.000000
# 4 0.000000 0.000000 0.000000 0.043925 0.000000 0.000000
# 5 0.000000 0.000000 0.000000 0.000000 0.029119 0.000000
# 6 0.000000 0.000000 0.000000 0.000000 0.000000 0.025673
#
#
# Mechanical properties :
#
#
# Convention : Reuss Voigt Hill
#
# Bulk Modulus (GPa) = 51.09654 59.85645 55.47650
# Shear Modulus (GPa) = 29.96520 32.82728 31.39624
#
# Velocity S-wave (km/s) = 3.70453 3.87741 3.79195
# Velocity P-wave (km/s) = 6.45750 6.88904 6.67676
#
# Compressibility (1/GPa) = 0.01957080
#
# Stress axis : x y z
#
# Youngs Moduli (GPa) = 84.97102 104.14449 52.01578
#
# Poissons Ratio (x) = 0.39528 0.33641
# Poissons Ratio (y) = 0.32251 0.01297
# Poissons Ratio (z) = 0.54955 0.02598
#
# Static dielectric constant tensor:
#      x y z
#    x 4.438140 0.000000 0.000000 
#    y 0.000000 4.182080 0.000000 
#    z 0.000000 0.000000 3.566120 
# 
# 
# High freq. dielectric constant tensor:
#      x y z
#    x 1.880460 0.000000 0.000000 
#    y 0.000000 1.874780 0.000000 
#    z 0.000000 0.000000 1.814050 
# 
# From -- ./inp_files/9574.got.cif
#   From: 2010.03.12/outbox.cif.g09.slc.cpg/sg45_5_cif.got.tgz:9574.got - 2010.04.14 02:50:11.
