data_PCOD8190261
_publ_section_title
;
Structure prediction by ZEFSAII (Michael W. Deem and Ramdas Pophale) SiO2 
 PCOD8190261
Probable space group: I M M 2
;
_chemical_formula_sum "Si O2"
_cell_formula_units_Z 56
_cell_length_a 14.298381
_cell_length_b 8.820512
_cell_length_c 22.786047
_cell_angle_alpha 90.000000
_cell_angle_beta 90.000000
_cell_angle_gamma 90.000000
_cell_volume 2873.754400
_symmetry_space_group_name_H-M "I M M 2"
_symmetry_group_IT_number 44
_symmetry_cell_setting 'orthorhombic'
loop_
_space_group_symop_operation_xyz
x,y,z
-x,-y,z
-x,y,z
x,-y,z
1/2+x,1/2+y,1/2+z
1/2-x,1/2-y,1/2+z
1/2-x,1/2+y,1/2+z
1/2+x,1/2-y,1/2+z
loop_
_atom_site_type_symbol
_atom_site_label
_atom_site_fract_x
_atom_site_fract_y
_atom_site_fract_z
Si Si1 0.282659 0.820707 0.573400
Si Si2 0.892903 0.322136 0.530245
Si Si3 0.896992 0.320189 0.962846
Si Si4 0.891829 0.820815 0.180891
Si Si5 0.103008 0.320189 0.398936
Si Si6 0.607097 0.177864 0.331538
Si Si7 0.717341 0.820707 0.788383
O O1 0.174848 0.766612 0.575104
O O2 0.324397 0.761821 0.511364
O O3 0.342000 0.745064 0.624116
O O4 0.288582 0.000000 0.580955
O O5 0.873662 0.500000 0.536079
O O6 0.870699 0.262963 0.464165
O O7 0.000000 0.284630 0.547003
O O8 0.899631 0.500000 0.961506
O O9 0.870699 0.262963 0.897617
O O10 0.000000 0.258608 0.979812
O O11 0.842000 0.754936 0.237666
O O12 0.000000 0.770103 0.180891
O O13 0.881536 0.000000 0.180891
O O14 0.100369 0.500000 0.400277
O O15 0.175603 0.261821 0.350418
O O16 0.000000 0.258608 0.381970
O O17 0.500000 0.215370 0.314780
O O18 0.674848 0.266612 0.286679
O O19 0.626338 0.000000 0.325704
O O20 0.711418 0.000000 0.780827
#
# Coordination Sequence:
#
# PCOD8190261 Si02
#       7
#     8   8   8   8   8   8   8
#     4  11  21  34  56  83 111 143 180 226 274 318
#     4   9  18  34  55  79 111 149 184 219 263 319
#     4   8  15  29  51  80 112 145 179 216 264 321
#     4  11  25  43  60  79 106 141 181 222 264 319
#     4   8  15  29  51  80 112 145 179 216 264 321
#     4   9  18  34  55  79 111 149 184 219 263 319
#     4  11  21  34  56  83 111 143 180 226 274 318
#
# _framework density 19.486702000000001
#
# number of rings (size 3 to 8) (size 9 to 14) (size 15 to 20)
#    0.000    2.429    0.000    4.714    0.000    2.857 
#    0.000    2.143    0.000    7.714    0.000    0.000 
#    0.000    0.000    0.000    0.000    0.000    0.000 
#
# Total GULP energy -347129.334121 kJ/mol
# GULP energy per Si atom -12397.476219 kJ/mol
# Density = 1.944235 g / cm^3
# Si number density = 19.486702 Si / 1000 Ang^3
#
#
#
# Elastic Constant Matrix: (Units=GPa)
#
#
# Indices 1 2 3 4 5 6 
#
# 1 157.4637 55.4854 79.2600 0.0000 0.0000 0.0000
# 2 55.4854 59.7966 41.3866 0.0000 0.0000 0.0000
# 3 79.2600 41.3866 86.0124 0.0000 0.0000 0.0000
# 4 0.0000 0.0000 0.0000 4.0432 0.0000 0.0000
# 5 0.0000 0.0000 0.0000 0.0000 34.5274 0.0000
# 6 0.0000 0.0000 0.0000 0.0000 0.0000 26.7009
#
#
#
# Elastic Compliance Matrix: (Units=1/GPa)
#
#
# Indices 1 2 3 4 5 6 
#
# 1 0.013007 -0.005658 -0.009264 0.000000 0.000000 0.000000
# 2 -0.005658 0.027535 -0.008035 0.000000 0.000000 0.000000
# 3 -0.009264 -0.008035 0.024029 0.000000 0.000000 0.000000
# 4 0.000000 0.000000 0.000000 0.247326 0.000000 0.000000
# 5 0.000000 0.000000 0.000000 0.000000 0.028963 0.000000
# 6 0.000000 0.000000 0.000000 0.000000 0.000000 0.037452
#
#
# Mechanical properties :
#
#
# Convention : Reuss Voigt Hill
#
# Bulk Modulus (GPa) = 53.59811 72.83744 63.21777
# Shear Modulus (GPa) = 11.61591 21.53036 16.57314
#
# Velocity S-wave (km/s) = 2.44415 3.32757 2.91947
# Velocity P-wave (km/s) = 5.96069 7.22653 6.62392
#
# Compressibility (1/GPa) = 0.01865737
#
# Stress axis : x y z
#
# Youngs Moduli (GPa) = 76.88018 36.31799 41.61636
#
# Poissons Ratio (x) = 0.20548 0.38552
# Poissons Ratio (y) = 0.43497 0.33439
# Poissons Ratio (z) = 0.71220 0.29182
#
# Static dielectric constant tensor:
#      x y z
#    x 3.740600 0.000000 0.000000 
#    y 0.000000 3.214310 0.000000 
#    z 0.000000 0.000000 3.607360 
# 
# 
# High freq. dielectric constant tensor:
#      x y z
#    x 1.775030 0.000000 0.000000 
#    y 0.000000 1.733850 0.000000 
#    z 0.000000 0.000000 1.744690 
# 
# From -- ./inp_files/23063.got.cif
#   From: 2010.03.12/outbox.cif.g09.slc.cpg/sg44_12_cif.got.tgz:23063.got - 2010.04.14 02:36:11.
