data_PCOD8190940
_publ_section_title
;
Structure prediction by ZEFSAII (Michael W. Deem and Ramdas Pophale) SiO2 
 PCOD8190940
Probable space group: I B A 2
;
_chemical_formula_sum "Si O2"
_cell_formula_units_Z 32
_cell_length_a 24.517927
_cell_length_b 4.897245
_cell_length_c 9.712186
_cell_angle_alpha 90.000000
_cell_angle_beta 90.000000
_cell_angle_gamma 90.000000
_cell_volume 1166.145042
_symmetry_space_group_name_H-M "I B A 2"
_symmetry_group_IT_number 45
_symmetry_cell_setting 'orthorhombic'
loop_
_space_group_symop_operation_xyz
x,y,z
-x,-y,z
-x,y,1/2+z
x,-y,1/2+z
1/2+x,1/2+y,1/2+z
1/2-x,1/2-y,1/2+z
1/2-x,1/2+y,z
1/2+x,1/2-y,z
loop_
_atom_site_type_symbol
_atom_site_label
_atom_site_fract_x
_atom_site_fract_y
_atom_site_fract_z
Si Si1 0.439341 0.543325 0.764040
Si Si2 0.058526 0.554442 0.949942
Si Si3 0.212034 0.439340 0.900410
Si Si4 0.358738 0.878411 0.158625
O O1 0.500000 0.500000 0.693637
O O2 0.439602 0.363499 0.901361
O O3 0.428779 0.851754 0.820543
O O4 0.387407 0.420763 0.676943
O O5 0.000000 0.500000 0.015099
O O6 0.097195 0.569066 0.082584
O O7 0.254395 0.207446 0.865555
O O8 0.159237 0.473484 0.801424
O O9 0.192942 0.370676 0.055638
#
# Coordination Sequence:
#
# PCOD8190940 Si02
#       4
#     8   8   8   8
#     4  10  24  45  74 118 161 205 257 321 398 506
#     4  10  24  45  74 116 162 203 258 319 402 499
#     4  12  30  52  78 117 157 210 284 350 403 476
#     4  12  26  52  85 113 163 214 272 336 429 471
#
# _framework density 27.440842
#
# number of rings (size 3 to 8) (size 9 to 14) (size 15 to 20)
#    0.000    1.000    2.500    1.500    3.500   12.000 
#    0.000    0.000    0.000    0.000    0.000    0.000 
#    0.000    0.000    0.000    0.000    0.000    0.000 
#
# Total GULP energy -198212.566297 kJ/mol
# GULP energy per Si atom -12388.285394 kJ/mol
# Density = 2.737839 g / cm^3
# Si number density = 27.440842 Si / 1000 Ang^3
#
#
#
# Elastic Constant Matrix: (Units=GPa)
#
#
# Indices 1 2 3 4 5 6 
#
# 1 158.7303 43.8941 31.8509 0.0000 0.0000 0.0000
# 2 43.8941 119.7753 24.2165 0.0000 0.0000 0.0000
# 3 31.8509 24.2165 138.0060 0.0000 0.0000 0.0000
# 4 0.0000 0.0000 0.0000 31.0572 0.0000 0.0000
# 5 0.0000 0.0000 0.0000 0.0000 45.4287 0.0000
# 6 0.0000 0.0000 0.0000 0.0000 0.0000 55.8472
#
#
#
# Elastic Compliance Matrix: (Units=1/GPa)
#
#
# Indices 1 2 3 4 5 6 
#
# 1 0.007211 -0.002391 -0.001245 0.000000 0.000000 0.000000
# 2 -0.002391 0.009449 -0.001106 0.000000 0.000000 0.000000
# 3 -0.001245 -0.001106 0.007727 0.000000 0.000000 0.000000
# 4 0.000000 0.000000 0.000000 0.032199 0.000000 0.000000
# 5 0.000000 0.000000 0.000000 0.000000 0.022013 0.000000
# 6 0.000000 0.000000 0.000000 0.000000 0.000000 0.017906
#
#
# Mechanical properties :
#
#
# Convention : Reuss Voigt Hill
#
# Bulk Modulus (GPa) = 67.09825 68.49275 67.79550
# Shear Modulus (GPa) = 45.06296 47.56996 46.31646
#
# Velocity S-wave (km/s) = 4.05679 4.16810 4.11282
# Velocity P-wave (km/s) = 6.81531 6.94107 6.87848
#
# Compressibility (1/GPa) = 0.01490352
#
# Stress axis : x y z
#
# Youngs Moduli (GPa) = 138.67841 105.83322 129.40899
#
# Poissons Ratio (x) = 0.25304 0.16107
# Poissons Ratio (y) = 0.33157 0.14315
# Poissons Ratio (z) = 0.17261 0.11707
#
# Static dielectric constant tensor:
#      x y z
#    x 5.525850 0.000000 0.000000 
#    y 0.000000 4.756660 0.000000 
#    z 0.000000 0.000000 4.844590 
# 
# 
# High freq. dielectric constant tensor:
#      x y z
#    x 2.136570 0.000000 0.000000 
#    y 0.000000 2.107680 0.000000 
#    z 0.000000 0.000000 2.113770 
# 
# From -- ./inp_files/2678.got.cif
#   From: 2010.03.12/outbox.cif.g09.slc.cpg/sg45_2_cif.got.tgz:2678.got - 2010.04.14 02:50:11.
