data_PCOD8190241
_publ_section_title
;
Structure prediction by ZEFSAII (Michael W. Deem and Ramdas Pophale) SiO2 
 PCOD8190241
Probable space group: I M M 2
;
_chemical_formula_sum "Si O2"
_cell_formula_units_Z 64
_cell_length_a 9.064062
_cell_length_b 26.191207
_cell_length_c 18.392600
_cell_angle_alpha 90.000000
_cell_angle_beta 90.000000
_cell_angle_gamma 90.000000
_cell_volume 4366.379773
_symmetry_space_group_name_H-M "I M M 2"
_symmetry_group_IT_number 44
_symmetry_cell_setting 'orthorhombic'
loop_
_space_group_symop_operation_xyz
x,y,z
-x,-y,z
-x,y,z
x,-y,z
1/2+x,1/2+y,1/2+z
1/2-x,1/2-y,1/2+z
1/2-x,1/2+y,1/2+z
1/2+x,1/2-y,1/2+z
loop_
_atom_site_type_symbol
_atom_site_label
_atom_site_fract_x
_atom_site_fract_y
_atom_site_fract_z
Si Si1 0.675568 0.056140 0.922180
Si Si2 0.675417 0.648380 0.182067
Si Si3 0.672377 0.251571 0.931502
Si Si4 0.327430 0.850921 0.014331
Si Si5 0.829685 0.440884 0.257478
Si Si6 0.174508 0.261491 0.266184
Si Si7 0.165713 0.696272 0.052403
Si Si8 0.837247 0.197460 0.135793
O O1 0.500000 0.056716 0.924245
O O2 0.724478 0.068653 0.840047
O O3 0.734043 0.000000 0.945411
O O4 0.741080 0.098338 0.977297
O O5 0.500000 0.652582 0.179903
O O6 0.725739 0.591969 0.205121
O O7 0.738538 0.688563 0.240422
O O8 0.738509 0.657807 0.101214
O O9 0.500000 0.262285 0.941279
O O10 0.720604 0.252384 0.847718
O O11 0.715381 0.196388 0.963242
O O12 0.759429 0.296424 0.973407
O O13 0.500000 0.856805 0.022677
O O14 0.265284 0.843917 0.095938
O O15 0.810553 0.500000 0.236296
O O16 0.000000 0.423980 0.248272
O O17 0.218094 0.212217 0.216830
O O18 0.000000 0.273359 0.259005
O O19 0.162510 0.750451 0.091236
O O20 0.000000 0.674674 0.042695
O O21 0.000000 0.173461 0.139087
#
# Coordination Sequence:
#
# PCOD8190241 Si02
#       8
#     8   8   8   8   8   8   8   8
#     4   8  14  25  41  59  77 101 136 171 199 232
#     4  11  20  28  41  60  83 110 140 172 203 237
#     4   9  16  26  41  60  80 102 132 168 204 241
#     4   9  15  23  38  57  76 100 129 163 198 231
#     4   9  17  30  46  60  77 105 139 172 207 247
#     4   9  17  29  43  58  80 110 140 168 201 244
#     4   9  17  29  42  56  78 106 135 165 199 242
#     4   8  15  26  38  53  75 104 133 160 191 231
#
# _framework density 14.657451
#
# number of rings (size 3 to 8) (size 9 to 14) (size 15 to 20)
#    0.000    3.000    0.000    3.750    0.000    5.750 
#    0.000    3.125    0.000    1.125    0.000    0.000 
#    0.000    1.000    0.000    8.000    0.000    2.625 
#
# Total GULP energy -396648.764485 kJ/mol
# GULP energy per Si atom -12395.273890 kJ/mol
# Density = 1.462409 g / cm^3
# Si number density = 14.657451 Si / 1000 Ang^3
#
#
#
# Elastic Constant Matrix: (Units=GPa)
#
#
# Indices 1 2 3 4 5 6 
#
# 1 61.8908 35.8990 42.4651 0.0000 0.0000 0.0000
# 2 35.8990 71.6680 51.2936 0.0000 0.0000 0.0000
# 3 42.4651 51.2936 109.9926 0.0002 0.0000 0.0000
# 4 0.0000 0.0000 0.0002 25.1585 0.0000 0.0000
# 5 0.0000 0.0000 0.0000 0.0000 23.0821 0.0000
# 6 0.0000 0.0000 0.0000 0.0000 0.0000 17.5018
#
#
#
# Elastic Compliance Matrix: (Units=1/GPa)
#
#
# Indices 1 2 3 4 5 6 
#
# 1 0.024956 -0.008413 -0.005712 0.000000 0.000000 0.000000
# 2 -0.008413 0.023779 -0.007841 0.000000 0.000000 0.000000
# 3 -0.005712 -0.007841 0.014953 0.000000 0.000000 0.000000
# 4 0.000000 0.000000 0.000000 0.039748 0.000000 0.000000
# 5 0.000000 0.000000 0.000000 0.000000 0.043324 0.000000
# 6 0.000000 0.000000 0.000000 0.000000 0.000000 0.057137
#
#
# Mechanical properties :
#
#
# Convention : Reuss Voigt Hill
#
# Bulk Modulus (GPa) = 50.61406 55.87410 53.24408
# Shear Modulus (GPa) = 19.65296 20.74139 20.19717
#
# Velocity S-wave (km/s) = 3.66569 3.76583 3.71610
# Velocity P-wave (km/s) = 7.24725 7.55720 7.40385
#
# Compressibility (1/GPa) = 0.01975736
#
# Stress axis : x y z
#
# Youngs Moduli (GPa) = 40.07018 42.05329 66.87483
#
# Poissons Ratio (x) = 0.35379 0.38197
# Poissons Ratio (y) = 0.33710 0.52438
# Poissons Ratio (z) = 0.22887 0.32975
#
# Static dielectric constant tensor:
#      x y z
#    x 2.789230 0.000000 0.000000 
#    y 0.000000 2.758140 0.000000 
#    z 0.000000 0.000000 2.997400 
# 
# 
# High freq. dielectric constant tensor:
#      x y z
#    x 1.551600 0.000000 0.000000 
#    y 0.000000 1.527030 0.000000 
#    z 0.000000 0.000000 1.552010 
# 
# From -- ./inp_files/20891.got.cif
#   From: 2010.03.12/outbox.cif.g09.slc.cpg/sg44_11_cif.got.tgz:20891.got - 2010.04.14 02:36:11.
