data_PCOD8190831
_publ_section_title
;
Structure prediction by ZEFSAII (Michael W. Deem and Ramdas Pophale) SiO2 
 PCOD8190831
Probable space group: I B A 2
;
_chemical_formula_sum "Si O2"
_cell_formula_units_Z 48
_cell_length_a 12.331017
_cell_length_b 13.045190
_cell_length_c 13.523841
_cell_angle_alpha 90.000000
_cell_angle_beta 90.000000
_cell_angle_gamma 90.000000
_cell_volume 2175.451280
_symmetry_space_group_name_H-M "I B A 2"
_symmetry_group_IT_number 45
_symmetry_cell_setting 'orthorhombic'
loop_
_space_group_symop_operation_xyz
x,y,z
-x,-y,z
-x,y,1/2+z
x,-y,1/2+z
1/2+x,1/2+y,1/2+z
1/2-x,1/2-y,1/2+z
1/2-x,1/2+y,z
1/2+x,1/2-y,z
loop_
_atom_site_type_symbol
_atom_site_label
_atom_site_fract_x
_atom_site_fract_y
_atom_site_fract_z
Si Si1 0.090938 0.428281 0.522870
Si Si2 0.221512 0.079695 0.504803
Si Si3 0.409062 0.428281 0.263449
Si Si4 0.670147 0.750000 0.143160
Si Si5 0.278488 0.079695 0.281516
Si Si6 0.500000 0.000000 0.332990
Si Si7 0.000000 0.000000 0.453329
O O1 0.207795 0.482260 0.537622
O O2 0.093203 0.316614 0.571212
O O3 0.061062 0.417928 0.405828
O O4 0.000000 0.500000 0.575195
O O5 0.245649 0.176353 0.575960
O O6 0.250000 0.112465 0.393160
O O7 0.093169 0.053825 0.518834
O O8 0.500000 0.500000 0.211124
O O9 0.406797 0.316614 0.215107
O O10 0.292205 0.482260 0.248698
O O11 0.438938 0.417928 0.380491
O O12 0.745649 0.823647 0.210359
O O13 0.406831 0.053825 0.267485
#
# Coordination Sequence:
#
# PCOD8190831 Si02
#       7
#     8   8   8   8   8   4   4
#     4   9  22  43  60  94 129 164 213 259 312 377
#     4  10  22  44  63  95 130 169 210 264 315 375
#     4   9  22  43  60  94 129 164 213 259 312 377
#     4  12  24  38  70  98 120 178 210 260 326 368
#     4  10  22  44  63  95 130 169 210 264 315 375
#     4   8  20  42  66  86 138 166 202 270 310 372
#     4   8  20  42  66  86 138 166 202 270 310 372
#
# _framework density 22.064388999999998
#
# number of rings (size 3 to 8) (size 9 to 14) (size 15 to 20)
#    1.000    1.333    0.000    1.000    2.333    6.667 
#    6.000    0.000    0.000    0.000    0.000    0.000 
#    0.000    0.000    0.000    0.000    0.000    0.000 
#
# Total GULP energy -297425.053886 kJ/mol
# GULP energy per Si atom -12392.710579 kJ/mol
# Density = 2.201417 g / cm^3
# Si number density = 22.064389 Si / 1000 Ang^3
#
#
#
# Elastic Constant Matrix: (Units=GPa)
#
#
# Indices 1 2 3 4 5 6 
#
# 1 143.0303 48.5324 26.5696 0.0000 0.0000 0.0000
# 2 48.5324 121.7675 45.2513 0.0000 0.0000 0.0000
# 3 26.5696 45.2513 51.4882 0.0000 0.0000 0.0000
# 4 0.0000 0.0000 0.0000 28.3627 0.0000 0.0000
# 5 0.0000 0.0000 0.0000 0.0000 24.0394 0.0000
# 6 0.0000 0.0000 0.0000 0.0000 0.0000 24.6499
#
#
#
# Elastic Compliance Matrix: (Units=1/GPa)
#
#
# Indices 1 2 3 4 5 6 
#
# 1 0.008225 -0.002526 -0.002024 0.000000 0.000000 0.000000
# 2 -0.002526 0.012971 -0.010097 0.000000 0.000000 0.000000
# 3 -0.002024 -0.010097 0.029340 0.000000 0.000000 0.000000
# 4 0.000000 0.000000 0.000000 0.035258 0.000000 0.000000
# 5 0.000000 0.000000 0.000000 0.000000 0.041598 0.000000
# 6 0.000000 0.000000 0.000000 0.000000 0.000000 0.040568
#
#
# Mechanical properties :
#
#
# Convention : Reuss Voigt Hill
#
# Bulk Modulus (GPa) = 47.07544 61.88809 54.48177
# Shear Modulus (GPa) = 24.46976 28.47260 26.47118
#
# Velocity S-wave (km/s) = 3.33380 3.59616 3.46746
# Velocity P-wave (km/s) = 6.01671 6.73445 6.38567
#
# Compressibility (1/GPa) = 0.02124250
#
# Stress axis : x y z
#
# Youngs Moduli (GPa) = 121.58645 77.09426 34.08307
#
# Poissons Ratio (x) = 0.19472 0.06900
# Poissons Ratio (y) = 0.30710 0.34412
# Poissons Ratio (z) = 0.24614 0.77839
#
# Static dielectric constant tensor:
#      x y z
#    x 3.877280 0.000000 0.000000 
#    y 0.000000 3.551200 0.000000 
#    z 0.000000 0.000000 3.988320 
# 
# 
# High freq. dielectric constant tensor:
#      x y z
#    x 1.858260 0.000000 0.000000 
#    y 0.000000 1.835750 0.000000 
#    z 0.000000 0.000000 1.881120 
# 
# From -- ./inp_files/6504.got.cif
#   From: 2010.03.12/outbox.cif.g09.slc.cpg/sg45_4_cif.got.tgz:6504.got - 2010.04.14 02:50:11.
