data_PCOD8190120
_publ_section_title
;
Structure prediction by ZEFSAII (Michael W. Deem and Ramdas Pophale) SiO2 
 PCOD8190120
Probable space group: I M M 2
;
_chemical_formula_sum "Si O2"
_cell_formula_units_Z 64
_cell_length_a 9.059504
_cell_length_b 29.106619
_cell_length_c 12.683873
_cell_angle_alpha 90.000000
_cell_angle_beta 90.000000
_cell_angle_gamma 90.000000
_cell_volume 3344.629894
_symmetry_space_group_name_H-M "I M M 2"
_symmetry_group_IT_number 44
_symmetry_cell_setting 'orthorhombic'
loop_
_space_group_symop_operation_xyz
x,y,z
-x,-y,z
-x,y,z
x,-y,z
1/2+x,1/2+y,1/2+z
1/2-x,1/2-y,1/2+z
1/2-x,1/2+y,1/2+z
1/2+x,1/2-y,1/2+z
loop_
_atom_site_type_symbol
_atom_site_label
_atom_site_fract_x
_atom_site_fract_y
_atom_site_fract_z
Si Si1 0.826667 0.947471 0.656580
Si Si2 0.330203 0.874291 0.038714
Si Si3 0.163021 0.214639 0.970016
Si Si4 0.671665 0.147484 0.270798
Si Si5 0.838012 0.299370 0.103848
Si Si6 0.171993 0.241974 0.287751
Si Si7 0.826120 0.875368 0.482309
Si Si8 0.672300 0.947990 0.868287
O O1 0.774980 0.917844 0.555600
O O2 0.751601 0.928341 0.763365
O O3 0.000000 0.942648 0.673068
O O4 0.778763 0.000000 0.635128
O O5 0.500000 0.860598 0.017889
O O6 0.305112 0.882463 0.163984
O O7 0.227312 0.834616 0.995409
O O8 0.286166 0.919725 0.973291
O O9 0.271328 0.246055 0.902565
O O10 0.000000 0.208157 0.918809
O O11 0.149629 0.245510 0.073793
O O12 0.500000 0.153186 0.298964
O O13 0.738589 0.197522 0.248075
O O14 0.749015 0.121369 0.368407
O O15 0.795598 0.290256 0.225547
O O16 0.000000 0.322954 0.090235
O O17 0.717342 0.328414 0.041630
O O18 0.000000 0.229110 0.291334
O O19 0.000000 0.875273 0.463708
O O20 0.500000 0.945377 0.844611
O O21 0.725128 0.000000 0.889515
#
# Coordination Sequence:
#
# PCOD8190120 Si02
#       8
#     8   8   8   8   8   8   8   8
#     4   9  20  40  62  86 115 144 179 228 284 338
#     4  10  22  38  57  83 113 149 189 232 282 333
#     4  11  22  36  54  80 112 148 189 230 275 328
#     4  11  22  37  56  79 113 152 190 233 277 327
#     4  10  22  37  53  77 111 148 187 232 276 324
#     4  11  22  37  54  75 108 150 191 233 279 327
#     4  11  23  37  58  84 111 149 191 231 280 335
#     4   9  19  38  63  88 113 143 181 228 284 340
#
# _framework density 19.135151
#
# number of rings (size 3 to 8) (size 9 to 14) (size 15 to 20)
#    0.000    1.750    2.500    1.500    1.750    3.500 
#    0.000    0.625    0.000    0.750    0.000    0.000 
#    0.000    0.000    0.000    0.000    0.000    0.000 
#
# Total GULP energy -396668.674810 kJ/mol
# GULP energy per Si atom -12395.896088 kJ/mol
# Density = 1.909160 g / cm^3
# Si number density = 19.135151 Si / 1000 Ang^3
#
#
#
# Elastic Constant Matrix: (Units=GPa)
#
#
# Indices 1 2 3 4 5 6 
#
# 1 90.3096 40.8791 57.0343 0.0000 0.0000 0.0000
# 2 40.8791 87.4632 57.8589 0.0002 0.0001 0.0000
# 3 57.0343 57.8589 116.3468 0.0004 -0.0002 0.0000
# 4 0.0000 0.0002 0.0004 36.6557 -0.0001 0.0000
# 5 0.0000 0.0001 -0.0002 -0.0001 26.9548 0.0000
# 6 0.0000 0.0000 0.0000 0.0000 0.0000 24.4499
#
#
#
# Elastic Compliance Matrix: (Units=1/GPa)
#
#
# Indices 1 2 3 4 5 6 
#
# 1 0.016756 -0.003573 -0.006437 0.000000 0.000000 0.000000
# 2 -0.003573 0.017801 -0.007101 0.000000 0.000000 0.000000
# 3 -0.006437 -0.007101 0.015281 0.000000 0.000000 0.000000
# 4 0.000000 0.000000 0.000000 0.027281 0.000000 0.000000
# 5 0.000000 0.000000 0.000000 0.000000 0.037099 0.000000
# 6 0.000000 0.000000 0.000000 0.000000 0.000000 0.040900
#
#
# Mechanical properties :
#
#
# Convention : Reuss Voigt Hill
#
# Bulk Modulus (GPa) = 64.03489 67.29603 65.66546
# Shear Modulus (GPa) = 25.70107 26.83522 26.26814
#
# Velocity S-wave (km/s) = 3.66886 3.74893 3.70911
# Velocity P-wave (km/s) = 7.17527 7.34741 7.26185
#
# Compressibility (1/GPa) = 0.01561649
#
# Stress axis : x y z
#
# Youngs Moduli (GPa) = 59.68168 56.17764 65.43886
#
# Poissons Ratio (x) = 0.20074 0.42121
# Poissons Ratio (y) = 0.21326 0.46465
# Poissons Ratio (z) = 0.38416 0.39889
#
# Static dielectric constant tensor:
#      x y z
#    x 3.550490 0.000000 0.000000 
#    y 0.000000 3.445310 0.000000 
#    z 0.000000 0.000000 3.670060 
# 
# 
# High freq. dielectric constant tensor:
#      x y z
#    x 1.749530 0.000000 0.000000 
#    y 0.000000 1.722350 0.000000 
#    z 0.000000 0.000000 1.755200 
# 
# From -- ./inp_files/11412.got.cif
#   From: 2010.03.12/outbox.cif.g09.slc.cpg/sg44_6_cif.got.tgz:11412.got - 2010.04.14 02:36:11.
