data_PCOD8190749
_publ_section_title
;
Structure prediction by ZEFSAII (Michael W. Deem and Ramdas Pophale) SiO2 
 PCOD8190749
Probable space group: I B A 2
;
_chemical_formula_sum "Si O2"
_cell_formula_units_Z 60
_cell_length_a 16.740926
_cell_length_b 17.862781
_cell_length_c 9.000282
_cell_angle_alpha 90.000000
_cell_angle_beta 90.000000
_cell_angle_gamma 90.000000
_cell_volume 2691.439783
_symmetry_space_group_name_H-M "I B A 2"
_symmetry_group_IT_number 45
_symmetry_cell_setting 'orthorhombic'
loop_
_space_group_symop_operation_xyz
x,y,z
-x,-y,z
-x,y,1/2+z
x,-y,1/2+z
1/2+x,1/2+y,1/2+z
1/2-x,1/2-y,1/2+z
1/2-x,1/2+y,z
1/2+x,1/2-y,z
loop_
_atom_site_type_symbol
_atom_site_label
_atom_site_fract_x
_atom_site_fract_y
_atom_site_fract_z
Si Si1 0.100349 0.388896 0.795050
Si Si2 0.988942 0.683079 0.524975
Si Si3 0.233041 0.041140 0.042547
Si Si4 0.890947 0.287872 0.752201
Si Si5 0.776660 0.160278 0.787295
Si Si6 0.832727 0.451370 0.763063
Si Si7 0.500000 0.500000 0.168505
Si Si8 0.104207 0.057511 0.425775
O O1 0.184253 0.346581 0.836424
O O2 0.109133 0.477570 0.775700
O O3 0.069446 0.358449 0.638533
O O4 0.038834 0.376547 0.927892
O O5 0.049519 0.737200 0.617753
O O6 0.934437 0.729772 0.409439
O O7 0.211128 0.112431 0.139361
O O8 0.264147 0.971723 0.143644
O O9 0.299222 0.066223 0.925674
O O10 0.155167 0.017442 0.952309
O O11 0.806020 0.244611 0.750279
O O12 0.879461 0.376358 0.718756
O O13 0.835813 0.128073 0.915308
O O14 0.439711 0.547757 0.268641
O O15 0.543131 0.562510 0.064103
#
# Coordination Sequence:
#
# PCOD8190749 Si02
#       8
#     8   8   8   8   8   8   4   8
#     4  10  22  43  70  98 130 174 224 276 319 401
#     4  10  24  44  65  95 140 173 217 268 343 392
#     4  11  20  41  65  98 124 165 222 285 308 385
#     4  11  25  42  63  96 135 178 215 269 339 397
#     4  11  24  41  70  93 131 168 230 270 326 397
#     4  11  22  38  69  98 131 167 224 273 323 380
#     4  10  22  36  66  92 126 164 212 276 336 368
#     4  11  20  40  63  93 124 163 218 269 321 380
#
# _framework density 22.292898999999998
#
# number of rings (size 3 to 8) (size 9 to 14) (size 15 to 20)
#    0.000    1.333    4.000    2.400    0.000    6.400 
#    0.000    0.000    0.000    0.000    0.000    0.000 
#    0.000    0.000    0.000    0.000    0.000    0.000 
#
# Total GULP energy -371872.820841 kJ/mol
# GULP energy per Si atom -12395.760695 kJ/mol
# Density = 2.224216 g / cm^3
# Si number density = 22.292899 Si / 1000 Ang^3
#
#
#
# Elastic Constant Matrix: (Units=GPa)
#
#
# Indices 1 2 3 4 5 6 
#
# 1 119.0115 36.1655 44.6913 0.0000 0.0000 0.0000
# 2 36.1655 64.3585 11.8086 0.0000 0.0000 0.0000
# 3 44.6913 11.8086 121.1292 0.0000 0.0000 0.0000
# 4 0.0000 0.0000 0.0000 10.5386 0.0000 0.0000
# 5 0.0000 0.0000 0.0000 0.0000 43.6190 0.0000
# 6 0.0000 0.0000 0.0000 0.0000 0.0000 28.4566
#
#
#
# Elastic Compliance Matrix: (Units=1/GPa)
#
#
# Indices 1 2 3 4 5 6 
#
# 1 0.011559 -0.005817 -0.003698 0.000000 0.000000 0.000000
# 2 -0.005817 0.018748 0.000318 0.000000 0.000000 0.000000
# 3 -0.003698 0.000318 0.009589 0.000000 0.000000 0.000000
# 4 0.000000 0.000000 0.000000 0.094889 0.000000 0.000000
# 5 0.000000 0.000000 0.000000 0.000000 0.022926 0.000000
# 6 0.000000 0.000000 0.000000 0.000000 0.000000 0.035141
#
#
# Mechanical properties :
#
#
# Convention : Reuss Voigt Hill
#
# Bulk Modulus (GPa) = 46.50334 54.42555 50.46444
# Shear Modulus (GPa) = 22.89257 30.64512 26.76884
#
# Velocity S-wave (km/s) = 3.20800 3.71166 3.46898
# Velocity P-wave (km/s) = 5.88448 6.54488 6.22345
#
# Compressibility (1/GPa) = 0.02150383
#
# Stress axis : x y z
#
# Youngs Moduli (GPa) = 86.51487 53.33831 104.28784
#
# Poissons Ratio (x) = 0.31026 0.38561
# Poissons Ratio (y) = 0.50324 -0.03321
# Poissons Ratio (z) = 0.31990 -0.01699
#
# Static dielectric constant tensor:
#      x y z
#    x 4.335040 0.000000 0.000000 
#    y 0.000000 3.503450 0.000000 
#    z 0.000000 0.000000 4.342250 
# 
# 
# High freq. dielectric constant tensor:
#      x y z
#    x 1.895640 0.000000 0.000000 
#    y 0.000000 1.830920 0.000000 
#    z 0.000000 0.000000 1.897970 
# 
# From -- ./inp_files/2150.got.cif
#   From: 2010.03.12/outbox.cif.g09.slc.cpg/sg45_2_cif.got.tgz:2150.got - 2010.04.14 02:50:11.
