data_PCOD8190830
_publ_section_title
;
Structure prediction by ZEFSAII (Michael W. Deem and Ramdas Pophale) SiO2 
 PCOD8190830
Probable space group: I B A 2
;
_chemical_formula_sum "Si O2"
_cell_formula_units_Z 48
_cell_length_a 14.290396
_cell_length_b 7.606456
_cell_length_c 17.111224
_cell_angle_alpha 90.000000
_cell_angle_beta 90.000000
_cell_angle_gamma 90.000000
_cell_volume 1859.977530
_symmetry_space_group_name_H-M "I B A 2"
_symmetry_group_IT_number 45
_symmetry_cell_setting 'orthorhombic'
loop_
_space_group_symop_operation_xyz
x,y,z
-x,-y,z
-x,y,1/2+z
x,-y,1/2+z
1/2+x,1/2+y,1/2+z
1/2-x,1/2-y,1/2+z
1/2-x,1/2+y,z
1/2+x,1/2-y,z
loop_
_atom_site_type_symbol
_atom_site_label
_atom_site_fract_x
_atom_site_fract_y
_atom_site_fract_z
Si Si1 0.397544 0.995171 0.233390
Si Si2 0.941788 0.320832 0.975952
Si Si3 0.357756 0.688521 0.629494
Si Si4 0.349993 0.707315 0.112278
Si Si5 0.885002 0.172100 0.433024
Si Si6 0.786772 0.510639 0.380633
O O1 0.402629 0.856257 0.162299
O O2 0.314218 0.934239 0.291812
O O3 0.500000 0.000000 0.275028
O O4 0.380431 0.193512 0.204394
O O5 0.929663 0.225120 0.059076
O O6 0.000000 0.500000 0.986514
O O7 0.840194 0.360525 0.940421
O O8 0.002835 0.190586 0.916856
O O9 0.362083 0.482882 0.653690
O O10 0.255947 0.737351 0.599610
O O11 0.389920 0.699600 0.025678
O O12 0.823934 0.314705 0.387164
O O13 0.825432 0.002603 0.403377
#
# Coordination Sequence:
#
# PCOD8190830 Si02
#       6
#     8   8   8   8   8   8
#     4  12  27  48  73 105 154 199 244 309 383 462
#     4  10  22  43  72 103 139 189 245 309 377 440
#     4  12  24  44  74 109 147 193 254 308 372 452
#     4  12  25  44  76 110 144 197 245 310 374 439
#     4  11  23  44  71 100 138 185 243 304 366 444
#     4  11  25  45  71 103 142 192 239 304 382 448
#
# _framework density 25.806764000000001
#
# number of rings (size 3 to 8) (size 9 to 14) (size 15 to 20)
#    0.000    0.667    3.333    6.000    2.333    2.667 
#    0.000    0.000    3.667    0.000    0.000    0.000 
#    0.000    0.000    0.000    0.000    0.000    0.000 
#
# Total GULP energy -297437.879828 kJ/mol
# GULP energy per Si atom -12393.244993 kJ/mol
# Density = 2.574803 g / cm^3
# Si number density = 25.806764 Si / 1000 Ang^3
#
#
#
# Elastic Constant Matrix: (Units=GPa)
#
#
# Indices 1 2 3 4 5 6 
#
# 1 113.2246 -16.8915 1.5689 0.0000 0.0000 0.0000
# 2 -16.8915 107.7213 4.5582 0.0000 0.0000 0.0000
# 3 1.5689 4.5582 88.9108 0.0000 0.0000 0.0000
# 4 0.0000 0.0000 0.0000 17.0020 0.0000 0.0000
# 5 0.0000 0.0000 0.0000 0.0000 26.6464 0.0000
# 6 0.0000 0.0000 0.0000 0.0000 0.0000 20.6471
#
#
#
# Elastic Compliance Matrix: (Units=1/GPa)
#
#
# Indices 1 2 3 4 5 6 
#
# 1 0.009048 0.001429 -0.000233 0.000000 0.000000 0.000000
# 2 0.001429 0.009529 -0.000514 0.000000 0.000000 0.000000
# 3 -0.000233 -0.000514 0.011278 0.000000 0.000000 0.000000
# 4 0.000000 0.000000 0.000000 0.058817 0.000000 0.000000
# 5 0.000000 0.000000 0.000000 0.000000 0.037529 0.000000
# 6 0.000000 0.000000 0.000000 0.000000 0.000000 0.048433
#
#
# Mechanical properties :
#
#
# Convention : Reuss Voigt Hill
#
# Bulk Modulus (GPa) = 32.03162 32.03644 32.03403
# Shear Modulus (GPa) = 27.22194 34.23384 30.72789
#
# Velocity S-wave (km/s) = 3.25135 3.64613 3.45438
# Velocity P-wave (km/s) = 5.15112 5.49241 5.32450
#
# Compressibility (1/GPa) = 0.03121915
#
# Stress axis : x y z
#
# Youngs Moduli (GPa) = 110.51715 104.94298 88.67072
#
# Poissons Ratio (x) = -0.14993 0.02065
# Poissons Ratio (y) = -0.15790 0.04555
# Poissons Ratio (z) = 0.02574 0.05391
#
# Static dielectric constant tensor:
#      x y z
#    x 5.263700 0.000000 0.000000 
#    y 0.000000 5.000760 0.000000 
#    z 0.000000 0.000000 4.276960 
# 
# 
# High freq. dielectric constant tensor:
#      x y z
#    x 2.055410 0.000000 0.000000 
#    y 0.000000 2.037980 0.000000 
#    z 0.000000 0.000000 2.003750 
# 
# From -- ./inp_files/8140.got.cif
#   From: 2010.03.12/outbox.cif.g09.slc.cpg/sg45_5_cif.got.tgz:8140.got - 2010.04.14 02:50:11.
