data_PCOD8190008
_publ_section_title
;
Structure prediction by ZEFSAII (Michael W. Deem and Ramdas Pophale) SiO2 
 PCOD8190008
Probable space group: I M M 2
;
_chemical_formula_sum "Si O2"
_cell_formula_units_Z 64
_cell_length_a 18.483659
_cell_length_b 15.781525
_cell_length_c 10.932058
_cell_angle_alpha 90.000000
_cell_angle_beta 90.000000
_cell_angle_gamma 90.000000
_cell_volume 3188.884889
_symmetry_space_group_name_H-M "I M M 2"
_symmetry_group_IT_number 44
_symmetry_cell_setting 'orthorhombic'
loop_
_space_group_symop_operation_xyz
x,y,z
-x,-y,z
-x,y,z
x,-y,z
1/2+x,1/2+y,1/2+z
1/2-x,1/2-y,1/2+z
1/2-x,1/2+y,1/2+z
1/2+x,1/2-y,1/2+z
loop_
_atom_site_type_symbol
_atom_site_label
_atom_site_fract_x
_atom_site_fract_y
_atom_site_fract_z
Si Si1 0.080917 0.652030 0.357690
Si Si2 0.823437 0.907485 0.359662
Si Si3 0.682853 0.738498 0.486305
Si Si4 0.738770 0.093156 0.830428
Si Si5 0.197322 0.176077 0.613285
Si Si6 0.162616 0.596006 0.829911
Si Si7 0.917954 0.695948 0.640301
Si Si8 0.419292 0.312324 0.683405
O O1 0.150721 0.593810 0.330273
O O2 0.088751 0.683694 0.496051
O O3 0.085964 0.727095 0.261347
O O4 0.000000 0.608614 0.343949
O O5 0.827149 0.848262 0.477434
O O6 0.746351 0.902875 0.291128
O O7 0.882046 0.886179 0.258978
O O8 0.840351 0.000000 0.410444
O O9 0.724335 0.672676 0.397984
O O10 0.737581 0.756952 0.597950
O O11 0.654343 0.827295 0.427477
O O12 0.613668 0.695742 0.547912
O O13 0.771196 0.098557 0.692787
O O14 0.760801 0.000000 0.882243
O O15 0.129774 0.222311 0.679825
O O16 0.142996 0.500000 0.879668
O O17 0.112421 0.613801 0.711992
O O18 0.000000 0.712797 0.681276
O O19 0.500000 0.342122 0.661200
#
# Coordination Sequence:
#
# PCOD8190008 Si02
#       8
#     8   8   8   8   8   8   8   8
#     4  10  21  39  60  89 123 159 201 251 310 370
#     4  10  21  37  62  91 118 152 207 266 305 356
#     4  11  22  40  64  90 124 165 207 253 304 370
#     4  12  24  39  65  95 125 166 208 254 309 365
#     4  11  20  40  63  88 121 162 207 256 305 367
#     4  10  22  40  64  92 120 156 206 259 308 361
#     4  11  21  36  63  90 120 160 203 252 308 364
#     4  11  22  39  62  87 121 165 205 250 313 372
#
# _framework density 20.069711999999999
#
# number of rings (size 3 to 8) (size 9 to 14) (size 15 to 20)
#    0.000    1.250    5.000    1.875    0.000    2.750 
#    0.000    1.250    0.000    1.875    0.000    0.000 
#    0.000    0.000    0.000    0.000    0.000    0.000 
#
# Total GULP energy -396506.592227 kJ/mol
# GULP energy per Si atom -12390.831007 kJ/mol
# Density = 2.002403 g / cm^3
# Si number density = 20.069712 Si / 1000 Ang^3
#
#
#
# Elastic Constant Matrix: (Units=GPa)
#
#
# Indices 1 2 3 4 5 6 
#
# 1 133.9033 43.5634 51.5515 0.0000 0.0000 0.0000
# 2 43.5634 85.8495 26.4355 0.0000 0.0000 0.0000
# 3 51.5515 26.4355 62.9330 0.0000 0.0000 0.0000
# 4 0.0000 0.0000 0.0000 15.8817 0.0000 0.0000
# 5 0.0000 0.0000 0.0000 0.0000 21.6865 0.0000
# 6 0.0000 0.0000 0.0000 0.0000 0.0000 18.7170
#
#
#
# Elastic Compliance Matrix: (Units=1/GPa)
#
#
# Indices 1 2 3 4 5 6 
#
# 1 0.011730 -0.003438 -0.008164 0.000000 0.000000 0.000000
# 2 -0.003438 0.014387 -0.003227 0.000000 0.000000 0.000000
# 3 -0.008164 -0.003227 0.023933 0.000000 0.000000 0.000000
# 4 0.000000 0.000000 0.000000 0.062965 0.000000 0.000000
# 5 0.000000 0.000000 0.000000 0.000000 0.046112 0.000000
# 6 0.000000 0.000000 0.000000 0.000000 0.000000 0.053427
#
#
# Mechanical properties :
#
#
# Convention : Reuss Voigt Hill
#
# Bulk Modulus (GPa) = 49.04116 58.42073 53.73095
# Shear Modulus (GPa) = 20.07957 21.99941 21.03949
#
# Velocity S-wave (km/s) = 3.16649 3.31441 3.24129
# Velocity P-wave (km/s) = 6.15283 6.61960 6.39048
#
# Compressibility (1/GPa) = 0.02039103
#
# Stress axis : x y z
#
# Youngs Moduli (GPa) = 85.25315 69.50923 41.78312
#
# Poissons Ratio (x) = 0.23898 0.34113
# Poissons Ratio (y) = 0.29311 0.13483
# Poissons Ratio (z) = 0.69603 0.22430
#
# Static dielectric constant tensor:
#      x y z
#    x 3.983640 0.000000 0.000000 
#    y 0.000000 3.531280 0.000000 
#    z 0.000000 0.000000 3.524040 
# 
# 
# High freq. dielectric constant tensor:
#      x y z
#    x 1.785560 0.000000 0.000000 
#    y 0.000000 1.770040 0.000000 
#    z 0.000000 0.000000 1.776280 
# 
# From -- ./inp_files/13411.got.cif
#   From: 2010.03.12/outbox.cif.g09.slc.cpg/sg44_7_cif.got.tgz:13411.got - 2010.04.14 02:36:11.
