data_PCOD8190990
_publ_section_title
;
Structure prediction by ZEFSAII (Michael W. Deem and Ramdas Pophale) SiO2 
 PCOD8190990
Probable space group: I B A 2
;
_chemical_formula_sum "Si O2"
_cell_formula_units_Z 56
_cell_length_a 11.462783
_cell_length_b 16.822191
_cell_length_c 14.178628
_cell_angle_alpha 90.000000
_cell_angle_beta 90.000000
_cell_angle_gamma 90.000000
_cell_volume 2734.052431
_symmetry_space_group_name_H-M "I B A 2"
_symmetry_group_IT_number 45
_symmetry_cell_setting 'orthorhombic'
loop_
_space_group_symop_operation_xyz
x,y,z
-x,-y,z
-x,y,1/2+z
x,-y,1/2+z
1/2+x,1/2+y,1/2+z
1/2-x,1/2-y,1/2+z
1/2-x,1/2+y,z
1/2+x,1/2-y,z
loop_
_atom_site_type_symbol
_atom_site_label
_atom_site_fract_x
_atom_site_fract_y
_atom_site_fract_z
Si Si1 0.691916 0.030763 0.538930
Si Si2 0.445662 0.416325 0.544348
Si Si3 0.946216 0.375996 0.886115
Si Si4 0.067355 0.190784 0.399565
Si Si5 0.961869 0.083961 0.246932
Si Si6 0.288154 0.093158 0.390739
Si Si7 0.710304 0.033916 0.240278
O O1 0.806868 0.085250 0.526775
O O2 0.588814 0.075042 0.480886
O O3 0.717151 0.945105 0.494069
O O4 0.658483 0.010435 0.647387
O O5 0.500000 0.500000 0.509008
O O6 0.507700 0.342293 0.494206
O O7 0.459958 0.405172 0.655057
O O8 0.921066 0.284532 0.902373
O O9 0.884453 0.410426 0.792192
O O10 0.081884 0.382053 0.865040
O O11 0.202024 0.167096 0.389403
O O12 0.987486 0.157816 0.314900
O O13 0.825609 0.085344 0.216343
O O14 0.000000 0.000000 0.295251
O O15 0.243551 0.031672 0.312802
#
# Coordination Sequence:
#
# PCOD8190990 Si02
#       7
#     8   8   8   8   8   8   8
#     4  11  21  43  70  92 125 171 228 267 312 392
#     4  11  20  39  68 103 121 168 231 266 322 382
#     4  11  29  40  60 101 132 174 216 263 352 395
#     4  12  23  42  63  96 142 169 206 289 336 381
#     4  11  20  39  68 103 121 168 231 266 322 382
#     4  11  23  41  61  92 126 173 224 255 325 400
#     4  11  21  43  70  92 125 171 228 267 312 392
#
# _framework density 20.482416000000001
#
# number of rings (size 3 to 8) (size 9 to 14) (size 15 to 20)
#    0.000    0.857    5.714    3.857    4.000    2.286 
#    5.143    2.857    0.000    0.000    0.000    0.000 
#    0.000    0.000    0.000    0.000    0.000    0.000 
#
# Total GULP energy -347184.865882 kJ/mol
# GULP energy per Si atom -12399.459496 kJ/mol
# Density = 2.043580 g / cm^3
# Si number density = 20.482416 Si / 1000 Ang^3
#
#
#
# Elastic Constant Matrix: (Units=GPa)
#
#
# Indices 1 2 3 4 5 6 
#
# 1 116.2027 25.3699 12.9854 0.0000 0.0000 0.0000
# 2 25.3699 115.8002 38.2492 0.0002 0.0001 0.0000
# 3 12.9854 38.2492 87.9685 0.0004 0.0000 0.0000
# 4 0.0000 0.0002 0.0004 19.7533 0.0001 0.0000
# 5 0.0000 0.0001 0.0000 0.0001 57.4904 0.0000
# 6 0.0000 0.0000 0.0000 0.0000 0.0000 -1.0719
#
#
#
# Elastic Compliance Matrix: (Units=1/GPa)
#
#
# Indices 1 2 3 4 5 6 
#
# 1 0.009061 -0.001802 -0.000554 0.000000 0.000000 0.000000
# 2 -0.001802 0.010442 -0.004274 0.000000 0.000000 0.000000
# 3 -0.000554 -0.004274 0.013308 0.000000 0.000000 0.000000
# 4 0.000000 0.000000 0.000000 0.050624 0.000000 0.000000
# 5 0.000000 0.000000 0.000000 0.000000 0.017394 0.000000
# 6 0.000000 0.000000 0.000000 0.000000 0.000000 -0.932880
#
#
# Mechanical properties :
#
#
# Convention : Reuss Voigt Hill
#
# Bulk Modulus (GPa) = 51.14990 52.57558 51.86274
# Shear Modulus (GPa) = -6.15557 31.45881 12.65162
#
# Velocity S-wave (km/s) = -1.73546 3.92330 2.48802
# Velocity P-wave (km/s) = 4.58378 6.80054 5.79907
#
# Compressibility (1/GPa) = 0.01955038
#
# Stress axis : x y z
#
# Youngs Moduli (GPa) = 110.36308 95.76526 75.14295
#
# Poissons Ratio (x) = 0.17258 0.04163
# Poissons Ratio (y) = 0.19889 0.32118
# Poissons Ratio (z) = 0.06114 0.40933
#
# Static dielectric constant tensor:
#      x y z
#    x 3.612080 0.000000 0.000000 
#    y 0.000000 3.509190 0.000000 
#    z 0.000000 0.000000 3.704360 
# 
# 
# High freq. dielectric constant tensor:
#      x y z
#    x 1.818520 0.000000 0.000000 
#    y 0.000000 1.770450 0.000000 
#    z 0.000000 0.000000 1.805930 
# 
# From -- ./inp_files/6167.got.cif
#   From: 2010.03.12/outbox.cif.g09.slc.cpg/sg45_4_cif.got.tgz:6167.got - 2010.04.14 02:50:11.
