data_PCOD8190555
_publ_section_title
;
Structure prediction by ZEFSAII (Michael W. Deem and Ramdas Pophale) SiO2 
 PCOD8190555
Probable space group: I B A 2
;
_chemical_formula_sum "Si O2"
_cell_formula_units_Z 60
_cell_length_a 13.171532
_cell_length_b 29.414450
_cell_length_c 9.019442
_cell_angle_alpha 90.000000
_cell_angle_beta 90.000000
_cell_angle_gamma 90.000000
_cell_volume 3494.432805
_symmetry_space_group_name_H-M "I B A 2"
_symmetry_group_IT_number 45
_symmetry_cell_setting 'orthorhombic'
loop_
_space_group_symop_operation_xyz
x,y,z
-x,-y,z
-x,y,1/2+z
x,-y,1/2+z
1/2+x,1/2+y,1/2+z
1/2-x,1/2-y,1/2+z
1/2-x,1/2+y,z
1/2+x,1/2-y,z
loop_
_atom_site_type_symbol
_atom_site_label
_atom_site_fract_x
_atom_site_fract_y
_atom_site_fract_z
Si Si1 0.405303 0.303667 0.957300
Si Si2 0.611547 0.811718 0.691944
Si Si3 0.914065 0.861891 0.964899
Si Si4 0.802170 0.134801 0.169057
Si Si5 0.802695 0.788315 0.165751
Si Si6 0.000000 0.000000 0.305359
Si Si7 0.083934 0.294583 0.525111
Si Si8 0.063516 0.937431 0.052125
O O1 0.490297 0.336856 0.887703
O O2 0.313029 0.298811 0.840533
O O3 0.364553 0.321218 0.114732
O O4 0.457645 0.255668 0.991049
O O5 0.684070 0.853748 0.646226
O O6 0.656745 0.763014 0.639592
O O7 0.502618 0.820745 0.617204
O O8 0.603790 0.818141 0.868459
O O9 0.832338 0.875122 0.839596
O O10 0.959105 0.907456 0.043232
O O11 0.866109 0.826666 0.080255
O O12 0.835010 0.093172 0.062266
O O13 0.685685 0.792158 0.122280
O O14 0.074440 0.029562 0.410733
O O15 0.935798 0.033726 0.203198
#
# Coordination Sequence:
#
# PCOD8190555 Si02
#       8
#     8   8   8   8   8   4   8   8
#     4  10  21  31  52  72 104 147 198 240 275 330
#     4  11  24  36  52  73 109 153 206 251 278 324
#     4  11  20  36  53  80 109 153 190 226 281 339
#     4  11  21  35  52  80 110 152 189 229 282 339
#     4  11  22  35  51  74 109 154 206 242 282 325
#     4  10  20  38  58  88 116 146 174 218 300 362
#     4  11  23  35  50  72 103 154 203 249 279 311
#     4  10  21  36  59  85 120 146 173 230 284 365
#
# _framework density 17.170168
#
# number of rings (size 3 to 8) (size 9 to 14) (size 15 to 20)
#    0.000    1.333    5.333    1.600    5.600    0.000 
#    0.000    0.000    0.000    0.000    0.000    0.000 
#    0.000   18.133    0.000    0.000    0.000    0.000 
#
# Total GULP energy -371826.833332 kJ/mol
# GULP energy per Si atom -12394.227778 kJ/mol
# Density = 1.713109 g / cm^3
# Si number density = 17.170168 Si / 1000 Ang^3
#
#
#
# Elastic Constant Matrix: (Units=GPa)
#
#
# Indices 1 2 3 4 5 6 
#
# 1 111.2727 36.3395 38.4288 0.0006 0.0002 0.0000
# 2 36.3395 77.7499 34.9716 0.0015 0.0000 -0.0001
# 3 38.4288 34.9716 85.4594 0.0056 0.0009 0.0005
# 4 0.0006 0.0015 0.0056 22.8905 -0.0001 -0.0003
# 5 0.0002 0.0000 0.0009 -0.0001 26.2650 0.0003
# 6 0.0000 -0.0001 0.0005 -0.0003 0.0003 19.8359
#
#
#
# Elastic Compliance Matrix: (Units=1/GPa)
#
#
# Indices 1 2 3 4 5 6 
#
# 1 0.011456 -0.003722 -0.003628 0.000001 0.000000 0.000000
# 2 -0.003722 0.016973 -0.005272 0.000000 0.000000 0.000000
# 3 -0.003628 -0.005272 0.015490 -0.000003 -0.000001 0.000000
# 4 0.000001 0.000000 -0.000003 0.043686 0.000000 0.000001
# 5 0.000000 0.000000 -0.000001 0.000000 0.038073 -0.000001
# 6 0.000000 0.000000 0.000000 0.000001 -0.000001 0.050414
#
#
# Mechanical properties :
#
#
# Convention : Reuss Voigt Hill
#
# Bulk Modulus (GPa) = 53.54950 54.88465 54.21708
# Shear Modulus (GPa) = 24.08936 24.78111 24.43524
#
# Velocity S-wave (km/s) = 3.74970 3.80315 3.77652
# Velocity P-wave (km/s) = 7.07122 7.16379 7.11766
#
# Compressibility (1/GPa) = 0.01867431
#
# Stress axis : x y z
#
# Youngs Moduli (GPa) = 87.29416 58.91801 64.55714
#
# Poissons Ratio (x) = 0.21931 0.23421
# Poissons Ratio (y) = 0.32494 0.34033
# Poissons Ratio (z) = 0.31670 0.31060
#
# Static dielectric constant tensor:
#      x y z
#    x 3.078140 0.000000 0.000000 
#    y 0.000000 3.198590 0.000000 
#    z 0.000000 0.000000 3.316670 
# 
# 
# High freq. dielectric constant tensor:
#      x y z
#    x 1.637650 0.000000 0.000000 
#    y 0.000000 1.635680 0.000000 
#    z 0.000000 0.000000 1.677210 
# 
# From -- ./inp_files/1479.got.cif
#   From: 2010.03.12/outbox.cif.g09.slc.cpg/sg45_1_cif.got.tgz:1479.got - 2010.04.14 02:50:11.
