data_PCOD8190338
_publ_section_title
;
Structure prediction by ZEFSAII (Michael W. Deem and Ramdas Pophale) SiO2 
 PCOD8190338
Probable space group: I M M 2
;
_chemical_formula_sum "Si O2"
_cell_formula_units_Z 64
_cell_length_a 18.822281
_cell_length_b 8.817969
_cell_length_c 21.061750
_cell_angle_alpha 90.000000
_cell_angle_beta 90.000000
_cell_angle_gamma 90.000000
_cell_volume 3495.709010
_symmetry_space_group_name_H-M "I M M 2"
_symmetry_group_IT_number 44
_symmetry_cell_setting 'orthorhombic'
loop_
_space_group_symop_operation_xyz
x,y,z
-x,-y,z
-x,y,z
x,-y,z
1/2+x,1/2+y,1/2+z
1/2-x,1/2-y,1/2+z
1/2-x,1/2+y,1/2+z
1/2+x,1/2-y,1/2+z
loop_
_atom_site_type_symbol
_atom_site_label
_atom_site_fract_x
_atom_site_fract_y
_atom_site_fract_z
Si Si1 0.826882 0.675608 0.470840
Si Si2 0.668748 0.319902 0.233939
Si Si3 0.331691 0.823341 0.600762
Si Si4 0.919957 0.681542 0.356686
Si Si5 0.833436 0.179753 0.974256
Si Si6 0.830506 0.321049 0.239086
Si Si7 0.318927 0.176366 0.109615
Si Si8 0.579892 0.680478 0.354294
O O1 0.820033 0.500000 0.453982
O O2 0.879439 0.748256 0.418749
O O3 0.746962 0.743720 0.466184
O O4 0.859378 0.698480 0.541985
O O5 0.664167 0.500000 0.225233
O O6 0.749403 0.262360 0.246114
O O7 0.637220 0.238349 0.170311
O O8 0.621258 0.261979 0.292246
O O9 0.366941 0.735576 0.541405
O O10 0.364333 0.778528 0.669960
O O11 0.249604 0.781580 0.605786
O O12 0.340630 0.000000 0.587608
O O13 0.920979 0.500000 0.356652
O O14 0.879905 0.747076 0.294451
O O15 0.000000 0.745282 0.357079
O O16 0.833448 0.000000 0.975473
O O17 0.880991 0.243944 0.916944
O O18 0.827572 0.500000 0.246709
O O19 0.298200 0.000000 0.118250
O O20 0.500000 0.744912 0.352753
O O21 0.579872 0.500000 0.355952
#
# Coordination Sequence:
#
# PCOD8190338 Si02
#       8
#     8   8   8   8   8   8   8   8
#     4   8  14  24  39  60  84 110 139 173 215 258
#     4   9  16  28  47  67  88 115 147 185 226 268
#     4   9  16  27  44  67  93 116 143 182 224 266
#     4   9  15  23  37  58  84 112 142 175 210 252
#     4   9  16  28  47  67  88 115 147 185 226 268
#     4   8  14  24  39  60  84 110 139 173 215 258
#     4   9  16  27  44  67  93 116 143 182 224 266
#     4   9  17  29  46  67  88 114 154 197 230 268
#
# _framework density 18.308160999999998
#
# number of rings (size 3 to 8) (size 9 to 14) (size 15 to 20)
#    0.000    3.250    0.000    3.000    0.000    3.000 
#    0.000    1.875    0.000    3.000    0.000    2.625 
#    0.000   34.000    0.000    0.000    0.000    0.000 
#
# Total GULP energy -396454.386571 kJ/mol
# GULP energy per Si atom -12389.199580 kJ/mol
# Density = 1.826649 g / cm^3
# Si number density = 18.308161 Si / 1000 Ang^3
#
#
#
# Elastic Constant Matrix: (Units=GPa)
#
#
# Indices 1 2 3 4 5 6 
#
# 1 95.8428 13.2029 83.8108 0.0000 0.0000 0.0000
# 2 13.2029 12.2936 24.6122 0.0000 0.0000 0.0000
# 3 83.8108 24.6122 211.4272 0.0000 0.0000 0.0000
# 4 0.0000 0.0000 0.0000 26.8037 0.0000 0.0000
# 5 0.0000 0.0000 0.0000 0.0000 8.6015 0.0000
# 6 0.0000 0.0000 0.0000 0.0000 0.0000 7.9858
#
#
#
# Elastic Compliance Matrix: (Units=1/GPa)
#
#
# Indices 1 2 3 4 5 6 
#
# 1 0.016297 -0.005957 -0.005767 0.000000 0.000000 0.000000
# 2 -0.005957 0.108239 -0.010239 0.000000 0.000000 0.000000
# 3 -0.005767 -0.010239 0.008208 0.000000 0.000000 0.000000
# 4 0.000000 0.000000 0.000000 0.037308 0.000000 0.000000
# 5 0.000000 0.000000 0.000000 0.000000 0.116259 0.000000
# 6 0.000000 0.000000 0.000000 0.000000 0.000000 0.125222
#
#
# Mechanical properties :
#
#
# Convention : Reuss Voigt Hill
#
# Bulk Modulus (GPa) = 11.25895 62.53504 36.89700
# Shear Modulus (GPa) = 10.30792 21.87405 16.09098
#
# Velocity S-wave (km/s) = 2.37539 3.46030 2.96784
# Velocity P-wave (km/s) = 3.69950 7.08491 5.65165
#
# Compressibility (1/GPa) = 0.08881821
#
# Stress axis : x y z
#
# Youngs Moduli (GPa) = 61.35992 9.23885 121.83780
#
# Poissons Ratio (x) = 0.05504 0.70262
# Poissons Ratio (y) = 0.36554 1.24744
# Poissons Ratio (z) = 0.35385 0.09459
#
# Static dielectric constant tensor:
#      x y z
#    x 3.243160 0.000000 0.000000 
#    y 0.000000 2.902160 0.000000 
#    z 0.000000 0.000000 4.032790 
# 
# 
# High freq. dielectric constant tensor:
#      x y z
#    x 1.667690 0.000000 0.000000 
#    y 0.000000 1.655430 0.000000 
#    z 0.000000 0.000000 1.738580 
# 
# From -- ./inp_files/24477.got.cif
#   From: 2010.03.12/outbox.cif.g09.slc.cpg/sg44_13_cif.got.tgz:24477.got - 2010.04.14 02:36:11.
