data_PCOD8190914
_publ_section_title
;
Structure prediction by ZEFSAII (Michael W. Deem and Ramdas Pophale) SiO2 
 PCOD8190914
Probable space group: I B A 2
;
_chemical_formula_sum "Si O2"
_cell_formula_units_Z 48
_cell_length_a 14.962480
_cell_length_b 9.241438
_cell_length_c 16.308142
_cell_angle_alpha 90.000000
_cell_angle_beta 90.000000
_cell_angle_gamma 90.000000
_cell_volume 2255.005583
_symmetry_space_group_name_H-M "I B A 2"
_symmetry_group_IT_number 45
_symmetry_cell_setting 'orthorhombic'
loop_
_space_group_symop_operation_xyz
x,y,z
-x,-y,z
-x,y,1/2+z
x,-y,1/2+z
1/2+x,1/2+y,1/2+z
1/2-x,1/2-y,1/2+z
1/2-x,1/2+y,z
1/2+x,1/2-y,z
loop_
_atom_site_type_symbol
_atom_site_label
_atom_site_fract_x
_atom_site_fract_y
_atom_site_fract_z
Si Si1 0.826701 0.045980 0.883950
Si Si2 0.324312 0.733453 0.634487
Si Si3 0.000000 0.500000 0.012616
Si Si4 0.321915 0.425795 0.697556
Si Si5 0.172828 0.352481 0.455721
Si Si6 0.000000 0.000000 0.480078
Si Si7 0.481298 0.262965 0.611562
O O1 0.834145 0.010635 0.787967
O O2 0.825151 0.219259 0.892828
O O3 0.913146 0.974827 0.925135
O O4 0.739817 0.975211 0.924538
O O5 0.305931 0.561172 0.636937
O O6 0.262134 0.818472 0.698250
O O7 0.298996 0.793210 0.544771
O O8 0.426713 0.765729 0.661327
O O9 0.053018 0.386930 0.071972
O O10 0.073526 0.578677 0.956618
O O11 0.409100 0.336840 0.669266
O O12 0.014765 0.139134 0.536137
#
# Coordination Sequence:
#
# PCOD8190914 Si02
#       7
#     8   8   4   8   8   4   8
#     4  12  27  43  68 103 142 176 226 294 356 393
#     4  11  23  44  70  97 133 183 233 274 331 427
#     4  10  24  42  70  96 130 172 246 274 326 406
#     4  12  26  44  67 104 139 177 227 290 351 398
#     4  11  24  47  67 102 131 185 230 281 339 419
#     4  12  22  44  70 100 128 182 236 274 340 416
#     4  11  23  44  69  98 128 181 232 281 330 424
#
# _framework density 21.285976999999999
#
# number of rings (size 3 to 8) (size 9 to 14) (size 15 to 20)
#    0.000    0.667    5.000    3.000   11.667    0.000 
#    3.000    0.000    0.000    0.000    0.000    0.000 
#    0.000    0.000    0.000    0.000    0.000    0.000 
#
# Total GULP energy -297696.142689 kJ/mol
# GULP energy per Si atom -12404.005945 kJ/mol
# Density = 2.123753 g / cm^3
# Si number density = 21.285977 Si / 1000 Ang^3
#
#
#
# Elastic Constant Matrix: (Units=GPa)
#
#
# Indices 1 2 3 4 5 6 
#
# 1 152.5579 50.2548 50.8595 0.0000 0.0000 0.0000
# 2 50.2548 120.7800 28.8458 0.0000 0.0000 0.0000
# 3 50.8595 28.8458 101.6754 0.0000 0.0000 0.0000
# 4 0.0000 0.0000 0.0000 22.8420 0.0000 0.0000
# 5 0.0000 0.0000 0.0000 0.0000 12.9491 0.0000
# 6 0.0000 0.0000 0.0000 0.0000 0.0000 39.3033
#
#
#
# Elastic Compliance Matrix: (Units=1/GPa)
#
#
# Indices 1 2 3 4 5 6 
#
# 1 0.008642 -0.002750 -0.003543 0.000000 0.000000 0.000000
# 2 -0.002750 0.009756 -0.001392 0.000000 0.000000 0.000000
# 3 -0.003543 -0.001392 0.012002 0.000000 0.000000 0.000000
# 4 0.000000 0.000000 0.000000 0.043779 0.000000 0.000000
# 5 0.000000 0.000000 0.000000 0.000000 0.077225 0.000000
# 6 0.000000 0.000000 0.000000 0.000000 0.000000 0.025443
#
#
# Mechanical properties :
#
#
# Convention : Reuss Voigt Hill
#
# Bulk Modulus (GPa) = 66.53014 70.54817 68.53916
# Shear Modulus (GPa) = 25.35145 31.35577 28.35361
#
# Velocity S-wave (km/s) = 3.45482 3.84223 3.65366
# Velocity P-wave (km/s) = 6.87296 7.27314 7.07588
#
# Compressibility (1/GPa) = 0.01503078
#
# Stress axis : x y z
#
# Youngs Moduli (GPa) = 115.71827 102.49950 83.31700
#
# Poissons Ratio (x) = 0.28183 0.29516
# Poissons Ratio (y) = 0.31818 0.11602
# Poissons Ratio (z) = 0.40995 0.14273
#
# Static dielectric constant tensor:
#      x y z
#    x 3.851580 0.000000 0.000000 
#    y 0.000000 4.066190 0.000000 
#    z 0.000000 0.000000 3.583770 
# 
# 
# High freq. dielectric constant tensor:
#      x y z
#    x 1.844830 0.000000 0.000000 
#    y 0.000000 1.851960 0.000000 
#    z 0.000000 0.000000 1.812630 
# 
# From -- ./inp_files/7585.got.cif
#   From: 2010.03.12/outbox.cif.g09.slc.cpg/sg45_4_cif.got.tgz:7585.got - 2010.04.14 02:50:11.
