data_PCOD8190634
_publ_section_title
;
Structure prediction by ZEFSAII (Michael W. Deem and Ramdas Pophale) SiO2 
 PCOD8190634
Probable space group: I B A 2
;
_chemical_formula_sum "Si O2"
_cell_formula_units_Z 56
_cell_length_a 20.087934
_cell_length_b 10.037269
_cell_length_c 13.526282
_cell_angle_alpha 90.000000
_cell_angle_beta 90.000000
_cell_angle_gamma 90.000000
_cell_volume 2727.277149
_symmetry_space_group_name_H-M "I B A 2"
_symmetry_group_IT_number 45
_symmetry_cell_setting 'orthorhombic'
loop_
_space_group_symop_operation_xyz
x,y,z
-x,-y,z
-x,y,1/2+z
x,-y,1/2+z
1/2+x,1/2+y,1/2+z
1/2-x,1/2-y,1/2+z
1/2-x,1/2+y,z
1/2+x,1/2-y,z
loop_
_atom_site_type_symbol
_atom_site_label
_atom_site_fract_x
_atom_site_fract_y
_atom_site_fract_z
Si Si1 0.884048 0.911233 0.791490
Si Si2 0.803355 0.842592 0.366760
Si Si3 0.735347 0.732345 0.184439
Si Si4 0.558110 0.370537 0.590320
Si Si5 0.913579 0.870814 0.999004
Si Si6 0.851678 0.650753 0.525715
Si Si7 0.186204 0.367990 0.020695
O O1 0.823611 0.823876 0.751291
O O2 0.936488 0.928316 0.702504
O O3 0.854756 0.038436 0.848671
O O4 0.924302 0.842169 0.882047
O O5 0.786024 0.805693 0.255180
O O6 0.839427 0.718390 0.419351
O O7 0.736661 0.879193 0.427965
O O8 0.773373 0.616132 0.123679
O O9 0.711523 0.832679 0.098021
O O10 0.481742 0.355271 0.559943
O O11 0.603244 0.472716 0.523483
O O12 0.586529 0.221836 0.579689
O O13 0.855430 0.769625 0.031053
O O14 0.864262 0.493297 0.510763
#
# Coordination Sequence:
#
# PCOD8190634 Si02
#       7
#     8   8   8   8   8   8   8
#     4  11  21  40  66  93 124 170 219 268 318 396
#     4  11  20  36  65  93 130 164 209 267 336 397
#     4  10  21  36  60  94 131 163 206 262 334 400
#     4  10  24  43  65  89 126 175 229 272 314 384
#     4  11  23  43  66  91 125 175 221 271 323 388
#     4  10  22  38  59  92 129 165 213 267 329 387
#     4  11  23  37  64  98 133 167 209 272 343 399
#
# _framework density 20.533297999999998
#
# number of rings (size 3 to 8) (size 9 to 14) (size 15 to 20)
#    0.000    1.429    2.857    2.571    2.000    2.857 
#    2.571    0.000    0.000    1.714    0.000    0.000 
#    0.000    0.000    0.000    0.000    0.000    0.000 
#
# Total GULP energy -346874.959222 kJ/mol
# GULP energy per Si atom -12388.391401 kJ/mol
# Density = 2.048656 g / cm^3
# Si number density = 20.533298 Si / 1000 Ang^3
#
#
#
# Elastic Constant Matrix: (Units=GPa)
#
#
# Indices 1 2 3 4 5 6 
#
# 1 89.6184 29.4630 44.1253 0.0000 0.0000 0.0000
# 2 29.4630 76.5533 15.3630 0.0000 0.0000 0.0000
# 3 44.1253 15.3630 144.6969 0.0000 0.0000 0.0000
# 4 0.0000 0.0000 0.0000 19.6989 0.0000 0.0000
# 5 0.0000 0.0000 0.0000 0.0000 39.8632 0.0000
# 6 0.0000 0.0000 0.0000 0.0000 0.0000 23.2689
#
#
#
# Elastic Compliance Matrix: (Units=1/GPa)
#
#
# Indices 1 2 3 4 5 6 
#
# 1 0.014713 -0.004866 -0.003970 0.000000 0.000000 0.000000
# 2 -0.004866 0.014956 -0.000104 0.000000 0.000000 0.000000
# 3 -0.003970 -0.000104 0.008133 0.000000 0.000000 0.000000
# 4 0.000000 0.000000 0.000000 0.050764 0.000000 0.000000
# 5 0.000000 0.000000 0.000000 0.000000 0.025086 0.000000
# 6 0.000000 0.000000 0.000000 0.000000 0.000000 0.042976
#
#
# Mechanical properties :
#
#
# Convention : Reuss Voigt Hill
#
# Bulk Modulus (GPa) = 50.19591 54.30792 52.25191
# Shear Modulus (GPa) = 27.60167 31.36069 29.48118
#
# Velocity S-wave (km/s) = 3.67036 3.91232 3.79327
# Velocity P-wave (km/s) = 6.51623 6.84941 6.68490
#
# Compressibility (1/GPa) = 0.01992194
#
# Stress axis : x y z
#
# Youngs Moduli (GPa) = 67.96785 66.86111 122.95992
#
# Poissons Ratio (x) = 0.32533 0.48816
# Poissons Ratio (y) = 0.33072 0.01281
# Poissons Ratio (z) = 0.26984 0.00696
#
# Static dielectric constant tensor:
#      x y z
#    x 3.455450 0.000000 0.000000 
#    y 0.000000 3.632790 0.000000 
#    z 0.000000 0.000000 4.105190 
# 
# 
# High freq. dielectric constant tensor:
#      x y z
#    x 1.783070 0.000000 0.000000 
#    y 0.000000 1.788280 0.000000 
#    z 0.000000 0.000000 1.826360 
# 
# From -- ./inp_files/4636.got.cif
#   From: 2010.03.12/outbox.cif.g09.slc.cpg/sg45_3_cif.got.tgz:4636.got - 2010.04.14 02:50:11.
