data_PCOD8190044
_publ_section_title
;
Structure prediction by ZEFSAII (Michael W. Deem and Ramdas Pophale) SiO2 
 PCOD8190044
Probable space group: I M M 2
;
_chemical_formula_sum "Si O2"
_cell_formula_units_Z 64
_cell_length_a 15.361811
_cell_length_b 8.809495
_cell_length_c 23.783483
_cell_angle_alpha 90.000000
_cell_angle_beta 90.000000
_cell_angle_gamma 90.000000
_cell_volume 3218.613931
_symmetry_space_group_name_H-M "I M M 2"
_symmetry_group_IT_number 44
_symmetry_cell_setting 'orthorhombic'
loop_
_space_group_symop_operation_xyz
x,y,z
-x,-y,z
-x,y,z
x,-y,z
1/2+x,1/2+y,1/2+z
1/2-x,1/2-y,1/2+z
1/2-x,1/2+y,1/2+z
1/2+x,1/2-y,1/2+z
loop_
_atom_site_type_symbol
_atom_site_label
_atom_site_fract_x
_atom_site_fract_y
_atom_site_fract_z
Si Si1 0.902299 0.173989 0.746660
Si Si2 0.242317 0.179487 0.550448
Si Si3 0.334753 0.175015 0.854035
Si Si4 0.756976 0.678200 0.671000
Si Si5 0.651138 0.178807 0.357125
Si Si6 0.096363 0.680188 0.979530
Si Si7 0.098234 0.674670 0.231930
Si Si8 0.098149 0.826247 0.461695
O O1 0.835554 0.270207 0.710348
O O2 0.903944 0.234648 0.810150
O O3 0.000000 0.189044 0.722015
O O4 0.870797 0.000000 0.746217
O O5 0.227250 0.254259 0.610001
O O6 0.332646 0.241649 0.523758
O O7 0.163273 0.229583 0.510188
O O8 0.244570 0.000000 0.558516
O O9 0.252189 0.284009 0.850442
O O10 0.390967 0.202148 0.798255
O O11 0.392830 0.221256 0.907132
O O12 0.305614 0.000000 0.859404
O O13 0.759282 0.500000 0.666637
O O14 0.664070 0.726025 0.695641
O O15 0.618238 0.239775 0.417250
O O16 0.636329 0.000000 0.350326
O O17 0.101011 0.500000 0.978444
O O18 0.000000 0.736703 0.997467
O O19 0.116229 0.500000 0.216684
O O20 0.000000 0.721155 0.215350
O O21 0.000000 0.811132 0.484809
O O22 0.120055 0.000000 0.445085
#
# Coordination Sequence:
#
# PCOD8190044 Si02
#       8
#     8   8   8   8   8   8   8   8
#     4  11  24  42  64  91 123 161 203 246 300 364
#     4  10  21  40  61  83 116 158 207 251 296 355
#     4  11  21  35  60  91 125 161 198 240 296 361
#     4  12  26  42  62  89 121 158 204 256 310 360
#     4  11  20  35  61  93 126 159 197 243 297 355
#     4   9  18  34  59  89 119 153 194 238 287 348
#     4  10  22  41  64  89 120 162 206 246 296 360
#     4  10  21  38  61  89 120 156 199 246 298 356
#
# _framework density 19.884335
#
# number of rings (size 3 to 8) (size 9 to 14) (size 15 to 20)
#    0.000    1.500    2.500    3.000    0.000    4.500 
#    0.000    2.500    0.000    1.500    0.000    0.000 
#    0.000    0.000    0.000    0.000    0.000    0.000 
#
# Total GULP energy -396903.986798 kJ/mol
# GULP energy per Si atom -12403.249587 kJ/mol
# Density = 1.983908 g / cm^3
# Si number density = 19.884335 Si / 1000 Ang^3
#
#
#
# Elastic Constant Matrix: (Units=GPa)
#
#
# Indices 1 2 3 4 5 6 
#
# 1 112.8455 14.5583 22.9447 0.0000 0.0000 0.0000
# 2 14.5583 40.4474 21.5263 0.0000 0.0000 0.0000
# 3 22.9447 21.5263 91.2274 0.0000 0.0000 0.0000
# 4 0.0000 0.0000 0.0000 34.5692 0.0000 0.0000
# 5 0.0000 0.0000 0.0000 0.0000 10.5496 0.0000
# 6 0.0000 0.0000 0.0000 0.0000 0.0000 18.8168
#
#
#
# Elastic Compliance Matrix: (Units=1/GPa)
#
#
# Indices 1 2 3 4 5 6 
#
# 1 0.009550 -0.002469 -0.001819 0.000000 0.000000 0.000000
# 2 -0.002469 0.028913 -0.006201 0.000000 0.000000 0.000000
# 3 -0.001819 -0.006201 0.012882 0.000000 0.000000 0.000000
# 4 0.000000 0.000000 0.000000 0.028927 0.000000 0.000000
# 5 0.000000 0.000000 0.000000 0.000000 0.094790 0.000000
# 6 0.000000 0.000000 0.000000 0.000000 0.000000 0.053144
#
#
# Mechanical properties :
#
#
# Convention : Reuss Voigt Hill
#
# Bulk Modulus (GPa) = 32.93194 40.28653 36.60924
# Shear Modulus (GPa) = 19.28209 25.15321 22.21765
#
# Velocity S-wave (km/s) = 3.11740 3.56051 3.34630
# Velocity P-wave (km/s) = 5.43648 6.09979 5.77766
#
# Compressibility (1/GPa) = 0.03036565
#
# Stress axis : x y z
#
# Youngs Moduli (GPa) = 104.71051 34.58707 77.62481
#
# Poissons Ratio (x) = 0.08540 0.14123
# Poissons Ratio (y) = 0.25854 0.48137
# Poissons Ratio (z) = 0.19050 0.21448
#
# Static dielectric constant tensor:
#      x y z
#    x 3.792660 0.000000 0.000000 
#    y 0.000000 3.502150 0.000000 
#    z 0.000000 0.000000 3.652600 
# 
# 
# High freq. dielectric constant tensor:
#      x y z
#    x 1.790650 0.000000 0.000000 
#    y 0.000000 1.760150 0.000000 
#    z 0.000000 0.000000 1.773650 
# 
# From -- ./inp_files/25085.got.cif
#   From: 2010.03.12/outbox.cif.g09.slc.cpg/sg44_13_cif.got.tgz:25085.got - 2010.04.14 02:36:11.
