data_PCOD8190334
_publ_section_title
;
Structure prediction by ZEFSAII (Michael W. Deem and Ramdas Pophale) SiO2 
 PCOD8190334
Probable space group: I M M 2
;
_chemical_formula_sum "Si O2"
_cell_formula_units_Z 64
_cell_length_a 23.470733
_cell_length_b 9.222578
_cell_length_c 18.191240
_cell_angle_alpha 90.000000
_cell_angle_beta 90.000000
_cell_angle_gamma 90.000000
_cell_volume 3937.687922
_symmetry_space_group_name_H-M "I M M 2"
_symmetry_group_IT_number 44
_symmetry_cell_setting 'orthorhombic'
loop_
_space_group_symop_operation_xyz
x,y,z
-x,-y,z
-x,y,z
x,-y,z
1/2+x,1/2+y,1/2+z
1/2-x,1/2-y,1/2+z
1/2-x,1/2+y,1/2+z
1/2+x,1/2-y,1/2+z
loop_
_atom_site_type_symbol
_atom_site_label
_atom_site_fract_x
_atom_site_fract_y
_atom_site_fract_z
Si Si1 0.565475 0.670002 0.899370
Si Si2 0.637037 0.327325 0.760209
Si Si3 0.627494 0.835293 0.191117
Si Si4 0.565700 0.830992 0.046070
Si Si5 0.764657 0.335171 0.771484
Si Si6 0.936051 0.172497 0.126888
Si Si7 0.436440 0.327802 0.464536
Si Si8 0.637692 0.327642 0.330128
O O1 0.500000 0.708972 0.880949
O O2 0.573296 0.500000 0.911195
O O3 0.604612 0.727965 0.832960
O O4 0.586014 0.747547 0.973566
O O5 0.635389 0.500000 0.757063
O O6 0.701940 0.269974 0.758798
O O7 0.605910 0.261608 0.688396
O O8 0.604643 0.774687 0.113639
O O9 0.697240 0.831213 0.195935
O O10 0.604144 0.736047 0.258517
O O11 0.605136 0.000000 0.201751
O O12 0.500000 0.796011 0.064597
O O13 0.575354 0.000000 0.031580
O O14 0.760303 0.500000 0.801088
O O15 0.797844 0.236969 0.831903
O O16 0.000000 0.228414 0.142761
O O17 0.935464 0.000000 0.130965
O O18 0.916154 0.223868 0.045621
O O19 0.500000 0.268398 0.448706
O O20 0.437565 0.500000 0.461762
O O21 0.393539 0.268642 0.402955
O O22 0.639376 0.500000 0.325464
#
# Coordination Sequence:
#
# PCOD8190334 Si02
#       8
#     8   8   8   8   8   8   8   8
#     4   9  17  28  44  69  94 111 139 184 224 259
#     4   9  15  26  45  63  83 117 150 176 213 259
#     4   8  16  30  45  61  84 115 147 180 211 248
#     4   9  17  30  46  64  89 118 145 175 216 264
#     4   8  16  30  44  60  85 117 149 180 210 247
#     4   8  13  22  39  64  90 112 137 173 216 258
#     4   8  14  24  38  62  94 116 132 168 220 262
#     4   9  16  27  44  64  88 116 144 178 216 253
#
# _framework density 16.253191999999999
#
# number of rings (size 3 to 8) (size 9 to 14) (size 15 to 20)
#    0.750    2.750    0.000    1.125    0.000    2.500 
#    0.000    1.875    0.000    3.375    0.000    2.625 
#    0.000    4.000    0.000    0.000    0.000    0.000 
#
# Total GULP energy -396434.411029 kJ/mol
# GULP energy per Si atom -12388.575345 kJ/mol
# Density = 1.621620 g / cm^3
# Si number density = 16.253192 Si / 1000 Ang^3
#
#
#
# Elastic Constant Matrix: (Units=GPa)
#
#
# Indices 1 2 3 4 5 6 
#
# 1 112.0250 23.4595 90.9224 0.0000 0.0000 0.0000
# 2 23.4595 29.6966 33.3380 0.0000 0.0000 0.0000
# 3 90.9224 33.3380 158.9628 0.0000 0.0000 0.0000
# 4 0.0000 0.0000 0.0000 15.9308 0.0000 0.0000
# 5 0.0000 0.0000 0.0000 0.0000 14.0906 0.0000
# 6 0.0000 0.0000 0.0000 0.0000 0.0000 15.6982
#
#
#
# Elastic Compliance Matrix: (Units=1/GPa)
#
#
# Indices 1 2 3 4 5 6 
#
# 1 0.016900 -0.003268 -0.008981 0.000000 0.000000 0.000000
# 2 -0.003268 0.044675 -0.007500 0.000000 0.000000 0.000000
# 3 -0.008981 -0.007500 0.013001 0.000000 0.000000 0.000000
# 4 0.000000 0.000000 0.000000 0.062772 0.000000 0.000000
# 5 0.000000 0.000000 0.000000 0.000000 0.070969 0.000000
# 6 0.000000 0.000000 0.000000 0.000000 0.000000 0.063701
#
#
# Mechanical properties :
#
#
# Convention : Reuss Voigt Hill
#
# Bulk Modulus (GPa) = 28.50834 66.23602 47.37218
# Shear Modulus (GPa) = 15.46982 19.34156 17.40569
#
# Velocity S-wave (km/s) = 3.08848 3.45340 3.27603
# Velocity P-wave (km/s) = 5.50422 7.53276 6.59693
#
# Compressibility (1/GPa) = 0.03507746
#
# Stress axis : x y z
#
# Youngs Moduli (GPa) = 59.17062 22.38364 76.91961
#
# Poissons Ratio (x) = 0.07316 0.69082
# Poissons Ratio (y) = 0.19340 0.57689
# Poissons Ratio (z) = 0.53141 0.16788
#
# Static dielectric constant tensor:
#      x y z
#    x 3.111820 0.000000 0.000000 
#    y 0.000000 2.685400 0.000000 
#    z 0.000000 0.000000 3.209050 
# 
# 
# High freq. dielectric constant tensor:
#      x y z
#    x 1.613990 0.000000 0.000000 
#    y 0.000000 1.586380 0.000000 
#    z 0.000000 0.000000 1.622500 
# 
# From -- ./inp_files/22344.got.cif
#   From: 2010.03.12/outbox.cif.g09.slc.cpg/sg44_12_cif.got.tgz:22344.got - 2010.04.14 02:36:11.
