data_PCOD8190638
_publ_section_title
;
Structure prediction by ZEFSAII (Michael W. Deem and Ramdas Pophale) SiO2 
 PCOD8190638
Probable space group: I B A 2
;
_chemical_formula_sum "Si O2"
_cell_formula_units_Z 40
_cell_length_a 13.739387
_cell_length_b 9.682613
_cell_length_c 13.551070
_cell_angle_alpha 90.000000
_cell_angle_beta 90.000000
_cell_angle_gamma 90.000000
_cell_volume 1802.741761
_symmetry_space_group_name_H-M "I B A 2"
_symmetry_group_IT_number 45
_symmetry_cell_setting 'orthorhombic'
loop_
_space_group_symop_operation_xyz
x,y,z
-x,-y,z
-x,y,1/2+z
x,-y,1/2+z
1/2+x,1/2+y,1/2+z
1/2-x,1/2-y,1/2+z
1/2-x,1/2+y,z
1/2+x,1/2-y,z
loop_
_atom_site_type_symbol
_atom_site_label
_atom_site_fract_x
_atom_site_fract_y
_atom_site_fract_z
Si Si1 0.657053 0.067686 0.845160
Si Si2 0.661431 0.747150 0.844624
Si Si3 0.661432 0.252850 0.570480
Si Si4 0.500000 0.807240 0.207552
Si Si5 0.657053 0.932313 0.569943
O O1 0.746421 0.160383 0.806947
O O2 0.563101 0.095501 0.779320
O O3 0.687077 0.908619 0.833953
O O4 0.630372 0.105454 0.957552
O O5 0.568960 0.710782 0.775457
O O6 0.636244 0.707784 0.957552
O O7 0.568961 0.289218 0.639647
O O8 0.753579 0.339617 0.608156
O O9 0.687077 0.091381 0.581151
O O10 0.436899 0.904499 0.135783
#
# Coordination Sequence:
#
# PCOD8190638 Si02
#       5
#     8   8   8   8   8
#     4  10  21  37  56  79 108 141 177 218 264 314
#     4  10  21  37  56  79 108 141 177 218 264 314
#     4  10  21  37  56  79 108 141 177 218 264 314
#     4  12  21  34  59  84 105 138 183 222 259 312
#     4  10  21  37  56  79 108 141 177 218 264 314
#
# _framework density 22.188424000000001
#
# number of rings (size 3 to 8) (size 9 to 14) (size 15 to 20)
#    0.000    1.600    0.000    6.000    0.000    3.200 
#    0.000    4.000    0.000    9.600    0.000    0.000 
#    0.000    0.000    0.000    0.000    0.000    0.000 
#
# Total GULP energy -248057.490379 kJ/mol
# GULP energy per Si atom -12402.874519 kJ/mol
# Density = 2.213792 g / cm^3
# Si number density = 22.188424 Si / 1000 Ang^3
#
#
#
# Elastic Constant Matrix: (Units=GPa)
#
#
# Indices 1 2 3 4 5 6 
#
# 1 177.6748 62.7378 96.3644 0.0000 0.0000 0.0000
# 2 62.7378 46.4278 39.4364 0.0000 0.0000 0.0000
# 3 96.3644 39.4364 122.4098 0.0000 0.0000 0.0000
# 4 0.0000 0.0000 0.0000 21.8846 0.0000 0.0000
# 5 0.0000 0.0000 0.0000 0.0000 57.9988 0.0000
# 6 0.0000 0.0000 0.0000 0.0000 0.0000 24.6112
#
#
#
# Elastic Compliance Matrix: (Units=1/GPa)
#
#
# Indices 1 2 3 4 5 6 
#
# 1 0.013883 -0.013047 -0.006726 0.000000 0.000000 0.000000
# 2 -0.013047 0.041915 -0.003233 0.000000 0.000000 0.000000
# 3 -0.006726 -0.003233 0.014505 0.000000 0.000000 0.000000
# 4 0.000000 0.000000 0.000000 0.045694 0.000000 0.000000
# 5 0.000000 0.000000 0.000000 0.000000 0.017242 0.000000
# 6 0.000000 0.000000 0.000000 0.000000 0.000000 0.040632
#
#
# Mechanical properties :
#
#
# Convention : Reuss Voigt Hill
#
# Bulk Modulus (GPa) = 41.16465 82.62107 61.89286
# Shear Modulus (GPa) = 21.93169 30.76387 26.34778
#
# Velocity S-wave (km/s) = 3.14734 3.72759 3.44969
# Velocity P-wave (km/s) = 5.63917 7.47285 6.61981
#
# Compressibility (1/GPa) = 0.02429269
#
# Stress axis : x y z
#
# Youngs Moduli (GPa) = 72.02980 23.85756 68.93975
#
# Poissons Ratio (x) = 0.31128 0.46367
# Poissons Ratio (y) = 0.93980 0.22285
# Poissons Ratio (z) = 0.48446 0.07712
#
# Static dielectric constant tensor:
#      x y z
#    x 4.198760 0.000000 0.000000 
#    y 0.000000 3.638840 0.000000 
#    z 0.000000 0.000000 4.665550 
# 
# 
# High freq. dielectric constant tensor:
#      x y z
#    x 1.874400 0.000000 0.000000 
#    y 0.000000 1.839510 0.000000 
#    z 0.000000 0.000000 1.908850 
# 
# From -- ./inp_files/5463.got.cif
#   From: 2010.03.12/outbox.cif.g09.slc.cpg/sg45_3_cif.got.tgz:5463.got - 2010.04.14 02:50:11.
