data_PCOD8190036
_publ_section_title
;
Structure prediction by ZEFSAII (Michael W. Deem and Ramdas Pophale) SiO2 
 PCOD8190036
Probable space group: I M M 2
;
_chemical_formula_sum "Si O2"
_cell_formula_units_Z 56
_cell_length_a 20.071722
_cell_length_b 24.824234
_cell_length_c 5.279658
_cell_angle_alpha 90.000000
_cell_angle_beta 90.000000
_cell_angle_gamma 90.000000
_cell_volume 2630.669447
_symmetry_space_group_name_H-M "I M M 2"
_symmetry_group_IT_number 44
_symmetry_cell_setting 'orthorhombic'
loop_
_space_group_symop_operation_xyz
x,y,z
-x,-y,z
-x,y,z
x,-y,z
1/2+x,1/2+y,1/2+z
1/2-x,1/2-y,1/2+z
1/2-x,1/2+y,1/2+z
1/2+x,1/2-y,1/2+z
loop_
_atom_site_type_symbol
_atom_site_label
_atom_site_fract_x
_atom_site_fract_y
_atom_site_fract_z
Si Si1 0.074084 0.875140 0.522530
Si Si2 0.867599 0.561805 0.648518
Si Si3 0.239550 0.115793 0.028292
Si Si4 0.423723 0.891394 0.627275
Si Si5 0.109163 0.937757 0.011792
Si Si6 0.814562 0.798357 0.378621
Si Si7 0.184478 0.311931 0.160285
O O1 0.089336 0.912894 0.282477
O O2 0.130272 0.827945 0.555059
O O3 0.000000 0.849780 0.487467
O O4 0.071677 0.909421 0.779672
O O5 0.852934 0.500000 0.588483
O O6 0.797400 0.592056 0.710427
O O7 0.903704 0.586293 0.402460
O O8 0.912674 0.565870 0.900489
O O9 0.188636 0.067901 0.960527
O O10 0.193950 0.164013 0.134823
O O11 0.277054 0.138173 0.785655
O O12 0.500000 0.874489 0.638609
O O13 0.382557 0.837700 0.546422
O O14 0.089035 0.000000 0.015091
O O15 0.841098 0.738162 0.328982
O O16 0.738477 0.788652 0.467483
#
# Coordination Sequence:
#
# PCOD8190036 Si02
#       7
#     8   8   8   8   8   8   8
#     4  11  25  42  62  94 131 165 207 258 310 371
#     4  11  23  40  65  92 127 169 211 257 309 367
#     4  10  21  38  60  94 128 156 209 268 310 362
#     4  11  25  42  62  94 131 165 207 258 310 371
#     4  11  23  40  65  92 127 169 211 257 309 367
#     4  11  21  39  66  91 122 162 210 257 314 374
#     4  11  21  39  66  91 122 162 210 257 314 374
#
# _framework density 21.287358000000001
#
# number of rings (size 3 to 8) (size 9 to 14) (size 15 to 20)
#    0.000    1.143    4.286    2.143    0.000    4.000 
#    0.000    4.286    0.000    6.000    0.000    0.000 
#    0.000    0.000    0.000    0.000    0.000    0.000 
#
# Total GULP energy -347004.223275 kJ/mol
# GULP energy per Si atom -12393.007974 kJ/mol
# Density = 2.123891 g / cm^3
# Si number density = 21.287358 Si / 1000 Ang^3
#
#
#
# Elastic Constant Matrix: (Units=GPa)
#
#
# Indices 1 2 3 4 5 6 
#
# 1 138.1183 39.6303 17.2039 0.0000 0.0000 0.0000
# 2 39.6303 88.7125 12.7167 0.0000 0.0000 0.0000
# 3 17.2039 12.7167 91.6635 0.0000 0.0000 0.0000
# 4 0.0000 0.0000 0.0000 24.3945 0.0000 0.0000
# 5 0.0000 0.0000 0.0000 0.0000 20.4589 0.0000
# 6 0.0000 0.0000 0.0000 0.0000 0.0000 13.5484
#
#
#
# Elastic Compliance Matrix: (Units=1/GPa)
#
#
# Indices 1 2 3 4 5 6 
#
# 1 0.008408 -0.003601 -0.001078 0.000000 0.000000 0.000000
# 2 -0.003601 0.013044 -0.001134 0.000000 0.000000 0.000000
# 3 -0.001078 -0.001134 0.011269 0.000000 0.000000 0.000000
# 4 0.000000 0.000000 0.000000 0.040993 0.000000 0.000000
# 5 0.000000 0.000000 0.000000 0.000000 0.048878 0.000000
# 6 0.000000 0.000000 0.000000 0.000000 0.000000 0.073810
#
#
# Mechanical properties :
#
#
# Convention : Reuss Voigt Hill
#
# Bulk Modulus (GPa) = 47.40740 50.84404 49.12572
# Shear Modulus (GPa) = 23.24934 28.27658 25.76296
#
# Velocity S-wave (km/s) = 3.30838 3.64858 3.48263
# Velocity P-wave (km/s) = 6.07556 6.45647 6.26891
#
# Compressibility (1/GPa) = 0.02109375
#
# Stress axis : x y z
#
# Youngs Moduli (GPa) = 118.93644 76.66518 88.73789
#
# Poissons Ratio (x) = 0.27610 0.09569
# Poissons Ratio (y) = 0.42834 0.10060
# Poissons Ratio (z) = 0.12826 0.08691
#
# Static dielectric constant tensor:
#      x y z
#    x 4.220920 0.000000 0.000000 
#    y 0.000000 3.883410 0.000000 
#    z 0.000000 0.000000 3.683470 
# 
# 
# High freq. dielectric constant tensor:
#      x y z
#    x 1.841540 0.000000 0.000000 
#    y 0.000000 1.828630 0.000000 
#    z 0.000000 0.000000 1.828420 
# 
# From -- ./inp_files/2461.got.cif
#   From: 2010.03.12/outbox.cif.g09.slc.cpg/sg44_2_cif.got.tgz:2461.got - 2010.04.14 02:36:11.
