data_PCOD8190053
_publ_section_title
;
Structure prediction by ZEFSAII (Michael W. Deem and Ramdas Pophale) SiO2 
 PCOD8190053
Probable space group: I M M 2
;
_chemical_formula_sum "Si O2"
_cell_formula_units_Z 40
_cell_length_a 13.239043
_cell_length_b 7.735793
_cell_length_c 19.235900
_cell_angle_alpha 90.000000
_cell_angle_beta 90.000000
_cell_angle_gamma 90.000000
_cell_volume 1970.035007
_symmetry_space_group_name_H-M "I M M 2"
_symmetry_group_IT_number 44
_symmetry_cell_setting 'orthorhombic'
loop_
_space_group_symop_operation_xyz
x,y,z
-x,-y,z
-x,y,z
x,-y,z
1/2+x,1/2+y,1/2+z
1/2-x,1/2-y,1/2+z
1/2-x,1/2+y,1/2+z
1/2+x,1/2-y,1/2+z
loop_
_atom_site_type_symbol
_atom_site_label
_atom_site_fract_x
_atom_site_fract_y
_atom_site_fract_z
Si Si1 0.110789 0.199977 0.501180
Si Si2 0.386102 0.300981 0.271695
Si Si3 0.720486 0.192756 0.403427
Si Si4 0.886918 0.000000 0.133871
Si Si5 0.766634 0.201599 0.634398
Si Si6 0.391610 0.500000 0.471412
O O1 0.162341 0.229255 0.425057
O O2 0.183231 0.271643 0.562655
O O3 0.000000 0.290431 0.500897
O O4 0.095324 0.000000 0.517497
O O5 0.500000 0.224954 0.280132
O O6 0.385703 0.500000 0.293670
O O7 0.303923 0.208685 0.321679
O O8 0.352438 0.275703 0.192723
O O9 0.657553 0.323538 0.448422
O O10 0.692089 0.000000 0.428303
O O11 0.827275 0.175362 0.155158
O O12 0.000000 0.000000 0.168218
O O13 0.900702 0.000000 0.052657
O O14 0.731295 0.000000 0.629774
O O15 0.500000 0.500000 0.435045
#
# Coordination Sequence:
#
# PCOD8190053 Si02
#       6
#     8   8   8   4   8   4
#     4   9  18  36  61  86 115 155 199 244 297 352
#     4  10  21  38  62  90 123 158 194 248 306 354
#     4  11  22  37  58  87 123 158 198 243 298 357
#     4  11  24  40  62  90 118 157 202 247 303 358
#     4  10  21  40  63  89 120 154 197 252 300 360
#     4  11  22  38  58  84 122 155 194 245 297 354
#
# _framework density 20.304207999999999
#
# number of rings (size 3 to 8) (size 9 to 14) (size 15 to 20)
#    0.000    1.800    3.000    1.200    1.400    4.400 
#    0.000    6.000    0.000    1.200    0.000    0.000 
#    0.000    0.000    0.000    0.000    0.000    0.000 
#
# Total GULP energy -247834.975001 kJ/mol
# GULP energy per Si atom -12391.748750 kJ/mol
# Density = 2.025799 g / cm^3
# Si number density = 20.304208 Si / 1000 Ang^3
#
#
#
# Elastic Constant Matrix: (Units=GPa)
#
#
# Indices 1 2 3 4 5 6 
#
# 1 151.7003 53.1621 43.0930 0.0000 0.0000 0.0000
# 2 53.1621 99.6435 17.2476 0.0000 0.0000 0.0000
# 3 43.0930 17.2476 88.1871 0.0000 0.0000 0.0000
# 4 0.0000 0.0000 0.0000 22.9064 0.0000 0.0000
# 5 0.0000 0.0000 0.0000 0.0000 29.1342 0.0000
# 6 0.0000 0.0000 0.0000 0.0000 0.0000 27.0881
#
#
#
# Elastic Compliance Matrix: (Units=1/GPa)
#
#
# Indices 1 2 3 4 5 6 
#
# 1 0.009103 -0.004230 -0.003621 0.000000 0.000000 0.000000
# 2 -0.004230 0.012353 -0.000349 0.000000 0.000000 0.000000
# 3 -0.003621 -0.000349 0.013177 0.000000 0.000000 0.000000
# 4 0.000000 0.000000 0.000000 0.043656 0.000000 0.000000
# 5 0.000000 0.000000 0.000000 0.000000 0.034324 0.000000
# 6 0.000000 0.000000 0.000000 0.000000 0.000000 0.036917
#
#
# Mechanical properties :
#
#
# Convention : Reuss Voigt Hill
#
# Bulk Modulus (GPa) = 54.84444 62.94848 58.89646
# Shear Modulus (GPa) = 29.06864 30.89427 29.98146
#
# Velocity S-wave (km/s) = 3.78783 3.90496 3.84684
# Velocity P-wave (km/s) = 6.79707 7.16949 6.98576
#
# Compressibility (1/GPa) = 0.01823339
#
# Stress axis : x y z
#
# Youngs Moduli (GPa) = 109.85614 80.95263 75.88897
#
# Poissons Ratio (x) = 0.34241 0.27478
# Poissons Ratio (y) = 0.46467 0.02649
# Poissons Ratio (z) = 0.39777 0.02826
#
# Static dielectric constant tensor:
#      x y z
#    x 4.048990 0.000000 0.000000 
#    y 0.000000 3.642840 0.000000 
#    z 0.000000 0.000000 3.646590 
# 
# 
# High freq. dielectric constant tensor:
#      x y z
#    x 1.787910 0.000000 0.000000 
#    y 0.000000 1.788480 0.000000 
#    z 0.000000 0.000000 1.784500 
# 
# From -- ./inp_files/23607.got.cif
#   From: 2010.03.12/outbox.cif.g09.slc.cpg/sg44_12_cif.got.tgz:23607.got - 2010.04.14 02:36:11.
