data_PCOD8190298
_publ_section_title
;
Structure prediction by ZEFSAII (Michael W. Deem and Ramdas Pophale) SiO2 
 PCOD8190298
Probable space group: I M M 2
;
_chemical_formula_sum "Si O2"
_cell_formula_units_Z 48
_cell_length_a 9.441794
_cell_length_b 7.648035
_cell_length_c 34.601493
_cell_angle_alpha 90.000000
_cell_angle_beta 90.000000
_cell_angle_gamma 90.000000
_cell_volume 2498.614327
_symmetry_space_group_name_H-M "I M M 2"
_symmetry_group_IT_number 44
_symmetry_cell_setting 'orthorhombic'
loop_
_space_group_symop_operation_xyz
x,y,z
-x,-y,z
-x,y,z
x,-y,z
1/2+x,1/2+y,1/2+z
1/2-x,1/2-y,1/2+z
1/2-x,1/2+y,1/2+z
1/2+x,1/2-y,1/2+z
loop_
_atom_site_type_symbol
_atom_site_label
_atom_site_fract_x
_atom_site_fract_y
_atom_site_fract_z
Si Si1 0.842764 0.207592 0.058450
Si Si2 0.167136 0.000000 0.429717
Si Si3 0.832953 0.203821 0.796838
Si Si4 0.166907 0.699463 0.485536
Si Si5 0.151480 0.801957 0.712297
Si Si6 0.666413 0.302655 0.642844
Si Si7 0.329611 0.500000 0.841372
O O1 0.792873 0.277902 0.100749
O O2 0.000000 0.279171 0.048724
O O3 0.848734 0.000000 0.061838
O O4 0.735587 0.268794 0.025389
O O5 0.222264 0.824386 0.451256
O O6 0.218834 0.000000 0.386031
O O7 0.000000 0.000000 0.431777
O O8 0.795225 0.274458 0.753380
O O9 0.736541 0.323005 0.824311
O O10 0.000000 0.232904 0.805156
O O11 0.791803 0.000000 0.803724
O O12 0.213742 0.500000 0.476195
O O13 0.000000 0.712046 0.491398
O O14 0.262377 0.798942 0.677750
O O15 0.000000 0.715523 0.700025
O O16 0.121232 0.000000 0.723113
O O17 0.500000 0.289543 0.648690
O O18 0.720846 0.500000 0.645984
O O19 0.500000 0.500000 0.836336
#
# Coordination Sequence:
#
# PCOD8190298 Si02
#       7
#     8   4   8   8   8   8   4
#     4   8  15  30  49  70 101 137 171 211 260 311
#     4   9  20  37  53  79 113 137 169 221 275 327
#     4   9  20  40  61  80 110 151 189 230 282 337
#     4   9  17  32  55  76  98 136 178 215 260 314
#     4   9  19  35  52  72 100 136 179 221 263 313
#     4   9  18  31  48  73 105 138 172 214 264 317
#     4  11  23  37  59  89 117 145 183 233 287 347
#
# _framework density 19.210647999999999
#
# number of rings (size 3 to 8) (size 9 to 14) (size 15 to 20)
#    0.000    3.000    0.000    2.250    1.167    3.000 
#    1.500    7.083    0.000    2.000    0.000    0.000 
#    0.000    0.000    0.000    0.000    0.000    0.000 
#
# Total GULP energy -297359.730445 kJ/mol
# GULP energy per Si atom -12389.988769 kJ/mol
# Density = 1.916692 g / cm^3
# Si number density = 19.210648 Si / 1000 Ang^3
#
#
#
# Elastic Constant Matrix: (Units=GPa)
#
#
# Indices 1 2 3 4 5 6 
#
# 1 59.5477 34.8540 62.4195 0.0000 0.0000 0.0000
# 2 34.8540 80.4796 57.9829 -0.0001 0.0000 0.0000
# 3 62.4195 57.9829 174.2626 -0.0001 0.0000 0.0000
# 4 0.0000 -0.0001 -0.0001 -42.2234 0.0000 0.0000
# 5 0.0000 0.0000 0.0000 0.0000 32.9033 0.0000
# 6 0.0000 0.0000 0.0000 0.0000 0.0000 21.2496
#
#
#
# Elastic Compliance Matrix: (Units=1/GPa)
#
#
# Indices 1 2 3 4 5 6 
#
# 1 0.029458 -0.006781 -0.008295 0.000000 0.000000 0.000000
# 2 -0.006781 0.017904 -0.003528 0.000000 0.000000 0.000000
# 3 -0.008295 -0.003528 0.009884 0.000000 0.000000 0.000000
# 4 0.000000 0.000000 0.000000 -0.023684 0.000000 0.000000
# 5 0.000000 0.000000 0.000000 0.000000 0.030392 0.000000
# 6 0.000000 0.000000 0.000000 0.000000 0.000000 0.047060
#
#
# Mechanical properties :
#
#
# Convention : Reuss Voigt Hill
#
# Bulk Modulus (GPa) = 49.90939 69.42255 59.66597
# Shear Modulus (GPa) = 32.27846 12.98812 22.63329
#
# Velocity S-wave (km/s) = 4.10352 2.60299 3.43616
# Velocity P-wave (km/s) = 6.96335 6.72682 6.84611
#
# Compressibility (1/GPa) = 0.02003631
#
# Stress axis : x y z
#
# Youngs Moduli (GPa) = 33.94721 55.85225 101.17593
#
# Poissons Ratio (x) = 0.37874 0.83927
# Poissons Ratio (y) = 0.23020 0.35700
# Poissons Ratio (z) = 0.28160 0.19707
#
# Static dielectric constant tensor:
#      x y z
#    x 3.323650 0.000000 0.000000 
#    y 0.000000 4.196470 0.000000 
#    z 0.000000 0.000000 3.682640 
# 
# 
# High freq. dielectric constant tensor:
#      x y z
#    x 1.728900 0.000000 0.000000 
#    y 0.000000 1.740470 0.000000 
#    z 0.000000 0.000000 1.749820 
# 
# From -- ./inp_files/26963.got.cif
#   From: 2010.03.12/outbox.cif.g09.slc.cpg/sg44_14_cif.got.tgz:26963.got - 2010.04.14 02:36:11.
