data_PCOD8190039
_publ_section_title
;
Structure prediction by ZEFSAII (Michael W. Deem and Ramdas Pophale) SiO2 
 PCOD8190039
Probable space group: I M M 2
;
_chemical_formula_sum "Si O2"
_cell_formula_units_Z 48
_cell_length_a 14.786374
_cell_length_b 8.922388
_cell_length_c 18.550895
_cell_angle_alpha 90.000000
_cell_angle_beta 90.000000
_cell_angle_gamma 90.000000
_cell_volume 2447.415235
_symmetry_space_group_name_H-M "I M M 2"
_symmetry_group_IT_number 44
_symmetry_cell_setting 'orthorhombic'
loop_
_space_group_symop_operation_xyz
x,y,z
-x,-y,z
-x,y,z
x,-y,z
1/2+x,1/2+y,1/2+z
1/2-x,1/2-y,1/2+z
1/2-x,1/2+y,1/2+z
1/2+x,1/2-y,1/2+z
loop_
_atom_site_type_symbol
_atom_site_label
_atom_site_fract_x
_atom_site_fract_y
_atom_site_fract_z
Si Si1 0.104436 0.327607 0.258940
Si Si2 0.396187 0.827172 0.374577
Si Si3 0.896255 0.673225 0.424875
Si Si4 0.396223 0.675543 0.227086
Si Si5 0.737286 0.676583 0.650121
Si Si6 0.736444 0.175876 0.501420
O O1 0.131397 0.500000 0.244832
O O2 0.122204 0.284737 0.341848
O O3 0.164915 0.220631 0.210436
O O4 0.000000 0.301360 0.239036
O O5 0.500000 0.798627 0.395858
O O6 0.366919 0.727826 0.306606
O O7 0.335964 0.775598 0.441474
O O8 0.378811 0.000000 0.354319
O O9 0.872660 0.500000 0.438617
O O10 0.836080 0.775590 0.476515
O O11 0.000000 0.705997 0.444656
O O12 0.500000 0.719047 0.211955
O O13 0.379075 0.500000 0.221077
O O14 0.336156 0.758568 0.167921
O O15 0.743893 0.500000 0.645369
O O16 0.705855 0.741361 0.573774
O O17 0.735521 0.000000 0.515912
#
# Coordination Sequence:
#
# PCOD8190039 Si02
#       6
#     8   8   8   8   8   8
#     4   9  19  38  63  87 113 147 185 227 276 330
#     4   9  19  37  60  85 112 143 181 225 275 331
#     4   9  19  37  60  84 110 143 182 225 277 333
#     4  10  21  38  61  86 111 143 185 232 280 332
#     4  12  25  38  55  81 115 153 189 230 279 330
#     4  11  23  37  55  81 113 150 188 227 275 329
#
# _framework density 19.612527
#
# number of rings (size 3 to 8) (size 9 to 14) (size 15 to 20)
#    0.000    2.000    0.000    4.500    0.000    7.667 
#    0.000    3.333    0.000    0.000    0.000    0.000 
#    0.000    0.000    0.000    0.000    0.000    0.000 
#
# Total GULP energy -297729.180372 kJ/mol
# GULP energy per Si atom -12405.382515 kJ/mol
# Density = 1.956789 g / cm^3
# Si number density = 19.612527 Si / 1000 Ang^3
#
#
#
# Elastic Constant Matrix: (Units=GPa)
#
#
# Indices 1 2 3 4 5 6 
#
# 1 58.5878 17.9802 13.8650 0.0000 0.0000 0.0000
# 2 17.9802 82.1466 23.8611 0.0000 0.0000 0.0000
# 3 13.8650 23.8611 54.2873 0.0000 0.0000 0.0000
# 4 0.0000 0.0000 0.0000 37.7509 0.0000 0.0000
# 5 0.0000 0.0000 0.0000 0.0000 17.9222 0.0000
# 6 0.0000 0.0000 0.0000 0.0000 0.0000 33.6029
#
#
#
# Elastic Compliance Matrix: (Units=1/GPa)
#
#
# Indices 1 2 3 4 5 6 
#
# 1 0.018841 -0.003125 -0.003438 0.000000 0.000000 0.000000
# 2 -0.003125 0.014473 -0.005563 0.000000 0.000000 0.000000
# 3 -0.003438 -0.005563 0.021744 0.000000 0.000000 0.000000
# 4 0.000000 0.000000 0.000000 0.026489 0.000000 0.000000
# 5 0.000000 0.000000 0.000000 0.000000 0.055797 0.000000
# 6 0.000000 0.000000 0.000000 0.000000 0.000000 0.029759
#
#
# Mechanical properties :
#
#
# Convention : Reuss Voigt Hill
#
# Bulk Modulus (GPa) = 32.46268 34.04826 33.25547
# Shear Modulus (GPa) = 24.79838 27.14291 25.97065
#
# Velocity S-wave (km/s) = 3.55972 3.72419 3.64289
# Velocity P-wave (km/s) = 5.78649 5.99091 5.88958
#
# Compressibility (1/GPa) = 0.03080460
#
# Stress axis : x y z
#
# Youngs Moduli (GPa) = 53.07512 69.09235 45.98973
#
# Poissons Ratio (x) = 0.21593 0.15813
# Poissons Ratio (y) = 0.16587 0.25586
# Poissons Ratio (z) = 0.18250 0.38439
#
# Static dielectric constant tensor:
#      x y z
#    x 3.640000 0.000000 0.000000 
#    y 0.000000 3.493180 0.000000 
#    z 0.000000 0.000000 3.532100 
# 
# 
# High freq. dielectric constant tensor:
#      x y z
#    x 1.772890 0.000000 0.000000 
#    y 0.000000 1.763550 0.000000 
#    z 0.000000 0.000000 1.762490 
# 
# From -- ./inp_files/20300.got.cif
#   From: 2010.03.12/outbox.cif.g09.slc.cpg/sg44_11_cif.got.tgz:20300.got - 2010.04.14 02:36:11.
