data_PCOD8190807
_publ_section_title
;
Structure prediction by ZEFSAII (Michael W. Deem and Ramdas Pophale) SiO2 
 PCOD8190807
Probable space group: I B A 2
;
_chemical_formula_sum "Si O2"
_cell_formula_units_Z 64
_cell_length_a 14.783297
_cell_length_b 23.405034
_cell_length_c 9.064733
_cell_angle_alpha 90.000000
_cell_angle_beta 90.000000
_cell_angle_gamma 90.000000
_cell_volume 3136.429969
_symmetry_space_group_name_H-M "I B A 2"
_symmetry_group_IT_number 45
_symmetry_cell_setting 'orthorhombic'
loop_
_space_group_symop_operation_xyz
x,y,z
-x,-y,z
-x,y,1/2+z
x,-y,1/2+z
1/2+x,1/2+y,1/2+z
1/2-x,1/2-y,1/2+z
1/2-x,1/2+y,z
1/2+x,1/2-y,z
loop_
_atom_site_type_symbol
_atom_site_label
_atom_site_fract_x
_atom_site_fract_y
_atom_site_fract_z
Si Si1 0.396788 0.712118 0.268320
Si Si2 0.753468 0.635555 0.689031
Si Si3 0.421569 0.144552 0.341274
Si Si4 0.760793 0.309252 0.878022
Si Si5 0.063228 0.767301 0.439459
Si Si6 0.816251 0.573758 0.248661
Si Si7 0.814619 0.523447 0.556399
Si Si8 0.501222 0.076088 0.104395
O O1 0.348413 0.651930 0.232986
O O2 0.325035 0.757204 0.333661
O O3 0.477987 0.696245 0.380019
O O4 0.436033 0.735933 0.115120
O O5 0.812911 0.651702 0.833793
O O6 0.783979 0.671267 0.543402
O O7 0.761704 0.568413 0.658067
O O8 0.464894 0.204192 0.385322
O O9 0.442162 0.128324 0.170465
O O10 0.450390 0.094196 0.452916
O O11 0.655912 0.290574 0.867485
O O12 0.778410 0.361982 0.763429
O O13 0.789323 0.535426 0.388790
O O14 0.779302 0.539592 0.104218
O O15 0.924999 0.570752 0.235708
O O16 0.926325 0.524861 0.580333
#
# Coordination Sequence:
#
# PCOD8190807 Si02
#       8
#     8   8   8   8   8   8   8   8
#     4  11  23  40  61  89 121 157 201 259 313 372
#     4   9  22  40  57  82 122 157 204 253 308 369
#     4  11  20  36  54  85 117 161 197 242 304 364
#     4  10  22  42  59  88 124 164 205 259 304 379
#     4  11  23  36  62  88 121 161 204 252 313 371
#     4  11  22  39  55  81 117 157 203 248 299 359
#     4  10  23  37  57  80 117 162 200 250 299 362
#     4  11  22  34  56  81 121 156 202 244 298 368
#
# _framework density 20.405365
#
# number of rings (size 3 to 8) (size 9 to 14) (size 15 to 20)
#    0.000    1.500    2.500    2.625    8.750    1.000 
#    2.250    0.000    0.000    0.750    0.000    5.250 
#    0.000    0.000    0.000    0.000    0.000    0.000 
#
# Total GULP energy -396529.964876 kJ/mol
# GULP energy per Si atom -12391.561402 kJ/mol
# Density = 2.035892 g / cm^3
# Si number density = 20.405365 Si / 1000 Ang^3
#
#
#
# Elastic Constant Matrix: (Units=GPa)
#
#
# Indices 1 2 3 4 5 6 
#
# 1 97.1157 26.0616 37.5111 0.0001 0.0000 0.0000
# 2 26.0616 54.9394 12.8468 0.0004 -0.0001 -0.0001
# 3 37.5111 12.8468 63.9397 -0.0010 0.0006 0.0002
# 4 0.0001 0.0004 -0.0010 32.2670 0.0002 0.0000
# 5 0.0000 -0.0001 0.0006 0.0002 33.4195 0.0000
# 6 0.0000 -0.0001 0.0002 0.0000 0.0000 20.6617
#
#
#
# Elastic Compliance Matrix: (Units=1/GPa)
#
#
# Indices 1 2 3 4 5 6 
#
# 1 0.014587 -0.005161 -0.007521 0.000000 0.000000 0.000000
# 2 -0.005161 0.020925 -0.001177 0.000000 0.000000 0.000000
# 3 -0.007521 -0.001177 0.020288 0.000001 0.000000 0.000000
# 4 0.000000 0.000000 0.000001 0.030991 0.000000 0.000000
# 5 0.000000 0.000000 0.000000 0.000000 0.029923 0.000000
# 6 0.000000 0.000000 0.000000 0.000000 0.000000 0.048399
#
#
# Mechanical properties :
#
#
# Convention : Reuss Voigt Hill
#
# Bulk Modulus (GPa) = 35.60752 40.98154 38.29453
# Shear Modulus (GPa) = 24.72915 26.57468 25.65191
#
# Velocity S-wave (km/s) = 3.48500 3.61271 3.54943
# Velocity P-wave (km/s) = 5.80359 6.12613 5.96704
#
# Compressibility (1/GPa) = 0.02808395
#
# Stress axis : x y z
#
# Youngs Moduli (GPa) = 68.55506 47.78928 49.28971
#
# Poissons Ratio (x) = 0.24664 0.37069
# Poissons Ratio (y) = 0.35381 0.05799
# Poissons Ratio (z) = 0.51558 0.05623
#
# Static dielectric constant tensor:
#      x y z
#    x 3.699880 0.000000 0.000000 
#    y 0.000000 3.693890 0.000000 
#    z 0.000000 0.000000 3.768010 
# 
# 
# High freq. dielectric constant tensor:
#      x y z
#    x 1.770290 0.000000 0.000000 
#    y 0.000000 1.788720 0.000000 
#    z 0.000000 0.000000 1.806200 
# 
# From -- ./inp_files/1939.got.cif
#   From: 2010.03.12/outbox.cif.g09.slc.cpg/sg45_1_cif.got.tgz:1939.got - 2010.04.14 02:50:11.
