data_PCOD8190549
_publ_section_title
;
Structure prediction by ZEFSAII (Michael W. Deem and Ramdas Pophale) SiO2 
 PCOD8190549
Probable space group: I B A 2
;
_chemical_formula_sum "Si O2"
_cell_formula_units_Z 60
_cell_length_a 10.646095
_cell_length_b 28.900199
_cell_length_c 9.719848
_cell_angle_alpha 90.000000
_cell_angle_beta 90.000000
_cell_angle_gamma 90.000000
_cell_volume 2990.547080
_symmetry_space_group_name_H-M "I B A 2"
_symmetry_group_IT_number 45
_symmetry_cell_setting 'orthorhombic'
loop_
_space_group_symop_operation_xyz
x,y,z
-x,-y,z
-x,y,1/2+z
x,-y,1/2+z
1/2+x,1/2+y,1/2+z
1/2-x,1/2-y,1/2+z
1/2-x,1/2+y,z
1/2+x,1/2-y,z
loop_
_atom_site_type_symbol
_atom_site_label
_atom_site_fract_x
_atom_site_fract_y
_atom_site_fract_z
Si Si1 0.669588 0.579093 0.947010
Si Si2 0.377179 0.114511 0.932697
Si Si3 0.327152 0.576813 0.745289
Si Si4 0.374287 0.885140 0.758143
Si Si5 0.500000 0.500000 0.846735
Si Si6 0.999321 0.154673 0.342727
Si Si7 0.270127 0.293280 0.744798
Si Si8 0.233953 0.792911 0.439023
O O1 0.767796 0.580761 0.820302
O O2 0.582336 0.534041 0.940147
O O3 0.582210 0.624703 0.948257
O O4 0.739830 0.577918 0.095230
O O5 0.272605 0.079896 0.869855
O O6 0.502480 0.105424 0.847097
O O7 0.334481 0.167058 0.905794
O O8 0.393104 0.103971 0.095708
O O9 0.405163 0.529530 0.753643
O O10 0.421842 0.620182 0.745760
O O11 0.332683 0.832233 0.781987
O O12 0.906918 0.188004 0.426550
O O13 0.090113 0.185914 0.249504
O O14 0.257062 0.250162 0.842992
O O15 0.245680 0.274513 0.592483
#
# Coordination Sequence:
#
# PCOD8190549 Si02
#       8
#     8   8   8   8   4   8   8   8
#     4  10  20  37  63  89 117 153 189 236 292 347
#     4  10  22  40  59  83 116 156 198 240 292 351
#     4  10  20  37  63  89 117 153 189 236 292 347
#     4  10  22  40  59  83 116 156 198 240 292 351
#     4  10  22  36  62  98 126 144 188 236 290 350
#     4   9  20  37  56  82 112 150 192 239 286 345
#     4  10  22  36  54  81 111 148 194 243 290 339
#     4  10  22  36  54  81 111 148 194 243 290 339
#
# _framework density 20.063219
#
# number of rings (size 3 to 8) (size 9 to 14) (size 15 to 20)
#    0.000    2.133    0.000    2.000    1.867   13.867 
#    0.000    0.667    0.000    3.200    0.000    0.000 
#    0.000    0.000    0.000    0.000    0.000    0.000 
#
# Total GULP energy -371920.245407 kJ/mol
# GULP energy per Si atom -12397.341514 kJ/mol
# Density = 2.001755 g / cm^3
# Si number density = 20.063219 Si / 1000 Ang^3
#
#
#
# Elastic Constant Matrix: (Units=GPa)
#
#
# Indices 1 2 3 4 5 6 
#
# 1 108.2641 27.1712 39.8644 0.0011 -0.0023 -0.0037
# 2 27.1712 74.2948 26.9382 0.0010 -0.0033 -0.0050
# 3 39.8644 26.9382 127.4900 0.0000 -0.0024 -0.0074
# 4 0.0011 0.0010 0.0000 10.9799 -0.0013 -0.0002
# 5 -0.0023 -0.0033 -0.0024 -0.0013 32.6174 0.0009
# 6 -0.0037 -0.0050 -0.0074 -0.0002 0.0009 15.3030
#
#
#
# Elastic Compliance Matrix: (Units=1/GPa)
#
#
# Indices 1 2 3 4 5 6 
#
# 1 0.011028 -0.003014 -0.002812 -0.000001 0.000000 0.000000
# 2 -0.003014 0.015400 -0.002312 -0.000001 0.000001 0.000003
# 3 -0.002812 -0.002312 0.009211 0.000001 0.000000 0.000003
# 4 -0.000001 -0.000001 0.000001 0.091076 0.000004 0.000001
# 5 0.000000 0.000001 0.000000 0.000004 0.030658 -0.000002
# 6 0.000000 0.000003 0.000003 0.000001 -0.000002 0.065347
#
#
# Mechanical properties :
#
#
# Convention : Reuss Voigt Hill
#
# Bulk Modulus (GPa) = 51.63742 55.33292 53.48517
# Shear Modulus (GPa) = 20.37073 26.18507 23.27790
#
# Velocity S-wave (km/s) = 3.18988 3.61657 3.40991
# Velocity P-wave (km/s) = 6.27378 6.71406 6.49765
#
# Compressibility (1/GPa) = 0.01936580
#
# Stress axis : x y z
#
# Youngs Moduli (GPa) = 90.67552 64.93382 108.56190
#
# Poissons Ratio (x) = 0.19570 0.30523
# Poissons Ratio (y) = 0.27328 0.25096
# Poissons Ratio (z) = 0.25494 0.15010
#
# Static dielectric constant tensor:
#      x y z
#    x 3.688980 -0.000010 0.000050 
#    y -0.000010 3.532640 0.000010 
#    z 0.000050 0.000010 3.729450 
# 
# 
# High freq. dielectric constant tensor:
#      x y z
#    x 1.779090 0.000000 0.000000 
#    y 0.000000 1.771570 0.000000 
#    z 0.000000 0.000000 1.789890 
# 
# From -- ./inp_files/1430.got.cif
#   From: 2010.03.12/outbox.cif.g09.slc.cpg/sg45_1_cif.got.tgz:1430.got - 2010.04.14 02:50:11.
