data_PCOD8190528
_publ_section_title
;
Structure prediction by ZEFSAII (Michael W. Deem and Ramdas Pophale) SiO2 
 PCOD8190528
Probable space group: I B A 2
;
_chemical_formula_sum "Si O2"
_cell_formula_units_Z 64
_cell_length_a 20.780986
_cell_length_b 9.177876
_cell_length_c 15.705698
_cell_angle_alpha 90.000000
_cell_angle_beta 90.000000
_cell_angle_gamma 90.000000
_cell_volume 2995.474162
_symmetry_space_group_name_H-M "I B A 2"
_symmetry_group_IT_number 45
_symmetry_cell_setting 'orthorhombic'
loop_
_space_group_symop_operation_xyz
x,y,z
-x,-y,z
-x,y,1/2+z
x,-y,1/2+z
1/2+x,1/2+y,1/2+z
1/2-x,1/2-y,1/2+z
1/2-x,1/2+y,z
1/2+x,1/2-y,z
loop_
_atom_site_type_symbol
_atom_site_label
_atom_site_fract_x
_atom_site_fract_y
_atom_site_fract_z
Si Si1 0.194304 0.906893 0.271440
Si Si2 0.069472 0.545085 0.438684
Si Si3 0.929560 0.716750 0.326777
Si Si4 0.698730 0.437614 0.965564
Si Si5 0.065840 0.041489 0.451133
Si Si6 0.564544 0.305461 0.820431
Si Si7 0.309313 0.717114 0.212346
Si Si8 0.689754 0.129919 0.031324
O O1 0.201864 0.978330 0.365625
O O2 0.127082 0.815354 0.258672
O O3 0.249557 0.788943 0.259617
O O4 0.201128 0.041769 0.204784
O O5 0.080695 0.451288 0.352337
O O6 0.074567 0.709660 0.405599
O O7 0.125581 0.536308 0.509431
O O8 0.000000 0.500000 0.478921
O O9 0.929397 0.790479 0.421735
O O10 0.873787 0.764846 0.265367
O O11 0.997914 0.748375 0.277601
O O12 0.629238 0.491092 0.002489
O O13 0.705033 0.263056 0.967946
O O14 0.752211 0.515371 0.023139
O O15 0.059041 0.967028 0.357931
O O16 0.000000 0.000000 0.503605
O O17 0.317715 0.796548 0.122863
#
# Coordination Sequence:
#
# PCOD8190528 Si02
#       8
#     8   8   8   8   8   8   8   8
#     4  11  22  40  65  92 119 167 222 256 305 374
#     4  10  21  39  65  93 122 163 209 261 307 376
#     4  10  20  36  65  96 116 159 210 255 312 368
#     4  11  22  40  65  88 119 167 216 258 306 381
#     4   9  17  34  63  94 115 143 210 268 300 355
#     4   9  18  37  64  93 116 149 214 261 295 361
#     4  12  25  39  60  91 131 164 200 265 320 378
#     4  12  25  41  59  91 136 166 203 262 329 375
#
# _framework density 21.365565
#
# number of rings (size 3 to 8) (size 9 to 14) (size 15 to 20)
#    0.000    1.500    5.000    2.250    3.500    0.000 
#    0.000    1.875    5.500    0.000    0.000    0.000 
#    0.000    0.000    0.000    0.000    0.000    0.000 
#
# Total GULP energy -396455.919254 kJ/mol
# GULP energy per Si atom -12389.247477 kJ/mol
# Density = 2.131694 g / cm^3
# Si number density = 21.365565 Si / 1000 Ang^3
#
#
#
# Elastic Constant Matrix: (Units=GPa)
#
#
# Indices 1 2 3 4 5 6 
#
# 1 208.4057 61.1637 38.5680 0.0000 0.0000 0.0000
# 2 61.1637 74.1221 24.4624 0.0000 0.0000 0.0000
# 3 38.5680 24.4624 41.9717 0.0000 0.0000 0.0000
# 4 0.0000 0.0000 0.0000 23.7258 0.0000 0.0000
# 5 0.0000 0.0000 0.0000 0.0000 8.2680 0.0000
# 6 0.0000 0.0000 0.0000 0.0000 0.0000 39.7205
#
#
#
# Elastic Compliance Matrix: (Units=1/GPa)
#
#
# Indices 1 2 3 4 5 6 
#
# 1 0.006758 -0.004367 -0.003665 0.000000 0.000000 0.000000
# 2 -0.004367 0.019527 -0.007368 0.000000 0.000000 0.000000
# 3 -0.003665 -0.007368 0.031487 0.000000 0.000000 0.000000
# 4 0.000000 0.000000 0.000000 0.042148 0.000000 0.000000
# 5 0.000000 0.000000 0.000000 0.000000 0.120948 0.000000
# 6 0.000000 0.000000 0.000000 0.000000 0.000000 0.025176
#
#
# Mechanical properties :
#
#
# Convention : Reuss Voigt Hill
#
# Bulk Modulus (GPa) = 37.07446 63.65418 50.36432
# Shear Modulus (GPa) = 17.49262 27.69653 22.59457
#
# Velocity S-wave (km/s) = 2.86445 3.60435 3.25549
# Velocity P-wave (km/s) = 5.32261 6.86872 6.14449
#
# Compressibility (1/GPa) = 0.02697275
#
# Stress axis : x y z
#
# Youngs Moduli (GPa) = 147.96670 51.21236 31.75882
#
# Poissons Ratio (x) = 0.22366 0.11639
# Poissons Ratio (y) = 0.64621 0.23399
# Poissons Ratio (z) = 0.54227 0.37731
#
# Static dielectric constant tensor:
#      x y z
#    x 4.428650 0.000000 0.000000 
#    y 0.000000 3.973480 0.000000 
#    z 0.000000 0.000000 3.223920 
# 
# 
# High freq. dielectric constant tensor:
#      x y z
#    x 1.866780 0.000000 0.000000 
#    y 0.000000 1.854930 0.000000 
#    z 0.000000 0.000000 1.767080 
# 
# From -- ./inp_files/8471.got.cif
#   From: 2010.03.12/outbox.cif.g09.slc.cpg/sg45_5_cif.got.tgz:8471.got - 2010.04.14 02:50:11.
