data_PCOD8190177
_publ_section_title
;
Structure prediction by ZEFSAII (Michael W. Deem and Ramdas Pophale) SiO2 
 PCOD8190177
Probable space group: I M M 2
;
_chemical_formula_sum "Si O2"
_cell_formula_units_Z 64
_cell_length_a 8.706309
_cell_length_b 30.705762
_cell_length_c 11.920248
_cell_angle_alpha 90.000000
_cell_angle_beta 90.000000
_cell_angle_gamma 90.000000
_cell_volume 3186.685815
_symmetry_space_group_name_H-M "I M M 2"
_symmetry_group_IT_number 44
_symmetry_cell_setting 'orthorhombic'
loop_
_space_group_symop_operation_xyz
x,y,z
-x,-y,z
-x,y,z
x,-y,z
1/2+x,1/2+y,1/2+z
1/2-x,1/2-y,1/2+z
1/2-x,1/2+y,1/2+z
1/2+x,1/2-y,1/2+z
loop_
_atom_site_type_symbol
_atom_site_label
_atom_site_fract_x
_atom_site_fract_y
_atom_site_fract_z
Si Si1 0.324208 0.451670 0.004710
Si Si2 0.681355 0.798824 0.975129
Si Si3 0.181229 0.567796 0.232119
Si Si4 0.319064 0.626921 0.619995
Si Si5 0.319025 0.793927 0.512605
Si Si6 0.179421 0.376434 0.862406
Si Si7 0.318102 0.834185 0.742030
Si Si8 0.676856 0.548206 0.463949
O O1 0.500000 0.435569 0.999952
O O2 0.309453 0.500000 0.950815
O O3 0.268963 0.456477 0.132803
O O4 0.218127 0.417966 0.938426
O O5 0.500000 0.803630 0.980602
O O6 0.726675 0.748877 0.982575
O O7 0.750170 0.815013 0.856767
O O8 0.749754 0.828032 0.074503
O O9 0.241346 0.617099 0.228746
O O10 0.223567 0.547464 0.351335
O O11 0.000000 0.563525 0.212708
O O12 0.500000 0.630383 0.613157
O O13 0.271997 0.620513 0.747843
O O14 0.259720 0.585128 0.548900
O O15 0.500000 0.784646 0.510196
O O16 0.274557 0.832220 0.426672
O O17 0.260627 0.806511 0.636454
O O18 0.000000 0.377020 0.835707
O O19 0.500000 0.833746 0.746664
O O20 0.500000 0.557861 0.433662
O O21 0.693581 0.500000 0.519453
#
# Coordination Sequence:
#
# PCOD8190177 Si02
#       8
#     8   8   8   8   8   8   8   8
#     4  11  24  41  62  91 127 165 205 251 306 370
#     4  11  23  40  63  93 124 159 205 255 304 361
#     4  11  20  37  63  92 125 161 201 251 308 361
#     4  11  24  42  63  88 123 167 207 251 311 372
#     4  10  22  42  63  89 123 160 199 249 311 368
#     4  11  24  43  66  91 122 160 208 262 311 366
#     4   9  19  38  62  87 122 159 195 250 307 354
#     4  10  22  40  61  88 122 160 203 251 305 367
#
# _framework density 20.083563000000002
#
# number of rings (size 3 to 8) (size 9 to 14) (size 15 to 20)
#    0.000    1.500    2.500    2.250    1.750    4.750 
#    0.000    1.875    0.000    0.000    0.000    0.000 
#    0.000    0.000    0.000    0.000    0.000    0.000 
#
# Total GULP energy -396879.354768 kJ/mol
# GULP energy per Si atom -12402.479836 kJ/mol
# Density = 2.003785 g / cm^3
# Si number density = 20.083563 Si / 1000 Ang^3
#
#
#
# Elastic Constant Matrix: (Units=GPa)
#
#
# Indices 1 2 3 4 5 6 
#
# 1 55.0461 31.6864 19.7926 -0.0005 0.0002 0.0000
# 2 31.6864 130.1398 38.2370 -0.0011 0.0002 -0.0001
# 3 19.7926 38.2370 108.1827 -0.0001 0.0006 -0.0001
# 4 -0.0005 -0.0011 -0.0001 23.1510 0.0004 -0.0001
# 5 0.0002 0.0002 0.0006 0.0004 33.5041 0.0002
# 6 0.0000 -0.0001 -0.0001 -0.0001 0.0002 31.4821
#
#
#
# Elastic Compliance Matrix: (Units=1/GPa)
#
#
# Indices 1 2 3 4 5 6 
#
# 1 0.021646 -0.004583 -0.002341 0.000000 0.000000 0.000000
# 2 -0.004583 0.009545 -0.002535 0.000000 0.000000 0.000000
# 3 -0.002341 -0.002535 0.010568 0.000000 0.000000 0.000000
# 4 0.000000 0.000000 0.000000 0.043195 0.000000 0.000000
# 5 0.000000 0.000000 0.000000 0.000000 0.029847 0.000000
# 6 0.000000 0.000000 0.000000 0.000000 0.000000 0.031764
#
#
# Mechanical properties :
#
#
# Convention : Reuss Voigt Hill
#
# Bulk Modulus (GPa) = 43.77905 52.53339 48.15622
# Shear Modulus (GPa) = 28.88582 31.20426 30.04504
#
# Velocity S-wave (km/s) = 3.79658 3.94600 3.87201
# Velocity P-wave (km/s) = 6.40816 6.85386 6.63475
#
# Compressibility (1/GPa) = 0.02284198
#
# Stress axis : x y z
#
# Youngs Moduli (GPa) = 46.19764 104.77012 94.62642
#
# Poissons Ratio (x) = 0.48013 0.22147
# Poissons Ratio (y) = 0.21171 0.23989
# Poissons Ratio (z) = 0.10813 0.26561
#
# Static dielectric constant tensor:
#      x y z
#    x 3.486990 0.000000 0.000000 
#    y 0.000000 3.834760 0.000000 
#    z 0.000000 0.000000 3.756370 
# 
# 
# High freq. dielectric constant tensor:
#      x y z
#    x 1.775810 0.000000 0.000000 
#    y 0.000000 1.800000 0.000000 
#    z 0.000000 0.000000 1.785900 
# 
# From -- ./inp_files/11423.got.cif
#   From: 2010.03.12/outbox.cif.g09.slc.cpg/sg44_6_cif.got.tgz:11423.got - 2010.04.14 02:36:11.
