data_PCOD8190495
_publ_section_title
;
Structure prediction by ZEFSAII (Michael W. Deem and Ramdas Pophale) SiO2 
 PCOD8190495
Probable space group: I B A 2
;
_chemical_formula_sum "Si O2"
_cell_formula_units_Z 56
_cell_length_a 5.024622
_cell_length_b 31.272452
_cell_length_c 16.456093
_cell_angle_alpha 90.000000
_cell_angle_beta 90.000000
_cell_angle_gamma 90.000000
_cell_volume 2585.782924
_symmetry_space_group_name_H-M "I B A 2"
_symmetry_group_IT_number 45
_symmetry_cell_setting 'orthorhombic'
loop_
_space_group_symop_operation_xyz
x,y,z
-x,-y,z
-x,y,1/2+z
x,-y,1/2+z
1/2+x,1/2+y,1/2+z
1/2-x,1/2-y,1/2+z
1/2-x,1/2+y,z
1/2+x,1/2-y,z
loop_
_atom_site_type_symbol
_atom_site_label
_atom_site_fract_x
_atom_site_fract_y
_atom_site_fract_z
Si Si1 0.427850 0.768806 0.371180
Si Si2 0.207067 0.272674 0.556726
Si Si3 0.364104 0.105330 0.673513
Si Si4 0.029172 0.359824 0.833350
Si Si5 0.350217 0.372329 0.577994
Si Si6 0.536462 0.597719 0.403310
Si Si7 0.243215 0.972049 0.290020
O O1 0.635578 0.734547 0.330336
O O2 0.349994 0.758824 0.464137
O O3 0.594720 0.812291 0.361177
O O4 0.431128 0.242310 0.598801
O O5 0.275158 0.322872 0.563308
O O6 0.507365 0.137837 0.736154
O O7 0.580526 0.102013 0.601431
O O8 0.321975 0.060231 0.718146
O O9 0.080923 0.124005 0.645414
O O10 0.241548 0.393510 0.868454
O O11 0.736563 0.367383 0.868775
O O12 0.466550 0.397440 0.500173
O O13 0.638174 0.551512 0.371899
O O14 0.500000 0.000000 0.313683
O O15 0.000000 0.000000 0.255625
#
# Coordination Sequence:
#
# PCOD8190495 Si02
#       7
#     8   8   8   8   8   8   8
#     4  10  20  33  57  89 120 163 223 277 315 351
#     4  10  21  36  58  90 127 174 218 267 319 359
#     4  11  25  41  66  93 131 172 208 252 338 394
#     4  11  21  41  60  91 123 171 217 267 308 391
#     4  12  23  42  63  99 132 170 219 269 310 387
#     4  11  23  39  70  93 122 163 216 265 316 375
#     4  11  23  46  70  95 125 165 211 261 326 409
#
# _framework density 21.656880999999998
#
# number of rings (size 3 to 8) (size 9 to 14) (size 15 to 20)
#    0.000    1.143    1.429    6.857    4.000    0.000 
#    0.000    8.571    0.000    0.000    0.000    0.000 
#    0.000    0.000    0.000    0.000    0.000    0.000 
#
# Total GULP energy -346935.734766 kJ/mol
# GULP energy per Si atom -12390.561956 kJ/mol
# Density = 2.160759 g / cm^3
# Si number density = 21.656881 Si / 1000 Ang^3
#
#
#
# Elastic Constant Matrix: (Units=GPa)
#
#
# Indices 1 2 3 4 5 6 
#
# 1 166.5943 64.4664 36.4594 0.0000 0.0000 0.0000
# 2 64.4664 107.8685 28.7366 0.0000 0.0000 0.0000
# 3 36.4594 28.7366 64.8790 0.0000 0.0000 0.0000
# 4 0.0000 0.0000 0.0000 21.3938 0.0000 0.0000
# 5 0.0000 0.0000 0.0000 0.0000 32.8979 0.0000
# 6 0.0000 0.0000 0.0000 0.0000 0.0000 43.8386
#
#
#
# Elastic Compliance Matrix: (Units=1/GPa)
#
#
# Indices 1 2 3 4 5 6 
#
# 1 0.008226 -0.004178 -0.002772 0.000000 0.000000 0.000000
# 2 -0.004178 0.012632 -0.003248 0.000000 0.000000 0.000000
# 3 -0.002772 -0.003248 0.018410 0.000000 0.000000 0.000000
# 4 0.000000 0.000000 0.000000 0.046742 0.000000 0.000000
# 5 0.000000 0.000000 0.000000 0.000000 0.030397 0.000000
# 6 0.000000 0.000000 0.000000 0.000000 0.000000 0.022811
#
#
# Mechanical properties :
#
#
# Convention : Reuss Voigt Hill
#
# Bulk Modulus (GPa) = 52.98552 66.51853 59.75203
# Shear Modulus (GPa) = 30.13784 33.60468 31.87126
#
# Velocity S-wave (km/s) = 3.73447 3.94342 3.84037
# Velocity P-wave (km/s) = 6.56613 7.17743 6.87857
#
# Compressibility (1/GPa) = 0.01887308
#
# Stress axis : x y z
#
# Youngs Moduli (GPa) = 121.56713 79.16152 54.31929
#
# Poissons Ratio (x) = 0.33070 0.15059
# Poissons Ratio (y) = 0.50786 0.17641
# Poissons Ratio (z) = 0.33702 0.25708
#
# Static dielectric constant tensor:
#      x y z
#    x 4.545350 0.000000 0.000000 
#    y 0.000000 3.826270 0.000000 
#    z 0.000000 0.000000 3.839010 
# 
# 
# High freq. dielectric constant tensor:
#      x y z
#    x 1.887340 0.000000 0.000000 
#    y 0.000000 1.838970 0.000000 
#    z 0.000000 0.000000 1.823600 
# 
# From -- ./inp_files/5257.got.cif
#   From: 2010.03.12/outbox.cif.g09.slc.cpg/sg45_3_cif.got.tgz:5257.got - 2010.04.14 02:50:11.
