data_PCOD8190981
_publ_section_title
;
Structure prediction by ZEFSAII (Michael W. Deem and Ramdas Pophale) SiO2 
 PCOD8190981
Probable space group: I B A 2
;
_chemical_formula_sum "Si O2"
_cell_formula_units_Z 44
_cell_length_a 7.474894
_cell_length_b 26.583424
_cell_length_c 9.175186
_cell_angle_alpha 90.000000
_cell_angle_beta 90.000000
_cell_angle_gamma 90.000000
_cell_volume 1823.185397
_symmetry_space_group_name_H-M "I B A 2"
_symmetry_group_IT_number 45
_symmetry_cell_setting 'orthorhombic'
loop_
_space_group_symop_operation_xyz
x,y,z
-x,-y,z
-x,y,1/2+z
x,-y,1/2+z
1/2+x,1/2+y,1/2+z
1/2-x,1/2-y,1/2+z
1/2-x,1/2+y,z
1/2+x,1/2-y,z
loop_
_atom_site_type_symbol
_atom_site_label
_atom_site_fract_x
_atom_site_fract_y
_atom_site_fract_z
Si Si1 0.680749 0.561183 0.126720
Si Si2 0.590454 0.813598 0.824953
Si Si3 0.033819 0.793362 0.407272
Si Si4 0.968385 0.620749 0.586276
Si Si5 0.500000 0.500000 0.372089
Si Si6 0.600605 0.643532 0.678186
O O1 0.891786 0.575018 0.110605
O O2 0.648766 0.525295 0.266554
O O3 0.579170 0.612218 0.162253
O O4 0.608056 0.538745 0.974315
O O5 0.799187 0.803731 0.801250
O O6 0.507963 0.765172 0.903641
O O7 0.515127 0.826498 0.666319
O O8 0.548761 0.864423 0.917427
O O9 0.090394 0.808919 0.569133
O O10 0.880452 0.830364 0.338593
O O11 0.768924 0.606419 0.645903
#
# Coordination Sequence:
#
# PCOD8190981 Si02
#       6
#     8   8   8   8   4   8
#     4  11  24  50  72 104 134 175 223 291 355 436
#     4  11  24  40  62 104 139 195 225 283 315 402
#     4  11  23  39  64 100 148 182 241 264 333 382
#     4  11  26  42  69  98 139 182 236 270 347 396
#     4  10  26  48  80 100 136 172 222 294 384 422
#     4  11  24  42  70 101 134 191 221 289 327 413
#
# _framework density 24.133586000000001
#
# number of rings (size 3 to 8) (size 9 to 14) (size 15 to 20)
#    0.000    1.091    1.818    3.273   10.182    2.909 
#    0.000    5.455    0.000    0.000    0.000    0.000 
#    0.000    0.000    0.000    0.000    0.000    0.000 
#
# Total GULP energy -272716.127402 kJ/mol
# GULP energy per Si atom -12396.187609 kJ/mol
# Density = 2.407866 g / cm^3
# Si number density = 24.133586 Si / 1000 Ang^3
#
#
#
# Elastic Constant Matrix: (Units=GPa)
#
#
# Indices 1 2 3 4 5 6 
#
# 1 88.0943 18.7995 26.2792 0.0004 -0.0002 0.0000
# 2 18.7995 81.1345 18.3021 -0.0001 0.0000 0.0001
# 3 26.2792 18.3021 71.4537 -0.0015 0.0007 0.0004
# 4 0.0004 -0.0001 -0.0015 31.1977 0.0000 0.0000
# 5 -0.0002 0.0000 0.0007 0.0000 27.9806 -0.0001
# 6 0.0000 0.0001 0.0004 0.0000 -0.0001 43.9291
#
#
#
# Elastic Compliance Matrix: (Units=1/GPa)
#
#
# Indices 1 2 3 4 5 6 
#
# 1 0.013068 -0.002063 -0.004278 0.000000 0.000000 0.000000
# 2 -0.002063 0.013407 -0.002675 0.000000 0.000000 0.000000
# 3 -0.004278 -0.002675 0.016254 0.000001 0.000000 0.000000
# 4 0.000000 0.000000 0.000001 0.032054 0.000000 0.000000
# 5 0.000000 0.000000 0.000000 0.000000 0.035739 0.000000
# 6 0.000000 0.000000 0.000000 0.000000 0.000000 0.022764
#
#
# Mechanical properties :
#
#
# Convention : Reuss Voigt Hill
#
# Bulk Modulus (GPa) = 40.49196 40.82712 40.65954
# Shear Modulus (GPa) = 31.33844 32.44160 31.89002
#
# Velocity S-wave (km/s) = 3.60744 3.67038 3.63904
# Velocity P-wave (km/s) = 5.84518 5.90899 5.87717
#
# Compressibility (1/GPa) = 0.02469626
#
# Stress axis : x y z
#
# Youngs Moduli (GPa) = 76.52410 74.58957 61.52503
#
# Poissons Ratio (x) = 0.15388 0.26318
# Poissons Ratio (y) = 0.15787 0.16460
# Poissons Ratio (z) = 0.32734 0.19955
#
# Static dielectric constant tensor:
#      x y z
#    x 4.498790 0.000000 0.000000 
#    y 0.000000 4.044050 0.000000 
#    z 0.000000 0.000000 4.344880 
# 
# 
# High freq. dielectric constant tensor:
#      x y z
#    x 1.961770 0.000000 0.000000 
#    y 0.000000 1.936520 0.000000 
#    z 0.000000 0.000000 1.970740 
# 
# From -- ./inp_files/1046.got.cif
#   From: 2010.03.12/outbox.cif.g09.slc.cpg/sg45_1_cif.got.tgz:1046.got - 2010.04.14 02:50:11.
