data_PCOD8190480
_publ_section_title
;
Structure prediction by ZEFSAII (Michael W. Deem and Ramdas Pophale) SiO2 
 PCOD8190480
Probable space group: I B A 2
;
_chemical_formula_sum "Si O2"
_cell_formula_units_Z 64
_cell_length_a 16.036558
_cell_length_b 18.852025
_cell_length_c 9.913439
_cell_angle_alpha 90.000000
_cell_angle_beta 90.000000
_cell_angle_gamma 90.000000
_cell_volume 2997.046664
_symmetry_space_group_name_H-M "I B A 2"
_symmetry_group_IT_number 45
_symmetry_cell_setting 'orthorhombic'
loop_
_space_group_symop_operation_xyz
x,y,z
-x,-y,z
-x,y,1/2+z
x,-y,1/2+z
1/2+x,1/2+y,1/2+z
1/2-x,1/2-y,1/2+z
1/2-x,1/2+y,z
1/2+x,1/2-y,z
loop_
_atom_site_type_symbol
_atom_site_label
_atom_site_fract_x
_atom_site_fract_y
_atom_site_fract_z
Si Si1 0.801554 0.499654 0.100840
Si Si2 0.694064 0.501431 0.350384
Si Si3 0.398541 0.723244 0.642034
Si Si4 0.584459 0.875454 0.205441
Si Si5 0.906144 0.776082 0.109985
Si Si6 0.921864 0.625709 0.021381
Si Si7 0.380341 0.650009 0.371950
Si Si8 0.075574 0.876962 0.375819
O O1 0.729119 0.522479 0.204254
O O2 0.852422 0.437878 0.173015
O O3 0.859695 0.565392 0.067832
O O4 0.759684 0.472769 0.962877
O O5 0.679680 0.417398 0.363922
O O6 0.606388 0.542064 0.370468
O O7 0.365245 0.801695 0.679352
O O8 0.496479 0.734156 0.630339
O O9 0.358293 0.694667 0.504655
O O10 0.379816 0.665981 0.756344
O O11 0.556066 0.879591 0.362252
O O12 0.505691 0.883790 0.107294
O O13 0.875129 0.700735 0.051329
O O14 0.861259 0.796025 0.249736
O O15 0.890081 0.841791 0.011670
O O16 0.475860 0.623740 0.367705
#
# Coordination Sequence:
#
# PCOD8190480 Si02
#       8
#     8   8   8   8   8   8   8   8
#     4  12  27  44  61  90 138 170 212 262 313 384
#     4  12  25  42  61  92 134 180 214 258 317 376
#     4   9  19  36  65  96 126 155 210 275 320 369
#     4  11  24  44  71  98 124 162 213 266 325 389
#     4   9  19  36  65  96 126 155 210 275 320 369
#     4  11  24  44  71  98 124 162 213 266 325 389
#     4  10  21  39  64  99 126 167 219 264 310 376
#     4  10  19  39  66  93 126 169 215 266 318 372
#
# _framework density 21.354355999999999
#
# number of rings (size 3 to 8) (size 9 to 14) (size 15 to 20)
#    0.000    1.500    2.500    2.250    7.000    1.000 
#    0.000   12.500    0.000    0.000    0.000    0.000 
#    0.000    0.000    0.000    0.000    0.000    0.000 
#
# Total GULP energy -396825.983820 kJ/mol
# GULP energy per Si atom -12400.811994 kJ/mol
# Density = 2.130575 g / cm^3
# Si number density = 21.354356 Si / 1000 Ang^3
#
#
#
# Elastic Constant Matrix: (Units=GPa)
#
#
# Indices 1 2 3 4 5 6 
#
# 1 42.8571 23.0510 14.7278 0.0000 0.0000 0.0000
# 2 23.0510 109.5357 31.6174 0.0000 0.0000 0.0000
# 3 14.7278 31.6174 130.2624 0.0000 0.0000 0.0000
# 4 0.0000 0.0000 0.0000 30.3442 0.0000 0.0000
# 5 0.0000 0.0000 0.0000 0.0000 26.4936 0.0000
# 6 0.0000 0.0000 0.0000 0.0000 0.0000 -10.9612
#
#
#
# Elastic Compliance Matrix: (Units=1/GPa)
#
#
# Indices 1 2 3 4 5 6 
#
# 1 0.026689 -0.005103 -0.001779 0.000000 0.000000 0.000000
# 2 -0.005103 0.010793 -0.002043 0.000000 0.000000 0.000000
# 3 -0.001779 -0.002043 0.008374 0.000000 0.000000 0.000000
# 4 0.000000 0.000000 0.000000 0.032955 0.000000 0.000000
# 5 0.000000 0.000000 0.000000 0.000000 0.037745 0.000000
# 6 0.000000 0.000000 0.000000 0.000000 0.000000 -0.091231
#
#
# Mechanical properties :
#
#
# Convention : Reuss Voigt Hill
#
# Bulk Modulus (GPa) = 35.70584 46.82753 41.26668
# Shear Modulus (GPa) = 95.21876 23.39259 59.30567
#
# Velocity S-wave (km/s) = 6.68481 3.31335 5.27565
# Velocity P-wave (km/s) = 8.73723 6.05096 7.51509
#
# Compressibility (1/GPa) = 0.02800663
#
# Stress axis : x y z
#
# Youngs Moduli (GPa) = 37.46798 92.65276 119.42082
#
# Poissons Ratio (x) = 0.47282 0.21244
# Poissons Ratio (y) = 0.19120 0.24394
# Poissons Ratio (z) = 0.06665 0.18926
#
# Static dielectric constant tensor:
#      x y z
#    x 3.497380 0.000000 0.000000 
#    y 0.000000 4.053490 0.000000 
#    z 0.000000 0.000000 4.254380 
# 
# 
# High freq. dielectric constant tensor:
#      x y z
#    x 1.808400 0.000000 0.000000 
#    y 0.000000 1.849580 0.000000 
#    z 0.000000 0.000000 1.857020 
# 
# From -- ./inp_files/2390.got.cif
#   From: 2010.03.12/outbox.cif.g09.slc.cpg/sg45_2_cif.got.tgz:2390.got - 2010.04.14 02:50:11.
