data_PCOD8190439
_publ_section_title
;
Structure prediction by ZEFSAII (Michael W. Deem and Ramdas Pophale) SiO2 
 PCOD8190439
Probable space group: I B A 2
;
_chemical_formula_sum "Si O2"
_cell_formula_units_Z 64
_cell_length_a 13.655096
_cell_length_b 17.342586
_cell_length_c 14.555057
_cell_angle_alpha 90.000000
_cell_angle_beta 90.000000
_cell_angle_gamma 90.000000
_cell_volume 3446.851118
_symmetry_space_group_name_H-M "I B A 2"
_symmetry_group_IT_number 45
_symmetry_cell_setting 'orthorhombic'
loop_
_space_group_symop_operation_xyz
x,y,z
-x,-y,z
-x,y,1/2+z
x,-y,1/2+z
1/2+x,1/2+y,1/2+z
1/2-x,1/2-y,1/2+z
1/2-x,1/2+y,z
1/2+x,1/2-y,z
loop_
_atom_site_type_symbol
_atom_site_label
_atom_site_fract_x
_atom_site_fract_y
_atom_site_fract_z
Si Si1 0.903820 0.270278 0.719400
Si Si2 0.285528 0.648389 0.727673
Si Si3 0.400848 0.231823 0.107247
Si Si4 0.433314 0.694388 0.411678
Si Si5 0.215776 0.146158 0.114411
Si Si6 0.890684 0.988027 0.647365
Si Si7 0.397794 0.532625 0.440519
Si Si8 0.850910 0.867217 0.920746
O O1 0.831763 0.344677 0.713191
O O2 0.935202 0.250207 0.823586
O O3 0.840164 0.199437 0.685527
O O4 0.995299 0.286319 0.653710
O O5 0.348716 0.697418 0.656901
O O6 0.325388 0.562017 0.716653
O O7 0.305172 0.674467 0.832320
O O8 0.333407 0.155957 0.124009
O O9 0.409642 0.252612 0.999611
O O10 0.364647 0.616489 0.398190
O O11 0.535159 0.651166 0.427391
O O12 0.175379 0.062706 0.135596
O O13 0.195392 0.172199 0.010056
O O14 0.906309 0.948274 0.549133
O O15 0.000000 0.000000 0.690506
O O16 0.500000 0.500000 0.401129
O O17 0.325390 0.460048 0.421220
#
# Coordination Sequence:
#
# PCOD8190439 Si02
#       8
#     8   8   8   8   8   8   8   8
#     4  11  23  36  55  84 113 155 195 227 279 346
#     4  11  22  35  57  86 114 149 192 232 286 339
#     4  11  21  39  56  80 117 156 187 234 278 343
#     4  11  19  34  56  81 118 154 183 235 287 331
#     4  10  22  37  58  84 114 148 193 232 289 339
#     4  10  19  35  59  86 112 143 185 239 290 337
#     4   8  17  29  50  83 113 141 179 226 289 333
#     4  10  19  33  54  86 114 144 187 239 287 339
#
# _framework density 18.56767
#
# number of rings (size 3 to 8) (size 9 to 14) (size 15 to 20)
#    0.000    1.750    3.750    2.250    1.750    0.500 
#    0.000    0.625    0.000    0.000    0.000    3.500 
#    0.000    0.000    0.000    0.000    0.000    0.000 
#
# Total GULP energy -396444.853392 kJ/mol
# GULP energy per Si atom -12388.901668 kJ/mol
# Density = 1.852541 g / cm^3
# Si number density = 18.567670 Si / 1000 Ang^3
#
#
#
# Elastic Constant Matrix: (Units=GPa)
#
#
# Indices 1 2 3 4 5 6 
#
# 1 110.0269 45.3632 26.3057 0.0000 0.0000 0.0000
# 2 45.3632 64.7090 18.2597 0.0000 -0.0001 -0.0001
# 3 26.3057 18.2597 102.4967 0.0001 -0.0002 -0.0001
# 4 0.0000 0.0000 0.0001 10.0869 -0.0001 -0.0001
# 5 0.0000 -0.0001 -0.0002 -0.0001 8.9610 0.0000
# 6 0.0000 -0.0001 -0.0001 -0.0001 0.0000 23.4523
#
#
#
# Elastic Compliance Matrix: (Units=1/GPa)
#
#
# Indices 1 2 3 4 5 6 
#
# 1 0.013097 -0.008669 -0.001817 0.000000 0.000000 0.000000
# 2 -0.008669 0.022010 -0.001696 0.000000 0.000000 0.000000
# 3 -0.001817 -0.001696 0.010525 0.000000 0.000000 0.000000
# 4 0.000000 0.000000 0.000000 0.099139 0.000001 0.000000
# 5 0.000000 0.000000 0.000000 0.000001 0.111594 0.000000
# 6 0.000000 0.000000 0.000000 0.000000 0.000000 0.042640
#
#
# Mechanical properties :
#
#
# Convention : Reuss Voigt Hill
#
# Bulk Modulus (GPa) = 47.01976 50.78776 48.90376
# Shear Modulus (GPa) = 15.13054 20.98697 18.05876
#
# Velocity S-wave (km/s) = 2.85772 3.36564 3.12202
# Velocity P-wave (km/s) = 6.02222 6.52039 6.27625
#
# Compressibility (1/GPa) = 0.02126765
#
# Stress axis : x y z
#
# Youngs Moduli (GPa) = 76.35216 45.43476 95.01265
#
# Poissons Ratio (x) = 0.39387 0.17264
# Poissons Ratio (y) = 0.66189 0.16115
# Poissons Ratio (z) = 0.13873 0.07706
#
# Static dielectric constant tensor:
#      x y z
#    x 3.404040 0.000000 0.000000 
#    y 0.000000 3.388300 0.000000 
#    z 0.000000 0.000000 3.602990 
# 
# 
# High freq. dielectric constant tensor:
#      x y z
#    x 1.694000 0.000000 0.000000 
#    y 0.000000 1.699020 0.000000 
#    z 0.000000 0.000000 1.737550 
# 
# From -- ./inp_files/6296.got.cif
#   From: 2010.03.12/outbox.cif.g09.slc.cpg/sg45_4_cif.got.tgz:6296.got - 2010.04.14 02:50:11.
