data_PCOD8190675
_publ_section_title
;
Structure prediction by ZEFSAII (Michael W. Deem and Ramdas Pophale) SiO2 
 PCOD8190675
Probable space group: I B A 2
;
_chemical_formula_sum "Si O2"
_cell_formula_units_Z 60
_cell_length_a 5.106001
_cell_length_b 30.411494
_cell_length_c 17.609773
_cell_angle_alpha 90.000000
_cell_angle_beta 90.000000
_cell_angle_gamma 90.000000
_cell_volume 2734.465253
_symmetry_space_group_name_H-M "I B A 2"
_symmetry_group_IT_number 45
_symmetry_cell_setting 'orthorhombic'
loop_
_space_group_symop_operation_xyz
x,y,z
-x,-y,z
-x,y,1/2+z
x,-y,1/2+z
1/2+x,1/2+y,1/2+z
1/2-x,1/2-y,1/2+z
1/2-x,1/2+y,z
1/2+x,1/2-y,z
loop_
_atom_site_type_symbol
_atom_site_label
_atom_site_fract_x
_atom_site_fract_y
_atom_site_fract_z
Si Si1 0.541787 0.775010 0.405290
Si Si2 0.237070 0.584320 0.841702
Si Si3 0.500000 0.000000 0.404244
Si Si4 0.491143 0.222248 0.227151
Si Si5 0.611687 0.559962 0.967182
Si Si6 0.657515 0.605883 0.589903
Si Si7 0.357042 0.875903 0.181787
Si Si8 0.997065 0.363137 0.967084
O O1 0.746908 0.737464 0.428060
O O2 0.541173 0.784862 0.316398
O O3 0.636849 0.816721 0.454493
O O4 0.051254 0.541734 0.850993
O O5 0.258710 0.598574 0.754793
O O6 0.126282 0.626306 0.885299
O O7 0.509569 0.571639 0.882315
O O8 0.253010 0.012135 0.459506
O O9 0.217987 0.243994 0.200449
O O10 0.545452 0.174031 0.192854
O O11 0.397202 0.562337 0.035815
O O12 0.812899 0.597876 0.992869
O O13 0.389927 0.624442 0.625396
O O14 0.774480 0.642228 0.531753
O O15 0.888866 0.596671 0.651536
#
# Coordination Sequence:
#
# PCOD8190675 Si02
#       8
#     8   8   4   8   8   8   8   8
#     4  10  22  35  61  96 129 163 226 294 335 383
#     4  10  23  39  75  99 130 172 232 285 336 401
#     4  10  22  44  72 110 130 170 234 292 340 410
#     4  10  21  39  61  95 133 179 234 288 341 399
#     4  10  22  44  74 100 136 178 232 280 342 424
#     4  11  25  42  67  97 143 183 224 269 347 425
#     4  12  24  43  68 103 140 187 228 287 344 411
#     4  10  21  43  65  97 127 181 223 279 332 409
#
# _framework density 21.942135
#
# number of rings (size 3 to 8) (size 9 to 14) (size 15 to 20)
#    0.000    1.600    2.667    1.200    7.467    1.067 
#    0.000    4.667    5.867    0.000    0.000    0.000 
#    0.000    0.000    0.000    0.000    0.000    0.000 
#
# Total GULP energy -371661.123049 kJ/mol
# GULP energy per Si atom -12388.704102 kJ/mol
# Density = 2.189219 g / cm^3
# Si number density = 21.942135 Si / 1000 Ang^3
#
#
#
# Elastic Constant Matrix: (Units=GPa)
#
#
# Indices 1 2 3 4 5 6 
#
# 1 109.9555 13.6314 32.3306 0.0000 0.0000 0.0000
# 2 13.6314 73.7735 40.8191 0.0000 0.0000 0.0000
# 3 32.3306 40.8191 94.2812 0.0000 0.0000 0.0000
# 4 0.0000 0.0000 0.0000 18.8186 0.0000 0.0000
# 5 0.0000 0.0000 0.0000 0.0000 32.5313 0.0000
# 6 0.0000 0.0000 0.0000 0.0000 0.0000 26.8407
#
#
#
# Elastic Compliance Matrix: (Units=1/GPa)
#
#
# Indices 1 2 3 4 5 6 
#
# 1 0.010115 0.000066 -0.003497 0.000000 0.000000 0.000000
# 2 0.000066 0.017825 -0.007740 0.000000 0.000000 0.000000
# 3 -0.003497 -0.007740 0.015157 0.000000 0.000000 0.000000
# 4 0.000000 0.000000 0.000000 0.053139 0.000000 0.000000
# 5 0.000000 0.000000 0.000000 0.000000 0.030740 0.000000
# 6 0.000000 0.000000 0.000000 0.000000 0.000000 0.037257
#
#
# Mechanical properties :
#
#
# Convention : Reuss Voigt Hill
#
# Bulk Modulus (GPa) = 48.18222 50.17472 49.17847
# Shear Modulus (GPa) = 25.84073 28.38674 27.11373
#
# Velocity S-wave (km/s) = 3.43545 3.60072 3.51906
# Velocity P-wave (km/s) = 6.14352 6.34061 6.24285
#
# Compressibility (1/GPa) = 0.02075454
#
# Stress axis : x y z
#
# Youngs Moduli (GPa) = 98.86637 56.09954 65.97660
#
# Poissons Ratio (x) = -0.00370 0.23073
# Poissons Ratio (y) = -0.00653 0.51067
# Poissons Ratio (z) = 0.34574 0.43422
#
# Static dielectric constant tensor:
#      x y z
#    x 4.267000 0.000000 0.000000 
#    y 0.000000 3.761820 0.000000 
#    z 0.000000 0.000000 3.905260 
# 
# 
# High freq. dielectric constant tensor:
#      x y z
#    x 1.880980 0.000000 0.000000 
#    y 0.000000 1.848450 0.000000 
#    z 0.000000 0.000000 1.848600 
# 
# From -- ./inp_files/7351.got.cif
#   From: 2010.03.12/outbox.cif.g09.slc.cpg/sg45_4_cif.got.tgz:7351.got - 2010.04.14 02:50:11.
