data_PCOD8190269
_publ_section_title
;
Structure prediction by ZEFSAII (Michael W. Deem and Ramdas Pophale) SiO2 
 PCOD8190269
Probable space group: I M M 2
;
_chemical_formula_sum "Si O2"
_cell_formula_units_Z 40
_cell_length_a 12.328038
_cell_length_b 17.892861
_cell_length_c 8.644691
_cell_angle_alpha 90.000000
_cell_angle_beta 90.000000
_cell_angle_gamma 90.000000
_cell_volume 1906.879399
_symmetry_space_group_name_H-M "I M M 2"
_symmetry_group_IT_number 44
_symmetry_cell_setting 'orthorhombic'
loop_
_space_group_symop_operation_xyz
x,y,z
-x,-y,z
-x,y,z
x,-y,z
1/2+x,1/2+y,1/2+z
1/2-x,1/2-y,1/2+z
1/2-x,1/2+y,1/2+z
1/2+x,1/2-y,1/2+z
loop_
_atom_site_type_symbol
_atom_site_label
_atom_site_fract_x
_atom_site_fract_y
_atom_site_fract_z
Si Si1 0.622665 0.917521 0.105200
Si Si2 0.767525 0.089198 0.830922
Si Si3 0.122189 0.714704 0.814650
Si Si4 0.198049 0.821205 0.548641
Si Si5 0.500000 0.584034 0.985636
Si Si6 0.000000 0.081167 0.848269
O O1 0.500000 0.920933 0.048002
O O2 0.634571 0.871202 0.261727
O O3 0.668635 0.000000 0.141914
O O4 0.685175 0.881962 0.959314
O O5 0.736765 0.122031 0.662794
O O6 0.886497 0.122851 0.887207
O O7 0.773085 0.000000 0.815886
O O8 0.137267 0.762852 0.659687
O O9 0.000000 0.729719 0.879828
O O10 0.215961 0.724448 0.943195
O O11 0.108774 0.867189 0.445434
O O12 0.500000 0.500000 0.906065
O O13 0.500000 0.569319 0.166035
O O14 0.000000 0.000000 0.931237
#
# Coordination Sequence:
#
# PCOD8190269 Si02
#       6
#     8   8   8   8   4   4
#     4   9  19  36  56  79 115 156 194 242 297 360
#     4   9  17  32  57  86 114 149 195 242 298 361
#     4  11  24  41  59  86 122 165 211 256 317 378
#     4  11  21  39  61  87 122 164 206 263 313 374
#     4   9  18  36  63  89 118 156 202 260 315 361
#     4   7  12  24  47  77 107 138 174 224 282 333
#
# _framework density 20.976680999999999
#
# number of rings (size 3 to 8) (size 9 to 14) (size 15 to 20)
#    0.000    2.400    1.000    3.000    0.000    2.400 
#    1.800    1.000    0.000    1.200    0.000    0.000 
#    0.000    0.000    0.000    0.000    0.000    0.000 
#
# Total GULP energy -247766.160896 kJ/mol
# GULP energy per Si atom -12388.308045 kJ/mol
# Density = 2.092894 g / cm^3
# Si number density = 20.976681 Si / 1000 Ang^3
#
#
#
# Elastic Constant Matrix: (Units=GPa)
#
#
# Indices 1 2 3 4 5 6 
#
# 1 110.4766 29.4895 32.7079 0.0000 0.0000 0.0000
# 2 29.4895 55.0286 9.0010 0.0000 0.0000 0.0000
# 3 32.7079 9.0010 39.8140 -0.0001 0.0000 0.0000
# 4 0.0000 0.0000 -0.0001 20.7840 0.0000 0.0000
# 5 0.0000 0.0000 0.0000 0.0000 39.1037 0.0000
# 6 0.0000 0.0000 0.0000 0.0000 0.0000 28.8634
#
#
#
# Elastic Compliance Matrix: (Units=1/GPa)
#
#
# Indices 1 2 3 4 5 6 
#
# 1 0.013442 -0.005604 -0.009776 0.000000 0.000000 0.000000
# 2 -0.005604 0.021207 -0.000190 0.000000 0.000000 0.000000
# 3 -0.009776 -0.000190 0.033191 0.000000 0.000000 0.000000
# 4 0.000000 0.000000 0.000000 0.048114 0.000000 0.000000
# 5 0.000000 0.000000 0.000000 0.000000 0.025573 0.000000
# 6 0.000000 0.000000 0.000000 0.000000 0.000000 0.034646
#
#
# Mechanical properties :
#
#
# Convention : Reuss Voigt Hill
#
# Bulk Modulus (GPa) = 27.24887 38.63511 32.94199
# Shear Modulus (GPa) = 22.77424 26.69159 24.73292
#
# Velocity S-wave (km/s) = 3.29856 3.57100 3.43748
# Velocity P-wave (km/s) = 5.24649 5.95490 5.61188
#
# Compressibility (1/GPa) = 0.03669877
#
# Stress axis : x y z
#
# Youngs Moduli (GPa) = 74.39415 47.15454 30.12886
#
# Poissons Ratio (x) = 0.26427 0.29453
# Poissons Ratio (y) = 0.41694 0.00573
# Poissons Ratio (z) = 0.72726 0.00897
#
# Static dielectric constant tensor:
#      x y z
#    x 4.109210 0.000000 0.000000 
#    y 0.000000 4.195310 0.000000 
#    z 0.000000 0.000000 3.278290 
# 
# 
# High freq. dielectric constant tensor:
#      x y z
#    x 1.824080 0.000000 0.000000 
#    y 0.000000 1.843070 0.000000 
#    z 0.000000 0.000000 1.765410 
# 
# From -- ./inp_files/5854.got.cif
#   From: 2010.03.12/outbox.cif.g09.slc.cpg/sg44_3_cif.got.tgz:5854.got - 2010.04.14 02:36:11.
