data_PCOD8190741
_publ_section_title
;
Structure prediction by ZEFSAII (Michael W. Deem and Ramdas Pophale) SiO2 
 PCOD8190741
Probable space group: I B A 2
;
_chemical_formula_sum "Si O2"
_cell_formula_units_Z 64
_cell_length_a 30.826697
_cell_length_b 8.565145
_cell_length_c 10.816493
_cell_angle_alpha 90.000000
_cell_angle_beta 90.000000
_cell_angle_gamma 90.000000
_cell_volume 2855.934132
_symmetry_space_group_name_H-M "I B A 2"
_symmetry_group_IT_number 45
_symmetry_cell_setting 'orthorhombic'
loop_
_space_group_symop_operation_xyz
x,y,z
-x,-y,z
-x,y,1/2+z
x,-y,1/2+z
1/2+x,1/2+y,1/2+z
1/2-x,1/2-y,1/2+z
1/2-x,1/2+y,z
1/2+x,1/2-y,z
loop_
_atom_site_type_symbol
_atom_site_label
_atom_site_fract_x
_atom_site_fract_y
_atom_site_fract_z
Si Si1 0.518307 0.168800 0.915400
Si Si2 0.675949 0.115731 0.036347
Si Si3 0.609698 0.072836 0.830620
Si Si4 0.323687 0.199462 0.158277
Si Si5 0.615014 0.741038 0.727254
Si Si6 0.812991 0.842240 0.408242
Si Si7 0.769039 0.828334 0.874231
Si Si8 0.478694 0.666076 0.175981
O O1 0.569756 0.161350 0.892649
O O2 0.495829 0.233501 0.791879
O O3 0.500000 0.000000 0.944936
O O4 0.509199 0.265228 0.040992
O O5 0.645132 0.233719 0.109469
O O6 0.693644 0.972464 0.118340
O O7 0.647783 0.038730 0.927580
O O8 0.715526 0.218737 0.987140
O O9 0.629294 0.183536 0.723103
O O10 0.596073 0.905317 0.777366
O O11 0.287262 0.269099 0.245517
O O12 0.329814 0.320858 0.047256
O O13 0.643832 0.645789 0.825908
O O14 0.573053 0.641839 0.689100
O O15 0.783317 0.691148 0.370297
O O16 0.782960 0.994449 0.396218
O O17 0.500000 0.500000 0.186694
#
# Coordination Sequence:
#
# PCOD8190741 Si02
#       8
#     8   8   8   8   8   8   8   8
#     4  12  25  47  77 111 142 196 249 306 363 455
#     4  10  21  45  73  99 142 177 238 296 357 426
#     4  10  21  44  75 107 132 186 246 292 360 429
#     4  10  24  44  71 102 142 183 231 302 354 430
#     4  11  24  44  73 104 142 193 238 305 361 440
#     4  12  27  45  70 104 142 191 243 299 366 435
#     4  11  28  44  69 105 139 189 239 292 366 430
#     4  12  28  48  72 111 157 194 244 314 387 442
#
# _framework density 22.409481
#
# number of rings (size 3 to 8) (size 9 to 14) (size 15 to 20)
#    0.000    1.000    3.750    1.500    7.000    3.000 
#    2.250    0.000    0.000    0.000    0.000    0.000 
#    0.000    0.000    0.000    0.000    0.000    0.000 
#
# Total GULP energy -396884.362559 kJ/mol
# GULP energy per Si atom -12402.636330 kJ/mol
# Density = 2.235848 g / cm^3
# Si number density = 22.409481 Si / 1000 Ang^3
#
#
#
# Elastic Constant Matrix: (Units=GPa)
#
#
# Indices 1 2 3 4 5 6 
#
# 1 89.9101 33.3577 34.0694 0.0000 0.0000 0.0000
# 2 33.3577 66.3023 39.1602 0.0000 0.0000 0.0000
# 3 34.0694 39.1602 117.4160 0.0000 0.0000 0.0000
# 4 0.0000 0.0000 0.0000 -98.4271 0.0000 0.0000
# 5 0.0000 0.0000 0.0000 0.0000 30.7089 0.0000
# 6 0.0000 0.0000 0.0000 0.0000 0.0000 37.8422
#
#
#
# Elastic Compliance Matrix: (Units=1/GPa)
#
#
# Indices 1 2 3 4 5 6 
#
# 1 0.014097 -0.005824 -0.002148 0.000000 0.000000 0.000000
# 2 -0.005824 0.021188 -0.005377 0.000000 0.000000 0.000000
# 3 -0.002148 -0.005377 0.010933 0.000000 0.000000 0.000000
# 4 0.000000 0.000000 0.000000 -0.010160 0.000000 0.000000
# 5 0.000000 0.000000 0.000000 0.000000 0.032564 0.000000
# 6 0.000000 0.000000 0.000000 0.000000 0.000000 0.026426
#
#
# Mechanical properties :
#
#
# Convention : Reuss Voigt Hill
#
# Bulk Modulus (GPa) = 51.22630 54.08920 52.65775
# Shear Modulus (GPa) = 38.98583 5.16088 22.07335
#
# Velocity S-wave (km/s) = 4.17550 1.51921 3.14188
# Velocity P-wave (km/s) = 6.79376 5.22173 6.05895
#
# Compressibility (1/GPa) = 0.01952122
#
# Stress axis : x y z
#
# Youngs Moduli (GPa) = 70.93811 47.19633 91.46404
#
# Poissons Ratio (x) = 0.27485 0.19647
# Poissons Ratio (y) = 0.41312 0.49178
# Poissons Ratio (z) = 0.15238 0.25377
#
# Static dielectric constant tensor:
#      x y z
#    x 4.020120 0.000000 0.000000 
#    y 0.000000 7.335340 0.000000 
#    z 0.000000 0.000000 4.373030 
# 
# 
# High freq. dielectric constant tensor:
#      x y z
#    x 1.884620 0.000000 0.000000 
#    y 0.000000 1.874120 0.000000 
#    z 0.000000 0.000000 1.901880 
# 
# From -- ./inp_files/4964.got.cif
#   From: 2010.03.12/outbox.cif.g09.slc.cpg/sg45_3_cif.got.tgz:4964.got - 2010.04.14 02:50:11.
