data_PCOD8190965
_publ_section_title
;
Structure prediction by ZEFSAII (Michael W. Deem and Ramdas Pophale) SiO2 
 PCOD8190965
Probable space group: I B A 2
;
_chemical_formula_sum "Si O2"
_cell_formula_units_Z 60
_cell_length_a 23.453735
_cell_length_b 9.110760
_cell_length_c 13.578649
_cell_angle_alpha 90.000000
_cell_angle_beta 90.000000
_cell_angle_gamma 90.000000
_cell_volume 2901.504059
_symmetry_space_group_name_H-M "I B A 2"
_symmetry_group_IT_number 45
_symmetry_cell_setting 'orthorhombic'
loop_
_space_group_symop_operation_xyz
x,y,z
-x,-y,z
-x,y,1/2+z
x,-y,1/2+z
1/2+x,1/2+y,1/2+z
1/2-x,1/2-y,1/2+z
1/2-x,1/2+y,z
1/2+x,1/2-y,z
loop_
_atom_site_type_symbol
_atom_site_label
_atom_site_fract_x
_atom_site_fract_y
_atom_site_fract_z
Si Si1 0.579925 0.288936 0.568950
Si Si2 0.078297 0.499867 0.963681
Si Si3 0.814727 0.678719 0.692102
Si Si4 0.539328 0.787766 0.629815
Si Si5 0.134881 0.910667 0.552346
Si Si6 0.252741 0.434877 0.097306
Si Si7 0.816692 0.333061 0.424407
Si Si8 0.000000 0.500000 0.792489
O O1 0.574686 0.174245 0.479646
O O2 0.622539 0.228417 0.654825
O O3 0.516693 0.311749 0.612105
O O4 0.601417 0.441546 0.522518
O O5 0.144632 0.468302 0.957131
O O6 0.050181 0.441555 0.862819
O O7 0.045596 0.417083 0.050888
O O8 0.801384 0.519808 0.643810
O O9 0.766458 0.794682 0.663190
O O10 0.807747 0.667484 0.808851
O O11 0.595660 0.684514 0.627689
O O12 0.529358 0.868114 0.733079
O O13 0.150991 0.817552 0.455343
O O14 0.194140 0.953964 0.602861
O O15 0.240680 0.368887 0.987195
#
# Coordination Sequence:
#
# PCOD8190965 Si02
#       8
#     8   8   8   8   8   8   8   4
#     4  11  20  45  65  95 136 176 216 282 341 399
#     4  11  22  39  66  98 129 173 221 275 331 401
#     4  11  25  41  69  97 132 178 229 276 346 403
#     4  11  22  42  67  93 135 170 221 274 334 404
#     4  10  25  42  65  95 133 180 214 281 343 391
#     4  11  23  46  64  95 138 172 227 283 340 402
#     4  11  24  42  67  95 133 178 228 277 336 416
#     4  12  20  38  70 102 128 172 232 266 338 416
#
# _framework density 20.678930000000001
#
# number of rings (size 3 to 8) (size 9 to 14) (size 15 to 20)
#    0.000    1.067    5.333    1.200    1.867    0.000 
#    4.800    0.000    2.933    0.000    0.000    0.000 
#    0.000    0.000    0.000    0.000    0.000    0.000 
#
# Total GULP energy -371822.515678 kJ/mol
# GULP energy per Si atom -12394.083856 kJ/mol
# Density = 2.063186 g / cm^3
# Si number density = 20.678930 Si / 1000 Ang^3
#
#
#
# Elastic Constant Matrix: (Units=GPa)
#
#
# Indices 1 2 3 4 5 6 
#
# 1 104.3921 43.8208 43.0382 0.0000 0.0000 0.0000
# 2 43.8208 106.2560 48.6732 0.0000 0.0000 0.0000
# 3 43.0382 48.6732 142.2838 0.0000 0.0000 0.0000
# 4 0.0000 0.0000 0.0000 -9.5431 0.0000 0.0000
# 5 0.0000 0.0000 0.0000 0.0000 11.8788 0.0000
# 6 0.0000 0.0000 0.0000 0.0000 0.0000 38.7747
#
#
#
# Elastic Compliance Matrix: (Units=1/GPa)
#
#
# Indices 1 2 3 4 5 6 
#
# 1 0.012206 -0.003964 -0.002336 0.000000 0.000000 0.000000
# 2 -0.003964 0.012447 -0.003059 0.000000 0.000000 0.000000
# 3 -0.002336 -0.003059 0.008781 0.000000 0.000000 0.000000
# 4 0.000000 0.000000 0.000000 -0.104787 0.000000 0.000000
# 5 0.000000 0.000000 0.000000 0.000000 0.084184 0.000000
# 6 0.000000 0.000000 0.000000 0.000000 0.000000 0.025790
#
#
# Mechanical properties :
#
#
# Convention : Reuss Voigt Hill
#
# Bulk Modulus (GPa) = 67.94990 69.33290 68.64140
# Shear Modulus (GPa) = 80.32809 22.71538 51.52174
#
# Velocity S-wave (km/s) = 6.23937 3.31793 4.99692
# Velocity P-wave (km/s) = 9.21071 6.94833 8.15832
#
# Compressibility (1/GPa) = 0.01471672
#
# Stress axis : x y z
#
# Youngs Moduli (GPa) = 81.92470 80.33932 113.87809
#
# Poissons Ratio (x) = 0.31845 0.26604
# Poissons Ratio (y) = 0.32473 0.34836
# Poissons Ratio (z) = 0.19139 0.24576
#
# Static dielectric constant tensor:
#      x y z
#    x 4.067920 0.000000 0.000000 
#    y 0.000000 3.937810 0.000000 
#    z 0.000000 0.000000 3.452050 
# 
# 
# High freq. dielectric constant tensor:
#      x y z
#    x 1.828390 0.000000 0.000000 
#    y 0.000000 1.813680 0.000000 
#    z 0.000000 0.000000 1.784740 
# 
# From -- ./inp_files/5816.got.cif
#   From: 2010.03.12/outbox.cif.g09.slc.cpg/sg45_3_cif.got.tgz:5816.got - 2010.04.14 02:50:11.
