data_PCOD8190010
_publ_section_title
;
Structure prediction by ZEFSAII (Michael W. Deem and Ramdas Pophale) SiO2 
 PCOD8190010
Probable space group: I M M 2
;
_chemical_formula_sum "Si O2"
_cell_formula_units_Z 32
_cell_length_a 18.725604
_cell_length_b 7.677881
_cell_length_c 10.231266
_cell_angle_alpha 90.000000
_cell_angle_beta 90.000000
_cell_angle_gamma 90.000000
_cell_volume 1470.979389
_symmetry_space_group_name_H-M "I M M 2"
_symmetry_group_IT_number 44
_symmetry_cell_setting 'orthorhombic'
loop_
_space_group_symop_operation_xyz
x,y,z
-x,-y,z
-x,y,z
x,-y,z
1/2+x,1/2+y,1/2+z
1/2-x,1/2-y,1/2+z
1/2-x,1/2+y,1/2+z
1/2+x,1/2-y,1/2+z
loop_
_atom_site_type_symbol
_atom_site_label
_atom_site_fract_x
_atom_site_fract_y
_atom_site_fract_z
Si Si1 0.918077 0.695876 0.375000
Si Si2 0.084364 0.000000 0.190119
Si Si3 0.915251 0.000000 0.894863
Si Si4 0.316770 0.801809 0.329841
Si Si5 0.704720 0.294593 0.049388
O O1 0.910516 0.500000 0.319724
O O2 0.888162 0.827247 0.264495
O O3 0.872223 0.720478 0.505798
O O4 0.000000 0.738300 0.411240
O O5 0.112879 0.000000 0.043602
O O6 0.000000 0.000000 0.186040
O O7 0.885158 0.174525 0.826938
O O8 0.000000 0.000000 0.880579
O O9 0.276767 0.788880 0.189896
O O10 0.263246 0.737431 0.442884
O O11 0.341766 0.000000 0.355518
O O12 0.700738 0.500000 0.062734
#
# Coordination Sequence:
#
# PCOD8190010 Si02
#       5
#     8   4   4   8   8
#     4  10  21  37  63  97 132 178 229 278 335 401
#     4   9  20  39  63  95 133 174 217 277 340 396
#     4  11  26  47  71 101 142 184 231 285 347 414
#     4  11  27  45  69 103 136 183 230 284 348 408
#     4  11  24  43  68  98 136 180 229 281 344 409
#
# _framework density 21.754214000000001
#
# number of rings (size 3 to 8) (size 9 to 14) (size 15 to 20)
#    0.000    1.500    2.500    0.750    7.000    2.500 
#    0.000    2.500    0.000    0.000    0.000    0.000 
#    0.000    0.000    0.000    0.000    0.000    0.000 
#
# Total GULP energy -198451.306695 kJ/mol
# GULP energy per Si atom -12403.206668 kJ/mol
# Density = 2.170470 g / cm^3
# Si number density = 21.754214 Si / 1000 Ang^3
#
#
#
# Elastic Constant Matrix: (Units=GPa)
#
#
# Indices 1 2 3 4 5 6 
#
# 1 95.5805 45.1187 47.0085 0.0000 0.0000 0.0000
# 2 45.1187 137.0807 39.7194 0.0000 0.0000 0.0000
# 3 47.0085 39.7194 144.7910 0.0000 0.0000 0.0000
# 4 0.0000 0.0000 0.0000 30.0584 0.0000 0.0000
# 5 0.0000 0.0000 0.0000 0.0000 30.4183 0.0000
# 6 0.0000 0.0000 0.0000 0.0000 0.0000 20.7028
#
#
#
# Elastic Compliance Matrix: (Units=1/GPa)
#
#
# Indices 1 2 3 4 5 6 
#
# 1 0.013872 -0.003542 -0.003532 0.000000 0.000000 0.000000
# 2 -0.003542 0.008829 -0.001272 0.000000 0.000000 0.000000
# 3 -0.003532 -0.001272 0.008402 0.000000 0.000000 0.000000
# 4 0.000000 0.000000 0.000000 0.033269 0.000000 0.000000
# 5 0.000000 0.000000 0.000000 0.000000 0.032875 0.000000
# 6 0.000000 0.000000 0.000000 0.000000 0.000000 0.048303
#
#
# Mechanical properties :
#
#
# Convention : Reuss Voigt Hill
#
# Bulk Modulus (GPa) = 69.39294 71.23839 70.31567
# Shear Modulus (GPa) = 29.93196 32.60959 31.27078
#
# Velocity S-wave (km/s) = 3.71336 3.87589 3.79550
# Velocity P-wave (km/s) = 7.09600 7.26967 7.18336
#
# Compressibility (1/GPa) = 0.01441069
#
# Stress axis : x y z
#
# Youngs Moduli (GPa) = 72.08980 113.25701 119.01740
#
# Poissons Ratio (x) = 0.40119 0.42035
# Poissons Ratio (y) = 0.25537 0.15140
# Poissons Ratio (z) = 0.25461 0.14407
#
# Static dielectric constant tensor:
#      x y z
#    x 3.720810 0.000000 0.000000 
#    y 0.000000 4.027430 0.000000 
#    z 0.000000 0.000000 4.081170 
# 
# 
# High freq. dielectric constant tensor:
#      x y z
#    x 1.843860 0.000000 0.000000 
#    y 0.000000 1.868710 0.000000 
#    z 0.000000 0.000000 1.853370 
# 
# From -- ./inp_files/13660.got.cif
#   From: 2010.03.12/outbox.cif.g09.slc.cpg/sg44_7_cif.got.tgz:13660.got - 2010.04.14 02:36:11.
