data_PCOD8190731
_publ_section_title
;
Structure prediction by ZEFSAII (Michael W. Deem and Ramdas Pophale) SiO2 
 PCOD8190731
Probable space group: I B A 2
;
_chemical_formula_sum "Si O2"
_cell_formula_units_Z 64
_cell_length_a 11.776566
_cell_length_b 18.419572
_cell_length_c 13.988953
_cell_angle_alpha 90.000000
_cell_angle_beta 90.000000
_cell_angle_gamma 90.000000
_cell_volume 3034.473967
_symmetry_space_group_name_H-M "I B A 2"
_symmetry_group_IT_number 45
_symmetry_cell_setting 'orthorhombic'
loop_
_space_group_symop_operation_xyz
x,y,z
-x,-y,z
-x,y,1/2+z
x,-y,1/2+z
1/2+x,1/2+y,1/2+z
1/2-x,1/2-y,1/2+z
1/2-x,1/2+y,z
1/2+x,1/2-y,z
loop_
_atom_site_type_symbol
_atom_site_label
_atom_site_fract_x
_atom_site_fract_y
_atom_site_fract_z
Si Si1 0.299021 0.049505 0.409950
Si Si2 0.892315 0.832375 0.959998
Si Si3 0.644785 0.883025 0.913670
Si Si4 0.061327 0.924122 0.851757
Si Si5 0.062845 0.388409 0.205362
Si Si6 0.669552 0.963533 0.192931
Si Si7 0.939126 0.327848 0.514849
Si Si8 0.591392 0.564569 0.633518
O O1 0.165476 0.064245 0.426432
O O2 0.306322 0.065812 0.298155
O O3 0.371876 0.104819 0.470598
O O4 0.346637 0.969223 0.432821
O O5 0.770370 0.850687 0.915305
O O6 0.985075 0.856798 0.883347
O O7 0.896714 0.746392 0.969799
O O8 0.927578 0.870801 0.059067
O O9 0.575558 0.863514 0.815339
O O10 0.572429 0.842823 0.995473
O O11 0.085663 0.906200 0.741228
O O12 0.000000 0.000000 0.858321
O O13 0.156364 0.450332 0.193668
O O14 0.086437 0.324172 0.129225
O O15 0.943304 0.420035 0.166383
O O16 0.774981 0.955814 0.119191
O O17 0.500000 0.500000 0.614391
#
# Coordination Sequence:
#
# PCOD8190731 Si02
#       8
#     8   8   8   8   8   8   8   8
#     4  10  21  42  71  95 123 170 228 275 326 390
#     4  12  27  44  62 102 141 178 221 273 342 413
#     4  11  24  47  70  94 133 176 230 282 332 400
#     4  10  21  44  70  96 130 173 225 278 331 392
#     4  10  22  40  68  98 130 168 224 285 331 395
#     4   9  19  41  68  99 124 164 228 281 326 380
#     4  12  27  41  64 103 135 176 220 274 347 407
#     4  10  23  41  70  98 131 179 226 275 330 404
#
# _framework density 21.090969999999999
#
# number of rings (size 3 to 8) (size 9 to 14) (size 15 to 20)
#    0.000    1.500    2.500    1.500    8.750    1.000 
#    2.250    0.000    0.000    0.000    0.000    0.000 
#    0.000    0.000    0.000    0.000    0.000    0.000 
#
# Total GULP energy -396534.502492 kJ/mol
# GULP energy per Si atom -12391.703203 kJ/mol
# Density = 2.104297 g / cm^3
# Si number density = 21.090970 Si / 1000 Ang^3
#
#
#
# Elastic Constant Matrix: (Units=GPa)
#
#
# Indices 1 2 3 4 5 6 
#
# 1 105.3685 19.2300 23.8361 0.0005 0.0001 0.0000
# 2 19.2300 92.8090 38.8240 0.0010 0.0001 0.0000
# 3 23.8361 38.8240 73.9043 0.0004 0.0000 -0.0001
# 4 0.0005 0.0010 0.0004 -101.1076 0.0004 0.0004
# 5 0.0001 0.0001 0.0000 0.0004 28.9887 0.0000
# 6 0.0000 0.0000 -0.0001 0.0004 0.0000 23.2340
#
#
#
# Elastic Compliance Matrix: (Units=1/GPa)
#
#
# Indices 1 2 3 4 5 6 
#
# 1 0.010303 -0.000954 -0.002822 0.000000 0.000000 0.000000
# 2 -0.000954 0.013898 -0.006993 0.000000 0.000000 0.000000
# 3 -0.002822 -0.006993 0.018115 0.000000 0.000000 0.000000
# 4 0.000000 0.000000 0.000000 -0.009890 0.000000 0.000000
# 5 0.000000 0.000000 0.000000 0.000000 0.034496 0.000000
# 6 0.000000 0.000000 0.000000 0.000000 0.000000 0.043040
#
#
# Mechanical properties :
#
#
# Convention : Reuss Voigt Hill
#
# Bulk Modulus (GPa) = 48.12942 48.42912 48.27927
# Shear Modulus (GPa) = 36.12040 2.90247 19.51144
#
# Velocity S-wave (km/s) = 4.14285 1.17437 3.04486
# Velocity P-wave (km/s) = 6.76415 4.98505 5.94157
#
# Compressibility (1/GPa) = 0.02077731
#
# Stress axis : x y z
#
# Youngs Moduli (GPa) = 97.05925 71.95299 55.20358
#
# Poissons Ratio (x) = 0.06868 0.15576
# Poissons Ratio (y) = 0.09264 0.38605
# Poissons Ratio (z) = 0.27386 0.50318
#
# Static dielectric constant tensor:
#      x y z
#    x 4.150470 0.000000 0.000000 
#    y 0.000000 3.735080 0.000000 
#    z 0.000000 0.000000 4.279400 
# 
# 
# High freq. dielectric constant tensor:
#      x y z
#    x 1.842840 0.000000 0.000000 
#    y 0.000000 1.792610 0.000000 
#    z 0.000000 0.000000 1.839760 
# 
# From -- ./inp_files/6277.got.cif
#   From: 2010.03.12/outbox.cif.g09.slc.cpg/sg45_4_cif.got.tgz:6277.got - 2010.04.14 02:50:11.
