data_PCOD8190964
_publ_section_title
;
Structure prediction by ZEFSAII (Michael W. Deem and Ramdas Pophale) SiO2 
 PCOD8190964
Probable space group: I B A 2
;
_chemical_formula_sum "Si O2"
_cell_formula_units_Z 56
_cell_length_a 13.962577
_cell_length_b 21.593306
_cell_length_c 8.400877
_cell_angle_alpha 90.000000
_cell_angle_beta 90.000000
_cell_angle_gamma 90.000000
_cell_volume 2532.849275
_symmetry_space_group_name_H-M "I B A 2"
_symmetry_group_IT_number 45
_symmetry_cell_setting 'orthorhombic'
loop_
_space_group_symop_operation_xyz
x,y,z
-x,-y,z
-x,y,1/2+z
x,-y,1/2+z
1/2+x,1/2+y,1/2+z
1/2-x,1/2-y,1/2+z
1/2-x,1/2+y,z
1/2+x,1/2-y,z
loop_
_atom_site_type_symbol
_atom_site_label
_atom_site_fract_x
_atom_site_fract_y
_atom_site_fract_z
Si Si1 0.399179 0.159457 0.299830
Si Si2 0.822219 0.513644 0.601946
Si Si3 0.686159 0.196784 0.462039
Si Si4 0.089070 0.413769 0.329879
Si Si5 0.905515 0.175359 0.005553
Si Si6 0.237650 0.081921 0.385383
Si Si7 0.900438 0.795443 0.870181
O O1 0.480545 0.106773 0.295255
O O2 0.319867 0.133014 0.422080
O O3 0.437401 0.224325 0.366480
O O4 0.353226 0.172046 0.128552
O O5 0.899219 0.553141 0.501262
O O6 0.881309 0.462967 0.698530
O O7 0.756397 0.560492 0.703741
O O8 0.745596 0.479136 0.491778
O O9 0.654293 0.148377 0.324916
O O10 0.643081 0.264453 0.424376
O O11 0.801024 0.200004 0.464650
O O12 0.863320 0.114020 0.921488
O O13 0.018611 0.169971 0.971361
O O14 0.888117 0.175479 0.194866
#
# Coordination Sequence:
#
# PCOD8190964 Si02
#       7
#     8   8   8   8   8   8   8
#     4  11  24  39  68 101 144 179 226 283 343 433
#     4  10  25  41  69  93 146 185 234 279 345 405
#     4  11  23  44  67 103 144 183 224 294 354 417
#     4  11  23  43  64 102 138 186 230 279 341 418
#     4  11  25  43  72 103 140 182 234 293 357 421
#     4  11  23  44  65 102 133 188 229 288 339 421
#     4  11  25  42  70 108 139 182 225 290 369 417
#
# _framework density 22.109489
#
# number of rings (size 3 to 8) (size 9 to 14) (size 15 to 20)
#    0.000    1.143    4.286    0.857    4.000    3.429 
#    0.000    0.000    0.000   14.571    0.000    0.000 
#    0.000    0.000    0.000    0.000    0.000    0.000 
#
# Total GULP energy -347161.332194 kJ/mol
# GULP energy per Si atom -12398.619007 kJ/mol
# Density = 2.205917 g / cm^3
# Si number density = 22.109489 Si / 1000 Ang^3
#
#
#
# Elastic Constant Matrix: (Units=GPa)
#
#
# Indices 1 2 3 4 5 6 
#
# 1 147.5857 42.6031 39.1282 -0.0001 0.0001 0.0001
# 2 42.6031 98.9179 43.9919 0.0001 0.0000 0.0000
# 3 39.1282 43.9919 92.9076 0.0012 0.0008 -0.0002
# 4 -0.0001 0.0001 0.0012 29.1872 0.0002 0.0000
# 5 0.0001 0.0000 0.0008 0.0002 29.7434 0.0000
# 6 0.0001 0.0000 -0.0002 0.0000 0.0000 42.9123
#
#
#
# Elastic Compliance Matrix: (Units=1/GPa)
#
#
# Indices 1 2 3 4 5 6 
#
# 1 0.008085 -0.002493 -0.002225 0.000000 0.000000 0.000000
# 2 -0.002493 0.013575 -0.005378 0.000000 0.000000 0.000000
# 3 -0.002225 -0.005378 0.014247 -0.000001 0.000000 0.000000
# 4 0.000000 0.000000 -0.000001 0.034262 0.000000 0.000000
# 5 0.000000 0.000000 0.000000 0.000000 0.033621 0.000000
# 6 0.000000 0.000000 0.000000 0.000000 0.000000 0.023303
#
#
# Mechanical properties :
#
#
# Convention : Reuss Voigt Hill
#
# Bulk Modulus (GPa) = 63.62973 65.65084 64.64029
# Shear Modulus (GPa) = 32.78225 34.61447 33.69836
#
# Velocity S-wave (km/s) = 3.85479 3.96105 3.90828
# Velocity P-wave (km/s) = 6.97527 7.11884 7.04742
#
# Compressibility (1/GPa) = 0.01571592
#
# Stress axis : x y z
#
# Youngs Moduli (GPa) = 123.68371 73.66654 70.19161
#
# Poissons Ratio (x) = 0.18364 0.15616
# Poissons Ratio (y) = 0.30832 0.37748
# Poissons Ratio (z) = 0.27516 0.39616
#
# Static dielectric constant tensor:
#      x y z
#    x 3.718330 0.000000 0.000000 
#    y 0.000000 4.415280 0.000000 
#    z 0.000000 0.000000 3.987700 
# 
# 
# High freq. dielectric constant tensor:
#      x y z
#    x 1.853260 0.000000 0.000000 
#    y 0.000000 1.881880 0.000000 
#    z 0.000000 0.000000 1.867820 
# 
# From -- ./inp_files/1823.got.cif
#   From: 2010.03.12/outbox.cif.g09.slc.cpg/sg45_1_cif.got.tgz:1823.got - 2010.04.14 02:50:11.
