data_PCOD8190222
_publ_section_title
;
Structure prediction by ZEFSAII (Michael W. Deem and Ramdas Pophale) SiO2 
 PCOD8190222
Probable space group: I M M 2
;
_chemical_formula_sum "Si O2"
_cell_formula_units_Z 32
_cell_length_a 18.610504
_cell_length_b 7.739208
_cell_length_c 10.248512
_cell_angle_alpha 90.000000
_cell_angle_beta 90.000000
_cell_angle_gamma 90.000000
_cell_volume 1476.098937
_symmetry_space_group_name_H-M "I M M 2"
_symmetry_group_IT_number 44
_symmetry_cell_setting 'orthorhombic'
loop_
_space_group_symop_operation_xyz
x,y,z
-x,-y,z
-x,y,z
x,-y,z
1/2+x,1/2+y,1/2+z
1/2-x,1/2-y,1/2+z
1/2-x,1/2+y,1/2+z
1/2+x,1/2-y,1/2+z
loop_
_atom_site_type_symbol
_atom_site_label
_atom_site_fract_x
_atom_site_fract_y
_atom_site_fract_z
Si Si1 0.581917 0.195910 0.551170
Si Si2 0.716810 0.803935 0.390204
Si Si3 0.414593 0.500000 0.027098
Si Si4 0.084285 0.000000 0.235861
Si Si5 0.320193 0.193924 0.106902
O O1 0.500000 0.239022 0.508900
O O2 0.632768 0.223678 0.426419
O O3 0.609494 0.326096 0.663150
O O4 0.587592 0.000000 0.605709
O O5 0.724912 0.755517 0.237565
O O6 0.767664 0.690175 0.482198
O O7 0.740103 0.000000 0.417431
O O8 0.500000 0.500000 0.035624
O O9 0.382877 0.500000 0.880015
O O10 0.385853 0.326525 0.094865
O O11 0.000000 0.000000 0.250255
O O12 0.351721 0.000000 0.123458
#
# Coordination Sequence:
#
# PCOD8190222 Si02
#       5
#     8   8   4   4   8
#     4   9  19  36  61  93 129 173 220 268 323 386
#     4  10  23  42  64  96 135 171 223 275 327 394
#     4  11  26  47  67  97 140 174 223 281 335 400
#     4   9  20  37  61  93 127 168 213 267 326 384
#     4  11  26  43  67  99 131 179 223 273 338 395
#
# _framework density 21.678764999999999
#
# number of rings (size 3 to 8) (size 9 to 14) (size 15 to 20)
#    0.000    2.000    1.250    0.000    7.000    2.500 
#    0.000    6.250    0.000    0.000    0.000    0.000 
#    0.000    0.000    0.000    0.000    0.000    0.000 
#
# Total GULP energy -198383.304181 kJ/mol
# GULP energy per Si atom -12398.956511 kJ/mol
# Density = 2.162942 g / cm^3
# Si number density = 21.678765 Si / 1000 Ang^3
#
#
#
# Elastic Constant Matrix: (Units=GPa)
#
#
# Indices 1 2 3 4 5 6 
#
# 1 92.9477 41.1793 33.0034 0.0000 0.0000 0.0000
# 2 41.1793 127.5842 52.0202 0.0000 0.0000 0.0000
# 3 33.0034 52.0202 129.8402 0.0000 0.0000 0.0000
# 4 0.0000 0.0000 0.0000 33.0157 0.0000 0.0000
# 5 0.0000 0.0000 0.0000 0.0000 30.6236 0.0000
# 6 0.0000 0.0000 0.0000 0.0000 0.0000 19.0237
#
#
#
# Elastic Compliance Matrix: (Units=1/GPa)
#
#
# Indices 1 2 3 4 5 6 
#
# 1 0.012947 -0.003391 -0.001932 0.000000 0.000000 0.000000
# 2 -0.003391 0.010256 -0.003247 0.000000 0.000000 0.000000
# 3 -0.001932 -0.003247 0.009494 0.000000 0.000000 0.000000
# 4 0.000000 0.000000 0.000000 0.030289 0.000000 0.000000
# 5 0.000000 0.000000 0.000000 0.000000 0.032655 0.000000
# 6 0.000000 0.000000 0.000000 0.000000 0.000000 0.052566
#
#
# Mechanical properties :
#
#
# Convention : Reuss Voigt Hill
#
# Bulk Modulus (GPa) = 64.28248 66.97530 65.62889
# Shear Modulus (GPa) = 29.31972 31.47721 30.39846
#
# Velocity S-wave (km/s) = 3.68157 3.81462 3.74869
# Velocity P-wave (km/s) = 6.91293 7.09671 7.00542
#
# Compressibility (1/GPa) = 0.01555634
#
# Stress axis : x y z
#
# Youngs Moduli (GPa) = 77.23671 97.49951 105.32987
#
# Poissons Ratio (x) = 0.33062 0.20354
# Poissons Ratio (y) = 0.26191 0.34204
# Poissons Ratio (z) = 0.14925 0.31661
#
# Static dielectric constant tensor:
#      x y z
#    x 3.721950 0.000000 0.000000 
#    y 0.000000 4.066850 0.000000 
#    z 0.000000 0.000000 3.987150 
# 
# 
# High freq. dielectric constant tensor:
#      x y z
#    x 1.848030 0.000000 0.000000 
#    y 0.000000 1.856680 0.000000 
#    z 0.000000 0.000000 1.844310 
# 
# From -- ./inp_files/13653.got.cif
#   From: 2010.03.12/outbox.cif.g09.slc.cpg/sg44_7_cif.got.tgz:13653.got - 2010.04.14 02:36:11.
