data_PCOD8190907
_publ_section_title
;
Structure prediction by ZEFSAII (Michael W. Deem and Ramdas Pophale) SiO2 
 PCOD8190907
Probable space group: I B A 2
;
_chemical_formula_sum "Si O2"
_cell_formula_units_Z 64
_cell_length_a 13.668806
_cell_length_b 13.492032
_cell_length_c 16.174567
_cell_angle_alpha 90.000000
_cell_angle_beta 90.000000
_cell_angle_gamma 90.000000
_cell_volume 2982.913128
_symmetry_space_group_name_H-M "I B A 2"
_symmetry_group_IT_number 45
_symmetry_cell_setting 'orthorhombic'
loop_
_space_group_symop_operation_xyz
x,y,z
-x,-y,z
-x,y,1/2+z
x,-y,1/2+z
1/2+x,1/2+y,1/2+z
1/2-x,1/2-y,1/2+z
1/2-x,1/2+y,z
1/2+x,1/2-y,z
loop_
_atom_site_type_symbol
_atom_site_label
_atom_site_fract_x
_atom_site_fract_y
_atom_site_fract_z
Si Si1 0.262575 0.855487 0.463670
Si Si2 0.568371 0.280430 0.245411
Si Si3 0.108916 0.024338 0.505998
Si Si4 0.248608 0.290412 0.646493
Si Si5 0.731675 0.029643 0.761889
Si Si6 0.424034 0.914703 0.336046
Si Si7 0.381330 0.604583 0.687207
Si Si8 0.210022 0.160719 0.388980
O O1 0.280947 0.808581 0.552566
O O2 0.363713 0.891127 0.420615
O O3 0.229320 0.761139 0.407183
O O4 0.178688 0.937200 0.471866
O O5 0.636134 0.264761 0.162931
O O6 0.526585 0.182423 0.292573
O O7 0.484883 0.357562 0.220142
O O8 0.640903 0.332485 0.309017
O O9 0.110158 0.038826 0.604111
O O10 0.146381 0.127624 0.467694
O O11 0.000000 0.000000 0.475337
O O12 0.213216 0.390137 0.691432
O O13 0.187469 0.198324 0.678051
O O14 0.718516 0.074703 0.855589
O O15 0.645036 0.949742 0.760432
O O16 0.834272 0.970864 0.752977
O O17 0.500000 0.000000 0.360072
#
# Coordination Sequence:
#
# PCOD8190907 Si02
#       8
#     8   8   8   8   8   8   8   8
#     4  11  23  46  63  98 144 177 227 286 353 420
#     4  10  24  42  67 102 136 180 232 293 348 417
#     4  12  25  43  69 103 135 180 231 287 356 425
#     4  11  22  42  67  97 134 177 230 285 350 408
#     4  11  23  41  71  96 131 186 229 289 346 418
#     4  11  23  45  67 100 139 186 239 280 350 427
#     4  12  24  42  69 100 137 177 229 294 352 412
#     4  10  24  42  66  96 136 180 228 278 351 410
#
# _framework density 21.455535999999999
#
# number of rings (size 3 to 8) (size 9 to 14) (size 15 to 20)
#    0.000    1.000    5.000    1.500    3.500    0.000 
#    4.500    3.125    0.000    0.000    0.000    0.000 
#    0.000    0.000    0.000    0.000    0.000    0.000 
#
# Total GULP energy -396488.162959 kJ/mol
# GULP energy per Si atom -12390.255092 kJ/mol
# Density = 2.140670 g / cm^3
# Si number density = 21.455536 Si / 1000 Ang^3
#
#
#
# Elastic Constant Matrix: (Units=GPa)
#
#
# Indices 1 2 3 4 5 6 
#
# 1 84.5332 40.7809 37.6970 0.0000 0.0000 0.0000
# 2 40.7809 116.1026 50.7537 0.0000 0.0000 0.0000
# 3 37.6970 50.7537 105.4825 0.0000 0.0000 0.0000
# 4 0.0000 0.0000 0.0000 41.0538 0.0000 0.0000
# 5 0.0000 0.0000 0.0000 0.0000 29.6324 0.0000
# 6 0.0000 0.0000 0.0000 0.0000 0.0000 35.1439
#
#
#
# Elastic Compliance Matrix: (Units=1/GPa)
#
#
# Indices 1 2 3 4 5 6 
#
# 1 0.015274 -0.003772 -0.003644 0.000000 0.000000 0.000000
# 2 -0.003772 0.011839 -0.004348 0.000000 0.000000 0.000000
# 3 -0.003644 -0.004348 0.012875 0.000000 0.000000 0.000000
# 4 0.000000 0.000000 0.000000 0.024358 0.000000 0.000000
# 5 0.000000 0.000000 0.000000 0.000000 0.033747 0.000000
# 6 0.000000 0.000000 0.000000 0.000000 0.000000 0.028454
#
#
# Mechanical properties :
#
#
# Convention : Reuss Voigt Hill
#
# Bulk Modulus (GPa) = 60.75520 62.73128 61.74324
# Shear Modulus (GPa) = 32.14147 32.95848 32.54997
#
# Velocity S-wave (km/s) = 3.87466 3.92360 3.89921
# Velocity P-wave (km/s) = 6.95670 7.05886 7.00796
#
# Compressibility (1/GPa) = 0.01645950
#
# Stress axis : x y z
#
# Youngs Moduli (GPa) = 65.46906 84.46731 77.67238
#
# Poissons Ratio (x) = 0.31864 0.28301
# Poissons Ratio (y) = 0.24697 0.33774
# Poissons Ratio (z) = 0.23855 0.36728
#
# Static dielectric constant tensor:
#      x y z
#    x 3.744890 0.000000 0.000000 
#    y 0.000000 4.278950 0.000000 
#    z 0.000000 0.000000 3.984420 
# 
# 
# High freq. dielectric constant tensor:
#      x y z
#    x 1.820070 0.000000 0.000000 
#    y 0.000000 1.873950 0.000000 
#    z 0.000000 0.000000 1.841510 
# 
# From -- ./inp_files/8011.got.cif
#   From: 2010.03.12/outbox.cif.g09.slc.cpg/sg45_5_cif.got.tgz:8011.got - 2010.04.14 02:50:11.
