data_PCOD8190159
_publ_section_title
;
Structure prediction by ZEFSAII (Michael W. Deem and Ramdas Pophale) SiO2 
 PCOD8190159
Probable space group: I M M 2
;
_chemical_formula_sum "Si O2"
_cell_formula_units_Z 64
_cell_length_a 24.581337
_cell_length_b 9.097348
_cell_length_c 14.988265
_cell_angle_alpha 90.000000
_cell_angle_beta 90.000000
_cell_angle_gamma 90.000000
_cell_volume 3351.750416
_symmetry_space_group_name_H-M "I M M 2"
_symmetry_group_IT_number 44
_symmetry_cell_setting 'orthorhombic'
loop_
_space_group_symop_operation_xyz
x,y,z
-x,-y,z
-x,y,z
x,-y,z
1/2+x,1/2+y,1/2+z
1/2-x,1/2-y,1/2+z
1/2-x,1/2+y,1/2+z
1/2+x,1/2-y,1/2+z
loop_
_atom_site_type_symbol
_atom_site_label
_atom_site_fract_x
_atom_site_fract_y
_atom_site_fract_z
Si Si1 0.283597 0.671240 0.399520
Si Si2 0.856299 0.327414 0.576248
Si Si3 0.936520 0.329257 0.056218
Si Si4 0.839417 0.668503 0.371317
Si Si5 0.866558 0.826475 0.201967
Si Si6 0.236794 0.826495 0.095555
Si Si7 0.110914 0.326415 0.866025
Si Si8 0.562455 0.331673 0.202944
O O1 0.299557 0.500000 0.395648
O O2 0.224620 0.698896 0.356873
O O3 0.283213 0.734262 0.500313
O O4 0.328521 0.765410 0.346719
O O5 0.865384 0.500000 0.593934
O O6 0.857612 0.291619 0.471141
O O7 0.798157 0.273053 0.617011
O O8 0.903331 0.235959 0.622300
O O9 0.925162 0.500000 0.073858
O O10 0.912530 0.238317 0.138203
O O11 0.000000 0.294610 0.049620
O O12 0.908980 0.278095 0.963969
O O13 0.852887 0.500000 0.350600
O O14 0.873767 0.766982 0.302276
O O15 0.806366 0.775820 0.169563
O O16 0.872933 0.000000 0.201400
O O17 0.239791 0.000000 0.084576
O O18 0.110306 0.500000 0.853344
O O19 0.070570 0.256856 0.794225
O O20 0.500000 0.318800 0.174324
O O21 0.579925 0.500000 0.217865
#
# Coordination Sequence:
#
# PCOD8190159 Si02
#       8
#     8   8   8   8   8   8   8   8
#     4   9  17  34  56  81 117 155 189 227 278 337
#     4   9  19  39  63  84 111 150 194 239 287 339
#     4  10  22  40  59  81 114 154 197 243 286 336
#     4   9  20  37  58  84 118 156 192 235 286 341
#     4  11  21  34  57  87 120 154 191 237 288 341
#     4   8  16  32  54  82 116 149 181 226 280 335
#     4  11  22  36  58  87 117 151 191 234 284 342
#     4  11  25  42  59  83 115 150 192 242 292 343
#
# _framework density 19.094501000000001
#
# number of rings (size 3 to 8) (size 9 to 14) (size 15 to 20)
#    0.000    2.250    1.250    3.000    1.750    3.250 
#    0.000    3.125    0.000    0.750    0.000    0.000 
#    0.000    0.000    0.000    0.000    0.000    0.000 
#
# Total GULP energy -396810.802302 kJ/mol
# GULP energy per Si atom -12400.337572 kJ/mol
# Density = 1.905104 g / cm^3
# Si number density = 19.094501 Si / 1000 Ang^3
#
#
#
# Elastic Constant Matrix: (Units=GPa)
#
#
# Indices 1 2 3 4 5 6 
#
# 1 91.8672 47.7212 42.9342 0.0000 0.0000 0.0000
# 2 47.7212 80.9687 46.0351 0.0000 0.0000 0.0000
# 3 42.9342 46.0351 90.8657 0.0000 0.0000 0.0000
# 4 0.0000 0.0000 0.0000 30.0226 0.0000 0.0000
# 5 0.0000 0.0000 0.0000 0.0000 30.3198 0.0000
# 6 0.0000 0.0000 0.0000 0.0000 0.0000 31.2490
#
#
#
# Elastic Compliance Matrix: (Units=1/GPa)
#
#
# Indices 1 2 3 4 5 6 
#
# 1 0.016700 -0.007523 -0.004079 0.000000 0.000000 0.000000
# 2 -0.007523 0.020736 -0.006951 0.000000 0.000000 0.000000
# 3 -0.004079 -0.006951 0.016454 0.000000 0.000000 0.000000
# 4 0.000000 0.000000 0.000000 0.033308 0.000000 0.000000
# 5 0.000000 0.000000 0.000000 0.000000 0.032982 0.000000
# 6 0.000000 0.000000 0.000000 0.000000 0.000000 0.032001
#
#
# Mechanical properties :
#
#
# Convention : Reuss Voigt Hill
#
# Bulk Modulus (GPa) = 59.58153 59.67584 59.62869
# Shear Modulus (GPa) = 25.65649 26.78569 26.22109
#
# Velocity S-wave (km/s) = 3.66957 3.74946 3.70973
# Velocity P-wave (km/s) = 7.01609 7.07568 7.04595
#
# Compressibility (1/GPa) = 0.01678372
#
# Stress axis : x y z
#
# Youngs Moduli (GPa) = 59.88146 48.22429 60.77478
#
# Poissons Ratio (x) = 0.36280 0.24791
# Poissons Ratio (y) = 0.45050 0.42244
# Poissons Ratio (z) = 0.24427 0.33520
#
# Static dielectric constant tensor:
#      x y z
#    x 3.434250 0.000000 0.000000 
#    y 0.000000 3.308150 0.000000 
#    z 0.000000 0.000000 3.407400 
# 
# 
# High freq. dielectric constant tensor:
#      x y z
#    x 1.737180 0.000000 0.000000 
#    y 0.000000 1.730810 0.000000 
#    z 0.000000 0.000000 1.743220 
# 
# From -- ./inp_files/19476.got.cif
#   From: 2010.03.12/outbox.cif.g09.slc.cpg/sg44_10_cif.got.tgz:19476.got - 2010.04.14 02:36:11.
