data_PCOD8190803
_publ_section_title
;
Structure prediction by ZEFSAII (Michael W. Deem and Ramdas Pophale) SiO2 
 PCOD8190803
Probable space group: I B A 2
;
_chemical_formula_sum "Si O2"
_cell_formula_units_Z 64
_cell_length_a 14.242979
_cell_length_b 8.473505
_cell_length_c 22.370188
_cell_angle_alpha 90.000000
_cell_angle_beta 90.000000
_cell_angle_gamma 90.000000
_cell_volume 2699.812215
_symmetry_space_group_name_H-M "I B A 2"
_symmetry_group_IT_number 45
_symmetry_cell_setting 'orthorhombic'
loop_
_space_group_symop_operation_xyz
x,y,z
-x,-y,z
-x,y,1/2+z
x,-y,1/2+z
1/2+x,1/2+y,1/2+z
1/2-x,1/2-y,1/2+z
1/2-x,1/2+y,z
1/2+x,1/2-y,z
loop_
_atom_site_type_symbol
_atom_site_label
_atom_site_fract_x
_atom_site_fract_y
_atom_site_fract_z
Si Si1 0.242713 0.448936 0.926580
Si Si2 0.957283 0.667740 0.802915
Si Si3 0.695095 0.875368 0.043038
Si Si4 0.392180 0.673452 0.921451
Si Si5 0.142306 0.687218 0.600291
Si Si6 0.723634 0.011940 0.789451
Si Si7 0.134472 0.222297 0.236604
Si Si8 0.016480 0.820915 0.032869
O O1 0.356091 0.489767 0.929728
O O2 0.206924 0.268456 0.933324
O O3 0.214656 0.503603 0.860715
O O4 0.189073 0.539569 0.979273
O O5 0.935532 0.787348 0.857107
O O6 0.860817 0.628140 0.767544
O O7 0.000000 0.500000 0.826186
O O8 0.026889 0.754328 0.756630
O O9 0.795360 0.799566 0.057609
O O10 0.625138 0.726011 0.038479
O O11 0.670860 0.003089 0.094940
O O12 0.475164 0.709903 0.966992
O O13 0.147798 0.752803 0.666819
O O14 0.035912 0.704551 0.578568
O O15 0.824832 0.055841 0.760777
O O16 0.706382 0.836422 0.769175
O O17 0.000000 0.000000 0.053696
#
# Coordination Sequence:
#
# PCOD8190803 Si02
#       8
#     8   8   8   8   8   8   8   8
#     4  11  22  42  72  99 143 177 234 286 360 426
#     4   9  22  41  66 100 136 177 233 284 348 421
#     4  12  25  45  73 101 145 191 239 303 360 435
#     4  11  24  42  69 104 143 182 234 288 363 427
#     4  12  26  47  70 102 141 193 241 292 363 429
#     4  10  22  41  69 100 133 183 232 291 352 419
#     4  11  24  44  70  98 138 185 236 289 348 427
#     4  12  28  43  67 104 140 186 240 296 361 430
#
# _framework density 23.705352999999999
#
# number of rings (size 3 to 8) (size 9 to 14) (size 15 to 20)
#    0.000    1.000    2.500    3.375    7.000    5.000 
#    0.000    3.125    0.000    0.000    0.000    0.000 
#    0.000    0.000    0.000    0.000    0.000    0.000 
#
# Total GULP energy -396593.004515 kJ/mol
# GULP energy per Si atom -12393.531391 kJ/mol
# Density = 2.365140 g / cm^3
# Si number density = 23.705353 Si / 1000 Ang^3
#
#
#
# Elastic Constant Matrix: (Units=GPa)
#
#
# Indices 1 2 3 4 5 6 
#
# 1 79.9020 5.2357 19.6502 0.0000 0.0000 0.0000
# 2 5.2357 54.9090 13.3447 0.0000 0.0000 0.0000
# 3 19.6502 13.3447 102.4946 0.0000 0.0000 0.0000
# 4 0.0000 0.0000 0.0000 14.3943 0.0000 0.0000
# 5 0.0000 0.0000 0.0000 0.0000 21.0924 0.0000
# 6 0.0000 0.0000 0.0000 0.0000 0.0000 45.8971
#
#
#
# Elastic Compliance Matrix: (Units=1/GPa)
#
#
# Indices 1 2 3 4 5 6 
#
# 1 0.013158 -0.000663 -0.002436 0.000000 0.000000 0.000000
# 2 -0.000663 0.018840 -0.002326 0.000000 0.000000 0.000000
# 3 -0.002436 -0.002326 0.010527 0.000000 0.000000 0.000000
# 4 0.000000 0.000000 0.000000 0.069472 0.000000 0.000000
# 5 0.000000 0.000000 0.000000 0.000000 0.047411 0.000000
# 6 0.000000 0.000000 0.000000 0.000000 0.000000 0.021788
#
#
# Mechanical properties :
#
#
# Convention : Reuss Voigt Hill
#
# Bulk Modulus (GPa) = 31.57053 34.86299 33.21676
# Shear Modulus (GPa) = 24.67876 29.54841 27.11359
#
# Velocity S-wave (km/s) = 3.23005 3.53439 3.38564
# Velocity P-wave (km/s) = 5.22090 5.60309 5.41537
#
# Compressibility (1/GPa) = 0.03167511
#
# Stress axis : x y z
#
# Youngs Moduli (GPa) = 75.99985 53.07742 94.99787
#
# Poissons Ratio (x) = 0.03517 0.23145
# Poissons Ratio (y) = 0.05035 0.22096
# Poissons Ratio (z) = 0.18516 0.12346
#
# Static dielectric constant tensor:
#      x y z
#    x 4.439200 0.000000 0.000000 
#    y 0.000000 4.345710 0.000000 
#    z 0.000000 0.000000 4.189000 
# 
# 
# High freq. dielectric constant tensor:
#      x y z
#    x 1.945250 0.000000 0.000000 
#    y 0.000000 1.939910 0.000000 
#    z 0.000000 0.000000 1.931390 
# 
# From -- ./inp_files/9777.got.cif
#   From: 2010.03.12/outbox.cif.g09.slc.cpg/sg45_5_cif.got.tgz:9777.got - 2010.04.14 02:50:11.
