data_PCOD8190385
_publ_section_title
;
Structure prediction by ZEFSAII (Michael W. Deem and Ramdas Pophale) SiO2 
 PCOD8190385
Probable space group: I B A 2
;
_chemical_formula_sum "Si O2"
_cell_formula_units_Z 56
_cell_length_a 21.468093
_cell_length_b 25.913983
_cell_length_c 5.298929
_cell_angle_alpha 90.000000
_cell_angle_beta 90.000000
_cell_angle_gamma 90.000000
_cell_volume 2947.920302
_symmetry_space_group_name_H-M "I B A 2"
_symmetry_group_IT_number 45
_symmetry_cell_setting 'orthorhombic'
loop_
_space_group_symop_operation_xyz
x,y,z
-x,-y,z
-x,y,1/2+z
x,-y,1/2+z
1/2+x,1/2+y,1/2+z
1/2-x,1/2-y,1/2+z
1/2-x,1/2+y,z
1/2+x,1/2-y,z
loop_
_atom_site_type_symbol
_atom_site_label
_atom_site_fract_x
_atom_site_fract_y
_atom_site_fract_z
Si Si1 0.129722 0.720410 0.647110
Si Si2 0.538994 0.310706 0.147156
Si Si3 0.777730 0.795492 0.647113
Si Si4 0.173532 0.969852 0.647151
Si Si5 0.960942 0.929492 0.147087
Si Si6 0.273448 0.643671 0.147114
Si Si7 0.852224 0.688210 0.647111
O O1 0.101978 0.777679 0.647099
O O2 0.205245 0.721165 0.647113
O O3 0.106210 0.688223 0.401106
O O4 0.106210 0.688223 0.893116
O O5 0.500018 0.297411 0.397202
O O6 0.560602 0.369928 0.147123
O O7 0.797092 0.828178 0.401021
O O8 0.816150 0.743205 0.647115
O O9 0.797092 0.828179 0.893203
O O10 0.099114 0.965262 0.647162
O O11 0.205106 0.914606 0.647116
O O12 0.195496 0.000005 0.397165
O O13 0.000023 0.942387 0.397028
O O14 0.197746 0.642197 0.147112
#
# Coordination Sequence:
#
# PCOD8190385 Si02
#       7
#     8   8   8   8   8   8   8
#     4  10  18  30  47  71 104 125 159 193 228 300
#     4  10  21  35  48  72 100 134 169 202 255 298
#     4  10  19  30  51  81  95 125 149 187 255 306
#     4  12  26  40  55  73  90 130 175 216 277 308
#     4  10  23  39  54  70  87 121 173 231 274 301
#     4  10  20  35  49  72 104 116 152 203 248 308
#     4  10  19  29  50  81  96 124 151 187 254 304
#
# _framework density 18.996442999999999
#
# number of rings (size 3 to 8) (size 9 to 14) (size 15 to 20)
#    0.000    1.714    0.000    6.857    6.000    1.714 
#    0.000    0.000    0.000    0.000    0.000    0.000 
#    0.000    0.000    0.000    0.000    0.000  800.000 
#
# Total GULP energy -347059.564151 kJ/mol
# GULP energy per Si atom -12394.984434 kJ/mol
# Density = 1.895321 g / cm^3
# Si number density = 18.996443 Si / 1000 Ang^3
#
#
#
# Elastic Constant Matrix: (Units=GPa)
#
#
# Indices 1 2 3 4 5 6 
#
# 1 27.9947 34.1547 22.1210 0.0000 0.0000 0.0000
# 2 34.1547 92.9521 42.8300 0.0000 0.0000 0.0000
# 3 22.1210 42.8300 202.4908 0.0000 0.0000 0.0000
# 4 0.0000 0.0000 0.0000 17.4209 0.0000 0.0000
# 5 0.0000 0.0000 0.0000 0.0000 0.6913 0.0000
# 6 0.0000 0.0000 0.0000 0.0000 0.0000 33.3193
#
#
#
# Elastic Compliance Matrix: (Units=1/GPa)
#
#
# Indices 1 2 3 4 5 6 
#
# 1 0.065696 -0.023082 -0.002295 0.000000 0.000000 0.000000
# 2 -0.023082 0.020030 -0.001715 0.000000 0.000000 0.000000
# 3 -0.002295 -0.001715 0.005552 0.000000 0.000000 0.000000
# 4 0.000000 0.000000 0.000000 0.057402 0.000000 0.000000
# 5 0.000000 0.000000 0.000000 0.000000 1.446517 0.000000
# 6 0.000000 0.000000 0.000000 0.000000 0.000000 0.030013
#
#
# Mechanical properties :
#
#
# Convention : Reuss Voigt Hill
#
# Bulk Modulus (GPa) = 26.95876 57.96100 42.45988
# Shear Modulus (GPa) = 2.95551 25.24176 14.09863
#
# Velocity S-wave (km/s) = 1.24868 3.64917 2.72724
# Velocity P-wave (km/s) = 4.03748 6.95220 5.68482
#
# Compressibility (1/GPa) = 0.03709370
#
# Stress axis : x y z
#
# Youngs Moduli (GPa) = 15.22174 49.92543 180.11751
#
# Poissons Ratio (x) = 1.15239 0.41331
# Poissons Ratio (y) = 0.35135 0.30891
# Poissons Ratio (z) = 0.03493 0.08562
#
# Static dielectric constant tensor:
#      x y z
#    x 3.102430 0.000000 0.000000 
#    y 0.000000 3.214680 0.000000 
#    z 0.000000 0.000000 6.004790 
# 
# 
# High freq. dielectric constant tensor:
#      x y z
#    x 1.692520 0.000000 0.000000 
#    y 0.000000 1.701070 0.000000 
#    z 0.000000 0.000000 1.787970 
# 
# From -- ./inp_files/438.got.cif
#   From: 2010.03.12/outbox.cif.g09.slc.cpg/sg45_1_cif.got.tgz:438.got - 2010.04.14 02:50:11.
