data_PCOD8190006
_publ_section_title
;
Structure prediction by ZEFSAII (Michael W. Deem and Ramdas Pophale) SiO2 
 PCOD8190006
Probable space group: I M M 2
;
_chemical_formula_sum "Si O2"
_cell_formula_units_Z 40
_cell_length_a 19.069533
_cell_length_b 8.996776
_cell_length_c 10.542550
_cell_angle_alpha 90.000000
_cell_angle_beta 90.000000
_cell_angle_gamma 90.000000
_cell_volume 1808.725388
_symmetry_space_group_name_H-M "I M M 2"
_symmetry_group_IT_number 44
_symmetry_cell_setting 'orthorhombic'
loop_
_space_group_symop_operation_xyz
x,y,z
-x,-y,z
-x,y,z
x,-y,z
1/2+x,1/2+y,1/2+z
1/2-x,1/2-y,1/2+z
1/2-x,1/2+y,1/2+z
1/2+x,1/2-y,1/2+z
loop_
_atom_site_type_symbol
_atom_site_label
_atom_site_fract_x
_atom_site_fract_y
_atom_site_fract_z
Si Si1 0.581293 0.673036 0.358270
Si Si2 0.082678 0.663046 0.609733
Si Si3 0.707238 0.824792 0.469906
Si Si4 0.207696 0.825121 0.220910
Si Si5 0.079923 0.324906 0.328546
O O1 0.500000 0.712457 0.382404
O O2 0.596449 0.500000 0.375840
O O3 0.604731 0.718730 0.215802
O O4 0.627337 0.766061 0.457573
O O5 0.115691 0.500000 0.643131
O O6 0.106374 0.717315 0.470652
O O7 0.000000 0.643312 0.603507
O O8 0.748871 0.775077 0.344299
O O9 0.741665 0.747958 0.594422
O O10 0.707584 0.000000 0.489467
O O11 0.128341 0.765154 0.231831
O O12 0.206731 0.000000 0.203924
O O13 0.088007 0.500000 0.305548
O O14 0.000000 0.273839 0.305691
#
# Coordination Sequence:
#
# PCOD8190006 Si02
#       5
#     8   8   8   8   8
#     4  10  21  37  61  94 129 165 209 263 318 370
#     4   8  15  30  54  87 125 164 205 248 301 368
#     4  11  26  46  67  93 126 170 215 258 318 384
#     4  11  26  45  66  95 127 166 214 264 319 376
#     4   9  19  37  63  94 128 168 211 256 312 377
#
# _framework density 22.115023000000001
#
# number of rings (size 3 to 8) (size 9 to 14) (size 15 to 20)
#    0.000    2.200    0.000    3.000    2.800    6.400 
#    0.000    2.000    0.000    0.000    0.000    0.000 
#    0.000    0.000    0.000    0.000    0.000    0.000 
#
# Total GULP energy -248011.701259 kJ/mol
# GULP energy per Si atom -12400.585063 kJ/mol
# Density = 2.206469 g / cm^3
# Si number density = 22.115023 Si / 1000 Ang^3
#
#
#
# Elastic Constant Matrix: (Units=GPa)
#
#
# Indices 1 2 3 4 5 6 
#
# 1 75.0293 38.0280 47.2629 0.0000 0.0000 0.0000
# 2 38.0280 85.6586 60.2678 0.0000 0.0000 0.0000
# 3 47.2629 60.2678 145.9174 0.0000 0.0000 0.0000
# 4 0.0000 0.0000 0.0000 40.9062 0.0000 0.0000
# 5 0.0000 0.0000 0.0000 0.0000 35.6019 0.0000
# 6 0.0000 0.0000 0.0000 0.0000 0.0000 20.0544
#
#
#
# Elastic Compliance Matrix: (Units=1/GPa)
#
#
# Indices 1 2 3 4 5 6 
#
# 1 0.018490 -0.005631 -0.003663 0.000000 0.000000 0.000000
# 2 -0.005631 0.018172 -0.005681 0.000000 0.000000 0.000000
# 3 -0.003663 -0.005681 0.010386 0.000000 0.000000 0.000000
# 4 0.000000 0.000000 0.000000 0.024446 0.000000 0.000000
# 5 0.000000 0.000000 0.000000 0.000000 0.028088 0.000000
# 6 0.000000 0.000000 0.000000 0.000000 0.000000 0.049864
#
#
# Mechanical properties :
#
#
# Convention : Reuss Voigt Hill
#
# Bulk Modulus (GPa) = 58.49247 66.41364 62.45305
# Shear Modulus (GPa) = 27.01297 30.04893 28.53095
#
# Velocity S-wave (km/s) = 3.49875 3.69013 3.59572
# Velocity P-wave (km/s) = 6.54434 6.94639 6.74836
#
# Compressibility (1/GPa) = 0.01709622
#
# Stress axis : x y z
#
# Youngs Moduli (GPa) = 54.08419 55.03109 96.28169
#
# Poissons Ratio (x) = 0.30989 0.35268
# Poissons Ratio (y) = 0.30456 0.54701
# Poissons Ratio (z) = 0.19811 0.31265
#
# Static dielectric constant tensor:
#      x y z
#    x 3.917140 0.000000 0.000000 
#    y 0.000000 3.753540 0.000000 
#    z 0.000000 0.000000 4.179460 
# 
# 
# High freq. dielectric constant tensor:
#      x y z
#    x 1.868380 0.000000 0.000000 
#    y 0.000000 1.859720 0.000000 
#    z 0.000000 0.000000 1.874910 
# 
# From -- ./inp_files/13686.got.cif
#   From: 2010.03.12/outbox.cif.g09.slc.cpg/sg44_7_cif.got.tgz:13686.got - 2010.04.14 02:36:11.
