data_PCOD8190180
_publ_section_title
;
Structure prediction by ZEFSAII (Michael W. Deem and Ramdas Pophale) SiO2 
 PCOD8190180
Probable space group: I M M 2
;
_chemical_formula_sum "Si O2"
_cell_formula_units_Z 48
_cell_length_a 9.188848
_cell_length_b 7.546195
_cell_length_c 34.142077
_cell_angle_alpha 90.000000
_cell_angle_beta 90.000000
_cell_angle_gamma 90.000000
_cell_volume 2367.440259
_symmetry_space_group_name_H-M "I M M 2"
_symmetry_group_IT_number 44
_symmetry_cell_setting 'orthorhombic'
loop_
_space_group_symop_operation_xyz
x,y,z
-x,-y,z
-x,y,z
x,-y,z
1/2+x,1/2+y,1/2+z
1/2-x,1/2-y,1/2+z
1/2-x,1/2+y,1/2+z
1/2+x,1/2-y,1/2+z
loop_
_atom_site_type_symbol
_atom_site_label
_atom_site_fract_x
_atom_site_fract_y
_atom_site_fract_z
Si Si1 0.338339 0.210536 0.271490
Si Si2 0.668488 0.798390 0.420587
Si Si3 0.831338 0.000000 0.982111
Si Si4 0.166750 0.300849 0.110077
Si Si5 0.167174 0.708627 0.684358
Si Si6 0.826270 0.500000 0.563070
Si Si7 0.162411 0.210920 0.344527
O O1 0.500000 0.285620 0.278677
O O2 0.284187 0.266439 0.228162
O O3 0.234876 0.290075 0.305148
O O4 0.342206 0.000000 0.273832
O O5 0.500000 0.787609 0.409406
O O6 0.704628 0.676069 0.457529
O O7 0.753587 0.723683 0.383024
O O8 0.714373 0.000000 0.431064
O O9 0.723777 0.000000 0.018425
O O10 0.000000 0.000000 0.995756
O O11 0.175477 0.500000 0.093023
O O12 0.226335 0.305484 0.154334
O O13 0.000000 0.233172 0.109845
O O14 0.265768 0.175512 0.083601
O O15 0.183700 0.500000 0.678138
O O16 0.000000 0.765341 0.676928
O O17 0.000000 0.500000 0.565902
O O18 0.000000 0.286215 0.346753
O O19 0.165171 0.000000 0.342859
#
# Coordination Sequence:
#
# PCOD8190180 Si02
#       7
#     8   8   4   8   8   4   8
#     4   8  14  25  44  73 109 149 193 236 281 338
#     4   9  18  34  57  82 110 147 186 229 284 343
#     4  10  22  40  62  88 116 146 188 238 290 356
#     4  11  24  41  63  90 120 157 198 243 298 359
#     4   9  17  31  54  84 116 153 197 245 297 350
#     4  12  26  44  66  92 122 156 196 244 300 362
#     4   9  16  26  44  74 110 147 190 236 282 332
#
# _framework density 20.275062999999999
#
# number of rings (size 3 to 8) (size 9 to 14) (size 15 to 20)
#    0.000    2.500    0.833    2.750    0.000    5.333 
#    0.000    3.333    1.833    0.000    0.000    0.000 
#    0.000    0.000    0.000    0.000    0.000    0.000 
#
# Total GULP energy -297566.256910 kJ/mol
# GULP energy per Si atom -12398.594038 kJ/mol
# Density = 2.022892 g / cm^3
# Si number density = 20.275063 Si / 1000 Ang^3
#
#
#
# Elastic Constant Matrix: (Units=GPa)
#
#
# Indices 1 2 3 4 5 6 
#
# 1 140.7586 41.6377 89.5098 0.0000 0.0000 0.0000
# 2 41.6377 75.7242 44.1223 0.0000 0.0000 0.0000
# 3 89.5098 44.1223 154.1442 0.0000 0.0000 0.0000
# 4 0.0000 0.0000 0.0000 -8.1992 0.0000 0.0000
# 5 0.0000 0.0000 0.0000 0.0000 41.3679 0.0000
# 6 0.0000 0.0000 0.0000 0.0000 0.0000 10.9894
#
#
#
# Elastic Compliance Matrix: (Units=1/GPa)
#
#
# Indices 1 2 3 4 5 6 
#
# 1 0.011804 -0.002996 -0.005997 0.000000 0.000000 0.000000
# 2 -0.002996 0.016610 -0.003014 0.000000 0.000000 0.000000
# 3 -0.005997 -0.003014 0.010833 0.000000 0.000000 0.000000
# 4 0.000000 0.000000 0.000000 -0.121963 0.000000 0.000000
# 5 0.000000 0.000000 0.000000 0.000000 0.024173 0.000000
# 6 0.000000 0.000000 0.000000 0.000000 0.000000 0.090997
#
#
# Mechanical properties :
#
#
# Convention : Reuss Voigt Hill
#
# Bulk Modulus (GPa) = 65.65469 80.12960 72.89214
# Shear Modulus (GPa) = 81.23991 21.85544 51.54768
#
# Velocity S-wave (km/s) = 6.33687 3.28677 5.04771
# Velocity P-wave (km/s) = 9.27327 7.34921 8.36673
#
# Compressibility (1/GPa) = 0.01523121
#
# Stress axis : x y z
#
# Youngs Moduli (GPa) = 84.71555 60.20522 92.31406
#
# Poissons Ratio (x) = 0.18040 0.55359
# Poissons Ratio (y) = 0.25385 0.27827
# Poissons Ratio (z) = 0.50803 0.18148
#
# Static dielectric constant tensor:
#      x y z
#    x 3.748460 0.000000 0.000000 
#    y 0.000000 3.506670 0.000000 
#    z 0.000000 0.000000 3.751360 
# 
# 
# High freq. dielectric constant tensor:
#      x y z
#    x 1.785550 0.000000 0.000000 
#    y 0.000000 1.778920 0.000000 
#    z 0.000000 0.000000 1.792060 
# 
# From -- ./inp_files/26984.got.cif
#   From: 2010.03.12/outbox.cif.g09.slc.cpg/sg44_14_cif.got.tgz:26984.got - 2010.04.14 02:36:11.
