data_PCOD8190130
_publ_section_title
;
Structure prediction by ZEFSAII (Michael W. Deem and Ramdas Pophale) SiO2 
 PCOD8190130
Probable space group: I M M 2
;
_chemical_formula_sum "Si O2"
_cell_formula_units_Z 48
_cell_length_a 31.449761
_cell_length_b 8.867115
_cell_length_c 9.093880
_cell_angle_alpha 90.000000
_cell_angle_beta 90.000000
_cell_angle_gamma 90.000000
_cell_volume 2535.998016
_symmetry_space_group_name_H-M "I M M 2"
_symmetry_group_IT_number 44
_symmetry_cell_setting 'orthorhombic'
loop_
_space_group_symop_operation_xyz
x,y,z
-x,-y,z
-x,y,z
x,-y,z
1/2+x,1/2+y,1/2+z
1/2-x,1/2-y,1/2+z
1/2-x,1/2+y,1/2+z
1/2+x,1/2-y,1/2+z
loop_
_atom_site_type_symbol
_atom_site_label
_atom_site_fract_x
_atom_site_fract_y
_atom_site_fract_z
Si Si1 0.546415 0.168552 0.185880
Si Si2 0.868909 0.176865 0.677530
Si Si3 0.135318 0.679485 0.363242
Si Si4 0.544878 0.831523 0.836652
Si Si5 0.294506 0.174720 0.341859
Si Si6 0.217344 0.674949 0.182528
O O1 0.500000 0.226379 0.242819
O O2 0.584363 0.277399 0.237706
O O3 0.554863 0.000000 0.247156
O O4 0.545907 0.163442 0.011429
O O5 0.856224 0.252042 0.523138
O O6 0.835348 0.228119 0.799099
O O7 0.866951 0.000000 0.655694
O O8 0.131646 0.500000 0.382273
O O9 0.090404 0.742734 0.291997
O O10 0.172972 0.726413 0.254959
O O11 0.500000 0.749249 0.786783
O O12 0.542968 0.000000 0.771974
O O13 0.254251 0.222353 0.246343
O O14 0.284582 0.207146 0.510721
O O15 0.304350 0.000000 0.312686
O O16 0.226860 0.500000 0.216878
#
# Coordination Sequence:
#
# PCOD8190130 Si02
#       6
#     8   8   8   8   8   8
#     4   8  14  27  48  73 102 137 175 213 254 298
#     4  11  21  32  50  78 109 139 174 212 253 304
#     4   9  17  32  53  76 105 138 171 212 259 304
#     4   7  10  19  40  70  99 128 163 200 239 284
#     4  11  23  38  55  74 100 133 169 211 260 314
#     4  10  22  38  56  78 101 129 170 216 261 311
#
# _framework density 18.927461999999998
#
# number of rings (size 3 to 8) (size 9 to 14) (size 15 to 20)
#    0.000    2.667    0.000    5.000    0.000    5.000 
#    0.000    0.000    0.000    1.000    0.000    4.667 
#    0.000    2.667    0.000    0.000    0.000    0.000 
#
# Total GULP energy -297353.458538 kJ/mol
# GULP energy per Si atom -12389.727439 kJ/mol
# Density = 1.888438 g / cm^3
# Si number density = 18.927462 Si / 1000 Ang^3
#
#
#
# Elastic Constant Matrix: (Units=GPa)
#
#
# Indices 1 2 3 4 5 6 
#
# 1 162.6715 42.8459 39.9370 0.0000 0.0000 0.0000
# 2 42.8459 59.8585 24.7379 0.0000 0.0000 0.0000
# 3 39.9370 24.7379 54.4101 0.0000 0.0000 0.0000
# 4 0.0000 0.0000 0.0000 17.7936 0.0000 0.0000
# 5 0.0000 0.0000 0.0000 0.0000 21.6192 0.0000
# 6 0.0000 0.0000 0.0000 0.0000 0.0000 30.0766
#
#
#
# Elastic Compliance Matrix: (Units=1/GPa)
#
#
# Indices 1 2 3 4 5 6 
#
# 1 0.008277 -0.004204 -0.004164 0.000000 0.000000 0.000000
# 2 -0.004204 0.022706 -0.007238 0.000000 0.000000 0.000000
# 3 -0.004164 -0.007238 0.024726 0.000000 0.000000 0.000000
# 4 0.000000 0.000000 0.000000 0.056200 0.000000 0.000000
# 5 0.000000 0.000000 0.000000 0.000000 0.046255 0.000000
# 6 0.000000 0.000000 0.000000 0.000000 0.000000 0.033248
#
#
# Mechanical properties :
#
#
# Convention : Reuss Voigt Hill
#
# Bulk Modulus (GPa) = 40.81991 54.66463 47.74227
# Shear Modulus (GPa) = 21.66469 25.19250 23.42860
#
# Velocity S-wave (km/s) = 3.38689 3.65225 3.52207
# Velocity P-wave (km/s) = 6.07520 6.83586 6.46672
#
# Compressibility (1/GPa) = 0.02449785
#
# Stress axis : x y z
#
# Youngs Moduli (GPa) = 120.81932 44.04068 40.44294
#
# Poissons Ratio (x) = 0.18513 0.16840
# Poissons Ratio (y) = 0.50787 0.29273
# Poissons Ratio (z) = 0.50309 0.31877
#
# Static dielectric constant tensor:
#      x y z
#    x 4.406100 0.000000 0.000000 
#    y 0.000000 3.236510 0.000000 
#    z 0.000000 0.000000 3.057320 
# 
# 
# High freq. dielectric constant tensor:
#      x y z
#    x 1.769550 0.000000 0.000000 
#    y 0.000000 1.705680 0.000000 
#    z 0.000000 0.000000 1.690100 
# 
# From -- ./inp_files/4932.got.cif
#   From: 2010.03.12/outbox.cif.g09.slc.cpg/sg44_3_cif.got.tgz:4932.got - 2010.04.14 02:36:11.
