data_PCOD8190333
_publ_section_title
;
Structure prediction by ZEFSAII (Michael W. Deem and Ramdas Pophale) SiO2 
 PCOD8190333
Probable space group: I M M 2
;
_chemical_formula_sum "Si O2"
_cell_formula_units_Z 48
_cell_length_a 23.869119
_cell_length_b 9.517693
_cell_length_c 13.623297
_cell_angle_alpha 90.000000
_cell_angle_beta 90.000000
_cell_angle_gamma 90.000000
_cell_volume 3094.926265
_symmetry_space_group_name_H-M "I M M 2"
_symmetry_group_IT_number 44
_symmetry_cell_setting 'orthorhombic'
loop_
_space_group_symop_operation_xyz
x,y,z
-x,-y,z
-x,y,z
x,-y,z
1/2+x,1/2+y,1/2+z
1/2-x,1/2-y,1/2+z
1/2-x,1/2+y,1/2+z
1/2+x,1/2-y,1/2+z
loop_
_atom_site_type_symbol
_atom_site_label
_atom_site_fract_x
_atom_site_fract_y
_atom_site_fract_z
Si Si1 0.561263 0.332725 0.231560
Si Si2 0.225357 0.336975 0.224749
Si Si3 0.832060 0.833093 0.840519
Si Si4 0.339382 0.838162 0.920415
Si Si5 0.272609 0.665555 0.532545
Si Si6 0.064162 0.836380 0.509396
O O1 0.500000 0.276637 0.264632
O O2 0.561225 0.500000 0.233730
O O3 0.608030 0.271385 0.305690
O O4 0.574188 0.283888 0.120767
O O5 0.228764 0.500000 0.194982
O O6 0.284761 0.280501 0.265011
O O7 0.178696 0.312965 0.308046
O O8 0.210014 0.247064 0.129889
O O9 0.831369 0.000000 0.837465
O O10 0.817852 0.784957 0.950797
O O11 0.394597 0.747293 0.938352
O O12 0.354470 0.000000 0.937765
O O13 0.289345 0.793617 0.994183
O O14 0.276523 0.500000 0.551969
O O15 0.000000 0.806958 0.478085
O O16 0.078312 0.000000 0.499596
#
# Coordination Sequence:
#
# PCOD8190333 Si02
#       6
#     8   8   8   8   8   8
#     4   8  13  22  39  63  86 107 134 167 204 249
#     4   9  17  29  44  61  83 113 145 172 205 253
#     4   8  14  25  40  58  83 112 136 164 205 248
#     4   9  18  30  43  62  87 114 144 175 211 260
#     4   9  17  28  42  62  86 110 140 177 212 247
#     4   9  17  28  44  67  89 109 139 177 213 252
#
# _framework density 15.509255
#
# number of rings (size 3 to 8) (size 9 to 14) (size 15 to 20)
#    0.000    3.333    0.000    4.000    0.000    3.000 
#    0.000    2.500    0.000    2.000    0.000    2.333 
#    0.000    0.000    0.000    0.000    0.000    0.000 
#
# Total GULP energy -297466.033183 kJ/mol
# GULP energy per Si atom -12394.418049 kJ/mol
# Density = 1.547396 g / cm^3
# Si number density = 15.509255 Si / 1000 Ang^3
#
#
#
# Elastic Constant Matrix: (Units=GPa)
#
#
# Indices 1 2 3 4 5 6 
#
# 1 118.9138 39.0679 60.9257 0.0000 0.0000 0.0000
# 2 39.0679 40.7408 40.2311 0.0000 0.0000 0.0000
# 3 60.9257 40.2311 105.9964 0.0000 0.0000 0.0000
# 4 0.0000 0.0000 0.0000 26.9053 0.0000 0.0000
# 5 0.0000 0.0000 0.0000 0.0000 24.8907 0.0000
# 6 0.0000 0.0000 0.0000 0.0000 0.0000 21.3504
#
#
#
# Elastic Compliance Matrix: (Units=1/GPa)
#
#
# Indices 1 2 3 4 5 6 
#
# 1 0.013529 -0.008468 -0.004562 0.000000 0.000000 0.000000
# 2 -0.008468 0.044561 -0.012046 0.000000 0.000000 0.000000
# 3 -0.004562 -0.012046 0.016629 0.000000 0.000000 0.000000
# 4 0.000000 0.000000 0.000000 0.037167 0.000000 0.000000
# 5 0.000000 0.000000 0.000000 0.000000 0.040176 0.000000
# 6 0.000000 0.000000 0.000000 0.000000 0.000000 0.046837
#
#
# Mechanical properties :
#
#
# Convention : Reuss Voigt Hill
#
# Bulk Modulus (GPa) = 40.70647 60.67785 50.69216
# Shear Modulus (GPa) = 19.43706 22.99104 21.21405
#
# Velocity S-wave (km/s) = 3.54398 3.85438 3.70243
# Velocity P-wave (km/s) = 6.56124 7.68225 7.14377
#
# Compressibility (1/GPa) = 0.02456612
#
# Stress axis : x y z
#
# Youngs Moduli (GPa) = 73.91461 22.44113 60.13765
#
# Poissons Ratio (x) = 0.19004 0.27436
# Poissons Ratio (y) = 0.62594 0.72440
# Poissons Ratio (z) = 0.33721 0.27032
#
# Static dielectric constant tensor:
#      x y z
#    x 3.148270 0.000000 0.000000 
#    y 0.000000 2.601460 0.000000 
#    z 0.000000 0.000000 2.900640 
# 
# 
# High freq. dielectric constant tensor:
#      x y z
#    x 1.591180 0.000000 0.000000 
#    y 0.000000 1.562860 0.000000 
#    z 0.000000 0.000000 1.586620 
# 
# From -- ./inp_files/11139.got.cif
#   From: 2010.03.12/outbox.cif.g09.slc.cpg/sg44_6_cif.got.tgz:11139.got - 2010.04.14 02:36:11.
