data_PCOD8190450
_publ_section_title
;
Structure prediction by ZEFSAII (Michael W. Deem and Ramdas Pophale) SiO2 
 PCOD8190450
Probable space group: I B A 2
;
_chemical_formula_sum "Si O2"
_cell_formula_units_Z 56
_cell_length_a 12.818680
_cell_length_b 14.477062
_cell_length_c 13.786536
_cell_angle_alpha 90.000000
_cell_angle_beta 90.000000
_cell_angle_gamma 90.000000
_cell_volume 2558.461580
_symmetry_space_group_name_H-M "I B A 2"
_symmetry_group_IT_number 45
_symmetry_cell_setting 'orthorhombic'
loop_
_space_group_symop_operation_xyz
x,y,z
-x,-y,z
-x,y,1/2+z
x,-y,1/2+z
1/2+x,1/2+y,1/2+z
1/2-x,1/2-y,1/2+z
1/2-x,1/2+y,z
1/2+x,1/2-y,z
loop_
_atom_site_type_symbol
_atom_site_label
_atom_site_fract_x
_atom_site_fract_y
_atom_site_fract_z
Si Si1 0.635640 0.143588 0.094310
Si Si2 0.710636 0.681141 0.263496
Si Si3 0.115482 0.998859 0.857164
Si Si4 0.280488 0.235776 0.964844
Si Si5 0.736599 0.971206 0.021996
Si Si6 0.413259 0.575710 0.163363
Si Si7 0.550577 0.258667 0.608168
O O1 0.693737 0.145996 0.198027
O O2 0.511470 0.161377 0.105760
O O3 0.643906 0.040544 0.050110
O O4 0.683081 0.220683 0.021513
O O5 0.643250 0.596791 0.306413
O O6 0.759018 0.744784 0.349666
O O7 0.632183 0.742000 0.197306
O O8 0.114745 0.917402 0.777327
O O9 0.000000 0.000000 0.904768
O O10 0.197863 0.974456 0.939626
O O11 0.301318 0.127354 0.985481
O O12 0.387675 0.281108 0.007149
O O13 0.807588 0.955905 0.114691
O O14 0.500000 0.500000 0.145565
O O15 0.455235 0.670747 0.121274
#
# Coordination Sequence:
#
# PCOD8190450 Si02
#       7
#     8   8   8   8   8   8   8
#     4  11  23  41  64  95 131 182 220 277 339 400
#     4  10  21  41  63  94 136 169 221 284 331 406
#     4  10  19  34  64 102 125 168 225 284 347 385
#     4  10  24  42  61  96 135 173 228 274 337 405
#     4  11  22  39  62  92 138 175 218 281 336 401
#     4  11  18  37  65  95 126 161 224 284 336 378
#     4  11  22  40  67  95 132 176 222 272 339 405
#
# _framework density 21.888154
#
# number of rings (size 3 to 8) (size 9 to 14) (size 15 to 20)
#    0.000    1.429    5.714    1.286    0.000    2.857 
#    0.000    0.000    0.000    1.714    0.000    0.000 
#    0.000    0.000    0.000    0.000    0.000    0.000 
#
# Total GULP energy -347047.843241 kJ/mol
# GULP energy per Si atom -12394.565830 kJ/mol
# Density = 2.183834 g / cm^3
# Si number density = 21.888154 Si / 1000 Ang^3
#
#
#
# Elastic Constant Matrix: (Units=GPa)
#
#
# Indices 1 2 3 4 5 6 
#
# 1 71.0096 14.1805 21.2227 0.0000 0.0000 0.0000
# 2 14.1805 66.6363 24.4439 0.0000 0.0000 0.0000
# 3 21.2227 24.4439 94.4395 0.0000 0.0000 0.0000
# 4 0.0000 0.0000 0.0000 31.7309 0.0000 0.0000
# 5 0.0000 0.0000 0.0000 0.0000 26.0454 0.0000
# 6 0.0000 0.0000 0.0000 0.0000 0.0000 39.4308
#
#
#
# Elastic Compliance Matrix: (Units=1/GPa)
#
#
# Indices 1 2 3 4 5 6 
#
# 1 0.015387 -0.002216 -0.002884 0.000000 0.000000 0.000000
# 2 -0.002216 0.016900 -0.003876 0.000000 0.000000 0.000000
# 3 -0.002884 -0.003876 0.012240 0.000000 0.000000 0.000000
# 4 0.000000 0.000000 0.000000 0.031515 0.000000 0.000000
# 5 0.000000 0.000000 0.000000 0.000000 0.038394 0.000000
# 6 0.000000 0.000000 0.000000 0.000000 0.000000 0.025361
#
#
# Mechanical properties :
#
#
# Convention : Reuss Voigt Hill
#
# Bulk Modulus (GPa) = 37.63070 39.08664 38.35867
# Shear Modulus (GPa) = 30.01018 30.92397 30.46708
#
# Velocity S-wave (km/s) = 3.70681 3.76282 3.73492
# Velocity P-wave (km/s) = 5.96240 6.06421 6.01352
#
# Compressibility (1/GPa) = 0.02657405
#
# Stress axis : x y z
#
# Youngs Moduli (GPa) = 64.98896 59.17011 81.69782
#
# Poissons Ratio (x) = 0.13115 0.23563
# Poissons Ratio (y) = 0.14405 0.31668
# Poissons Ratio (z) = 0.18744 0.22936
#
# Static dielectric constant tensor:
#      x y z
#    x 3.845800 0.000000 0.000000 
#    y 0.000000 3.952820 0.000000 
#    z 0.000000 0.000000 4.286420 
# 
# 
# High freq. dielectric constant tensor:
#      x y z
#    x 1.849690 0.000000 0.000000 
#    y 0.000000 1.849710 0.000000 
#    z 0.000000 0.000000 1.866340 
# 
# From -- ./inp_files/6152.got.cif
#   From: 2010.03.12/outbox.cif.g09.slc.cpg/sg45_4_cif.got.tgz:6152.got - 2010.04.14 02:50:11.
