data_PCOD8190356
_publ_section_title
;
Structure prediction by ZEFSAII (Michael W. Deem and Ramdas Pophale) SiO2 
 PCOD8190356
Probable space group: I B A 2
;
_chemical_formula_sum "Si O2"
_cell_formula_units_Z 48
_cell_length_a 31.914758
_cell_length_b 9.154360
_cell_length_c 8.420211
_cell_angle_alpha 90.000000
_cell_angle_beta 90.000000
_cell_angle_gamma 90.000000
_cell_volume 2460.041975
_symmetry_space_group_name_H-M "I B A 2"
_symmetry_group_IT_number 45
_symmetry_cell_setting 'orthorhombic'
loop_
_space_group_symop_operation_xyz
x,y,z
-x,-y,z
-x,y,1/2+z
x,-y,1/2+z
1/2+x,1/2+y,1/2+z
1/2-x,1/2-y,1/2+z
1/2-x,1/2+y,z
1/2+x,1/2-y,z
loop_
_atom_site_type_symbol
_atom_site_label
_atom_site_fract_x
_atom_site_fract_y
_atom_site_fract_z
Si Si1 0.371488 0.359964 0.672400
Si Si2 0.288475 0.306277 0.190334
Si Si3 0.286420 0.624536 0.322392
Si Si4 0.625665 0.683761 0.299490
Si Si5 0.959240 0.171975 0.186038
Si Si6 0.044126 0.156225 0.311508
O O1 0.328698 0.301658 0.752192
O O2 0.369631 0.335631 0.485904
O O3 0.375092 0.531239 0.705117
O O4 0.412224 0.276707 0.744713
O O5 0.285022 0.450880 0.298051
O O6 0.252944 0.192234 0.233282
O O7 0.333705 0.231001 0.230401
O O8 0.284328 0.346775 0.007843
O O9 0.581095 0.761114 0.256073
O O10 0.003787 0.242739 0.239280
O O11 0.958152 0.011823 0.261849
O O12 0.956466 0.167666 0.998800
#
# Coordination Sequence:
#
# PCOD8190356 Si02
#       6
#     8   8   8   8   8   8
#     4  10  17  27  41  60  85 117 152 190 233 282
#     4  11  21  35  52  73  98 129 164 203 245 291
#     4  11  21  35  52  73  98 129 164 203 245 291
#     4  10  17  27  41  60  85 117 152 190 233 282
#     4  10  16  23  34  52  78 111 147 185 226 276
#     4  10  16  23  34  52  78 111 147 185 226 276
#
# _framework density 19.511863000000002
#
# number of rings (size 3 to 8) (size 9 to 14) (size 15 to 20)
#    0.000    1.667    0.000   14.000    0.000    0.000 
#    0.000    0.000    0.000    0.000    0.000    0.000 
#    0.000    1.333    0.000   13.333    0.000   13.000 
#
# Total GULP energy -297429.878031 kJ/mol
# GULP energy per Si atom -12392.911585 kJ/mol
# Density = 1.946745 g / cm^3
# Si number density = 19.511863 Si / 1000 Ang^3
#
#
#
# Elastic Constant Matrix: (Units=GPa)
#
#
# Indices 1 2 3 4 5 6 
#
# 1 203.5978 13.4596 21.5873 0.0000 0.0000 0.0000
# 2 13.4596 9.6929 -4.1547 0.0000 0.0000 0.0000
# 3 21.5873 -4.1547 112.7715 0.0000 0.0000 0.0000
# 4 0.0000 0.0000 0.0000 13.1136 0.0000 0.0000
# 5 0.0000 0.0000 0.0000 0.0000 42.8732 0.0000
# 6 0.0000 0.0000 0.0000 0.0000 0.0000 17.1710
#
#
#
# Elastic Compliance Matrix: (Units=1/GPa)
#
#
# Indices 1 2 3 4 5 6 
#
# 1 0.005613 -0.008387 -0.001383 0.000000 0.000000 0.000000
# 2 -0.008387 0.117355 0.005929 0.000000 0.000000 0.000000
# 3 -0.001383 0.005929 0.009351 0.000000 0.000000 0.000000
# 4 0.000000 0.000000 0.000000 0.076257 0.000000 0.000000
# 5 0.000000 0.000000 0.000000 0.000000 0.023325 0.000000
# 6 0.000000 0.000000 0.000000 0.000000 0.000000 0.058238
#
#
# Mechanical properties :
#
#
# Convention : Reuss Voigt Hill
#
# Bulk Modulus (GPa) = 8.02334 43.09407 25.55871
# Shear Modulus (GPa) = 14.73337 34.30957 24.52147
#
# Velocity S-wave (km/s) = 2.75089 4.19787 3.54891
# Velocity P-wave (km/s) = 3.76972 6.75501 5.46996
#
# Compressibility (1/GPa) = 0.12463637
#
# Stress axis : x y z
#
# Youngs Moduli (GPa) = 178.16518 8.52113 106.94334
#
# Poissons Ratio (x) = 0.07147 0.14795
# Poissons Ratio (y) = 1.49424 -0.63407
# Poissons Ratio (z) = 0.24648 -0.05052
#
# Static dielectric constant tensor:
#      x y z
#    x 6.449570 0.000000 0.000000 
#    y 0.000000 2.999040 0.000000 
#    z 0.000000 0.000000 3.635310 
# 
# 
# High freq. dielectric constant tensor:
#      x y z
#    x 1.808390 0.000000 0.000000 
#    y 0.000000 1.645120 0.000000 
#    z 0.000000 0.000000 1.786750 
# 
# From -- ./inp_files/1466.got.cif
#   From: 2010.03.12/outbox.cif.g09.slc.cpg/sg45_1_cif.got.tgz:1466.got - 2010.04.14 02:50:11.
