data_PCOD8190173
_publ_section_title
;
Structure prediction by ZEFSAII (Michael W. Deem and Ramdas Pophale) SiO2 
 PCOD8190173
Probable space group: I M M 2
;
_chemical_formula_sum "Si O2"
_cell_formula_units_Z 64
_cell_length_a 24.842881
_cell_length_b 8.869330
_cell_length_c 15.044375
_cell_angle_alpha 90.000000
_cell_angle_beta 90.000000
_cell_angle_gamma 90.000000
_cell_volume 3314.873221
_symmetry_space_group_name_H-M "I M M 2"
_symmetry_group_IT_number 44
_symmetry_cell_setting 'orthorhombic'
loop_
_space_group_symop_operation_xyz
x,y,z
-x,-y,z
-x,y,z
x,-y,z
1/2+x,1/2+y,1/2+z
1/2-x,1/2-y,1/2+z
1/2-x,1/2+y,1/2+z
1/2+x,1/2-y,1/2+z
loop_
_atom_site_type_symbol
_atom_site_label
_atom_site_fract_x
_atom_site_fract_y
_atom_site_fract_z
Si Si1 0.835852 0.173406 0.562190
Si Si2 0.761493 0.823188 0.830935
Si Si3 0.141922 0.677470 0.735714
Si Si4 0.600733 0.826521 0.553233
Si Si5 0.439034 0.672407 0.726502
Si Si6 0.781223 0.328540 0.011259
Si Si7 0.348166 0.676416 0.861093
Si Si8 0.062660 0.175416 0.873989
O O1 0.867826 0.275058 0.633199
O O2 0.771340 0.201038 0.571205
O O3 0.855137 0.223449 0.464003
O O4 0.850456 0.000000 0.580669
O O5 0.800355 0.745204 0.760462
O O6 0.701076 0.764750 0.816244
O O7 0.763302 0.000000 0.814519
O O8 0.782890 0.785204 0.928991
O O9 0.142955 0.500000 0.745739
O O10 0.094525 0.739124 0.797176
O O11 0.570853 0.775683 0.641639
O O12 0.664789 0.802452 0.568122
O O13 0.579765 0.731179 0.470711
O O14 0.586873 0.000000 0.534479
O O15 0.500000 0.693795 0.759047
O O16 0.427175 0.500000 0.699120
O O17 0.401950 0.722136 0.808855
O O18 0.779024 0.500000 0.973465
O O19 0.335058 0.500000 0.855118
O O20 0.000000 0.207400 0.858904
O O21 0.076658 0.000000 0.867483
#
# Coordination Sequence:
#
# PCOD8190173 Si02
#       8
#     8   8   8   8   8   8   8   8
#     4   9  19  37  59  84 119 155 194 244 295 348
#     4  11  21  34  57  86 117 152 193 239 292 350
#     4  12  24  38  58  87 122 157 197 240 293 356
#     4  11  22  36  58  89 123 159 196 239 295 352
#     4  10  22  40  61  86 117 156 203 249 294 350
#     4   9  19  36  56  83 120 157 193 234 286 349
#     4   9  20  40  62  85 117 155 198 249 300 350
#     4  11  24  42  63  87 117 156 202 247 293 350
#
# _framework density 19.306923999999999
#
# number of rings (size 3 to 8) (size 9 to 14) (size 15 to 20)
#    0.000    1.750    1.250    4.125    1.750    5.750 
#    0.000    0.625    0.000    2.250    0.000    0.000 
#    0.000    0.000    0.000    0.000    0.000    0.000 
#
# Total GULP energy -396888.202793 kJ/mol
# GULP energy per Si atom -12402.756337 kJ/mol
# Density = 1.926298 g / cm^3
# Si number density = 19.306924 Si / 1000 Ang^3
#
#
#
# Elastic Constant Matrix: (Units=GPa)
#
#
# Indices 1 2 3 4 5 6 
#
# 1 113.2865 55.1003 64.1933 0.0000 0.0000 0.0000
# 2 55.1003 110.8092 53.6334 0.0000 0.0000 0.0000
# 3 64.1933 53.6334 113.4480 0.0000 0.0000 0.0000
# 4 0.0000 0.0000 0.0000 26.1407 0.0000 0.0000
# 5 0.0000 0.0000 0.0000 0.0000 29.3257 0.0000
# 6 0.0000 0.0000 0.0000 0.0000 0.0000 27.7839
#
#
#
# Elastic Compliance Matrix: (Units=1/GPa)
#
#
# Indices 1 2 3 4 5 6 
#
# 1 0.014328 -0.004150 -0.006145 0.000000 0.000000 0.000000
# 2 -0.004150 0.012904 -0.003752 0.000000 0.000000 0.000000
# 3 -0.006145 -0.003752 0.014066 0.000000 0.000000 0.000000
# 4 0.000000 0.000000 0.000000 0.038255 0.000000 0.000000
# 5 0.000000 0.000000 0.000000 0.000000 0.034100 0.000000
# 6 0.000000 0.000000 0.000000 0.000000 0.000000 0.035992
#
#
# Mechanical properties :
#
#
# Convention : Reuss Voigt Hill
#
# Bulk Modulus (GPa) = 75.74291 75.93308 75.83800
# Shear Modulus (GPa) = 27.45126 27.62449 27.53788
#
# Velocity S-wave (km/s) = 3.77481 3.78671 3.78076
# Velocity P-wave (km/s) = 7.63643 7.65073 7.64358
#
# Compressibility (1/GPa) = 0.01320256
#
# Stress axis : x y z
#
# Youngs Moduli (GPa) = 69.79369 77.49284 71.09456
#
# Poissons Ratio (x) = 0.32161 0.43689
# Poissons Ratio (y) = 0.28966 0.26677
# Poissons Ratio (z) = 0.42890 0.29078
#
# Static dielectric constant tensor:
#      x y z
#    x 3.611760 0.000000 0.000000 
#    y 0.000000 3.517980 0.000000 
#    z 0.000000 0.000000 3.511930 
# 
# 
# High freq. dielectric constant tensor:
#      x y z
#    x 1.748580 0.000000 0.000000 
#    y 0.000000 1.751850 0.000000 
#    z 0.000000 0.000000 1.747350 
# 
# From -- ./inp_files/19459.got.cif
#   From: 2010.03.12/outbox.cif.g09.slc.cpg/sg44_10_cif.got.tgz:19459.got - 2010.04.14 02:36:11.
