data_PCOD8190293
_publ_section_title
;
Structure prediction by ZEFSAII (Michael W. Deem and Ramdas Pophale) SiO2 
 PCOD8190293
Probable space group: I M M 2
;
_chemical_formula_sum "Si O2"
_cell_formula_units_Z 48
_cell_length_a 27.894827
_cell_length_b 10.024133
_cell_length_c 8.553032
_cell_angle_alpha 90.000000
_cell_angle_beta 90.000000
_cell_angle_gamma 90.000000
_cell_volume 2391.611260
_symmetry_space_group_name_H-M "I M M 2"
_symmetry_group_IT_number 44
_symmetry_cell_setting 'orthorhombic'
loop_
_space_group_symop_operation_xyz
x,y,z
-x,-y,z
-x,y,z
x,-y,z
1/2+x,1/2+y,1/2+z
1/2-x,1/2-y,1/2+z
1/2-x,1/2+y,1/2+z
1/2+x,1/2-y,1/2+z
loop_
_atom_site_type_symbol
_atom_site_label
_atom_site_fract_x
_atom_site_fract_y
_atom_site_fract_z
Si Si1 0.557844 0.500000 0.519670
Si Si2 0.111386 0.249689 0.160110
Si Si3 0.203789 0.345940 0.989476
Si Si4 0.944165 0.000000 0.662807
Si Si5 0.445700 0.000000 0.039096
Si Si6 0.552675 0.000000 0.667858
Si Si7 0.204031 0.847307 0.704295
Si Si8 0.390650 0.739763 0.028099
O O1 0.500000 0.500000 0.538899
O O2 0.581490 0.623961 0.605140
O O3 0.575580 0.500000 0.340063
O O4 0.079732 0.372498 0.103401
O O5 0.119834 0.247642 0.344879
O O6 0.162773 0.265445 0.080652
O O7 0.189302 0.500000 0.948453
O O8 0.215820 0.257078 0.839668
O O9 0.251066 0.348916 0.091576
O O10 0.928640 0.126261 0.563513
O O11 0.000000 0.000000 0.673974
O O12 0.449874 0.000000 0.853749
O O13 0.415003 0.126600 0.095690
O O14 0.500000 0.000000 0.110023
O O15 0.500000 0.000000 0.593954
O O16 0.158513 0.790429 0.614026
O O17 0.194190 0.000000 0.763295
#
# Coordination Sequence:
#
# PCOD8190293 Si02
#       8
#     4   8   8   4   4   4   8   8
#     4  11  25  41  62  93 132 175 219 266 322 385
#     4  11  22  40  65  95 128 169 216 266 323 380
#     4  11  25  45  68  97 131 168 214 263 322 387
#     4  11  23  41  60  89 132 171 217 268 322 383
#     4   9  20  36  60  93 126 165 213 262 310 367
#     4   9  18  36  60  89 126 161 209 264 312 367
#     4  11  25  45  67  96 131 168 213 265 322 383
#     4  11  22  40  65  94 128 171 214 268 322 379
#
# _framework density 20.070153000000001
#
# number of rings (size 3 to 8) (size 9 to 14) (size 15 to 20)
#    0.000    1.333    1.667    3.500    2.333    3.333 
#    0.000    0.000    0.000    4.000    0.000    0.000 
#    0.000    0.000    0.000    0.000    0.000    0.000 
#
# Total GULP energy -297578.393509 kJ/mol
# GULP energy per Si atom -12399.099730 kJ/mol
# Density = 2.002447 g / cm^3
# Si number density = 20.070153 Si / 1000 Ang^3
#
#
#
# Elastic Constant Matrix: (Units=GPa)
#
#
# Indices 1 2 3 4 5 6 
#
# 1 105.0870 55.3550 20.5059 0.0000 0.0000 0.0000
# 2 55.3550 181.9242 45.6742 0.0000 0.0000 0.0000
# 3 20.5059 45.6742 70.4074 0.0000 0.0000 0.0000
# 4 0.0000 0.0000 0.0000 36.7561 0.0000 0.0000
# 5 0.0000 0.0000 0.0000 0.0000 30.1420 0.0000
# 6 0.0000 0.0000 0.0000 0.0000 0.0000 -9.1591
#
#
#
# Elastic Compliance Matrix: (Units=1/GPa)
#
#
# Indices 1 2 3 4 5 6 
#
# 1 0.011428 -0.003156 -0.001281 0.000000 0.000000 0.000000
# 2 -0.003156 0.007438 -0.003906 0.000000 0.000000 0.000000
# 3 -0.001281 -0.003906 0.017110 0.000000 0.000000 0.000000
# 4 0.000000 0.000000 0.000000 0.027206 0.000000 0.000000
# 5 0.000000 0.000000 0.000000 0.000000 0.033176 0.000000
# 6 0.000000 0.000000 0.000000 0.000000 0.000000 -0.109181
#
#
# Mechanical properties :
#
#
# Convention : Reuss Voigt Hill
#
# Bulk Modulus (GPa) = 51.83963 66.72097 59.28030
# Shear Modulus (GPa) = 485.77731 27.27336 256.52534
#
# Velocity S-wave (km/s) = 15.57450 3.69033 11.31777
# Velocity P-wave (km/s) = 18.68971 7.17454 14.15591
#
# Compressibility (1/GPa) = 0.01929026
#
# Stress axis : x y z
#
# Youngs Moduli (GPa) = 87.50297 134.45266 58.44550
#
# Poissons Ratio (x) = 0.42428 0.07489
# Poissons Ratio (y) = 0.27613 0.22828
# Poissons Ratio (z) = 0.11212 0.52514
#
# Static dielectric constant tensor:
#      x y z
#    x 3.816740 0.000000 0.000000 
#    y 0.000000 3.942870 0.000000 
#    z 0.000000 0.000000 3.598600 
# 
# 
# High freq. dielectric constant tensor:
#      x y z
#    x 1.803380 0.000000 0.000000 
#    y 0.000000 1.802990 0.000000 
#    z 0.000000 0.000000 1.774070 
# 
# From -- ./inp_files/10032.got.cif
#   From: 2010.03.12/outbox.cif.g09.slc.cpg/sg44_6_cif.got.tgz:10032.got - 2010.04.14 02:36:11.
