data_PCOD8190245
_publ_section_title
;
Structure prediction by ZEFSAII (Michael W. Deem and Ramdas Pophale) SiO2 
 PCOD8190245
Probable space group: I M M 2
;
_chemical_formula_sum "Si O2"
_cell_formula_units_Z 64
_cell_length_a 8.571338
_cell_length_b 30.226947
_cell_length_c 14.333670
_cell_angle_alpha 90.000000
_cell_angle_beta 90.000000
_cell_angle_gamma 90.000000
_cell_volume 3713.644331
_symmetry_space_group_name_H-M "I M M 2"
_symmetry_group_IT_number 44
_symmetry_cell_setting 'orthorhombic'
loop_
_space_group_symop_operation_xyz
x,y,z
-x,-y,z
-x,y,z
x,-y,z
1/2+x,1/2+y,1/2+z
1/2-x,1/2-y,1/2+z
1/2-x,1/2+y,1/2+z
1/2+x,1/2-y,1/2+z
loop_
_atom_site_type_symbol
_atom_site_label
_atom_site_fract_x
_atom_site_fract_y
_atom_site_fract_z
Si Si1 0.175135 0.324641 0.458950
Si Si2 0.318919 0.780200 0.674915
Si Si3 0.814882 0.951665 0.841738
Si Si4 0.324410 0.276580 0.973676
Si Si5 0.680700 0.640176 0.280448
Si Si6 0.314943 0.451740 0.551123
Si Si7 0.316312 0.802042 0.285967
Si Si8 0.315297 0.637476 0.638377
O O1 0.172108 0.273092 0.435983
O O2 0.294773 0.347688 0.388653
O O3 0.238057 0.330231 0.563001
O O4 0.000000 0.344115 0.448686
O O5 0.500000 0.769309 0.686538
O O6 0.275619 0.780934 0.566844
O O7 0.284843 0.829140 0.714685
O O8 0.225974 0.743050 0.731752
O O9 0.764890 0.911579 0.772408
O O10 0.000000 0.951515 0.848667
O O11 0.756926 0.000000 0.804528
O O12 0.748685 0.943643 0.946534
O O13 0.500000 0.293720 0.992843
O O14 0.245530 0.304524 0.891431
O O15 0.500000 0.646512 0.253903
O O16 0.500000 0.451024 0.547557
O O17 0.257247 0.500000 0.587650
O O18 0.256364 0.412854 0.619944
O O19 0.500000 0.806330 0.286316
O O20 0.242940 0.845476 0.237955
O O21 0.500000 0.641525 0.631552
#
# Coordination Sequence:
#
# PCOD8190245 Si02
#       8
#     8   8   8   8   8   8   8   8
#     4  11  21  31  48  72 104 138 172 214 254 299
#     4  12  24  37  53  75 103 137 173 213 255 304
#     4   8  14  26  46  74 104 133 169 211 251 296
#     4  11  23  39  55  74 100 135 175 218 255 299
#     4  11  20  32  52  76 102 138 177 212 252 302
#     4   8  14  26  46  74 104 133 169 211 251 296
#     4  12  24  37  53  75 103 137 173 213 255 304
#     4  11  20  32  52  76 102 138 177 212 252 302
#
# _framework density 17.233744999999999
#
# number of rings (size 3 to 8) (size 9 to 14) (size 15 to 20)
#    0.000    1.500    3.750    4.500    0.000    1.000 
#    0.000    0.000    0.000    3.750    0.000    0.875 
#    0.000    7.000    0.000    0.000    0.000    0.000 
#
# Total GULP energy -396693.435690 kJ/mol
# GULP energy per Si atom -12396.669865 kJ/mol
# Density = 1.719452 g / cm^3
# Si number density = 17.233745 Si / 1000 Ang^3
#
#
#
# Elastic Constant Matrix: (Units=GPa)
#
#
# Indices 1 2 3 4 5 6 
#
# 1 60.7477 19.3267 4.6426 0.0000 0.0001 0.0001
# 2 19.3267 101.6197 21.1030 -0.0010 0.0000 0.0000
# 3 4.6426 21.1030 57.5720 -0.0037 0.0000 0.0000
# 4 0.0000 -0.0010 -0.0037 25.0828 0.0000 0.0000
# 5 0.0001 0.0000 0.0000 0.0000 26.9827 -0.0002
# 6 0.0001 0.0000 0.0000 0.0000 -0.0002 16.0375
#
#
#
# Elastic Compliance Matrix: (Units=1/GPa)
#
#
# Indices 1 2 3 4 5 6 
#
# 1 0.017524 -0.003290 -0.000207 0.000000 0.000000 0.000000
# 2 -0.003290 0.011269 -0.003865 0.000000 0.000000 0.000000
# 3 -0.000207 -0.003865 0.018803 0.000003 0.000000 0.000000
# 4 0.000000 0.000000 0.000003 0.039868 0.000000 0.000000
# 5 0.000000 0.000000 0.000000 0.000000 0.037061 0.000001
# 6 0.000000 0.000000 0.000000 0.000000 0.000001 0.062354
#
#
# Mechanical properties :
#
#
# Convention : Reuss Voigt Hill
#
# Bulk Modulus (GPa) = 30.42169 34.45378 32.43774
# Shear Modulus (GPa) = 23.52267 25.27838 24.40053
#
# Velocity S-wave (km/s) = 3.69849 3.83403 3.76687
# Velocity P-wave (km/s) = 5.99409 6.29565 6.14672
#
# Compressibility (1/GPa) = 0.03287129
#
# Stress axis : x y z
#
# Youngs Moduli (GPa) = 57.06454 88.73908 53.18265
#
# Poissons Ratio (x) = 0.29193 0.01102
# Poissons Ratio (y) = 0.18773 0.20557
# Poissons Ratio (z) = 0.01183 0.34301
#
# Static dielectric constant tensor:
#      x y z
#    x 3.121550 0.000000 0.000000 
#    y 0.000000 3.585860 0.000000 
#    z 0.000000 0.000000 3.069450 
# 
# 
# High freq. dielectric constant tensor:
#      x y z
#    x 1.660370 0.000000 0.000000 
#    y 0.000000 1.660840 0.000000 
#    z 0.000000 0.000000 1.635870 
# 
# From -- ./inp_files/17082.got.cif
#   From: 2010.03.12/outbox.cif.g09.slc.cpg/sg44_9_cif.got.tgz:17082.got - 2010.04.14 02:36:11.
