data_PCOD8190023
_publ_section_title
;
Structure prediction by ZEFSAII (Michael W. Deem and Ramdas Pophale) SiO2 
 PCOD8190023
Probable space group: I M M 2
;
_chemical_formula_sum "Si O2"
_cell_formula_units_Z 64
_cell_length_a 8.638354
_cell_length_b 24.727590
_cell_length_c 15.040099
_cell_angle_alpha 90.000000
_cell_angle_beta 90.000000
_cell_angle_gamma 90.000000
_cell_volume 3212.650514
_symmetry_space_group_name_H-M "I M M 2"
_symmetry_group_IT_number 44
_symmetry_cell_setting 'orthorhombic'
loop_
_space_group_symop_operation_xyz
x,y,z
-x,-y,z
-x,y,z
x,-y,z
1/2+x,1/2+y,1/2+z
1/2-x,1/2-y,1/2+z
1/2-x,1/2+y,1/2+z
1/2+x,1/2-y,1/2+z
loop_
_atom_site_type_symbol
_atom_site_label
_atom_site_fract_x
_atom_site_fract_y
_atom_site_fract_z
Si Si1 0.178628 0.369770 0.962630
Si Si2 0.319393 0.887505 0.136892
Si Si3 0.179613 0.777405 0.163113
Si Si4 0.819143 0.147930 0.835389
Si Si5 0.822148 0.731789 0.847886
Si Si6 0.819428 0.938989 0.971818
Si Si7 0.179669 0.062922 0.310409
Si Si8 0.182494 0.835627 0.637917
O O1 0.206195 0.308247 0.929669
O O2 0.277683 0.411691 0.905339
O O3 0.000000 0.386474 0.956555
O O4 0.235291 0.372657 0.064171
O O5 0.500000 0.876221 0.132202
O O6 0.230485 0.831990 0.113181
O O7 0.280438 0.908782 0.234791
O O8 0.268863 0.931745 0.064732
O O9 0.212357 0.786360 0.267556
O O10 0.275333 0.727183 0.124497
O O11 0.000000 0.766340 0.145704
O O12 0.782080 0.206887 0.877560
O O13 0.746453 0.101402 0.897738
O O14 0.754220 0.145072 0.734516
O O15 0.000000 0.137295 0.830078
O O16 0.000000 0.729226 0.813850
O O17 0.000000 0.927153 0.988361
O O18 0.792442 0.000000 0.938244
O O19 0.000000 0.072863 0.289489
O O20 0.220452 0.000000 0.313802
O O21 0.000000 0.842662 0.629092
#
# Coordination Sequence:
#
# PCOD8190023 Si02
#       8
#     8   8   8   8   8   8   8   8
#     4  11  22  36  59  90 122 159 201 246 299 358
#     4  12  24  38  57  86 121 158 195 238 301 367
#     4  11  21  35  57  85 118 156 197 241 296 353
#     4   8  17  36  59  82 114 154 195 244 295 344
#     4   9  18  34  55  82 115 153 193 237 295 355
#     4  10  21  38  61  87 113 150 203 252 294 348
#     4  11  24  42  63  87 117 157 203 249 298 357
#     4  10  21  38  59  85 122 161 200 248 301 356
#
# _framework density 19.921244999999999
#
# number of rings (size 3 to 8) (size 9 to 14) (size 15 to 20)
#    0.000    1.750    1.250    4.500    1.750    3.250 
#    0.000    3.750    0.000    2.250    0.000    0.000 
#    0.000    0.000    0.000    0.000    0.000    0.000 
#
# Total GULP energy -396889.387851 kJ/mol
# GULP energy per Si atom -12402.793370 kJ/mol
# Density = 1.987590 g / cm^3
# Si number density = 19.921245 Si / 1000 Ang^3
#
#
#
# Elastic Constant Matrix: (Units=GPa)
#
#
# Indices 1 2 3 4 5 6 
#
# 1 58.7973 20.6283 16.4085 0.0000 0.0000 0.0000
# 2 20.6283 95.0367 32.8863 -0.0001 0.0000 0.0000
# 3 16.4085 32.8863 78.0927 -0.0002 0.0001 0.0000
# 4 0.0000 -0.0001 -0.0002 31.7343 0.0000 0.0000
# 5 0.0000 0.0000 0.0001 0.0000 27.8417 0.0000
# 6 0.0000 0.0000 0.0000 0.0000 0.0000 24.9276
#
#
#
# Elastic Compliance Matrix: (Units=1/GPa)
#
#
# Indices 1 2 3 4 5 6 
#
# 1 0.018857 -0.003186 -0.002620 0.000000 0.000000 0.000000
# 2 -0.003186 0.012856 -0.004744 0.000000 0.000000 0.000000
# 3 -0.002620 -0.004744 0.015354 0.000000 0.000000 0.000000
# 4 0.000000 0.000000 0.000000 0.031512 0.000000 0.000000
# 5 0.000000 0.000000 0.000000 0.000000 0.035917 0.000000
# 6 0.000000 0.000000 0.000000 0.000000 0.000000 0.040116
#
#
# Mechanical properties :
#
#
# Convention : Reuss Voigt Hill
#
# Bulk Modulus (GPa) = 38.51422 41.30809 39.91115
# Shear Modulus (GPa) = 27.11976 27.70097 27.41036
#
# Velocity S-wave (km/s) = 3.69365 3.73302 3.71339
# Velocity P-wave (km/s) = 6.12911 6.27386 6.20190
#
# Compressibility (1/GPa) = 0.02596444
#
# Stress axis : x y z
#
# Youngs Moduli (GPa) = 53.03160 77.78754 65.13070
#
# Poissons Ratio (x) = 0.24785 0.17066
# Poissons Ratio (y) = 0.16897 0.30900
# Poissons Ratio (z) = 0.13896 0.36904
#
# Static dielectric constant tensor:
#      x y z
#    x 3.456970 0.000000 0.000000 
#    y 0.000000 3.662050 0.000000 
#    z 0.000000 0.000000 3.642140 
# 
# 
# High freq. dielectric constant tensor:
#      x y z
#    x 1.765900 0.000000 0.000000 
#    y 0.000000 1.771810 0.000000 
#    z 0.000000 0.000000 1.772810 
# 
# From -- ./inp_files/16769.got.cif
#   From: 2010.03.12/outbox.cif.g09.slc.cpg/sg44_9_cif.got.tgz:16769.got - 2010.04.14 02:36:11.
