data_PCOD8190572
_publ_section_title
;
Structure prediction by ZEFSAII (Michael W. Deem and Ramdas Pophale) SiO2 
 PCOD8190572
Probable space group: I B A 2
;
_chemical_formula_sum "Si O2"
_cell_formula_units_Z 32
_cell_length_a 12.883649
_cell_length_b 13.807461
_cell_length_c 8.851980
_cell_angle_alpha 90.000000
_cell_angle_beta 90.000000
_cell_angle_gamma 90.000000
_cell_volume 1574.682981
_symmetry_space_group_name_H-M "I B A 2"
_symmetry_group_IT_number 45
_symmetry_cell_setting 'orthorhombic'
loop_
_space_group_symop_operation_xyz
x,y,z
-x,-y,z
-x,y,1/2+z
x,-y,1/2+z
1/2+x,1/2+y,1/2+z
1/2-x,1/2-y,1/2+z
1/2-x,1/2+y,z
1/2+x,1/2-y,z
loop_
_atom_site_type_symbol
_atom_site_label
_atom_site_fract_x
_atom_site_fract_y
_atom_site_fract_z
Si Si1 0.400490 0.690373 0.172820
Si Si2 0.735369 0.447496 0.999182
Si Si3 0.602736 0.624660 0.005188
Si Si4 0.199490 0.382732 0.174500
O O1 0.497511 0.638236 0.097192
O O2 0.406245 0.683965 0.352201
O O3 0.392548 0.806071 0.141108
O O4 0.296668 0.638756 0.111310
O O5 0.788139 0.404071 0.851522
O O6 0.631029 0.512097 0.963981
O O7 0.820011 0.516383 0.084510
O O8 0.693660 0.665847 0.113287
#
# Coordination Sequence:
#
# PCOD8190572 Si02
#       4
#     8   8   8   8
#     4  12  21  38  64  91 126 163 208 265 319 375
#     4  10  20  39  58  93 124 156 213 254 319 366
#     4  10  22  36  59  95 121 159 206 262 312 368
#     4  10  22  38  64  90 124 165 206 264 315 382
#
# _framework density 20.321550999999999
#
# number of rings (size 3 to 8) (size 9 to 14) (size 15 to 20)
#    1.500    0.000    2.500    3.750    0.000    2.000 
#    0.000    0.000    0.000   12.000    0.000    0.000 
#    0.000    0.000    0.000    0.000    0.000    0.000 
#
# Total GULP energy -198229.220706 kJ/mol
# GULP energy per Si atom -12389.326294 kJ/mol
# Density = 2.027530 g / cm^3
# Si number density = 20.321551 Si / 1000 Ang^3
#
#
#
# Elastic Constant Matrix: (Units=GPa)
#
#
# Indices 1 2 3 4 5 6 
#
# 1 20.2801 16.7959 -1.3286 0.0000 0.0000 0.0000
# 2 16.7959 81.4214 15.3553 0.0000 0.0000 0.0000
# 3 -1.3286 15.3553 99.1869 0.0000 0.0000 0.0000
# 4 0.0000 0.0000 0.0000 26.9817 0.0000 0.0000
# 5 0.0000 0.0000 0.0000 0.0000 13.1725 0.0000
# 6 0.0000 0.0000 0.0000 0.0000 0.0000 35.7816
#
#
#
# Elastic Compliance Matrix: (Units=1/GPa)
#
#
# Indices 1 2 3 4 5 6 
#
# 1 0.060221 -0.012953 0.002812 0.000000 0.000000 0.000000
# 2 -0.012953 0.015437 -0.002563 0.000000 0.000000 0.000000
# 3 0.002812 -0.002563 0.010516 0.000000 0.000000 0.000000
# 4 0.000000 0.000000 0.000000 0.037062 0.000000 0.000000
# 5 0.000000 0.000000 0.000000 0.000000 0.075916 0.000000
# 6 0.000000 0.000000 0.000000 0.000000 0.000000 0.027947
#
#
# Mechanical properties :
#
#
# Convention : Reuss Voigt Hill
#
# Bulk Modulus (GPa) = 16.45651 29.17039 22.81345
# Shear Modulus (GPa) = 18.33084 26.52489 22.42787
#
# Velocity S-wave (km/s) = 3.00666 3.61676 3.32573
# Velocity P-wave (km/s) = 4.49098 5.64153 5.09881
#
# Compressibility (1/GPa) = 0.06076623
#
# Stress axis : x y z
#
# Youngs Moduli (GPa) = 16.60541 64.77864 95.08887
#
# Poissons Ratio (x) = 0.83908 -0.26738
# Poissons Ratio (y) = 0.21509 0.24375
# Poissons Ratio (z) = -0.04669 0.16605
#
# Static dielectric constant tensor:
#      x y z
#    x 3.222530 0.000000 0.000000 
#    y 0.000000 3.627110 0.000000 
#    z 0.000000 0.000000 3.630810 
# 
# 
# High freq. dielectric constant tensor:
#      x y z
#    x 1.742800 0.000000 0.000000 
#    y 0.000000 1.794130 0.000000 
#    z 0.000000 0.000000 1.806050 
# 
# From -- ./inp_files/1179.got.cif
#   From: 2010.03.12/outbox.cif.g09.slc.cpg/sg45_1_cif.got.tgz:1179.got - 2010.04.14 02:50:11.
