data_PCOD8190263
_publ_section_title
;
Structure prediction by ZEFSAII (Michael W. Deem and Ramdas Pophale) SiO2 
 PCOD8190263
Probable space group: I M M 2
;
_chemical_formula_sum "Si O2"
_cell_formula_units_Z 48
_cell_length_a 10.121642
_cell_length_b 8.564126
_cell_length_c 28.081453
_cell_angle_alpha 90.000000
_cell_angle_beta 90.000000
_cell_angle_gamma 90.000000
_cell_volume 2434.185079
_symmetry_space_group_name_H-M "I M M 2"
_symmetry_group_IT_number 44
_symmetry_cell_setting 'orthorhombic'
loop_
_space_group_symop_operation_xyz
x,y,z
-x,-y,z
-x,y,z
x,-y,z
1/2+x,1/2+y,1/2+z
1/2-x,1/2-y,1/2+z
1/2-x,1/2+y,1/2+z
1/2+x,1/2-y,1/2+z
loop_
_atom_site_type_symbol
_atom_site_label
_atom_site_fract_x
_atom_site_fract_y
_atom_site_fract_z
Si Si1 0.000000 0.322719 0.281860
Si Si2 0.000000 0.675592 0.393472
Si Si3 0.745311 0.813820 0.947312
Si Si4 0.500000 0.316703 0.284825
Si Si5 0.651600 0.814111 0.049731
Si Si6 0.650950 0.314223 0.631091
Si Si7 0.252612 0.316811 0.733788
Si Si8 0.000000 0.813269 0.893274
O O1 0.000000 0.325802 0.337784
O O2 0.873606 0.225733 0.267074
O O3 0.000000 0.500000 0.261483
O O4 0.130010 0.756964 0.414194
O O5 0.000000 0.500000 0.414160
O O6 0.877504 0.746505 0.923575
O O7 0.752932 0.000000 0.946519
O O8 0.718124 0.754270 0.000826
O O9 0.500000 0.500000 0.289888
O O10 0.374596 0.267032 0.254363
O O11 0.500000 0.246763 0.338821
O O12 0.500000 0.751357 0.055367
O O13 0.748729 0.749391 0.090955
O O14 0.647287 0.000000 0.051103
O O15 0.500000 0.250092 0.624520
O O16 0.645238 0.500000 0.629694
O O17 0.712067 0.256306 0.680953
O O18 0.226322 0.500000 0.733935
O O19 0.000000 0.000000 0.891151
#
# Coordination Sequence:
#
# PCOD8190263 Si02
#       8
#     4   4   8   4   8   8   8   4
#     4  11  21  35  58  83 111 149 187 231 278 329
#     4   9  16  27  44  67  99 137 171 211 270 323
#     4   9  15  25  40  64  99 136 171 210 265 331
#     4  11  23  39  56  81 113 149 193 233 276 331
#     4   9  16  25  41  67  99 136 175 213 264 332
#     4   9  18  31  47  70 102 139 177 220 273 328
#     4  11  22  38  57  80 113 150 187 232 282 332
#     4   9  18  29  44  67 101 139 173 217 272 325
#
# _framework density 19.719124999999998
#
# number of rings (size 3 to 8) (size 9 to 14) (size 15 to 20)
#    0.000    2.333    1.667    2.000    2.333    2.667 
#    0.000    0.000    0.000    0.000    0.000    0.000 
#    0.000   26.667    0.000    0.000    0.000    0.000 
#
# Total GULP energy -297454.362356 kJ/mol
# GULP energy per Si atom -12393.931765 kJ/mol
# Density = 1.967424 g / cm^3
# Si number density = 19.719125 Si / 1000 Ang^3
#
#
#
# Elastic Constant Matrix: (Units=GPa)
#
#
# Indices 1 2 3 4 5 6 
#
# 1 209.9727 9.4357 100.8484 0.0000 0.0000 0.0000
# 2 9.4357 16.9426 13.7905 0.0000 0.0000 0.0000
# 3 100.8484 13.7905 147.5917 0.0000 0.0000 0.0000
# 4 0.0000 0.0000 0.0000 16.8291 0.0000 0.0000
# 5 0.0000 0.0000 0.0000 0.0000 44.8493 0.0000
# 6 0.0000 0.0000 0.0000 0.0000 0.0000 16.9953
#
#
#
# Elastic Compliance Matrix: (Units=1/GPa)
#
#
# Indices 1 2 3 4 5 6 
#
# 1 0.007089 -0.000006 -0.004843 0.000000 0.000000 0.000000
# 2 -0.000006 0.063881 -0.005965 0.000000 0.000000 0.000000
# 3 -0.004843 -0.005965 0.010642 0.000000 0.000000 0.000000
# 4 0.000000 0.000000 0.000000 0.059421 0.000000 0.000000
# 5 0.000000 0.000000 0.000000 0.000000 0.022297 0.000000
# 6 0.000000 0.000000 0.000000 0.000000 0.000000 0.058840
#
#
# Mechanical properties :
#
#
# Convention : Reuss Voigt Hill
#
# Bulk Modulus (GPa) = 16.67099 69.18404 42.92751
# Shear Modulus (GPa) = 18.95426 32.43023 25.69225
#
# Velocity S-wave (km/s) = 3.10371 4.05978 3.61350
# Velocity P-wave (km/s) = 4.61699 7.55888 6.26311
#
# Compressibility (1/GPa) = 0.05998446
#
# Stress axis : x y z
#
# Youngs Moduli (GPa) = 141.06364 15.65403 93.96545
#
# Poissons Ratio (x) = 0.00009 0.45511
# Poissons Ratio (y) = 0.00081 0.56050
# Poissons Ratio (z) = 0.68322 0.09338
#
# Static dielectric constant tensor:
#      x y z
#    x 3.833130 0.000000 0.000000 
#    y 0.000000 3.010930 0.000000 
#    z 0.000000 0.000000 3.832740 
# 
# 
# High freq. dielectric constant tensor:
#      x y z
#    x 1.790220 0.000000 0.000000 
#    y 0.000000 1.696830 0.000000 
#    z 0.000000 0.000000 1.784440 
# 
# From -- ./inp_files/26998.got.cif
#   From: 2010.03.12/outbox.cif.g09.slc.cpg/sg44_14_cif.got.tgz:26998.got - 2010.04.14 02:36:11.
