data_PCOD8190105
_publ_section_title
;
Structure prediction by ZEFSAII (Michael W. Deem and Ramdas Pophale) SiO2 
 PCOD8190105
Probable space group: I M M 2
;
_chemical_formula_sum "Si O2"
_cell_formula_units_Z 32
_cell_length_a 13.074646
_cell_length_b 21.025639
_cell_length_c 4.875618
_cell_angle_alpha 90.000000
_cell_angle_beta 90.000000
_cell_angle_gamma 90.000000
_cell_volume 1340.320976
_symmetry_space_group_name_H-M "I M M 2"
_symmetry_group_IT_number 44
_symmetry_cell_setting 'orthorhombic'
loop_
_space_group_symop_operation_xyz
x,y,z
-x,-y,z
-x,y,z
x,-y,z
1/2+x,1/2+y,1/2+z
1/2-x,1/2-y,1/2+z
1/2-x,1/2+y,1/2+z
1/2+x,1/2-y,1/2+z
loop_
_atom_site_type_symbol
_atom_site_label
_atom_site_fract_x
_atom_site_fract_y
_atom_site_fract_z
Si Si1 0.280232 0.928296 0.381910
Si Si2 0.381540 0.874846 0.846268
Si Si3 0.386642 0.255786 0.617985
Si Si4 0.614799 0.340018 0.136731
O O1 0.367102 0.930455 0.620661
O O2 0.179569 0.899839 0.530098
O O3 0.257248 0.000000 0.283927
O O4 0.316372 0.887470 0.119973
O O5 0.500000 0.866471 0.929432
O O6 0.336097 0.813431 0.674607
O O7 0.500000 0.243298 0.498159
O O8 0.333059 0.303414 0.399338
O O9 0.391392 0.286519 0.911809
O O10 0.500000 0.365237 0.209950
#
# Coordination Sequence:
#
# PCOD8190105 Si02
#       4
#     8   8   8   8
#     4  12  26  41  62  95 132 179 228 259 315 401
#     4  11  24  43  66  93 129 170 219 280 329 380
#     4   9  19  38  65  94 121 157 207 264 334 390
#     4  10  21  40  65  94 129 162 204 269 327 383
#
# _framework density 23.874879
#
# number of rings (size 3 to 8) (size 9 to 14) (size 15 to 20)
#    0.000    1.500    0.000    4.500    0.000   11.500 
#    0.000    0.000    0.000    7.500    0.000    1.750 
#    0.000    0.000    0.000    0.000    0.000    0.000 
#
# Total GULP energy -198244.449263 kJ/mol
# GULP energy per Si atom -12390.278079 kJ/mol
# Density = 2.382054 g / cm^3
# Si number density = 23.874879 Si / 1000 Ang^3
#
#
#
# Elastic Constant Matrix: (Units=GPa)
#
#
# Indices 1 2 3 4 5 6 
#
# 1 82.9966 63.9598 47.2959 -0.0004 -0.0003 0.0000
# 2 63.9598 123.8170 45.5379 -0.0003 0.0000 -0.0003
# 3 47.2959 45.5379 159.0902 -0.0031 -0.0030 -0.0034
# 4 -0.0004 -0.0003 -0.0031 34.2011 -0.0007 0.0001
# 5 -0.0003 0.0000 -0.0030 -0.0007 38.8632 -0.0006
# 6 0.0000 -0.0003 -0.0034 0.0001 -0.0006 19.0397
#
#
#
# Elastic Compliance Matrix: (Units=1/GPa)
#
#
# Indices 1 2 3 4 5 6 
#
# 1 0.021745 -0.009897 -0.003632 0.000000 0.000000 -0.000001
# 2 -0.009897 0.013531 -0.000931 0.000000 0.000000 0.000000
# 3 -0.003632 -0.000931 0.007632 0.000001 0.000001 0.000001
# 4 0.000000 0.000000 0.000001 0.029239 0.000001 0.000000
# 5 0.000000 0.000000 0.000001 0.000001 0.025731 0.000001
# 6 -0.000001 0.000000 0.000001 0.000000 0.000001 0.052522
#
#
# Mechanical properties :
#
#
# Convention : Reuss Voigt Hill
#
# Bulk Modulus (GPa) = 71.48485 75.49901 73.49193
# Shear Modulus (GPa) = 27.17639 32.36147 29.76893
#
# Velocity S-wave (km/s) = 3.37751 3.68565 3.53494
# Velocity P-wave (km/s) = 6.72432 7.05716 6.89275
#
# Compressibility (1/GPa) = 0.01398898
#
# Stress axis : x y z
#
# Youngs Moduli (GPa) = 45.98681 73.90222 131.02972
#
# Poissons Ratio (x) = 0.73143 0.47586
# Poissons Ratio (y) = 0.45514 0.12197
# Poissons Ratio (z) = 0.16701 0.06879
#
# Static dielectric constant tensor:
#      x y z
#    x 4.591890 0.000000 0.000000 
#    y 0.000000 4.015430 0.000000 
#    z 0.000000 0.000000 4.387480 
# 
# 
# High freq. dielectric constant tensor:
#      x y z
#    x 1.950230 0.000000 0.000000 
#    y 0.000000 1.923230 0.000000 
#    z 0.000000 0.000000 1.965940 
# 
# From -- ./inp_files/1357.got.cif
#   From: 2010.03.12/outbox.cif.g09.slc.cpg/sg44_1_cif.got.tgz:1357.got - 2010.04.14 02:36:11.
