data_PCOD8190562
_publ_section_title
;
Structure prediction by ZEFSAII (Michael W. Deem and Ramdas Pophale) SiO2 
 PCOD8190562
Probable space group: I B A 2
;
_chemical_formula_sum "Si O2"
_cell_formula_units_Z 60
_cell_length_a 18.434734
_cell_length_b 17.756377
_cell_length_c 8.376304
_cell_angle_alpha 90.000000
_cell_angle_beta 90.000000
_cell_angle_gamma 90.000000
_cell_volume 2741.849821
_symmetry_space_group_name_H-M "I B A 2"
_symmetry_group_IT_number 45
_symmetry_cell_setting 'orthorhombic'
loop_
_space_group_symop_operation_xyz
x,y,z
-x,-y,z
-x,y,1/2+z
x,-y,1/2+z
1/2+x,1/2+y,1/2+z
1/2-x,1/2-y,1/2+z
1/2-x,1/2+y,z
1/2+x,1/2-y,z
loop_
_atom_site_type_symbol
_atom_site_label
_atom_site_fract_x
_atom_site_fract_y
_atom_site_fract_z
Si Si1 0.000000 0.500000 0.030910
Si Si2 0.769168 0.645116 0.658839
Si Si3 0.430772 0.245592 0.460784
Si Si4 0.278473 0.289234 0.350058
Si Si5 0.007182 0.164763 0.211779
Si Si6 0.923234 0.593714 0.786989
Si Si7 0.139994 0.059079 0.279704
Si Si8 0.137731 0.098186 0.634352
O O1 0.972728 0.429457 0.136331
O O2 0.932254 0.528045 0.920821
O O3 0.778426 0.671846 0.473246
O O4 0.744126 0.716250 0.766176
O O5 0.841885 0.605873 0.724594
O O6 0.705132 0.584670 0.664318
O O7 0.345373 0.259918 0.456285
O O8 0.458809 0.256530 0.641822
O O9 0.471811 0.315911 0.380380
O O10 0.452849 0.168738 0.373040
O O11 0.303158 0.345287 0.209321
O O12 0.066832 0.100537 0.228649
O O13 0.940055 0.136417 0.103753
O O14 0.165427 0.072649 0.461096
O O15 0.127599 0.970861 0.255651
#
# Coordination Sequence:
#
# PCOD8190562 Si02
#       8
#     4   8   8   8   8   8   8   8
#     4  10  22  46  66 100 128 168 220 288 334 410
#     4  11  23  43  67  95 132 174 220 278 335 403
#     4  10  20  38  62  93 123 172 218 276 319 388
#     4  10  22  42  63  92 130 169 225 273 328 400
#     4  11  21  37  62  89 131 171 225 271 322 376
#     4  10  23  42  70  95 132 167 221 276 349 395
#     4  12  24  39  61  92 133 175 223 271 331 399
#     4  11  25  39  61  91 133 181 225 272 328 388
#
# _framework density 21.883037000000002
#
# number of rings (size 3 to 8) (size 9 to 14) (size 15 to 20)
#    0.000    1.333    2.667    2.800    1.867    3.200 
#    2.400    4.000    0.000    0.000    0.000    0.000 
#    0.000    0.000    0.000    0.000    0.000    0.000 
#
# Total GULP energy -371904.664571 kJ/mol
# GULP energy per Si atom -12396.822152 kJ/mol
# Density = 2.183323 g / cm^3
# Si number density = 21.883037 Si / 1000 Ang^3
#
#
#
# Elastic Constant Matrix: (Units=GPa)
#
#
# Indices 1 2 3 4 5 6 
#
# 1 58.1476 24.8640 9.1671 0.0000 0.0000 0.0000
# 2 24.8640 88.0621 17.1421 0.0000 0.0000 0.0000
# 3 9.1671 17.1421 80.8397 0.0000 0.0000 0.0000
# 4 0.0000 0.0000 0.0000 34.3899 0.0000 0.0000
# 5 0.0000 0.0000 0.0000 0.0000 28.0895 0.0000
# 6 0.0000 0.0000 0.0000 0.0000 0.0000 29.4822
#
#
#
# Elastic Compliance Matrix: (Units=1/GPa)
#
#
# Indices 1 2 3 4 5 6 
#
# 1 0.019652 -0.005335 -0.001097 0.000000 0.000000 0.000000
# 2 -0.005335 0.013293 -0.002214 0.000000 0.000000 0.000000
# 3 -0.001097 -0.002214 0.012964 0.000000 0.000000 0.000000
# 4 0.000000 0.000000 0.000000 0.029078 0.000000 0.000000
# 5 0.000000 0.000000 0.000000 0.000000 0.035601 0.000000
# 6 0.000000 0.000000 0.000000 0.000000 0.000000 0.033919
#
#
# Mechanical properties :
#
#
# Convention : Reuss Voigt Hill
#
# Bulk Modulus (GPa) = 34.94461 36.59954 35.77208
# Shear Modulus (GPa) = 29.18222 30.11741 29.64981
#
# Velocity S-wave (km/s) = 3.65575 3.71386 3.68492
# Velocity P-wave (km/s) = 5.81574 5.92889 5.87259
#
# Compressibility (1/GPa) = 0.02861672
#
# Stress axis : x y z
#
# Youngs Moduli (GPa) = 50.88574 75.22821 77.13660
#
# Poissons Ratio (x) = 0.40135 0.08463
# Poissons Ratio (y) = 0.27148 0.17076
# Poissons Ratio (z) = 0.05583 0.16654
#
# Static dielectric constant tensor:
#      x y z
#    x 3.676380 0.000000 0.000000 
#    y 0.000000 3.925690 0.000000 
#    z 0.000000 0.000000 4.037550 
# 
# 
# High freq. dielectric constant tensor:
#      x y z
#    x 1.842880 0.000000 0.000000 
#    y 0.000000 1.860160 0.000000 
#    z 0.000000 0.000000 1.871890 
# 
# From -- ./inp_files/2143.got.cif
#   From: 2010.03.12/outbox.cif.g09.slc.cpg/sg45_2_cif.got.tgz:2143.got - 2010.04.14 02:50:11.
