data_PCOD8190062
_publ_section_title
;
Structure prediction by ZEFSAII (Michael W. Deem and Ramdas Pophale) SiO2 
 PCOD8190062
Probable space group: I M M 2
;
_chemical_formula_sum "Si O2"
_cell_formula_units_Z 64
_cell_length_a 28.195786
_cell_length_b 12.453440
_cell_length_c 9.138897
_cell_angle_alpha 90.000000
_cell_angle_beta 90.000000
_cell_angle_gamma 90.000000
_cell_volume 3208.982296
_symmetry_space_group_name_H-M "I M M 2"
_symmetry_group_IT_number 44
_symmetry_cell_setting 'orthorhombic'
loop_
_space_group_symop_operation_xyz
x,y,z
-x,-y,z
-x,y,z
x,-y,z
1/2+x,1/2+y,1/2+z
1/2-x,1/2-y,1/2+z
1/2-x,1/2+y,1/2+z
1/2+x,1/2-y,1/2+z
loop_
_atom_site_type_symbol
_atom_site_label
_atom_site_fract_x
_atom_site_fract_y
_atom_site_fract_z
Si Si1 0.770244 0.622211 0.694990
Si Si2 0.947265 0.381054 0.113163
Si Si3 0.152076 0.622809 0.225342
Si Si4 0.948064 0.234126 0.846607
Si Si5 0.294164 0.241828 0.476037
Si Si6 0.144152 0.123996 0.756967
Si Si7 0.349785 0.209295 0.022759
Si Si8 0.552019 0.874787 0.076276
O O1 0.751557 0.500000 0.691648
O O2 0.741673 0.697651 0.583177
O O3 0.824822 0.626997 0.637559
O O4 0.766283 0.665557 0.861296
O O5 0.944202 0.500000 0.038784
O O6 0.905448 0.373247 0.232191
O O7 0.000000 0.368048 0.184735
O O8 0.937668 0.282973 0.004507
O O9 0.169782 0.500000 0.244842
O O10 0.170937 0.668012 0.071925
O O11 0.172611 0.695354 0.359954
O O12 0.910370 0.144161 0.800754
O O13 0.946141 0.337996 0.743838
O O14 0.000000 0.178895 0.841047
O O15 0.323344 0.328784 0.384580
O O16 0.155941 0.173290 0.596295
O O17 0.155100 0.000000 0.743713
O O18 0.405078 0.184173 0.995360
O O19 0.500000 0.845118 0.008847
O O20 0.561005 0.000000 0.068068
#
# Coordination Sequence:
#
# PCOD8190062 Si02
#       8
#     8   8   8   8   8   8   8   8
#     4  11  23  41  63  86 115 150 187 237 291 344
#     4   9  17  29  50  83 121 157 188 226 283 345
#     4  11  21  36  58  87 122 156 186 227 285 350
#     4   9  16  29  50  80 113 148 190 236 279 330
#     4  11  23  41  61  89 113 145 189 239 287 351
#     4  10  21  39  59  82 111 150 197 244 286 329
#     4  10  22  37  56  83 117 152 191 233 281 341
#     4   9  16  27  48  79 114 149 184 223 273 333
#
# _framework density 19.944019000000001
#
# number of rings (size 3 to 8) (size 9 to 14) (size 15 to 20)
#    0.000    2.000    1.250    3.000    0.000    2.250 
#    0.000   10.625    0.000    0.000    0.000    0.000 
#    0.000    0.000    0.000    0.000    0.000    0.000 
#
# Total GULP energy -396502.456077 kJ/mol
# GULP energy per Si atom -12390.701752 kJ/mol
# Density = 1.989863 g / cm^3
# Si number density = 19.944019 Si / 1000 Ang^3
#
#
#
# Elastic Constant Matrix: (Units=GPa)
#
#
# Indices 1 2 3 4 5 6 
#
# 1 75.9679 33.9696 33.6102 0.0000 0.0000 0.0000
# 2 33.9696 116.9825 59.2127 0.0000 0.0000 0.0000
# 3 33.6102 59.2127 123.8060 0.0000 0.0000 0.0000
# 4 0.0000 0.0000 0.0000 24.6480 0.0000 0.0000
# 5 0.0000 0.0000 0.0000 0.0000 18.3764 0.0000
# 6 0.0000 0.0000 0.0000 0.0000 0.0000 20.4328
#
#
#
# Elastic Compliance Matrix: (Units=1/GPa)
#
#
# Indices 1 2 3 4 5 6 
#
# 1 0.015815 -0.003192 -0.002767 0.000000 0.000000 0.000000
# 2 -0.003192 0.011923 -0.004836 0.000000 0.000000 0.000000
# 3 -0.002767 -0.004836 0.011141 0.000000 0.000000 0.000000
# 4 0.000000 0.000000 0.000000 0.040571 0.000000 0.000000
# 5 0.000000 0.000000 0.000000 0.000000 0.054418 0.000000
# 6 0.000000 0.000000 0.000000 0.000000 0.000000 0.048941
#
#
# Mechanical properties :
#
#
# Convention : Reuss Voigt Hill
#
# Bulk Modulus (GPa) = 57.83742 63.37125 60.60434
# Shear Modulus (GPa) = 23.79129 25.35569 24.57349
#
# Velocity S-wave (km/s) = 3.45759 3.56946 3.51397
# Velocity P-wave (km/s) = 6.70841 6.98796 6.84961
#
# Compressibility (1/GPa) = 0.01728984
#
# Stress axis : x y z
#
# Youngs Moduli (GPa) = 63.23190 83.87220 89.75782
#
# Poissons Ratio (x) = 0.26771 0.24834
# Poissons Ratio (y) = 0.20183 0.43405
# Poissons Ratio (z) = 0.17495 0.40559
#
# Static dielectric constant tensor:
#      x y z
#    x 3.895120 0.000000 0.000000 
#    y 0.000000 3.270020 0.000000 
#    z 0.000000 0.000000 3.565380 
# 
# 
# High freq. dielectric constant tensor:
#      x y z
#    x 1.791220 0.000000 0.000000 
#    y 0.000000 1.745750 0.000000 
#    z 0.000000 0.000000 1.777300 
# 
# From -- ./inp_files/6361.got.cif
#   From: 2010.03.12/outbox.cif.g09.slc.cpg/sg44_4_cif.got.tgz:6361.got - 2010.04.14 02:36:11.
