data_PCOD8190544
_publ_section_title
;
Structure prediction by ZEFSAII (Michael W. Deem and Ramdas Pophale) SiO2 
 PCOD8190544
Probable space group: I B A 2
;
_chemical_formula_sum "Si O2"
_cell_formula_units_Z 48
_cell_length_a 10.038604
_cell_length_b 15.766750
_cell_length_c 14.408438
_cell_angle_alpha 90.000000
_cell_angle_beta 90.000000
_cell_angle_gamma 90.000000
_cell_volume 2280.512233
_symmetry_space_group_name_H-M "I B A 2"
_symmetry_group_IT_number 45
_symmetry_cell_setting 'orthorhombic'
loop_
_space_group_symop_operation_xyz
x,y,z
-x,-y,z
-x,y,1/2+z
x,-y,1/2+z
1/2+x,1/2+y,1/2+z
1/2-x,1/2-y,1/2+z
1/2-x,1/2+y,z
1/2+x,1/2-y,z
loop_
_atom_site_type_symbol
_atom_site_label
_atom_site_fract_x
_atom_site_fract_y
_atom_site_fract_z
Si Si1 0.365700 0.028042 0.909860
Si Si2 0.792324 0.100969 0.649604
Si Si3 0.456764 0.360361 0.028086
Si Si4 0.561355 0.168655 0.551898
Si Si5 0.120824 0.051258 0.335746
Si Si6 0.191508 0.427192 0.086877
O O1 0.500000 0.000000 0.854407
O O2 0.234642 0.021867 0.846979
O O3 0.385856 0.117550 0.961330
O O4 0.341645 0.952183 0.982037
O O5 0.688601 0.174413 0.620810
O O6 0.836432 0.118468 0.755907
O O7 0.916078 0.095941 0.577334
O O8 0.711726 0.011695 0.647494
O O9 0.431036 0.402228 0.928036
O O10 0.484198 0.260609 0.016991
O O11 0.326162 0.371966 0.091817
O O12 0.439820 0.127766 0.612332
O O13 0.000000 0.000000 0.290896
#
# Coordination Sequence:
#
# PCOD8190544 Si02
#       6
#     8   8   8   8   8   8
#     4   8  17  34  55  80 111 151 196 236 286 349
#     4  11  22  39  60  86 120 160 204 243 289 356
#     4  11  21  38  61  87 123 158 194 248 304 352
#     4  10  20  37  61  86 117 157 196 246 305 350
#     4  11  22  37  61  89 117 158 205 243 289 355
#     4   9  18  35  58  82 112 156 199 236 288 352
#
# _framework density 21.047903999999999
#
# number of rings (size 3 to 8) (size 9 to 14) (size 15 to 20)
#    0.000    2.000    0.000    7.000    0.000    1.333 
#    0.000   11.667    0.000    0.000    0.000    0.000 
#    0.000    0.000    0.000    0.000    0.000    0.000 
#
# Total GULP energy -297332.858960 kJ/mol
# GULP energy per Si atom -12388.869123 kJ/mol
# Density = 2.100000 g / cm^3
# Si number density = 21.047904 Si / 1000 Ang^3
#
#
#
# Elastic Constant Matrix: (Units=GPa)
#
#
# Indices 1 2 3 4 5 6 
#
# 1 140.0645 26.9219 34.1191 0.0000 0.0000 0.0000
# 2 26.9219 90.0045 11.8633 0.0000 0.0000 0.0000
# 3 34.1191 11.8633 84.7290 0.0001 0.0000 0.0000
# 4 0.0000 0.0000 0.0001 10.9731 0.0000 0.0000
# 5 0.0000 0.0000 0.0000 0.0000 12.5982 0.0000
# 6 0.0000 0.0000 0.0000 0.0000 0.0000 30.3033
#
#
#
# Elastic Compliance Matrix: (Units=1/GPa)
#
#
# Indices 1 2 3 4 5 6 
#
# 1 0.008280 -0.002075 -0.003044 0.000000 0.000000 0.000000
# 2 -0.002075 0.011840 -0.000822 0.000000 0.000000 0.000000
# 3 -0.003044 -0.000822 0.013143 0.000000 0.000000 0.000000
# 4 0.000000 0.000000 0.000000 0.091132 0.000000 0.000000
# 5 0.000000 0.000000 0.000000 0.000000 0.079377 0.000000
# 6 0.000000 0.000000 0.000000 0.000000 0.000000 0.033000
#
#
# Mechanical properties :
#
#
# Convention : Reuss Voigt Hill
#
# Bulk Modulus (GPa) = 46.77150 51.17853 48.97502
# Shear Modulus (GPa) = 19.54805 26.90116 23.22460
#
# Velocity S-wave (km/s) = 3.05083 3.57892 3.32537
# Velocity P-wave (km/s) = 5.88895 6.43788 6.16952
#
# Compressibility (1/GPa) = 0.02138054
#
# Stress axis : x y z
#
# Youngs Moduli (GPa) = 120.77424 84.46155 76.08594
#
# Poissons Ratio (x) = 0.17530 0.23158
# Poissons Ratio (y) = 0.25067 0.06254
# Poissons Ratio (z) = 0.36759 0.06942
#
# Static dielectric constant tensor:
#      x y z
#    x 4.486520 0.000000 0.000000 
#    y 0.000000 3.461980 0.000000 
#    z 0.000000 0.000000 3.436090 
# 
# 
# High freq. dielectric constant tensor:
#      x y z
#    x 1.860610 0.000000 0.000000 
#    y 0.000000 1.794690 0.000000 
#    z 0.000000 0.000000 1.785960 
# 
# From -- ./inp_files/5618.got.cif
#   From: 2010.03.12/outbox.cif.g09.slc.cpg/sg45_3_cif.got.tgz:5618.got - 2010.04.14 02:50:11.
