data_PCOD8190949
_publ_section_title
;
Structure prediction by ZEFSAII (Michael W. Deem and Ramdas Pophale) SiO2 
 PCOD8190949
Probable space group: I B A 2
;
_chemical_formula_sum "Si O2"
_cell_formula_units_Z 64
_cell_length_a 8.825901
_cell_length_b 23.615366
_cell_length_c 13.357190
_cell_angle_alpha 90.000000
_cell_angle_beta 90.000000
_cell_angle_gamma 90.000000
_cell_volume 2783.997469
_symmetry_space_group_name_H-M "I B A 2"
_symmetry_group_IT_number 45
_symmetry_cell_setting 'orthorhombic'
loop_
_space_group_symop_operation_xyz
x,y,z
-x,-y,z
-x,y,1/2+z
x,-y,1/2+z
1/2+x,1/2+y,1/2+z
1/2-x,1/2-y,1/2+z
1/2-x,1/2+y,z
1/2+x,1/2-y,z
loop_
_atom_site_type_symbol
_atom_site_label
_atom_site_fract_x
_atom_site_fract_y
_atom_site_fract_z
Si Si1 0.706601 0.097575 0.712760
Si Si2 0.671940 0.499868 0.597612
Si Si3 0.400245 0.451974 0.885627
Si Si4 0.168843 0.271028 0.441492
Si Si5 0.355385 0.902173 0.199269
Si Si6 0.369949 0.640567 0.855634
Si Si7 0.609063 0.293325 0.238326
Si Si8 0.117604 0.705557 0.566605
O O1 0.771717 0.069482 0.812779
O O2 0.529492 0.089700 0.725180
O O3 0.753942 0.163887 0.707518
O O4 0.765024 0.063872 0.614031
O O5 0.500000 0.500000 0.637720
O O6 0.676721 0.480231 0.482581
O O7 0.779978 0.459234 0.660378
O O8 0.500000 0.500000 0.830029
O O9 0.516653 0.401385 0.914486
O O10 0.306068 0.316503 0.438775
O O11 0.150252 0.246963 0.330522
O O12 0.224852 0.220841 0.512935
O O13 0.016424 0.299377 0.484414
O O14 0.273755 0.888177 0.303457
O O15 0.345078 0.854388 0.114798
O O16 0.460468 0.670892 0.765233
O O17 0.569634 0.252662 0.146884
#
# Coordination Sequence:
#
# PCOD8190949 Si02
#       8
#     8   8   8   8   8   8   8   8
#     4  11  25  47  75 105 144 191 243 309 377 428
#     4  11  25  48  73 103 142 188 250 301 365 450
#     4  10  24  46  77 102 138 196 248 297 370 448
#     4  12  26  43  69 106 153 193 254 301 375 446
#     4  12  26  43  75 106 149 186 245 311 378 437
#     4  11  24  44  71 101 144 199 245 305 370 447
#     4  11  25  49  72 101 153 203 243 305 374 454
#     4  12  27  42  71 108 148 195 245 305 375 450
#
# _framework density 22.988529
#
# number of rings (size 3 to 8) (size 9 to 14) (size 15 to 20)
#    0.000    0.750    2.500    4.500    7.000    5.000 
#    0.000    5.000    0.000    0.000    0.000    0.000 
#    0.000    0.000    0.000    0.000    0.000    0.000 
#
# Total GULP energy -396874.044282 kJ/mol
# GULP energy per Si atom -12402.313884 kJ/mol
# Density = 2.293621 g / cm^3
# Si number density = 22.988529 Si / 1000 Ang^3
#
#
#
# Elastic Constant Matrix: (Units=GPa)
#
#
# Indices 1 2 3 4 5 6 
#
# 1 88.1007 0.7088 19.9192 -0.0013 0.0010 0.0002
# 2 0.7088 74.2635 31.2640 -0.0010 0.0008 0.0002
# 3 19.9192 31.2640 94.5107 -0.0011 0.0000 0.0001
# 4 -0.0013 -0.0010 -0.0011 36.1228 0.0004 0.0001
# 5 0.0010 0.0008 0.0000 0.0004 14.9758 -0.0001
# 6 0.0002 0.0002 0.0001 0.0001 -0.0001 40.4181
#
#
#
# Elastic Compliance Matrix: (Units=1/GPa)
#
#
# Indices 1 2 3 4 5 6 
#
# 1 0.011996 0.001104 -0.002893 0.000000 -0.000001 0.000000
# 2 0.001104 0.015746 -0.005441 0.000000 -0.000001 0.000000
# 3 -0.002893 -0.005441 0.012991 0.000000 0.000000 0.000000
# 4 0.000000 0.000000 0.000000 0.027683 -0.000001 0.000000
# 5 -0.000001 -0.000001 0.000000 -0.000001 0.066774 0.000000
# 6 0.000000 0.000000 0.000000 0.000000 0.000000 0.024741
#
#
# Mechanical properties :
#
#
# Convention : Reuss Voigt Hill
#
# Bulk Modulus (GPa) = 38.06595 40.07322 39.06958
# Shear Modulus (GPa) = 27.30004 31.96888 29.63446
#
# Velocity S-wave (km/s) = 3.44982 3.73318 3.59430
# Velocity P-wave (km/s) = 5.69763 6.00432 5.85298
#
# Compressibility (1/GPa) = 0.02627020
#
# Stress axis : x y z
#
# Youngs Moduli (GPa) = 83.36149 63.50924 76.97890
#
# Poissons Ratio (x) = -0.07009 0.22273
# Poissons Ratio (y) = -0.09200 0.41886
# Poissons Ratio (z) = 0.24119 0.34557
#
# Static dielectric constant tensor:
#      x y z
#    x 4.163350 0.000000 0.000000 
#    y 0.000000 4.512610 0.000000 
#    z 0.000000 0.000000 4.043510 
# 
# 
# High freq. dielectric constant tensor:
#      x y z
#    x 1.915920 0.000000 0.000000 
#    y 0.000000 1.919380 0.000000 
#    z 0.000000 0.000000 1.906200 
# 
# From -- ./inp_files/5857.got.cif
#   From: 2010.03.12/outbox.cif.g09.slc.cpg/sg45_3_cif.got.tgz:5857.got - 2010.04.14 02:50:11.
