data_PCOD8190476
_publ_section_title
;
Structure prediction by ZEFSAII (Michael W. Deem and Ramdas Pophale) SiO2 
 PCOD8190476
Probable space group: I B A 2
;
_chemical_formula_sum "Si O2"
_cell_formula_units_Z 64
_cell_length_a 9.302621
_cell_length_b 19.665054
_cell_length_c 16.891991
_cell_angle_alpha 90.000000
_cell_angle_beta 90.000000
_cell_angle_gamma 90.000000
_cell_volume 3090.162460
_symmetry_space_group_name_H-M "I B A 2"
_symmetry_group_IT_number 45
_symmetry_cell_setting 'orthorhombic'
loop_
_space_group_symop_operation_xyz
x,y,z
-x,-y,z
-x,y,1/2+z
x,-y,1/2+z
1/2+x,1/2+y,1/2+z
1/2-x,1/2-y,1/2+z
1/2-x,1/2+y,z
1/2+x,1/2-y,z
loop_
_atom_site_type_symbol
_atom_site_label
_atom_site_fract_x
_atom_site_fract_y
_atom_site_fract_z
Si Si1 0.038677 0.571771 0.606750
Si Si2 0.775354 0.587861 0.972194
Si Si3 0.967560 0.793002 0.607784
Si Si4 0.671099 0.941343 0.959172
Si Si5 0.577746 0.231499 0.945612
Si Si6 0.685022 0.184869 0.363825
Si Si7 0.662674 0.803658 0.684878
Si Si8 0.477726 0.426431 0.530403
O O1 0.927512 0.581787 0.533498
O O2 0.000000 0.500000 0.649956
O O3 0.195723 0.571490 0.565611
O O4 0.051310 0.633559 0.668315
O O5 0.846928 0.520513 0.930323
O O6 0.843477 0.658317 0.944358
O O7 0.602962 0.591214 0.965670
O O8 0.795696 0.794134 0.623567
O O9 0.005205 0.747064 0.530656
O O10 0.059346 0.762055 0.679967
O O11 0.023653 0.869748 0.598446
O O12 0.639721 0.892284 0.885373
O O13 0.834076 0.927532 0.981320
O O14 0.453386 0.231607 0.879925
O O15 0.686007 0.290610 0.920340
O O16 0.728315 0.189495 0.272102
O O17 0.500000 0.500000 0.571017
#
# Coordination Sequence:
#
# PCOD8190476 Si02
#       8
#     8   8   8   8   8   8   8   8
#     4  10  20  39  62  90 120 160 210 260 302 371
#     4  10  19  38  64  94 120 153 220 268 298 357
#     4  12  22  41  67  92 120 170 214 262 307 377
#     4  10  21  37  66  92 121 162 216 259 310 378
#     4  12  23  40  67  93 121 168 220 260 304 376
#     4  12  25  41  60  95 130 167 203 264 328 375
#     4  12  26  41  60  93 136 163 202 263 327 374
#     4  10  20  35  63  94 116 153 213 270 300 350
#
# _framework density 20.710885000000001
#
# number of rings (size 3 to 8) (size 9 to 14) (size 15 to 20)
#    0.000    1.000    5.000    2.250    1.750    0.000 
#    2.250    0.000    2.750    0.000    0.000    0.000 
#    0.000    0.000    0.000    0.000    0.000    0.000 
#
# Total GULP energy -396504.341430 kJ/mol
# GULP energy per Si atom -12390.760670 kJ/mol
# Density = 2.066375 g / cm^3
# Si number density = 20.710885 Si / 1000 Ang^3
#
#
#
# Elastic Constant Matrix: (Units=GPa)
#
#
# Indices 1 2 3 4 5 6 
#
# 1 82.5125 29.3004 26.5597 0.0000 0.0000 0.0000
# 2 29.3004 146.7316 41.1882 0.0000 0.0000 0.0000
# 3 26.5597 41.1882 78.5535 0.0000 0.0000 0.0000
# 4 0.0000 0.0000 0.0000 14.0121 0.0000 0.0000
# 5 0.0000 0.0000 0.0000 0.0000 21.5338 0.0000
# 6 0.0000 0.0000 0.0000 0.0000 0.0000 32.6209
#
#
#
# Elastic Compliance Matrix: (Units=1/GPa)
#
#
# Indices 1 2 3 4 5 6 
#
# 1 0.013958 -0.001715 -0.003820 0.000000 0.000000 0.000000
# 2 -0.001715 0.008202 -0.003721 0.000000 0.000000 0.000000
# 3 -0.003820 -0.003721 0.015973 0.000000 0.000000 0.000000
# 4 0.000000 0.000000 0.000000 0.071367 0.000000 0.000000
# 5 0.000000 0.000000 0.000000 0.000000 0.046439 0.000000
# 6 0.000000 0.000000 0.000000 0.000000 0.000000 0.030655
#
#
# Mechanical properties :
#
#
# Convention : Reuss Voigt Hill
#
# Bulk Modulus (GPa) = 50.96549 55.76600 53.36575
# Shear Modulus (GPa) = 23.62442 27.68333 25.65388
#
# Velocity S-wave (km/s) = 3.38105 3.66000 3.52329
# Velocity P-wave (km/s) = 6.31692 6.69665 6.50956
#
# Compressibility (1/GPa) = 0.01962112
#
# Stress axis : x y z
#
# Youngs Moduli (GPa) = 71.64349 121.92085 62.60668
#
# Poissons Ratio (x) = 0.20908 0.23917
# Poissons Ratio (y) = 0.12286 0.23295
# Poissons Ratio (z) = 0.27369 0.45364
#
# Static dielectric constant tensor:
#      x y z
#    x 4.036100 0.000000 0.000000 
#    y 0.000000 4.292640 0.000000 
#    z 0.000000 0.000000 3.166570 
# 
# 
# High freq. dielectric constant tensor:
#      x y z
#    x 1.833550 0.000000 0.000000 
#    y 0.000000 1.835070 0.000000 
#    z 0.000000 0.000000 1.742470 
# 
# From -- ./inp_files/7772.got.cif
#   From: 2010.03.12/outbox.cif.g09.slc.cpg/sg45_4_cif.got.tgz:7772.got - 2010.04.14 02:50:11.
