data_PCOD8190584
_publ_section_title
;
Structure prediction by ZEFSAII (Michael W. Deem and Ramdas Pophale) SiO2 
 PCOD8190584
Probable space group: I B A 2
;
_chemical_formula_sum "Si O2"
_cell_formula_units_Z 64
_cell_length_a 18.818305
_cell_length_b 10.009563
_cell_length_c 16.782448
_cell_angle_alpha 90.000000
_cell_angle_beta 90.000000
_cell_angle_gamma 90.000000
_cell_volume 3161.192411
_symmetry_space_group_name_H-M "I B A 2"
_symmetry_group_IT_number 45
_symmetry_cell_setting 'orthorhombic'
loop_
_space_group_symop_operation_xyz
x,y,z
-x,-y,z
-x,y,1/2+z
x,-y,1/2+z
1/2+x,1/2+y,1/2+z
1/2-x,1/2-y,1/2+z
1/2-x,1/2+y,z
1/2+x,1/2-y,z
loop_
_atom_site_type_symbol
_atom_site_label
_atom_site_fract_x
_atom_site_fract_y
_atom_site_fract_z
Si Si1 0.445279 0.111685 0.727350
Si Si2 0.206470 0.434222 0.027272
Si Si3 0.794623 0.162814 0.460020
Si Si4 0.292619 0.996342 0.211957
Si Si5 0.816202 0.787841 0.776417
Si Si6 0.048578 0.615881 0.539719
Si Si7 0.952783 0.117044 0.468424
Si Si8 0.026490 0.140133 0.782795
O O1 0.452170 0.131193 0.633780
O O2 0.464526 0.251112 0.769433
O O3 0.500000 0.000000 0.758742
O O4 0.364993 0.067682 0.747204
O O5 0.213552 0.487021 0.116783
O O6 0.124807 0.417042 0.002810
O O7 0.237693 0.284527 0.013537
O O8 0.240651 0.539242 0.965795
O O9 0.805789 0.218646 0.371182
O O10 0.869933 0.107577 0.493958
O O11 0.287169 0.151256 0.237342
O O12 0.226634 0.916079 0.246581
O O13 0.898008 0.808637 0.747983
O O14 0.014580 0.748204 0.503249
O O15 0.000000 0.500000 0.507447
O O16 0.960886 0.113839 0.374689
O O17 0.000000 0.000000 0.507406
O O18 0.000000 0.000000 0.743507
#
# Coordination Sequence:
#
# PCOD8190584 Si02
#       8
#     8   8   8   8   8   8   8   8
#     4  10  20  40  61  85 118 159 196 250 305 358
#     4  10  21  40  60  84 118 159 194 246 300 356
#     4  10  21  40  60  83 123 156 196 244 298 357
#     4  11  23  39  63  89 123 158 208 254 305 364
#     4  11  23  40  61  92 124 158 204 254 299 369
#     4   9  20  37  59  86 114 146 199 243 289 356
#     4   9  20  39  56  83 118 151 191 244 288 353
#     4  10  22  40  60  86 122 158 200 246 304 361
#
# _framework density 20.245526000000002
#
# number of rings (size 3 to 8) (size 9 to 14) (size 15 to 20)
#    0.000    2.000    1.250    1.500    1.750    2.000 
#    9.000    0.000    0.000    0.000    0.000    0.000 
#    0.000    0.000    0.000    0.000    0.000    0.000 
#
# Total GULP energy -396756.315521 kJ/mol
# GULP energy per Si atom -12398.634860 kJ/mol
# Density = 2.019945 g / cm^3
# Si number density = 20.245526 Si / 1000 Ang^3
#
#
#
# Elastic Constant Matrix: (Units=GPa)
#
#
# Indices 1 2 3 4 5 6 
#
# 1 68.3782 56.2305 21.2667 0.0000 0.0000 0.0000
# 2 56.2305 173.3948 29.7692 0.0000 0.0000 0.0000
# 3 21.2667 29.7692 34.8786 0.0000 0.0000 0.0000
# 4 0.0000 0.0000 0.0000 34.8740 0.0000 0.0000
# 5 0.0000 0.0000 0.0000 0.0000 21.6856 0.0000
# 6 0.0000 0.0000 0.0000 0.0000 0.0000 32.7982
#
#
#
# Elastic Compliance Matrix: (Units=1/GPa)
#
#
# Indices 1 2 3 4 5 6 
#
# 1 0.021924 -0.005641 -0.008553 0.000000 0.000000 0.000000
# 2 -0.005641 0.008209 -0.003567 0.000000 0.000000 0.000000
# 3 -0.008553 -0.003567 0.036930 0.000000 0.000000 0.000000
# 4 0.000000 0.000000 0.000000 0.028675 0.000000 0.000000
# 5 0.000000 0.000000 0.000000 0.000000 0.046113 0.000000
# 6 0.000000 0.000000 0.000000 0.000000 0.000000 0.030489
#
#
# Mechanical properties :
#
#
# Convention : Reuss Voigt Hill
#
# Bulk Modulus (GPa) = 31.70461 54.57602 43.14032
# Shear Modulus (GPa) = 22.89634 29.16391 26.03013
#
# Velocity S-wave (km/s) = 3.36658 3.79952 3.58959
# Velocity P-wave (km/s) = 5.55031 6.80177 6.20766
#
# Compressibility (1/GPa) = 0.03154115
#
# Stress axis : x y z
#
# Youngs Moduli (GPa) = 45.61282 121.81814 27.07822
#
# Poissons Ratio (x) = 0.68721 0.23159
# Poissons Ratio (y) = 0.25731 0.09658
# Poissons Ratio (z) = 0.39012 0.43449
#
# Static dielectric constant tensor:
#      x y z
#    x 3.861450 0.000000 0.000000 
#    y 0.000000 3.883480 0.000000 
#    z 0.000000 0.000000 3.443640 
# 
# 
# High freq. dielectric constant tensor:
#      x y z
#    x 1.790350 0.000000 0.000000 
#    y 0.000000 1.806090 0.000000 
#    z 0.000000 0.000000 1.776280 
# 
# From -- ./inp_files/7773.got.cif
#   From: 2010.03.12/outbox.cif.g09.slc.cpg/sg45_4_cif.got.tgz:7773.got - 2010.04.14 02:50:11.
