data_PCOD8190847
_publ_section_title
;
Structure prediction by ZEFSAII (Michael W. Deem and Ramdas Pophale) SiO2 
 PCOD8190847
Probable space group: I B A 2
;
_chemical_formula_sum "Si O2"
_cell_formula_units_Z 64
_cell_length_a 11.789823
_cell_length_b 18.535377
_cell_length_c 13.602994
_cell_angle_alpha 90.000000
_cell_angle_beta 90.000000
_cell_angle_gamma 90.000000
_cell_volume 2972.646147
_symmetry_space_group_name_H-M "I B A 2"
_symmetry_group_IT_number 45
_symmetry_cell_setting 'orthorhombic'
loop_
_space_group_symop_operation_xyz
x,y,z
-x,-y,z
-x,y,1/2+z
x,-y,1/2+z
1/2+x,1/2+y,1/2+z
1/2-x,1/2-y,1/2+z
1/2-x,1/2+y,z
1/2+x,1/2-y,z
loop_
_atom_site_type_symbol
_atom_site_label
_atom_site_fract_x
_atom_site_fract_y
_atom_site_fract_z
Si Si1 0.132018 0.891669 0.063780
Si Si2 0.646107 0.817402 0.537201
Si Si3 0.621805 0.517724 0.405355
Si Si4 0.817329 0.394310 0.104820
Si Si5 0.522962 0.917136 0.930150
Si Si6 0.043516 0.374273 0.218771
Si Si7 0.108631 0.838232 0.521027
Si Si8 0.244140 0.526499 0.715866
O O1 0.219972 0.831646 0.022701
O O2 0.170236 0.913016 0.173891
O O3 0.009258 0.855704 0.075194
O O4 0.134362 0.962434 0.995369
O O5 0.582013 0.886774 0.492672
O O6 0.610150 0.813897 0.654106
O O7 0.605490 0.744394 0.481778
O O8 0.500000 0.500000 0.355242
O O9 0.627632 0.601551 0.437846
O O10 0.722652 0.506704 0.327290
O O11 0.719277 0.333974 0.092813
O O12 0.742081 0.458981 0.145597
O O13 0.913883 0.374745 0.182543
O O14 0.865502 0.414455 0.997605
O O15 0.540891 0.863666 0.836592
O O16 0.500000 0.000000 0.898536
O O17 0.112672 0.449442 0.206575
#
# Coordination Sequence:
#
# PCOD8190847 Si02
#       8
#     8   8   8   8   8   8   8   8
#     4  10  23  43  65  95 129 176 227 275 333 404
#     4  10  25  44  64  96 133 177 218 281 345 407
#     4  10  23  40  68 103 129 178 231 275 333 404
#     4  11  22  37  67  96 129 177 212 270 346 390
#     4  11  22  41  70  96 132 168 220 282 335 401
#     4  10  23  39  62  99 128 167 224 273 333 403
#     4  11  24  44  66  91 140 176 220 275 343 407
#     4  11  21  39  67  99 132 165 228 285 324 399
#
# _framework density 21.529640000000001
#
# number of rings (size 3 to 8) (size 9 to 14) (size 15 to 20)
#    0.000    1.500    1.250    4.125    8.750    0.500 
#    2.250    1.250    0.000    0.000    0.000    0.000 
#    0.000    0.000    0.000    0.000    0.000    0.000 
#
# Total GULP energy -396523.873699 kJ/mol
# GULP energy per Si atom -12391.371053 kJ/mol
# Density = 2.148064 g / cm^3
# Si number density = 21.529640 Si / 1000 Ang^3
#
#
#
# Elastic Constant Matrix: (Units=GPa)
#
#
# Indices 1 2 3 4 5 6 
#
# 1 141.1205 39.1213 33.8246 0.0001 0.0000 0.0000
# 2 39.1213 99.7582 24.0043 0.0001 0.0000 0.0000
# 3 33.8246 24.0043 102.0880 -0.0001 -0.0001 -0.0001
# 4 0.0001 0.0001 -0.0001 18.4610 0.0000 -0.0001
# 5 0.0000 0.0000 -0.0001 0.0000 35.5010 0.0000
# 6 0.0000 0.0000 -0.0001 -0.0001 0.0000 27.4517
#
#
#
# Elastic Compliance Matrix: (Units=1/GPa)
#
#
# Indices 1 2 3 4 5 6 
#
# 1 0.008362 -0.002769 -0.002119 0.000000 0.000000 0.000000
# 2 -0.002769 0.011543 -0.001797 0.000000 0.000000 0.000000
# 3 -0.002119 -0.001797 0.010920 0.000000 0.000000 0.000000
# 4 0.000000 0.000000 0.000000 0.054168 0.000000 0.000000
# 5 0.000000 0.000000 0.000000 0.000000 0.028168 0.000000
# 6 0.000000 0.000000 0.000000 0.000000 0.000000 0.036428
#
#
# Mechanical properties :
#
#
# Convention : Reuss Voigt Hill
#
# Bulk Modulus (GPa) = 57.29269 59.65189 58.47229
# Shear Modulus (GPa) = 29.62493 32.68384 31.15439
#
# Velocity S-wave (km/s) = 3.71348 3.90049 3.80813
# Velocity P-wave (km/s) = 6.71233 6.93196 6.82303
#
# Compressibility (1/GPa) = 0.01745423
#
# Stress axis : x y z
#
# Youngs Moduli (GPa) = 119.59142 86.63634 91.57435
#
# Poissons Ratio (x) = 0.23991 0.19408
# Poissons Ratio (y) = 0.33117 0.16451
# Poissons Ratio (z) = 0.25346 0.15564
#
# Static dielectric constant tensor:
#      x y z
#    x 4.139800 0.000000 0.000000 
#    y 0.000000 3.631160 0.000000 
#    z 0.000000 0.000000 3.744620 
# 
# 
# High freq. dielectric constant tensor:
#      x y z
#    x 1.868990 0.000000 0.000000 
#    y 0.000000 1.819880 0.000000 
#    z 0.000000 0.000000 1.827820 
# 
# From -- ./inp_files/6302.got.cif
#   From: 2010.03.12/outbox.cif.g09.slc.cpg/sg45_4_cif.got.tgz:6302.got - 2010.04.14 02:50:11.
