data_PCOD8190215
_publ_section_title
;
Structure prediction by ZEFSAII (Michael W. Deem and Ramdas Pophale) SiO2 
 PCOD8190215
Probable space group: I M M 2
;
_chemical_formula_sum "Si O2"
_cell_formula_units_Z 40
_cell_length_a 8.644772
_cell_length_b 22.747799
_cell_length_c 10.148096
_cell_angle_alpha 90.000000
_cell_angle_beta 90.000000
_cell_angle_gamma 90.000000
_cell_volume 1995.618368
_symmetry_space_group_name_H-M "I M M 2"
_symmetry_group_IT_number 44
_symmetry_cell_setting 'orthorhombic'
loop_
_space_group_symop_operation_xyz
x,y,z
-x,-y,z
-x,y,z
x,-y,z
1/2+x,1/2+y,1/2+z
1/2-x,1/2-y,1/2+z
1/2-x,1/2+y,1/2+z
1/2+x,1/2-y,1/2+z
loop_
_atom_site_type_symbol
_atom_site_label
_atom_site_fract_x
_atom_site_fract_y
_atom_site_fract_z
Si Si1 0.817558 0.877434 0.849180
Si Si2 0.181529 0.683005 0.103353
Si Si3 0.181288 0.000000 0.265252
Si Si4 0.683516 0.500000 0.470175
Si Si5 0.818652 0.691588 0.585086
Si Si6 0.180714 0.618191 0.838809
O O1 0.727905 0.863249 0.715430
O O2 0.000000 0.876334 0.823598
O O3 0.758563 0.941679 0.895099
O O4 0.777121 0.828620 0.958112
O O5 0.277136 0.742284 0.123919
O O6 0.000000 0.696611 0.110158
O O7 0.231138 0.656560 0.963406
O O8 0.233305 0.056377 0.347296
O O9 0.000000 0.000000 0.252496
O O10 0.254654 0.000000 0.117802
O O11 0.500000 0.500000 0.478057
O O12 0.767256 0.651496 0.707140
O O13 0.000000 0.686371 0.555418
O O14 0.000000 0.605757 0.840355
#
# Coordination Sequence:
#
# PCOD8190215 Si02
#       6
#     8   8   4   4   8   8
#     4  11  22  40  63  90 125 161 200 251 302 357
#     4  11  24  41  60  89 126 163 203 249 303 360
#     4  11  21  38  65  92 116 154 203 249 300 359
#     4   9  20  38  61  88 118 154 199 249 300 355
#     4  11  22  39  64  92 120 161 207 248 303 361
#     4  10  23  41  61  88 124 160 197 248 303 356
#
# _framework density 20.043913
#
# number of rings (size 3 to 8) (size 9 to 14) (size 15 to 20)
#    0.000    1.400    2.000    3.300    0.000    4.800 
#    0.000    4.000    0.000    0.000    0.000    0.000 
#    0.000    0.000    0.000    0.000    0.000    0.000 
#
# Total GULP energy -248138.968005 kJ/mol
# GULP energy per Si atom -12406.948400 kJ/mol
# Density = 1.999829 g / cm^3
# Si number density = 20.043913 Si / 1000 Ang^3
#
#
#
# Elastic Constant Matrix: (Units=GPa)
#
#
# Indices 1 2 3 4 5 6 
#
# 1 36.9215 30.7681 33.1347 0.0007 -0.0003 0.0000
# 2 30.7681 119.4257 18.2842 0.0024 -0.0003 -0.0001
# 3 33.1347 18.2842 89.5365 0.0066 0.0002 -0.0001
# 4 0.0007 0.0024 0.0066 -2.3290 -0.0003 0.0000
# 5 -0.0003 -0.0003 0.0002 -0.0003 31.6166 0.0002
# 6 0.0000 -0.0001 -0.0001 0.0000 0.0002 34.7168
#
#
#
# Elastic Compliance Matrix: (Units=1/GPa)
#
#
# Indices 1 2 3 4 5 6 
#
# 1 0.050813 -0.010542 -0.016652 -0.000042 0.000000 0.000000
# 2 -0.010542 0.010831 0.001689 0.000013 0.000000 0.000000
# 3 -0.016652 0.001689 0.016986 0.000045 0.000000 0.000000
# 4 -0.000042 0.000013 0.000045 -0.429374 -0.000004 0.000000
# 5 0.000000 0.000000 0.000000 -0.000004 0.031629 0.000000
# 6 0.000000 0.000000 0.000000 0.000000 0.000000 0.028804
#
#
# Mechanical properties :
#
#
# Convention : Reuss Voigt Hill
#
# Bulk Modulus (GPa) = 36.20332 45.58416 40.89374
# Shear Modulus (GPa) = -21.73008 23.71401 0.99196
#
# Velocity S-wave (km/s) = -3.29618 3.44336 0.70425
# Velocity P-wave (km/s) = 1.90128 6.21293 4.59431
#
# Compressibility (1/GPa) = 0.02762177
#
# Stress axis : x y z
#
# Youngs Moduli (GPa) = 19.67996 92.33040 58.87248
#
# Poissons Ratio (x) = 0.97333 0.98032
# Poissons Ratio (y) = 0.20746 -0.09946
# Poissons Ratio (z) = 0.32770 -0.15599
#
# Static dielectric constant tensor:
#      x y z
#    x 3.486790 0.000000 0.000000 
#    y 0.000000 3.719980 0.000000 
#    z 0.000000 0.000000 3.748000 
# 
# 
# High freq. dielectric constant tensor:
#      x y z
#    x 1.777410 0.000000 0.000000 
#    y 0.000000 1.794470 0.000000 
#    z 0.000000 0.000000 1.788280 
# 
# From -- ./inp_files/11018.got.cif
#   From: 2010.03.12/outbox.cif.g09.slc.cpg/sg44_6_cif.got.tgz:11018.got - 2010.04.14 02:36:11.
