data_PCOD8190422
_publ_section_title
;
Structure prediction by ZEFSAII (Michael W. Deem and Ramdas Pophale) SiO2 
 PCOD8190422
Probable space group: I B A 2
;
_chemical_formula_sum "Si O2"
_cell_formula_units_Z 48
_cell_length_a 20.288395
_cell_length_b 13.695275
_cell_length_c 8.939581
_cell_angle_alpha 90.000000
_cell_angle_beta 90.000000
_cell_angle_gamma 90.000000
_cell_volume 2483.908609
_symmetry_space_group_name_H-M "I B A 2"
_symmetry_group_IT_number 45
_symmetry_cell_setting 'orthorhombic'
loop_
_space_group_symop_operation_xyz
x,y,z
-x,-y,z
-x,y,1/2+z
x,-y,1/2+z
1/2+x,1/2+y,1/2+z
1/2-x,1/2-y,1/2+z
1/2-x,1/2+y,z
1/2+x,1/2-y,z
loop_
_atom_site_type_symbol
_atom_site_label
_atom_site_fract_x
_atom_site_fract_y
_atom_site_fract_z
Si Si1 0.000000 0.000000 0.579850
Si Si2 0.721861 0.084641 0.464119
Si Si3 0.587451 0.576820 0.820176
Si Si4 0.201158 0.039472 0.686577
Si Si5 0.843323 0.223829 0.001396
Si Si6 0.500000 0.000000 0.314075
Si Si7 0.917273 0.595207 0.559026
O O1 0.945140 0.947519 0.480355
O O2 0.033289 0.917456 0.687748
O O3 0.736725 0.052101 0.295655
O O4 0.717712 0.203337 0.464747
O O5 0.651428 0.039746 0.516976
O O6 0.780260 0.045524 0.570017
O O7 0.637155 0.490021 0.780373
O O8 0.627378 0.677412 0.847068
O O9 0.184939 0.141065 0.607815
O O10 0.901739 0.288823 0.077714
O O11 0.445807 0.053808 0.212872
O O12 0.533017 0.081087 0.420266
#
# Coordination Sequence:
#
# PCOD8190422 Si02
#       7
#     4   8   8   8   8   4   8
#     4  10  22  38  66  78 122 166 200 238 314 358
#     4  10  24  38  66  89 124 162 206 254 315 375
#     4  11  21  41  60  90 118 168 196 255 303 362
#     4  12  21  43  64  88 133 159 200 269 306 369
#     4  10  24  37  60  97 119 159 217 239 319 369
#     4  10  18  44  66  84 130 162 198 264 300 356
#     4   9  22  38  64  93 117 165 206 246 310 368
#
# _framework density 19.324382
#
# number of rings (size 3 to 8) (size 9 to 14) (size 15 to 20)
#    1.000    0.667    3.333    1.000    2.333    1.333 
#    0.000    0.000    3.667    0.000    0.000    0.000 
#    0.000    0.000    0.000    0.000    0.000    0.000 
#
# Total GULP energy -297408.878863 kJ/mol
# GULP energy per Si atom -12392.036619 kJ/mol
# Density = 1.928040 g / cm^3
# Si number density = 19.324382 Si / 1000 Ang^3
#
#
#
# Elastic Constant Matrix: (Units=GPa)
#
#
# Indices 1 2 3 4 5 6 
#
# 1 91.5275 37.6308 52.5117 0.0000 0.0000 0.0000
# 2 37.6308 110.5190 49.6733 0.0000 0.0000 0.0000
# 3 52.5117 49.6733 118.7124 0.0000 0.0000 0.0000
# 4 0.0000 0.0000 0.0000 21.7008 0.0000 0.0000
# 5 0.0000 0.0000 0.0000 0.0000 38.6902 0.0000
# 6 0.0000 0.0000 0.0000 0.0000 0.0000 41.2660
#
#
#
# Elastic Compliance Matrix: (Units=1/GPa)
#
#
# Indices 1 2 3 4 5 6 
#
# 1 0.015252 -0.002661 -0.005633 0.000000 0.000000 0.000000
# 2 -0.002661 0.011608 -0.003680 0.000000 0.000000 0.000000
# 3 -0.005633 -0.003680 0.012455 0.000000 0.000000 0.000000
# 4 0.000000 0.000000 0.000000 0.046081 0.000000 0.000000
# 5 0.000000 0.000000 0.000000 0.000000 0.025846 0.000000
# 6 0.000000 0.000000 0.000000 0.000000 0.000000 0.024233
#
#
# Mechanical properties :
#
#
# Convention : Reuss Voigt Hill
#
# Bulk Modulus (GPa) = 65.07602 66.71007 65.89304
# Shear Modulus (GPa) = 30.38652 32.39428 31.39040
#
# Velocity S-wave (km/s) = 3.96971 4.09876 4.03475
# Velocity P-wave (km/s) = 7.40001 7.54956 7.47516
#
# Compressibility (1/GPa) = 0.01536664
#
# Stress axis : x y z
#
# Youngs Moduli (GPa) = 65.56698 86.14429 80.28728
#
# Poissons Ratio (x) = 0.22926 0.45225
# Poissons Ratio (y) = 0.17450 0.29547
# Poissons Ratio (z) = 0.36933 0.31702
#
# Static dielectric constant tensor:
#      x y z
#    x 3.632320 0.000000 0.000000 
#    y 0.000000 3.283370 0.000000 
#    z 0.000000 0.000000 3.543280 
# 
# 
# High freq. dielectric constant tensor:
#      x y z
#    x 1.760970 0.000000 0.000000 
#    y 0.000000 1.728120 0.000000 
#    z 0.000000 0.000000 1.757400 
# 
# From -- ./inp_files/1769.got.cif
#   From: 2010.03.12/outbox.cif.g09.slc.cpg/sg45_1_cif.got.tgz:1769.got - 2010.04.14 02:50:11.
