data_PCOD8190429
_publ_section_title
;
Structure prediction by ZEFSAII (Michael W. Deem and Ramdas Pophale) SiO2 
 PCOD8190429
Probable space group: I B A 2
;
_chemical_formula_sum "Si O2"
_cell_formula_units_Z 60
_cell_length_a 19.933244
_cell_length_b 16.844345
_cell_length_c 9.910444
_cell_angle_alpha 90.000000
_cell_angle_beta 90.000000
_cell_angle_gamma 90.000000
_cell_volume 3327.554848
_symmetry_space_group_name_H-M "I B A 2"
_symmetry_group_IT_number 45
_symmetry_cell_setting 'orthorhombic'
loop_
_space_group_symop_operation_xyz
x,y,z
-x,-y,z
-x,y,1/2+z
x,-y,1/2+z
1/2+x,1/2+y,1/2+z
1/2-x,1/2-y,1/2+z
1/2-x,1/2+y,z
1/2+x,1/2-y,z
loop_
_atom_site_type_symbol
_atom_site_label
_atom_site_fract_x
_atom_site_fract_y
_atom_site_fract_z
Si Si1 0.000000 0.500000 0.513360
Si Si2 0.112304 0.392285 0.615705
Si Si3 0.344416 0.764197 0.111631
Si Si4 0.704700 0.648222 0.409616
Si Si5 0.225848 0.500000 0.513360
Si Si6 0.887695 0.392285 0.411016
Si Si7 0.295300 0.648222 0.617105
Si Si8 0.655584 0.764197 0.915089
O O1 0.046316 0.446036 0.608079
O O2 0.046317 0.553963 0.418642
O O3 0.178653 0.447068 0.609344
O O4 0.110007 0.326971 0.497120
O O5 0.113672 0.351070 0.763360
O O6 0.343638 0.680784 0.029030
O O7 0.389993 0.826971 0.029602
O O8 0.269825 0.796675 0.122022
O O9 0.373815 0.751378 0.263360
O O10 0.725393 0.557000 0.429145
O O11 0.668460 0.654338 0.263360
O O12 0.769825 0.703325 0.404699
O O13 0.178653 0.552932 0.417376
O O14 0.274607 0.557000 0.597576
O O15 0.343638 0.680783 0.497690
#
# Coordination Sequence:
#
# PCOD8190429 Si02
#       8
#     4   8   8   8   8   8   8   8
#     4  10  22  32  48  70  90 114 152 192 226 262
#     4  10  19  32  47  64  88 120 153 188 226 266
#     4   9  18  29  42  60  85 115 150 186 222 264
#     4   9  16  27  42  61  85 117 150 182 221 267
#     4   9  18  27  44  68  92 117 152 189 222 262
#     4  10  19  32  47  64  88 120 153 188 226 266
#     4   9  16  27  42  61  85 117 150 182 221 267
#     4   9  18  29  42  60  85 115 150 186 222 264
#
# _framework density 18.031258000000001
#
# number of rings (size 3 to 8) (size 9 to 14) (size 15 to 20)
#    0.000    2.667    0.000    2.000    0.000   14.933 
#    0.000    0.000    0.000    0.000    0.000    0.000 
#    0.000    1.067    0.000    7.467    0.000    5.067 
#
# Total GULP energy -371770.485145 kJ/mol
# GULP energy per Si atom -12392.349505 kJ/mol
# Density = 1.799022 g / cm^3
# Si number density = 18.031258 Si / 1000 Ang^3
#
#
#
# Elastic Constant Matrix: (Units=GPa)
#
#
# Indices 1 2 3 4 5 6 
#
# 1 33.8231 29.4649 32.1864 0.0000 0.0000 0.0000
# 2 29.4649 92.9573 57.5426 0.0000 0.0000 0.0000
# 3 32.1864 57.5426 184.5392 0.0000 0.0000 0.0000
# 4 0.0000 0.0000 0.0000 18.1686 0.0000 0.0000
# 5 0.0000 0.0000 0.0000 0.0000 7.0198 0.0000
# 6 0.0000 0.0000 0.0000 0.0000 0.0000 19.7130
#
#
#
# Elastic Compliance Matrix: (Units=1/GPa)
#
#
# Indices 1 2 3 4 5 6 
#
# 1 0.043146 -0.011175 -0.004041 0.000000 0.000000 0.000000
# 2 -0.011175 0.016225 -0.003110 0.000000 0.000000 0.000000
# 3 -0.004041 -0.003110 0.007093 0.000000 0.000000 0.000000
# 4 0.000000 0.000000 0.000000 0.055040 0.000000 0.000000
# 5 0.000000 0.000000 0.000000 0.000000 0.142454 0.000000
# 6 0.000000 0.000000 0.000000 0.000000 0.000000 0.050728
#
#
# Mechanical properties :
#
#
# Convention : Reuss Voigt Hill
#
# Bulk Modulus (GPa) = 33.54263 61.07860 47.31062
# Shear Modulus (GPa) = 13.83987 21.78866 17.81427
#
# Velocity S-wave (km/s) = 2.77347 3.47995 3.14660
# Velocity P-wave (km/s) = 5.37579 7.07771 6.28463
#
# Compressibility (1/GPa) = 0.02981281
#
# Stress axis : x y z
#
# Youngs Moduli (GPa) = 23.17733 61.63336 140.97416
#
# Poissons Ratio (x) = 0.68873 0.56965
# Poissons Ratio (y) = 0.25900 0.43846
# Poissons Ratio (z) = 0.09365 0.19169
#
# Static dielectric constant tensor:
#      x y z
#    x 2.783440 0.000000 0.000000 
#    y 0.000000 3.292630 0.000000 
#    z 0.000000 0.000000 3.652520 
# 
# 
# High freq. dielectric constant tensor:
#      x y z
#    x 1.624320 0.000000 0.000000 
#    y 0.000000 1.684240 0.000000 
#    z 0.000000 0.000000 1.716810 
# 
# From -- ./inp_files/2525.got.cif
#   From: 2010.03.12/outbox.cif.g09.slc.cpg/sg45_2_cif.got.tgz:2525.got - 2010.04.14 02:50:11.
