data_PCOD8190312
_publ_section_title
;
Structure prediction by ZEFSAII (Michael W. Deem and Ramdas Pophale) SiO2 
 PCOD8190312
Probable space group: I M M 2
;
_chemical_formula_sum "Si O2"
_cell_formula_units_Z 48
_cell_length_a 17.109441
_cell_length_b 17.201020
_cell_length_c 7.732893
_cell_angle_alpha 90.000000
_cell_angle_beta 90.000000
_cell_angle_gamma 90.000000
_cell_volume 2275.789148
_symmetry_space_group_name_H-M "I M M 2"
_symmetry_group_IT_number 44
_symmetry_cell_setting 'orthorhombic'
loop_
_space_group_symop_operation_xyz
x,y,z
-x,-y,z
-x,y,z
x,-y,z
1/2+x,1/2+y,1/2+z
1/2-x,1/2-y,1/2+z
1/2-x,1/2+y,1/2+z
1/2+x,1/2-y,1/2+z
loop_
_atom_site_type_symbol
_atom_site_label
_atom_site_fract_x
_atom_site_fract_y
_atom_site_fract_z
Si Si1 0.590353 0.086957 0.773000
Si Si2 0.676262 0.906826 0.118427
Si Si3 0.593178 0.821825 0.430552
Si Si4 0.660523 0.659711 0.522473
Si Si5 0.409323 0.585534 0.837510
Si Si6 0.913946 0.909710 0.706630
O O1 0.500000 0.091770 0.817133
O O2 0.613237 0.138551 0.611127
O O3 0.616222 0.000000 0.725980
O O4 0.633443 0.116609 0.942843
O O5 0.624383 0.876409 0.277394
O O6 0.756022 0.857770 0.108407
O O7 0.688820 0.000000 0.137361
O O8 0.500000 0.807798 0.406525
O O9 0.643901 0.743308 0.437943
O O10 0.601659 0.645275 0.680942
O O11 0.646282 0.601941 0.362560
O O12 0.500000 0.573963 0.867311
O O13 0.371684 0.500000 0.794766
O O14 0.378398 0.620900 0.021984
O O15 0.000000 0.872369 0.749166
O O16 0.925354 0.000000 0.678232
#
# Coordination Sequence:
#
# PCOD8190312 Si02
#       6
#     8   8   8   8   8   8
#     4   9  20  42  70  94 120 164 223 276 320 384
#     4  11  25  43  67  97 132 177 223 274 335 401
#     4  11  25  43  67  97 132 177 223 274 335 401
#     4  12  24  37  62  92 136 168 211 274 342 402
#     4   9  18  34  57  86 123 170 221 265 312 389
#     4   9  18  34  57  86 123 170 221 265 312 389
#
# _framework density 21.091584999999998
#
# number of rings (size 3 to 8) (size 9 to 14) (size 15 to 20)
#    0.000    1.833    0.000    5.000    2.333    5.667 
#    0.000    3.333    0.000    0.000    0.000    0.000 
#    0.000    0.000    0.000    0.000    0.000    0.000 
#
# Total GULP energy -297428.307481 kJ/mol
# GULP energy per Si atom -12392.846145 kJ/mol
# Density = 2.104358 g / cm^3
# Si number density = 21.091585 Si / 1000 Ang^3
#
#
#
# Elastic Constant Matrix: (Units=GPa)
#
#
# Indices 1 2 3 4 5 6 
#
# 1 57.7494 43.7182 50.9499 0.0000 0.0000 0.0000
# 2 43.7182 70.2603 48.0571 0.0000 0.0000 0.0000
# 3 50.9499 48.0571 154.5232 0.0000 0.0000 0.0000
# 4 0.0000 0.0000 0.0000 18.1515 0.0000 0.0000
# 5 0.0000 0.0000 0.0000 0.0000 16.4874 0.0000
# 6 0.0000 0.0000 0.0000 0.0000 0.0000 27.9952
#
#
#
# Elastic Compliance Matrix: (Units=1/GPa)
#
#
# Indices 1 2 3 4 5 6 
#
# 1 0.037168 -0.018729 -0.006430 0.000000 0.000000 0.000000
# 2 -0.018729 0.027516 -0.002382 0.000000 0.000000 0.000000
# 3 -0.006430 -0.002382 0.009333 0.000000 0.000000 0.000000
# 4 0.000000 0.000000 0.000000 0.055092 0.000000 0.000000
# 5 0.000000 0.000000 0.000000 0.000000 0.060652 0.000000
# 6 0.000000 0.000000 0.000000 0.000000 0.000000 0.035720
#
#
# Mechanical properties :
#
#
# Convention : Reuss Voigt Hill
#
# Bulk Modulus (GPa) = 52.81610 63.10924 57.96267
# Shear Modulus (GPa) = 17.42926 21.84735 19.63830
#
# Velocity S-wave (km/s) = 2.87777 3.22193 3.05470
# Velocity P-wave (km/s) = 6.01147 6.62024 6.32318
#
# Compressibility (1/GPa) = 0.01893362
#
# Stress axis : x y z
#
# Youngs Moduli (GPa) = 26.90514 36.34289 107.15083
#
# Poissons Ratio (x) = 0.68065 0.68902
# Poissons Ratio (y) = 0.50389 0.25526
# Poissons Ratio (z) = 0.17301 0.08658
#
# Static dielectric constant tensor:
#      x y z
#    x 3.714340 0.000000 0.000000 
#    y 0.000000 3.727850 0.000000 
#    z 0.000000 0.000000 4.112930 
# 
# 
# High freq. dielectric constant tensor:
#      x y z
#    x 1.812220 0.000000 0.000000 
#    y 0.000000 1.812330 0.000000 
#    z 0.000000 0.000000 1.851370 
# 
# From -- ./inp_files/7121.got.cif
#   From: 2010.03.12/outbox.cif.g09.slc.cpg/sg44_4_cif.got.tgz:7121.got - 2010.04.14 02:36:11.
