data_PCOD8190690
_publ_section_title
;
Structure prediction by ZEFSAII (Michael W. Deem and Ramdas Pophale) SiO2 
 PCOD8190690
Probable space group: I B A 2
;
_chemical_formula_sum "Si O2"
_cell_formula_units_Z 48
_cell_length_a 7.898772
_cell_length_b 11.882381
_cell_length_c 22.496532
_cell_angle_alpha 90.000000
_cell_angle_beta 90.000000
_cell_angle_gamma 90.000000
_cell_volume 2111.439419
_symmetry_space_group_name_H-M "I B A 2"
_symmetry_group_IT_number 45
_symmetry_cell_setting 'orthorhombic'
loop_
_space_group_symop_operation_xyz
x,y,z
-x,-y,z
-x,y,1/2+z
x,-y,1/2+z
1/2+x,1/2+y,1/2+z
1/2-x,1/2-y,1/2+z
1/2-x,1/2+y,z
1/2+x,1/2-y,z
loop_
_atom_site_type_symbol
_atom_site_label
_atom_site_fract_x
_atom_site_fract_y
_atom_site_fract_z
Si Si1 0.500000 0.000000 0.680990
Si Si2 0.107243 0.399406 0.999411
Si Si3 0.573496 0.304179 0.556286
Si Si4 0.970522 0.347277 0.286561
Si Si5 0.277351 0.635101 0.130932
Si Si6 0.097495 0.882732 0.759888
Si Si7 0.000000 0.500000 0.885865
O O1 0.458138 0.107057 0.723238
O O2 0.662740 0.022872 0.639113
O O3 0.294030 0.387868 0.025907
O O4 0.000000 0.500000 0.031658
O O5 0.000787 0.284299 0.008078
O O6 0.131556 0.434885 0.929859
O O7 0.420698 0.381657 0.580790
O O8 0.657896 0.239184 0.611949
O O9 0.776052 0.388584 0.294218
O O10 0.074620 0.403477 0.341524
O O11 0.981079 0.212917 0.289823
O O12 0.368170 0.659014 0.193116
O O13 0.000000 0.000000 0.763356
#
# Coordination Sequence:
#
# PCOD8190690 Si02
#       7
#     4   8   8   8   8   8   4
#     4   9  20  37  62 100 142 195 216 281 342 438
#     4   9  22  43  69  96 136 174 241 294 345 412
#     4  10  21  42  68 104 133 187 229 296 340 421
#     4  10  23  43  69  96 147 177 237 289 353 416
#     4  10  21  39  66  99 145 181 231 271 364 404
#     4  11  25  42  66 104 139 185 235 280 346 439
#     4   9  22  45  72  98 134 193 216 307 364 394
#
# _framework density 22.733308000000001
#
# number of rings (size 3 to 8) (size 9 to 14) (size 15 to 20)
#    0.500    1.667    0.000    2.000    8.167    2.667 
#    9.000    2.500    0.000    0.000    0.000    0.000 
#    0.000    0.000    0.000    0.000    0.000    0.000 
#
# Total GULP energy -297334.829721 kJ/mol
# GULP energy per Si atom -12388.951238 kJ/mol
# Density = 2.268157 g / cm^3
# Si number density = 22.733308 Si / 1000 Ang^3
#
#
#
# Elastic Constant Matrix: (Units=GPa)
#
#
# Indices 1 2 3 4 5 6 
#
# 1 151.5658 75.8758 65.8373 0.0000 0.0000 0.0000
# 2 75.8758 150.7921 72.6860 0.0000 0.0000 0.0000
# 3 65.8373 72.6860 118.8845 0.0000 0.0000 0.0000
# 4 0.0000 0.0000 0.0000 34.0898 0.0000 0.0000
# 5 0.0000 0.0000 0.0000 0.0000 18.7674 0.0000
# 6 0.0000 0.0000 0.0000 0.0000 0.0000 42.4089
#
#
#
# Elastic Compliance Matrix: (Units=1/GPa)
#
#
# Indices 1 2 3 4 5 6 
#
# 1 0.009692 -0.003247 -0.003383 0.000000 0.000000 0.000000
# 2 -0.003247 0.010490 -0.004616 0.000000 0.000000 0.000000
# 3 -0.003383 -0.004616 0.013107 0.000000 0.000000 0.000000
# 4 0.000000 0.000000 0.000000 0.029334 0.000000 0.000000
# 5 0.000000 0.000000 0.000000 0.000000 0.053284 0.000000
# 6 0.000000 0.000000 0.000000 0.000000 0.000000 0.023580
#
#
# Mechanical properties :
#
#
# Convention : Reuss Voigt Hill
#
# Bulk Modulus (GPa) = 92.59642 94.44896 93.52269
# Shear Modulus (GPa) = 30.19737 32.84278 31.52008
#
# Velocity S-wave (km/s) = 3.64858 3.80504 3.72763
# Velocity P-wave (km/s) = 7.65308 7.80648 7.73016
#
# Compressibility (1/GPa) = 0.01079955
#
# Stress axis : x y z
#
# Youngs Moduli (GPa) = 103.17364 95.32735 76.29561
#
# Poissons Ratio (x) = 0.30948 0.25808
# Poissons Ratio (y) = 0.33495 0.35217
# Poissons Ratio (z) = 0.34900 0.44001
#
# Static dielectric constant tensor:
#      x y z
#    x 4.070960 0.000000 0.000000 
#    y 0.000000 3.976380 0.000000 
#    z 0.000000 0.000000 3.975840 
# 
# 
# High freq. dielectric constant tensor:
#      x y z
#    x 1.884230 0.000000 0.000000 
#    y 0.000000 1.897420 0.000000 
#    z 0.000000 0.000000 1.880220 
# 
# From -- ./inp_files/9542.got.cif
#   From: 2010.03.12/outbox.cif.g09.slc.cpg/sg45_5_cif.got.tgz:9542.got - 2010.04.14 02:50:11.
