data_PCOD8190882
_publ_section_title
;
Structure prediction by ZEFSAII (Michael W. Deem and Ramdas Pophale) SiO2 
 PCOD8190882
Probable space group: I B A 2
;
_chemical_formula_sum "Si O2"
_cell_formula_units_Z 36
_cell_length_a 8.860886
_cell_length_b 9.477181
_cell_length_c 20.245222
_cell_angle_alpha 90.000000
_cell_angle_beta 90.000000
_cell_angle_gamma 90.000000
_cell_volume 1700.117226
_symmetry_space_group_name_H-M "I B A 2"
_symmetry_group_IT_number 45
_symmetry_cell_setting 'orthorhombic'
loop_
_space_group_symop_operation_xyz
x,y,z
-x,-y,z
-x,y,1/2+z
x,-y,1/2+z
1/2+x,1/2+y,1/2+z
1/2-x,1/2-y,1/2+z
1/2-x,1/2+y,z
1/2+x,1/2-y,z
loop_
_atom_site_type_symbol
_atom_site_label
_atom_site_fract_x
_atom_site_fract_y
_atom_site_fract_z
Si Si1 0.000000 0.500000 0.761471
Si Si2 0.581506 0.641901 0.069684
Si Si3 0.397178 0.210562 0.934416
Si Si4 0.187155 0.581952 0.382059
Si Si5 0.898690 0.625002 0.134980
O O1 0.873028 0.572102 0.807289
O O2 0.914631 0.385951 0.714954
O O3 0.500000 0.500000 0.044539
O O4 0.726362 0.604985 0.113845
O O5 0.460561 0.723426 0.114280
O O6 0.634037 0.738479 0.008646
O O7 0.346116 0.336803 0.884680
O O8 0.573087 0.179792 0.924588
O O9 0.300801 0.070200 0.917248
O O10 0.000000 0.500000 0.101783
#
# Coordination Sequence:
#
# PCOD8190882 Si02
#       5
#     4   8   8   8   8
#     4   8  22  46  68  90 140 174 230 270 324 408
#     4  12  25  41  67 102 136 181 226 279 348 400
#     4  10  24  39  67  97 132 170 219 276 335 397
#     4  10  23  44  68  97 132 176 217 279 332 389
#     4  10  24  42  68  95 137 179 221 281 328 408
#
# _framework density 21.17501
#
# number of rings (size 3 to 8) (size 9 to 14) (size 15 to 20)
#    0.667    1.333    0.000    2.667   12.444    3.556 
#    0.000    0.000    0.000    0.000    0.000    0.000 
#    0.000    0.000    0.000    0.000    0.000    0.000 
#
# Total GULP energy -223135.615252 kJ/mol
# GULP energy per Si atom -12396.423070 kJ/mol
# Density = 2.112681 g / cm^3
# Si number density = 21.175010 Si / 1000 Ang^3
#
#
#
# Elastic Constant Matrix: (Units=GPa)
#
#
# Indices 1 2 3 4 5 6 
#
# 1 69.7584 43.1672 31.6776 0.0000 0.0000 0.0000
# 2 43.1672 127.2779 52.5363 0.0000 0.0000 0.0000
# 3 31.6776 52.5363 147.6086 0.0000 0.0000 0.0000
# 4 0.0000 0.0000 0.0000 24.8908 0.0000 0.0000
# 5 0.0000 0.0000 0.0000 0.0000 22.1378 0.0000
# 6 0.0000 0.0000 0.0000 0.0000 0.0000 47.6326
#
#
#
# Elastic Compliance Matrix: (Units=1/GPa)
#
#
# Indices 1 2 3 4 5 6 
#
# 1 0.018659 -0.005481 -0.002054 0.000000 0.000000 0.000000
# 2 -0.005481 0.010820 -0.002675 0.000000 0.000000 0.000000
# 3 -0.002054 -0.002675 0.008167 0.000000 0.000000 0.000000
# 4 0.000000 0.000000 0.000000 0.040175 0.000000 0.000000
# 5 0.000000 0.000000 0.000000 0.000000 0.045172 0.000000
# 6 0.000000 0.000000 0.000000 0.000000 0.000000 0.020994
#
#
# Mechanical properties :
#
#
# Convention : Reuss Voigt Hill
#
# Bulk Modulus (GPa) = 58.04471 66.60076 62.32274
# Shear Modulus (GPa) = 29.38612 33.41651 31.40132
#
# Velocity S-wave (km/s) = 3.72932 3.97685 3.85508
# Velocity P-wave (km/s) = 6.78345 7.25313 7.02222
#
# Compressibility (1/GPa) = 0.01722810
#
# Stress axis : x y z
#
# Youngs Moduli (GPa) = 53.59252 92.42414 122.43828
#
# Poissons Ratio (x) = 0.50655 0.25145
# Poissons Ratio (y) = 0.29373 0.32749
# Poissons Ratio (z) = 0.11006 0.24721
#
# Static dielectric constant tensor:
#      x y z
#    x 3.637610 0.000000 0.000000 
#    y 0.000000 3.892410 0.000000 
#    z 0.000000 0.000000 3.643040 
# 
# 
# High freq. dielectric constant tensor:
#      x y z
#    x 1.823750 0.000000 0.000000 
#    y 0.000000 1.836370 0.000000 
#    z 0.000000 0.000000 1.821040 
# 
# From -- ./inp_files/8766.got.cif
#   From: 2010.03.12/outbox.cif.g09.slc.cpg/sg45_5_cif.got.tgz:8766.got - 2010.04.14 02:50:11.
