data_PCOD8190490
_publ_section_title
;
Structure prediction by ZEFSAII (Michael W. Deem and Ramdas Pophale) SiO2 
 PCOD8190490
Probable space group: I B A 2
;
_chemical_formula_sum "Si O2"
_cell_formula_units_Z 64
_cell_length_a 18.494282
_cell_length_b 20.868119
_cell_length_c 8.903679
_cell_angle_alpha 90.000000
_cell_angle_beta 90.000000
_cell_angle_gamma 90.000000
_cell_volume 3436.293687
_symmetry_space_group_name_H-M "I B A 2"
_symmetry_group_IT_number 45
_symmetry_cell_setting 'orthorhombic'
loop_
_space_group_symop_operation_xyz
x,y,z
-x,-y,z
-x,y,1/2+z
x,-y,1/2+z
1/2+x,1/2+y,1/2+z
1/2-x,1/2-y,1/2+z
1/2-x,1/2+y,z
1/2+x,1/2-y,z
loop_
_atom_site_type_symbol
_atom_site_label
_atom_site_fract_x
_atom_site_fract_y
_atom_site_fract_z
Si Si1 0.956676 0.941830 0.156230
Si Si2 0.931913 0.827902 0.615113
Si Si3 0.499921 0.754421 0.868521
Si Si4 0.196118 0.079794 0.649978
Si Si5 0.431301 0.046305 0.028571
Si Si6 0.140975 0.557294 0.708355
Si Si7 0.466391 0.154505 0.615421
Si Si8 0.630045 0.492169 0.396535
O O1 0.900504 0.931818 0.295359
O O2 0.006349 0.882111 0.117074
O O3 0.000000 0.000000 0.231726
O O4 0.924862 0.969422 0.002255
O O5 0.945343 0.784125 0.760969
O O6 0.849865 0.854741 0.623273
O O7 0.941973 0.789547 0.458269
O O8 0.539633 0.809928 0.775120
O O9 0.452431 0.791064 0.991898
O O10 0.278758 0.085919 0.697688
O O11 0.193288 0.038054 0.497921
O O12 0.158560 0.045642 0.787332
O O13 0.458333 0.114395 0.096930
O O14 0.500000 0.000000 0.998418
O O15 0.373308 0.014314 0.143666
O O16 0.388736 0.060341 0.876264
O O17 0.098051 0.604767 0.599784
#
# Coordination Sequence:
#
# PCOD8190490 Si02
#       8
#     8   8   8   8   8   8   8   8
#     4  11  19  31  57  80 108 147 198 244 288 320
#     4  11  21  34  56  82 114 151 195 241 280 330
#     4  10  22  37  59  84 106 150 208 242 274 320
#     4  11  22  35  51  83 127 153 179 230 293 372
#     4  10  20  36  64  92 113 141 190 244 304 344
#     4  11  22  36  59  91 116 150 180 229 311 372
#     4  10  20  40  62  83 111 143 193 256 282 330
#     4  10  20  32  51  80 119 149 185 224 292 345
#
# _framework density 18.624718000000001
#
# number of rings (size 3 to 8) (size 9 to 14) (size 15 to 20)
#    0.000    1.500    3.750    3.750    1.750    0.000 
#    0.000    1.250    0.000    0.000    0.000    0.000 
#    0.000    0.000    0.000    0.000    0.000    0.000 
#
# Total GULP energy -396449.932857 kJ/mol
# GULP energy per Si atom -12389.060402 kJ/mol
# Density = 1.858233 g / cm^3
# Si number density = 18.624718 Si / 1000 Ang^3
#
#
#
# Elastic Constant Matrix: (Units=GPa)
#
#
# Indices 1 2 3 4 5 6 
#
# 1 102.3266 36.5104 41.3564 0.0000 0.0000 0.0000
# 2 36.5104 94.6066 39.0739 0.0000 0.0000 0.0000
# 3 41.3564 39.0739 111.8420 0.0000 0.0000 0.0000
# 4 0.0000 0.0000 0.0000 31.7624 0.0000 0.0000
# 5 0.0000 0.0000 0.0000 0.0000 13.3182 0.0000
# 6 0.0000 0.0000 0.0000 0.0000 0.0000 15.4691
#
#
#
# Elastic Compliance Matrix: (Units=1/GPa)
#
#
# Indices 1 2 3 4 5 6 
#
# 1 0.012342 -0.003364 -0.003389 0.000000 0.000000 0.000000
# 2 -0.003364 0.013269 -0.003392 0.000000 0.000000 0.000000
# 3 -0.003389 -0.003392 0.011379 0.000000 0.000000 0.000000
# 4 0.000000 0.000000 0.000000 0.031484 0.000000 0.000000
# 5 0.000000 0.000000 0.000000 0.000000 0.075085 0.000000
# 6 0.000000 0.000000 0.000000 0.000000 0.000000 0.064645
#
#
# Mechanical properties :
#
#
# Convention : Reuss Voigt Hill
#
# Bulk Modulus (GPa) = 59.87274 60.29518 60.08396
# Shear Modulus (GPa) = 21.36195 24.89890 23.13043
#
# Velocity S-wave (km/s) = 3.39037 3.66030 3.52791
# Velocity P-wave (km/s) = 6.89513 7.09279 6.99466
#
# Compressibility (1/GPa) = 0.01670209
#
# Stress axis : x y z
#
# Youngs Moduli (GPa) = 81.02180 75.36316 87.87856
#
# Poissons Ratio (x) = 0.25349 0.29780
# Poissons Ratio (y) = 0.27252 0.29809
# Poissons Ratio (z) = 0.27457 0.25563
#
# Static dielectric constant tensor:
#      x y z
#    x 3.492180 0.000000 0.000000 
#    y 0.000000 3.482940 0.000000 
#    z 0.000000 0.000000 3.749660 
# 
# 
# High freq. dielectric constant tensor:
#      x y z
#    x 1.686830 0.000000 0.000000 
#    y 0.000000 1.719230 0.000000 
#    z 0.000000 0.000000 1.750180 
# 
# From -- ./inp_files/2195.got.cif
#   From: 2010.03.12/outbox.cif.g09.slc.cpg/sg45_2_cif.got.tgz:2195.got - 2010.04.14 02:50:11.
