data_PCOD8190500
_publ_section_title
;
Structure prediction by ZEFSAII (Michael W. Deem and Ramdas Pophale) SiO2 
 PCOD8190500
Probable space group: I B A 2
;
_chemical_formula_sum "Si O2"
_cell_formula_units_Z 52
_cell_length_a 14.620060
_cell_length_b 8.486743
_cell_length_c 21.430483
_cell_angle_alpha 90.000000
_cell_angle_beta 90.000000
_cell_angle_gamma 90.000000
_cell_volume 2659.023436
_symmetry_space_group_name_H-M "I B A 2"
_symmetry_group_IT_number 45
_symmetry_cell_setting 'orthorhombic'
loop_
_space_group_symop_operation_xyz
x,y,z
-x,-y,z
-x,y,1/2+z
x,-y,1/2+z
1/2+x,1/2+y,1/2+z
1/2-x,1/2-y,1/2+z
1/2-x,1/2+y,z
1/2+x,1/2-y,z
loop_
_atom_site_type_symbol
_atom_site_label
_atom_site_fract_x
_atom_site_fract_y
_atom_site_fract_z
Si Si1 0.378606 0.679306 0.021140
Si Si2 0.041613 0.656836 0.078686
Si Si3 0.878606 0.820694 0.875318
Si Si4 0.958387 0.656836 0.317772
Si Si5 0.197023 0.157680 0.520490
Si Si6 0.302977 0.657680 0.375968
Si Si7 0.000000 0.500000 0.198229
O O1 0.467883 0.705439 0.063829
O O2 0.304326 0.816386 0.034837
O O3 0.333321 0.514786 0.042297
O O4 0.407033 0.675036 0.948229
O O5 0.140158 0.705902 0.054533
O O6 0.000000 0.500000 0.044743
O O7 0.056512 0.617742 0.152529
O O8 0.804326 0.683614 0.861621
O O9 0.967883 0.794561 0.832629
O O10 0.833321 0.985214 0.854160
O O11 0.859842 0.705902 0.341925
O O12 0.943488 0.617742 0.243929
O O13 0.000000 0.500000 0.351715
O O14 0.177595 0.183385 0.448229
#
# Coordination Sequence:
#
# PCOD8190500 Si02
#       7
#     8   8   8   8   8   8   4
#     4  10  20  34  57  90 118 142 178 226 289 351
#     4  10  20  38  58  74 117 147 191 234 273 314
#     4  10  20  34  57  90 118 142 178 226 289 351
#     4  10  20  38  58  74 117 147 191 234 273 314
#     4  10  20  34  57  90 118 142 178 226 289 351
#     4  10  20  34  57  90 118 142 178 226 289 351
#     4   8  24  40  56  76 108 150 214 230 252 328
#
# _framework density 19.556051
#
# number of rings (size 3 to 8) (size 9 to 14) (size 15 to 20)
#    0.923    1.231    0.000    3.692    0.000    7.385 
#    0.000    4.615    0.000    0.000    0.000    0.000 
#    0.000    0.000    0.000    0.000    0.000    0.000 
#
# Total GULP energy -322184.281614 kJ/mol
# GULP energy per Si atom -12391.703139 kJ/mol
# Density = 1.951154 g / cm^3
# Si number density = 19.556051 Si / 1000 Ang^3
#
#
#
# Elastic Constant Matrix: (Units=GPa)
#
#
# Indices 1 2 3 4 5 6 
#
# 1 68.9154 0.7569 23.2319 0.0000 0.0000 0.0000
# 2 0.7569 58.2864 18.8133 0.0000 0.0000 0.0000
# 3 23.2319 18.8133 59.8218 0.0000 0.0000 0.0000
# 4 0.0000 0.0000 0.0000 32.7637 0.0000 0.0000
# 5 0.0000 0.0000 0.0000 0.0000 8.8564 0.0000
# 6 0.0000 0.0000 0.0000 0.0000 0.0000 33.7344
#
#
#
# Elastic Compliance Matrix: (Units=1/GPa)
#
#
# Indices 1 2 3 4 5 6 
#
# 1 0.016928 0.002117 -0.007240 0.000000 0.000000 0.000000
# 2 0.002117 0.019360 -0.006911 0.000000 0.000000 0.000000
# 3 -0.007240 -0.006911 0.021701 0.000000 0.000000 0.000000
# 4 0.000000 0.000000 0.000000 0.030522 0.000000 0.000000
# 5 0.000000 0.000000 0.000000 0.000000 0.112913 0.000000
# 6 0.000000 0.000000 0.000000 0.000000 0.000000 0.029643
#
#
# Mechanical properties :
#
#
# Convention : Reuss Voigt Hill
#
# Bulk Modulus (GPa) = 29.47928 30.29197 29.88563
# Shear Modulus (GPa) = 18.76593 24.68565 21.72579
#
# Velocity S-wave (km/s) = 3.10110 3.55674 3.33671
# Velocity P-wave (km/s) = 5.28483 5.69128 5.49182
#
# Compressibility (1/GPa) = 0.03392213
#
# Stress axis : x y z
#
# Youngs Moduli (GPa) = 59.07419 51.65370 46.08045
#
# Poissons Ratio (x) = -0.10935 0.33361
# Poissons Ratio (y) = -0.12506 0.31844
# Poissons Ratio (z) = 0.42768 0.35696
#
# Static dielectric constant tensor:
#      x y z
#    x 3.440200 0.000000 0.000000 
#    y 0.000000 3.728850 0.000000 
#    z 0.000000 0.000000 3.168990 
# 
# 
# High freq. dielectric constant tensor:
#      x y z
#    x 1.759390 0.000000 0.000000 
#    y 0.000000 1.773890 0.000000 
#    z 0.000000 0.000000 1.716270 
# 
# From -- ./inp_files/9748.got.cif
#   From: 2010.03.12/outbox.cif.g09.slc.cpg/sg45_5_cif.got.tgz:9748.got - 2010.04.14 02:50:11.
