data_PCOD8190443
_publ_section_title
;
Structure prediction by ZEFSAII (Michael W. Deem and Ramdas Pophale) SiO2 
 PCOD8190443
Probable space group: I B A 2
;
_chemical_formula_sum "Si O2"
_cell_formula_units_Z 64
_cell_length_a 16.169194
_cell_length_b 19.635533
_cell_length_c 8.598315
_cell_angle_alpha 90.000000
_cell_angle_beta 90.000000
_cell_angle_gamma 90.000000
_cell_volume 2729.885412
_symmetry_space_group_name_H-M "I B A 2"
_symmetry_group_IT_number 45
_symmetry_cell_setting 'orthorhombic'
loop_
_space_group_symop_operation_xyz
x,y,z
-x,-y,z
-x,y,1/2+z
x,-y,1/2+z
1/2+x,1/2+y,1/2+z
1/2-x,1/2-y,1/2+z
1/2-x,1/2+y,z
1/2+x,1/2-y,z
loop_
_atom_site_type_symbol
_atom_site_label
_atom_site_fract_x
_atom_site_fract_y
_atom_site_fract_z
Si Si1 0.088924 0.545489 0.177390
Si Si2 0.840162 0.193857 0.774565
Si Si3 0.742647 0.699345 0.079901
Si Si4 0.220666 0.922031 0.302873
Si Si5 0.911654 0.413185 0.843332
Si Si6 0.714723 0.557623 0.646831
Si Si7 0.905687 0.666054 0.898103
Si Si8 0.980243 0.718270 0.190568
O O1 0.056222 0.468041 0.212394
O O2 0.187068 0.555986 0.166387
O O3 0.062756 0.592903 0.328104
O O4 0.051858 0.572514 0.015406
O O5 0.775373 0.232612 0.661039
O O6 0.823593 0.113745 0.762358
O O7 0.934235 0.210027 0.722261
O O8 0.828010 0.217005 0.954445
O O9 0.706854 0.648123 0.209101
O O10 0.815624 0.664661 0.972744
O O11 0.315866 0.932378 0.341243
O O12 0.179919 0.923395 0.474787
O O13 0.182479 0.983260 0.199651
O O14 0.924197 0.336612 0.786008
O O15 0.923189 0.717363 0.749454
O O16 0.975822 0.695609 0.012812
#
# Coordination Sequence:
#
# PCOD8190443 Si02
#       8
#     8   8   8   8   8   8   8   8
#     4  10  20  32  57  75 110 152 199 231 289 330
#     4  11  22  36  57  86 117 157 194 251 294 358
#     4  11  22  37  58  84 120 151 200 242 298 351
#     4  10  19  35  57  88 118 156 188 243 289 361
#     4  10  19  34  51  80 109 154 190 240 273 342
#     4  10  20  33  59  88 120 154 190 242 300 345
#     4  11  22  39  53  78 107 162 196 246 281 348
#     4  11  24  38  56  77 120 152 205 242 291 348
#
# _framework density 23.444206999999999
#
# number of rings (size 3 to 8) (size 9 to 14) (size 15 to 20)
#    0.000    1.500    3.750    3.000    5.250    1.500 
#    0.000    2.500    0.000    0.000    0.000    0.000 
#    0.000   65.000    0.000    0.000    0.000    0.000 
#
# Total GULP energy -396522.843710 kJ/mol
# GULP energy per Si atom -12391.338866 kJ/mol
# Density = 2.339085 g / cm^3
# Si number density = 23.444207 Si / 1000 Ang^3
#
#
#
# Elastic Constant Matrix: (Units=GPa)
#
#
# Indices 1 2 3 4 5 6 
#
# 1 15.1118 4.5888 -6.9300 0.0000 0.0000 0.0000
# 2 4.5888 76.9889 -2.3621 0.0000 0.0000 0.0000
# 3 -6.9300 -2.3621 111.3614 0.0000 0.0000 0.0000
# 4 0.0000 0.0000 0.0000 37.0816 0.0000 0.0000
# 5 0.0000 0.0000 0.0000 0.0000 19.4333 0.0000
# 6 0.0000 0.0000 0.0000 0.0000 0.0000 25.4681
#
#
#
# Elastic Compliance Matrix: (Units=1/GPa)
#
#
# Indices 1 2 3 4 5 6 
#
# 1 0.069328 -0.004002 0.004229 0.000000 0.000000 0.000000
# 2 -0.004002 0.013228 0.000032 0.000000 0.000000 0.000000
# 3 0.004229 0.000032 0.009244 0.000000 0.000000 0.000000
# 4 0.000000 0.000000 0.000000 0.026968 0.000000 0.000000
# 5 0.000000 0.000000 0.000000 0.000000 0.051458 0.000000
# 6 0.000000 0.000000 0.000000 0.000000 0.000000 0.039265
#
#
# Mechanical properties :
#
#
# Convention : Reuss Voigt Hill
#
# Bulk Modulus (GPa) = 10.83224 21.56174 16.19699
# Shear Modulus (GPa) = 20.85540 30.27429 25.56485
#
# Velocity S-wave (km/s) = 2.98581 3.59741 3.30579
# Velocity P-wave (km/s) = 4.06414 5.14511 4.63624
#
# Compressibility (1/GPa) = 0.09231704
#
# Stress axis : x y z
#
# Youngs Moduli (GPa) = 14.42416 75.59486 108.18263
#
# Poissons Ratio (x) = 0.30256 -0.45754
# Poissons Ratio (y) = 0.05773 -0.00341
# Poissons Ratio (z) = -0.06100 -0.00238
#
# Static dielectric constant tensor:
#      x y z
#    x 3.841610 0.000000 0.000000 
#    y 0.000000 4.000000 0.000000 
#    z 0.000000 0.000000 4.744650 
# 
# 
# High freq. dielectric constant tensor:
#      x y z
#    x 1.881020 0.000000 0.000000 
#    y 0.000000 1.911050 0.000000 
#    z 0.000000 0.000000 1.958540 
# 
# From -- ./inp_files/2378.got.cif
#   From: 2010.03.12/outbox.cif.g09.slc.cpg/sg45_2_cif.got.tgz:2378.got - 2010.04.14 02:50:11.
