data_PCOD8190900
_publ_section_title
;
Structure prediction by ZEFSAII (Michael W. Deem and Ramdas Pophale) SiO2 
 PCOD8190900
Probable space group: I B A 2
;
_chemical_formula_sum "Si O2"
_cell_formula_units_Z 52
_cell_length_a 24.194869
_cell_length_b 12.355670
_cell_length_c 8.543756
_cell_angle_alpha 90.000000
_cell_angle_beta 90.000000
_cell_angle_gamma 90.000000
_cell_volume 2554.103031
_symmetry_space_group_name_H-M "I B A 2"
_symmetry_group_IT_number 45
_symmetry_cell_setting 'orthorhombic'
loop_
_space_group_symop_operation_xyz
x,y,z
-x,-y,z
-x,y,1/2+z
x,-y,1/2+z
1/2+x,1/2+y,1/2+z
1/2-x,1/2-y,1/2+z
1/2-x,1/2+y,z
1/2+x,1/2-y,z
loop_
_atom_site_type_symbol
_atom_site_label
_atom_site_fract_x
_atom_site_fract_y
_atom_site_fract_z
Si Si1 0.059592 0.126116 0.377900
Si Si2 0.255652 0.492427 0.249836
Si Si3 0.818027 0.870593 0.502274
Si Si4 0.067469 0.445927 0.592119
Si Si5 0.000000 0.000000 0.128269
Si Si6 0.190079 0.380586 0.499373
Si Si7 0.526936 0.864410 0.778846
O O1 0.119072 0.111524 0.453628
O O2 0.017556 0.101469 0.520155
O O3 0.049568 0.244183 0.305584
O O4 0.050648 0.040323 0.237325
O O5 0.280389 0.567768 0.380956
O O6 0.204563 0.424572 0.325286
O O7 0.234155 0.571429 0.117134
O O8 0.303254 0.414985 0.176053
O O9 0.802171 0.746374 0.496841
O O10 0.129514 0.411156 0.558900
O O11 0.031730 0.432105 0.436734
O O12 0.064003 0.571093 0.649112
O O13 0.037392 0.368016 0.722267
#
# Coordination Sequence:
#
# PCOD8190900 Si02
#       7
#     8   8   8   8   4   8   8
#     4  11  22  41  64  90 124 170 205 261 309 373
#     4  10  24  41  65  90 123 157 216 262 312 373
#     4  11  22  42  65  89 123 163 206 263 319 366
#     4  11  22  38  61  93 129 165 202 251 308 384
#     4  10  24  40  62  90 128 160 224 252 302 376
#     4  11  22  41  65  92 123 162 205 262 316 371
#     4  11  22  38  61  91 130 165 203 249 312 377
#
# _framework density 20.359397000000001
#
# number of rings (size 3 to 8) (size 9 to 14) (size 15 to 20)
#    0.000    1.231    1.538    5.538    0.000    0.000 
#    0.000    0.000    6.769    0.000    0.000    0.000 
#    0.000    0.000    0.000    0.000    0.000    0.000 
#
# Total GULP energy -322225.951742 kJ/mol
# GULP energy per Si atom -12393.305836 kJ/mol
# Density = 2.031306 g / cm^3
# Si number density = 20.359397 Si / 1000 Ang^3
#
#
#
# Elastic Constant Matrix: (Units=GPa)
#
#
# Indices 1 2 3 4 5 6 
#
# 1 122.7451 51.5552 44.3492 0.0000 0.0000 0.0000
# 2 51.5552 145.8908 58.9711 0.0000 0.0000 0.0000
# 3 44.3492 58.9711 119.2639 0.0000 0.0000 0.0000
# 4 0.0000 0.0000 0.0000 31.8048 0.0000 0.0000
# 5 0.0000 0.0000 0.0000 0.0000 44.0312 0.0000
# 6 0.0000 0.0000 0.0000 0.0000 0.0000 27.3848
#
#
#
# Elastic Compliance Matrix: (Units=1/GPa)
#
#
# Indices 1 2 3 4 5 6 
#
# 1 0.010128 -0.002571 -0.002495 0.000000 0.000000 0.000000
# 2 -0.002571 0.009219 -0.003603 0.000000 0.000000 0.000000
# 3 -0.002495 -0.003603 0.011094 0.000000 0.000000 0.000000
# 4 0.000000 0.000000 0.000000 0.031442 0.000000 0.000000
# 5 0.000000 0.000000 0.000000 0.000000 0.022711 0.000000
# 6 0.000000 0.000000 0.000000 0.000000 0.000000 0.036517
#
#
# Mechanical properties :
#
#
# Convention : Reuss Voigt Hill
#
# Bulk Modulus (GPa) = 76.30938 77.51677 76.91308
# Shear Modulus (GPa) = 35.01019 36.17910 35.59464
#
# Velocity S-wave (km/s) = 4.15131 4.22005 4.18582
# Velocity P-wave (km/s) = 7.78077 7.86778 7.82440
#
# Compressibility (1/GPa) = 0.01310455
#
# Stress axis : x y z
#
# Youngs Moduli (GPa) = 98.73444 108.47136 90.13921
#
# Poissons Ratio (x) = 0.27883 0.22492
# Poissons Ratio (y) = 0.25380 0.32473
# Poissons Ratio (z) = 0.24636 0.39078
#
# Static dielectric constant tensor:
#      x y z
#    x 3.672120 0.000000 0.000000 
#    y 0.000000 3.778970 0.000000 
#    z 0.000000 0.000000 4.133510 
# 
# 
# High freq. dielectric constant tensor:
#      x y z
#    x 1.789800 0.000000 0.000000 
#    y 0.000000 1.799980 0.000000 
#    z 0.000000 0.000000 1.814030 
# 
# From -- ./inp_files/2618.got.cif
#   From: 2010.03.12/outbox.cif.g09.slc.cpg/sg45_2_cif.got.tgz:2618.got - 2010.04.14 02:50:11.
