data_PCOD8190795
_publ_section_title
;
Structure prediction by ZEFSAII (Michael W. Deem and Ramdas Pophale) SiO2 
 PCOD8190795
Probable space group: I B A 2
;
_chemical_formula_sum "Si O2"
_cell_formula_units_Z 56
_cell_length_a 13.261543
_cell_length_b 15.114796
_cell_length_c 13.163580
_cell_angle_alpha 90.000000
_cell_angle_beta 90.000000
_cell_angle_gamma 90.000000
_cell_volume 2638.580600
_symmetry_space_group_name_H-M "I B A 2"
_symmetry_group_IT_number 45
_symmetry_cell_setting 'orthorhombic'
loop_
_space_group_symop_operation_xyz
x,y,z
-x,-y,z
-x,y,1/2+z
x,-y,1/2+z
1/2+x,1/2+y,1/2+z
1/2-x,1/2-y,1/2+z
1/2-x,1/2+y,z
1/2+x,1/2-y,z
loop_
_atom_site_type_symbol
_atom_site_label
_atom_site_fract_x
_atom_site_fract_y
_atom_site_fract_z
Si Si1 0.199651 0.033208 0.868640
Si Si2 0.889899 0.966058 0.664217
Si Si3 0.722457 0.376339 0.072463
Si Si4 0.190776 0.860961 0.990816
Si Si5 0.083728 0.573677 0.793504
Si Si6 0.620180 0.804778 0.598338
Si Si7 0.583115 0.814685 0.987223
O O1 0.120177 0.060873 0.781806
O O2 0.311643 0.027977 0.823473
O O3 0.171293 0.936030 0.908219
O O4 0.184606 0.105997 0.956802
O O5 0.869277 0.880890 0.595199
O O6 0.805580 0.041023 0.642588
O O7 0.000000 0.000000 0.637409
O O8 0.673642 0.288989 0.121904
O O9 0.844296 0.369384 0.064760
O O10 0.309475 0.856949 0.018102
O O11 0.147994 0.769158 0.947236
O O12 0.103807 0.638615 0.699423
O O13 0.046194 0.629422 0.890587
O O14 0.000000 0.500000 0.765687
O O15 0.513680 0.783780 0.548364
#
# Coordination Sequence:
#
# PCOD8190795 Si02
#       7
#     8   8   8   8   8   8   8
#     4  10  22  41  64  92 127 170 213 273 324 393
#     4  11  22  38  64  93 121 169 216 268 326 398
#     4   9  23  42  60  91 132 162 217 268 325 383
#     4  10  22  43  65  91 132 167 215 274 330 385
#     4  11  24  40  66  99 127 173 224 263 329 394
#     4  11  22  42  64  94 130 171 213 271 319 398
#     4  10  23  42  63  96 130 174 211 271 327 389
#
# _framework density 21.223531000000001
#
# number of rings (size 3 to 8) (size 9 to 14) (size 15 to 20)
#    0.000    1.714    1.429    1.714    4.000    5.143 
#    2.571    0.000    0.000    0.000    0.000    0.000 
#    0.000    0.000    0.000    0.000    0.000    0.000 
#
# Total GULP energy -347227.956048 kJ/mol
# GULP energy per Si atom -12400.998430 kJ/mol
# Density = 2.117523 g / cm^3
# Si number density = 21.223531 Si / 1000 Ang^3
#
#
#
# Elastic Constant Matrix: (Units=GPa)
#
#
# Indices 1 2 3 4 5 6 
#
# 1 89.7178 18.2859 22.1226 0.0000 0.0000 0.0000
# 2 18.2859 82.4554 23.5756 0.0000 0.0000 0.0000
# 3 22.1226 23.5756 81.6713 0.0000 0.0000 0.0000
# 4 0.0000 0.0000 0.0000 28.0884 0.0000 0.0000
# 5 0.0000 0.0000 0.0000 0.0000 24.3045 0.0000
# 6 0.0000 0.0000 0.0000 0.0000 0.0000 34.2547
#
#
#
# Elastic Compliance Matrix: (Units=1/GPa)
#
#
# Indices 1 2 3 4 5 6 
#
# 1 0.012217 -0.001922 -0.002755 0.000000 0.000000 0.000000
# 2 -0.001922 0.013521 -0.003382 0.000000 0.000000 0.000000
# 3 -0.002755 -0.003382 0.013967 0.000000 0.000000 0.000000
# 4 0.000000 0.000000 0.000000 0.035602 0.000000 0.000000
# 5 0.000000 0.000000 0.000000 0.000000 0.041145 0.000000
# 6 0.000000 0.000000 0.000000 0.000000 0.000000 0.029193
#
#
# Mechanical properties :
#
#
# Convention : Reuss Voigt Hill
#
# Bulk Modulus (GPa) = 42.39581 42.42363 42.40972
# Shear Modulus (GPa) = 29.47693 29.98690 29.73191
#
# Velocity S-wave (km/s) = 3.73081 3.76294 3.74691
# Velocity P-wave (km/s) = 6.21110 6.23795 6.22454
#
# Compressibility (1/GPa) = 0.02358724
#
# Stress axis : x y z
#
# Youngs Moduli (GPa) = 81.85353 73.95869 71.59867
#
# Poissons Ratio (x) = 0.14213 0.19722
# Poissons Ratio (y) = 0.15730 0.24218
# Poissons Ratio (z) = 0.22547 0.25017
#
# Static dielectric constant tensor:
#      x y z
#    x 3.819420 0.000000 0.000000 
#    y 0.000000 3.791950 0.000000 
#    z 0.000000 0.000000 3.836080 
# 
# 
# High freq. dielectric constant tensor:
#      x y z
#    x 1.836240 0.000000 0.000000 
#    y 0.000000 1.833750 0.000000 
#    z 0.000000 0.000000 1.825600 
# 
# From -- ./inp_files/6168.got.cif
#   From: 2010.03.12/outbox.cif.g09.slc.cpg/sg45_4_cif.got.tgz:6168.got - 2010.04.14 02:50:11.
