data_PCOD8190768
_publ_section_title
;
Structure prediction by ZEFSAII (Michael W. Deem and Ramdas Pophale) SiO2 
 PCOD8190768
Probable space group: I B A 2
;
_chemical_formula_sum "Si O2"
_cell_formula_units_Z 52
_cell_length_a 17.556780
_cell_length_b 14.086662
_cell_length_c 11.333784
_cell_angle_alpha 90.000000
_cell_angle_beta 90.000000
_cell_angle_gamma 90.000000
_cell_volume 2803.030948
_symmetry_space_group_name_H-M "I B A 2"
_symmetry_group_IT_number 45
_symmetry_cell_setting 'orthorhombic'
loop_
_space_group_symop_operation_xyz
x,y,z
-x,-y,z
-x,y,1/2+z
x,-y,1/2+z
1/2+x,1/2+y,1/2+z
1/2-x,1/2-y,1/2+z
1/2-x,1/2+y,z
1/2+x,1/2-y,z
loop_
_atom_site_type_symbol
_atom_site_label
_atom_site_fract_x
_atom_site_fract_y
_atom_site_fract_z
Si Si1 0.655780 0.756405 0.548950
Si Si2 0.124524 0.603500 0.890615
Si Si3 0.000000 0.500000 0.778063
Si Si4 0.975034 0.702498 0.223970
Si Si5 0.780943 0.613757 0.619767
Si Si6 0.254899 0.096721 0.692478
Si Si7 0.136624 0.239320 0.774293
O O1 0.576906 0.754464 0.621229
O O2 0.705591 0.664043 0.573646
O O3 0.703727 0.849773 0.584253
O O4 0.635928 0.753341 0.413086
O O5 0.072303 0.694206 0.848582
O O6 0.199799 0.606686 0.813111
O O7 0.075307 0.507707 0.862652
O O8 0.150121 0.608736 0.025291
O O9 0.003075 0.406364 0.694827
O O10 0.049047 0.767631 0.233750
O O11 0.749045 0.512128 0.657171
O O12 0.816322 0.669961 0.728988
O O13 0.173015 0.142718 0.722149
#
# Coordination Sequence:
#
# PCOD8190768 Si02
#       7
#     8   8   4   8   8   8   8
#     4  10  23  40  63  87 129 158 209 262 309 376
#     4   9  19  39  57  94 123 156 202 254 312 379
#     4   8  18  34  62  90 122 154 194 270 312 374
#     4   9  21  37  60  92 122 161 205 255 323 366
#     4  11  23  39  64  90 126 166 210 254 308 383
#     4  10  22  39  62  88 122 165 211 245 316 379
#     4  11  23  39  61  93 122 168 202 264 314 377
#
# _framework density 18.551345999999999
#
# number of rings (size 3 to 8) (size 9 to 14) (size 15 to 20)
#    0.923    1.231    1.538    0.923    6.462    0.000 
#    2.769    1.538    0.000    1.846    0.000    0.000 
#    0.000    0.000    0.000    0.000    0.000    0.000 
#
# Total GULP energy -322164.718627 kJ/mol
# GULP energy per Si atom -12390.950716 kJ/mol
# Density = 1.850912 g / cm^3
# Si number density = 18.551346 Si / 1000 Ang^3
#
#
#
# Elastic Constant Matrix: (Units=GPa)
#
#
# Indices 1 2 3 4 5 6 
#
# 1 134.5770 42.0831 39.9024 0.0000 0.0000 0.0000
# 2 42.0831 83.2519 13.5640 0.0000 0.0000 0.0000
# 3 39.9024 13.5640 70.5207 0.0000 0.0000 0.0000
# 4 0.0000 0.0000 0.0000 13.6932 0.0000 0.0000
# 5 0.0000 0.0000 0.0000 0.0000 24.3250 0.0000
# 6 0.0000 0.0000 0.0000 0.0000 0.0000 32.5999
#
#
#
# Elastic Compliance Matrix: (Units=1/GPa)
#
#
# Indices 1 2 3 4 5 6 
#
# 1 0.010276 -0.004384 -0.004971 0.000000 0.000000 0.000000
# 2 -0.004384 0.014271 -0.000264 0.000000 0.000000 0.000000
# 3 -0.004971 -0.000264 0.017044 0.000000 0.000000 0.000000
# 4 0.000000 0.000000 0.000000 0.073029 0.000000 0.000000
# 5 0.000000 0.000000 0.000000 0.000000 0.041110 0.000000
# 6 0.000000 0.000000 0.000000 0.000000 0.000000 0.030675
#
#
# Mechanical properties :
#
#
# Convention : Reuss Voigt Hill
#
# Bulk Modulus (GPa) = 44.73959 53.27207 49.00583
# Shear Modulus (GPa) = 23.46385 26.97693 25.22039
#
# Velocity S-wave (km/s) = 3.56027 3.81750 3.69113
# Velocity P-wave (km/s) = 6.40856 6.94330 6.68128
#
# Compressibility (1/GPa) = 0.02235157
#
# Stress axis : x y z
#
# Youngs Moduli (GPa) = 97.31808 70.07212 58.67272
#
# Poissons Ratio (x) = 0.30722 0.29166
# Poissons Ratio (y) = 0.42667 0.01550
# Poissons Ratio (z) = 0.48376 0.01851
#
# Static dielectric constant tensor:
#      x y z
#    x 3.543280 0.000000 0.000000 
#    y 0.000000 3.283770 0.000000 
#    z 0.000000 0.000000 3.278780 
# 
# 
# High freq. dielectric constant tensor:
#      x y z
#    x 1.728520 0.000000 0.000000 
#    y 0.000000 1.692470 0.000000 
#    z 0.000000 0.000000 1.716490 
# 
# From -- ./inp_files/4466.got.cif
#   From: 2010.03.12/outbox.cif.g09.slc.cpg/sg45_3_cif.got.tgz:4466.got - 2010.04.14 02:50:11.
