data_PCOD8190012
_publ_section_title
;
Structure prediction by ZEFSAII (Michael W. Deem and Ramdas Pophale) SiO2 
 PCOD8190012
Probable space group: I M M 2
;
_chemical_formula_sum "Si O2"
_cell_formula_units_Z 56
_cell_length_a 9.100800
_cell_length_b 23.425272
_cell_length_c 13.641022
_cell_angle_alpha 90.000000
_cell_angle_beta 90.000000
_cell_angle_gamma 90.000000
_cell_volume 2908.111957
_symmetry_space_group_name_H-M "I M M 2"
_symmetry_group_IT_number 44
_symmetry_cell_setting 'orthorhombic'
loop_
_space_group_symop_operation_xyz
x,y,z
-x,-y,z
-x,y,z
x,-y,z
1/2+x,1/2+y,1/2+z
1/2-x,1/2-y,1/2+z
1/2-x,1/2+y,1/2+z
1/2+x,1/2-y,1/2+z
loop_
_atom_site_type_symbol
_atom_site_label
_atom_site_fract_x
_atom_site_fract_y
_atom_site_fract_z
Si Si1 0.168911 0.275262 0.750000
Si Si2 0.169524 0.066157 0.545189
Si Si3 0.829489 0.934380 0.153106
Si Si4 0.171772 0.566118 0.243495
Si Si5 0.328797 0.373027 0.850549
Si Si6 0.828651 0.838144 0.856117
Si Si7 0.173276 0.334689 0.552852
O O1 0.255071 0.312440 0.829698
O O2 0.197892 0.208668 0.770892
O O3 0.218018 0.290320 0.639091
O O4 0.000000 0.291557 0.763641
O O5 0.266306 0.083999 0.637853
O O6 0.229819 0.101743 0.452844
O O7 0.000000 0.080422 0.569063
O O8 0.188517 0.000000 0.518964
O O9 0.792667 0.918215 0.265089
O O10 0.728354 0.897998 0.080317
O O11 0.000000 0.922040 0.129555
O O12 0.789049 0.000000 0.136501
O O13 0.205860 0.500000 0.265581
O O14 0.252027 0.602772 0.326548
O O15 0.000000 0.579393 0.245931
O O16 0.500000 0.361643 0.858772
O O17 0.000000 0.849441 0.873828
O O18 0.756000 0.814253 0.955389
O O19 0.000000 0.335975 0.533890
#
# Coordination Sequence:
#
# PCOD8190012 Si02
#       7
#     8   8   8   8   8   8   8
#     4   9  21  39  56  78 109 141 176 221 267 315
#     4   9  17  31  52  79 112 148 183 220 264 314
#     4   9  17  31  52  79 111 146 184 224 265 312
#     4  10  22  39  57  80 109 139 176 222 268 316
#     4   9  17  30  52  81 111 145 184 223 264 313
#     4  11  23  40  61  82 105 138 179 218 262 317
#     4  10  21  38  57  79 109 141 176 220 268 316
#
# _framework density 19.256481000000001
#
# number of rings (size 3 to 8) (size 9 to 14) (size 15 to 20)
#    0.000    2.429    0.000    1.714    0.000    6.857 
#    0.000    4.286    0.000    2.571    0.000    0.000 
#    0.000    0.000    0.000    0.000    0.000    0.000 
#
# Total GULP energy -347275.409602 kJ/mol
# GULP energy per Si atom -12402.693200 kJ/mol
# Density = 1.921265 g / cm^3
# Si number density = 19.256481 Si / 1000 Ang^3
#
#
#
# Elastic Constant Matrix: (Units=GPa)
#
#
# Indices 1 2 3 4 5 6 
#
# 1 82.8393 44.0249 52.6742 0.0001 0.0000 0.0000
# 2 44.0249 83.7407 48.2089 0.0001 0.0000 0.0000
# 3 52.6742 48.2089 114.1616 0.0006 -0.0001 -0.0001
# 4 0.0001 0.0001 0.0006 28.0586 0.0000 0.0000
# 5 0.0000 0.0000 -0.0001 0.0000 33.6704 0.0000
# 6 0.0000 0.0000 -0.0001 0.0000 0.0000 27.4485
#
#
#
# Elastic Compliance Matrix: (Units=1/GPa)
#
#
# Indices 1 2 3 4 5 6 
#
# 1 0.019588 -0.006732 -0.006196 0.000000 0.000000 0.000000
# 2 -0.006732 0.018090 -0.004533 0.000000 0.000000 0.000000
# 3 -0.006196 -0.004533 0.013533 0.000000 0.000000 0.000000
# 4 0.000000 0.000000 0.000000 0.035640 0.000000 0.000000
# 5 0.000000 0.000000 0.000000 0.000000 0.029700 0.000000
# 6 0.000000 0.000000 0.000000 0.000000 0.000000 0.036432
#
#
# Mechanical properties :
#
#
# Convention : Reuss Voigt Hill
#
# Bulk Modulus (GPa) = 61.38528 63.39529 62.39028
# Shear Modulus (GPa) = 25.86201 26.89108 26.37655
#
# Velocity S-wave (km/s) = 3.66871 3.74099 3.70503
# Velocity P-wave (km/s) = 7.06349 7.18700 7.12551
#
# Compressibility (1/GPa) = 0.01629055
#
# Stress axis : x y z
#
# Youngs Moduli (GPa) = 51.05036 55.27784 73.89608
#
# Poissons Ratio (x) = 0.37210 0.45782
# Poissons Ratio (y) = 0.34365 0.33500
# Poissons Ratio (z) = 0.31628 0.25060
#
# Static dielectric constant tensor:
#      x y z
#    x 3.489490 0.000000 0.000000 
#    y 0.000000 3.424800 0.000000 
#    z 0.000000 0.000000 3.585370 
# 
# 
# High freq. dielectric constant tensor:
#      x y z
#    x 1.747380 0.000000 0.000000 
#    y 0.000000 1.743250 0.000000 
#    z 0.000000 0.000000 1.751130 
# 
# From -- ./inp_files/16503.got.cif
#   From: 2010.03.12/outbox.cif.g09.slc.cpg/sg44_9_cif.got.tgz:16503.got - 2010.04.14 02:36:11.
