data_PCOD8190418
_publ_section_title
;
Structure prediction by ZEFSAII (Michael W. Deem and Ramdas Pophale) SiO2 
 PCOD8190418
Probable space group: I B A 2
;
_chemical_formula_sum "Si O2"
_cell_formula_units_Z 28
_cell_length_a 17.416233
_cell_length_b 9.825678
_cell_length_c 8.629350
_cell_angle_alpha 90.000000
_cell_angle_beta 90.000000
_cell_angle_gamma 90.000000
_cell_volume 1476.708715
_symmetry_space_group_name_H-M "I B A 2"
_symmetry_group_IT_number 45
_symmetry_cell_setting 'orthorhombic'
loop_
_space_group_symop_operation_xyz
x,y,z
-x,-y,z
-x,y,1/2+z
x,-y,1/2+z
1/2+x,1/2+y,1/2+z
1/2-x,1/2-y,1/2+z
1/2-x,1/2+y,z
1/2+x,1/2-y,z
loop_
_atom_site_type_symbol
_atom_site_label
_atom_site_fract_x
_atom_site_fract_y
_atom_site_fract_z
Si Si1 0.095498 0.362902 0.123700
Si Si2 0.810734 0.863193 0.240033
Si Si3 0.000000 0.500000 0.879026
Si Si4 0.235834 0.871573 0.084979
O O1 0.110385 0.205379 0.174208
O O2 0.068965 0.442918 0.276472
O O3 0.176559 0.426027 0.063851
O O4 0.032980 0.378154 0.987392
O O5 0.808770 0.855134 0.424854
O O6 0.738436 0.774584 0.173146
O O7 0.809578 0.019481 0.188906
#
# Coordination Sequence:
#
# PCOD8190418 Si02
#       4
#     8   8   4   8
#     4   9  22  33  60  83 109 152 185 235 268 331
#     4  10  21  34  57  89 115 139 186 231 304 315
#     4  10  18  40  54  82 114 150 204 210 264 346
#     4  10  20  36  56  91 109 143 180 241 290 332
#
# _framework density 18.961084
#
# number of rings (size 3 to 8) (size 9 to 14) (size 15 to 20)
#    1.714    0.571    0.000    3.429    4.000    0.000 
#    0.000    0.000    0.000    5.143    0.000    0.000 
#    0.000    0.000    0.000    0.000    0.000    0.000 
#
# Total GULP energy -173435.851964 kJ/mol
# GULP energy per Si atom -12388.275140 kJ/mol
# Density = 1.891793 g / cm^3
# Si number density = 18.961084 Si / 1000 Ang^3
#
#
#
# Elastic Constant Matrix: (Units=GPa)
#
#
# Indices 1 2 3 4 5 6 
#
# 1 49.0436 -2.5411 -1.6759 0.0000 0.0000 0.0000
# 2 -2.5411 65.5034 13.7865 0.0000 0.0000 0.0000
# 3 -1.6759 13.7865 78.0338 0.0000 0.0000 0.0000
# 4 0.0000 0.0000 0.0000 32.9554 0.0000 0.0000
# 5 0.0000 0.0000 0.0000 0.0000 19.0625 0.0000
# 6 0.0000 0.0000 0.0000 0.0000 0.0000 23.8926
#
#
#
# Elastic Compliance Matrix: (Units=1/GPa)
#
#
# Indices 1 2 3 4 5 6 
#
# 1 0.020438 0.000728 0.000310 0.000000 0.000000 0.000000
# 2 0.000728 0.015882 -0.002790 0.000000 0.000000 0.000000
# 3 0.000310 -0.002790 0.013315 0.000000 0.000000 0.000000
# 4 0.000000 0.000000 0.000000 0.030344 0.000000 0.000000
# 5 0.000000 0.000000 0.000000 0.000000 0.052459 0.000000
# 6 0.000000 0.000000 0.000000 0.000000 0.000000 0.041854
#
#
# Mechanical properties :
#
#
# Convention : Reuss Voigt Hill
#
# Bulk Modulus (GPa) = 21.67778 23.52440 22.60109
# Shear Modulus (GPa) = 25.88351 27.38286 26.63319
#
# Velocity S-wave (km/s) = 3.69872 3.80433 3.75190
# Velocity P-wave (km/s) = 5.44961 5.63302 5.54207
#
# Compressibility (1/GPa) = 0.04613018
#
# Stress axis : x y z
#
# Youngs Moduli (GPa) = 48.92768 62.96485 75.10555
#
# Poissons Ratio (x) = -0.04581 -0.02331
# Poissons Ratio (y) = -0.03560 0.20957
# Poissons Ratio (z) = -0.01519 0.17569
#
# Static dielectric constant tensor:
#      x y z
#    x 3.166020 0.000000 0.000000 
#    y 0.000000 3.313260 0.000000 
#    z 0.000000 0.000000 3.416720 
# 
# 
# High freq. dielectric constant tensor:
#      x y z
#    x 1.699810 0.000000 0.000000 
#    y 0.000000 1.718690 0.000000 
#    z 0.000000 0.000000 1.751500 
# 
# From -- ./inp_files/858.got.cif
#   From: 2010.03.12/outbox.cif.g09.slc.cpg/sg45_1_cif.got.tgz:858.got - 2010.04.14 02:50:11.
