data_PCOD8190635
_publ_section_title
;
Structure prediction by ZEFSAII (Michael W. Deem and Ramdas Pophale) SiO2 
 PCOD8190635
Probable space group: I B A 2
;
_chemical_formula_sum "Si O2"
_cell_formula_units_Z 60
_cell_length_a 21.506925
_cell_length_b 10.582117
_cell_length_c 12.829080
_cell_angle_alpha 90.000000
_cell_angle_beta 90.000000
_cell_angle_gamma 90.000000
_cell_volume 2919.754879
_symmetry_space_group_name_H-M "I B A 2"
_symmetry_group_IT_number 45
_symmetry_cell_setting 'orthorhombic'
loop_
_space_group_symop_operation_xyz
x,y,z
-x,-y,z
-x,y,1/2+z
x,-y,1/2+z
1/2+x,1/2+y,1/2+z
1/2-x,1/2-y,1/2+z
1/2-x,1/2+y,z
1/2+x,1/2-y,z
loop_
_atom_site_type_symbol
_atom_site_label
_atom_site_fract_x
_atom_site_fract_y
_atom_site_fract_z
Si Si1 0.190066 0.872863 0.121700
Si Si2 0.387462 0.403051 0.711413
Si Si3 0.895487 0.121788 0.944557
Si Si4 0.583154 0.874665 0.435916
Si Si5 0.336565 0.859753 0.132435
Si Si6 0.500000 0.500000 0.584600
Si Si7 0.545654 0.853026 0.998170
Si Si8 0.616210 0.131276 0.698521
O O1 0.262986 0.862673 0.130489
O O2 0.164091 0.739258 0.162940
O O3 0.163765 0.993110 0.182850
O O4 0.169925 0.903479 0.002299
O O5 0.397704 0.438401 0.831944
O O6 0.360774 0.261985 0.695855
O O7 0.454339 0.414352 0.655614
O O8 0.902393 0.272190 0.938609
O O9 0.954677 0.083453 0.014740
O O10 0.640852 0.848517 0.512518
O O11 0.523055 0.795179 0.474947
O O12 0.599747 0.839365 0.317932
O O13 0.558048 0.014969 0.444206
O O14 0.357571 0.989391 0.187471
O O15 0.555554 0.858551 0.123991
#
# Coordination Sequence:
#
# PCOD8190635 Si02
#       8
#     8   8   8   8   8   4   8   8
#     4  10  24  41  58  87 123 156 201 249 288 346
#     4  11  23  40  64  90 120 159 198 246 302 352
#     4  10  21  39  60  85 120 159 193 243 303 354
#     4  10  21  36  61  89 116 155 192 240 299 353
#     4  11  23  40  61  89 118 155 207 245 283 352
#     4  10  22  38  60  94 122 150 198 248 298 364
#     4   9  20  36  57  89 119 146 192 245 295 356
#     4  10  22  41  61  86 121 156 193 243 299 348
#
# _framework density 20.549669999999999
#
# number of rings (size 3 to 8) (size 9 to 14) (size 15 to 20)
#    0.000    1.867    0.000    2.800    0.000   13.867 
#    0.000    0.000    0.000    0.000    0.000    0.000 
#    0.000    0.000    0.000    0.000    0.000    0.000 
#
# Total GULP energy -371722.080658 kJ/mol
# GULP energy per Si atom -12390.736022 kJ/mol
# Density = 2.050290 g / cm^3
# Si number density = 20.549670 Si / 1000 Ang^3
#
#
#
# Elastic Constant Matrix: (Units=GPa)
#
#
# Indices 1 2 3 4 5 6 
#
# 1 154.7108 40.3720 69.5854 0.0000 0.0000 0.0000
# 2 40.3720 102.1103 34.2456 0.0000 0.0000 0.0000
# 3 69.5854 34.2456 157.9700 0.0000 0.0000 0.0000
# 4 0.0000 0.0000 0.0000 -318.4918 0.0000 0.0000
# 5 0.0000 0.0000 0.0000 0.0000 10.9875 0.0000
# 6 0.0000 0.0000 0.0000 0.0000 0.0000 22.0081
#
#
#
# Elastic Compliance Matrix: (Units=1/GPa)
#
#
# Indices 1 2 3 4 5 6 
#
# 1 0.008525 -0.002277 -0.003262 0.000000 0.000000 0.000000
# 2 -0.002277 0.011169 -0.001418 0.000000 0.000000 0.000000
# 3 -0.003262 -0.001418 0.008075 0.000000 0.000000 0.000000
# 4 0.000000 0.000000 0.000000 -0.003140 0.000000 0.000000
# 5 0.000000 0.000000 0.000000 0.000000 0.091013 0.000000
# 6 0.000000 0.000000 0.000000 0.000000 0.000000 0.045438
#
#
# Mechanical properties :
#
#
# Convention : Reuss Voigt Hill
#
# Bulk Modulus (GPa) = 72.17554 78.13299 75.15426
# Shear Modulus (GPa) = 27.83796 -39.06002 -5.61103
#
# Velocity S-wave (km/s) = 3.68457 -4.36450 -1.65421
# Velocity P-wave (km/s) = 7.30070 3.56449 5.74481
#
# Compressibility (1/GPa) = 0.01385511
#
# Stress axis : x y z
#
# Youngs Moduli (GPa) = 117.30553 89.53213 123.84600
#
# Poissons Ratio (x) = 0.20383 0.40394
# Poissons Ratio (y) = 0.26706 0.17567
# Poissons Ratio (z) = 0.38260 0.12700
#
# Static dielectric constant tensor:
#      x y z
#    x 3.917970 0.000000 0.000000 
#    y 0.000000 4.401730 0.000000 
#    z 0.000000 0.000000 3.746230 
# 
# 
# High freq. dielectric constant tensor:
#      x y z
#    x 1.800680 0.000000 0.000000 
#    y 0.000000 1.818660 0.000000 
#    z 0.000000 0.000000 1.802100 
# 
# From -- ./inp_files/4662.got.cif
#   From: 2010.03.12/outbox.cif.g09.slc.cpg/sg45_3_cif.got.tgz:4662.got - 2010.04.14 02:50:11.
