data_PCOD8190317
_publ_section_title
;
Structure prediction by ZEFSAII (Michael W. Deem and Ramdas Pophale) SiO2 
 PCOD8190317
Probable space group: I M M 2
;
_chemical_formula_sum "Si O2"
_cell_formula_units_Z 32
_cell_length_a 23.717123
_cell_length_b 11.692762
_cell_length_c 4.839632
_cell_angle_alpha 90.000000
_cell_angle_beta 90.000000
_cell_angle_gamma 90.000000
_cell_volume 1342.120332
_symmetry_space_group_name_H-M "I M M 2"
_symmetry_group_IT_number 44
_symmetry_cell_setting 'orthorhombic'
loop_
_space_group_symop_operation_xyz
x,y,z
-x,-y,z
-x,y,z
x,-y,z
1/2+x,1/2+y,1/2+z
1/2-x,1/2-y,1/2+z
1/2-x,1/2+y,1/2+z
1/2+x,1/2-y,1/2+z
loop_
_atom_site_type_symbol
_atom_site_label
_atom_site_fract_x
_atom_site_fract_y
_atom_site_fract_z
Si Si1 0.764348 0.687660 0.696820
Si Si2 0.388362 0.130846 0.376479
Si Si3 0.563891 0.257355 0.881410
Si Si4 0.190042 0.000000 0.927425
Si Si5 0.614444 0.500000 0.921119
O O1 0.769485 0.795565 0.485463
O O2 0.825103 0.636643 0.761265
O O3 0.727154 0.609519 0.495676
O O4 0.431137 0.175423 0.145667
O O5 0.403022 0.000000 0.452775
O O6 0.394015 0.210646 0.645630
O O7 0.500000 0.251920 0.771164
O O8 0.577964 0.386367 0.975061
O O9 0.132573 0.000000 0.102483
O O10 0.170628 0.000000 0.609826
#
# Coordination Sequence:
#
# PCOD8190317 Si02
#       5
#     8   8   8   4   4
#     4  12  24  42  68 102 144 186 232 288 353 433
#     4  12  26  47  71 106 148 187 243 296 358 439
#     4  12  27  47  74 103 141 193 244 308 365 415
#     4  12  24  42  69 104 135 184 226 278 367 420
#     4  12  25  46  72 106 140 178 247 300 359 434
#
# _framework density 23.842869
#
# number of rings (size 3 to 8) (size 9 to 14) (size 15 to 20)
#    0.000    0.000    1.250   10.875    0.000    3.000 
#    0.000    3.750    0.000    0.000    0.000    0.000 
#    0.000    0.000    0.000    0.000    0.000    0.000 
#
# Total GULP energy -198462.689027 kJ/mol
# GULP energy per Si atom -12403.918064 kJ/mol
# Density = 2.378860 g / cm^3
# Si number density = 23.842869 Si / 1000 Ang^3
#
#
#
# Elastic Constant Matrix: (Units=GPa)
#
#
# Indices 1 2 3 4 5 6 
#
# 1 95.5034 50.0327 16.7103 0.0000 0.0000 0.0000
# 2 50.0327 142.5296 43.6113 0.0000 0.0000 0.0000
# 3 16.7103 43.6113 124.4246 -0.0001 0.0003 0.0001
# 4 0.0000 0.0000 -0.0001 29.4186 0.0000 0.0000
# 5 0.0000 0.0000 0.0003 0.0000 37.2310 -0.0001
# 6 0.0000 0.0000 0.0001 0.0000 -0.0001 37.9414
#
#
#
# Elastic Compliance Matrix: (Units=1/GPa)
#
#
# Indices 1 2 3 4 5 6 
#
# 1 0.012833 -0.004455 -0.000162 0.000000 0.000000 0.000000
# 2 -0.004455 0.009406 -0.002698 0.000000 0.000000 0.000000
# 3 -0.000162 -0.002698 0.009005 0.000000 0.000000 0.000000
# 4 0.000000 0.000000 0.000000 0.033992 0.000000 0.000000
# 5 0.000000 0.000000 0.000000 0.000000 0.026859 0.000000
# 6 0.000000 0.000000 0.000000 0.000000 0.000000 0.026356
#
#
# Mechanical properties :
#
#
# Convention : Reuss Voigt Hill
#
# Bulk Modulus (GPa) = 60.19663 64.79625 62.49644
# Shear Modulus (GPa) = 36.06982 37.72510 36.89746
#
# Velocity S-wave (km/s) = 3.89371 3.98205 3.93813
# Velocity P-wave (km/s) = 6.74660 6.95541 6.85180
#
# Compressibility (1/GPa) = 0.01661222
#
# Stress axis : x y z
#
# Youngs Moduli (GPa) = 77.92256 106.31825 111.05525
#
# Poissons Ratio (x) = 0.47369 0.01798
# Poissons Ratio (y) = 0.34717 0.29967
# Poissons Ratio (z) = 0.01261 0.28689
#
# Static dielectric constant tensor:
#      x y z
#    x 3.982800 0.000000 0.000000 
#    y 0.000000 4.868660 0.000000 
#    z 0.000000 0.000000 4.356050 
# 
# 
# High freq. dielectric constant tensor:
#      x y z
#    x 1.936580 0.000000 0.000000 
#    y 0.000000 1.959400 0.000000 
#    z 0.000000 0.000000 1.961060 
# 
# From -- ./inp_files/2630.got.cif
#   From: 2010.03.12/outbox.cif.g09.slc.cpg/sg44_2_cif.got.tgz:2630.got - 2010.04.14 02:36:11.
