data_PCOD8190453
_publ_section_title
;
Structure prediction by ZEFSAII (Michael W. Deem and Ramdas Pophale) SiO2 
 PCOD8190453
Probable space group: I B A 2
;
_chemical_formula_sum "Si O2"
_cell_formula_units_Z 48
_cell_length_a 8.961168
_cell_length_b 18.127292
_cell_length_c 15.712523
_cell_angle_alpha 90.000000
_cell_angle_beta 90.000000
_cell_angle_gamma 90.000000
_cell_volume 2552.369089
_symmetry_space_group_name_H-M "I B A 2"
_symmetry_group_IT_number 45
_symmetry_cell_setting 'orthorhombic'
loop_
_space_group_symop_operation_xyz
x,y,z
-x,-y,z
-x,y,1/2+z
x,-y,1/2+z
1/2+x,1/2+y,1/2+z
1/2-x,1/2-y,1/2+z
1/2-x,1/2+y,z
1/2+x,1/2-y,z
loop_
_atom_site_type_symbol
_atom_site_label
_atom_site_fract_x
_atom_site_fract_y
_atom_site_fract_z
Si Si1 0.160000 0.409932 0.163090
Si Si2 0.174147 0.171952 0.997880
Si Si3 0.847199 0.445739 0.428800
Si Si4 0.660060 0.909970 0.855639
Si Si5 0.652871 0.054218 0.589930
Si Si6 0.174229 0.827988 0.020834
O O1 0.152472 0.380366 0.259373
O O2 0.205376 0.497367 0.164019
O O3 0.280753 0.360623 0.112878
O O4 0.998952 0.403286 0.116534
O O5 0.224763 0.116109 0.072336
O O6 0.250042 0.249955 0.009318
O O7 0.999974 0.182267 0.009391
O O8 0.219039 0.139263 0.905839
O O9 0.794733 0.502572 0.354680
O O10 0.870582 0.499987 0.509360
O O11 0.724854 0.383837 0.446385
O O12 0.999063 0.403255 0.402242
#
# Coordination Sequence:
#
# PCOD8190453 Si02
#       6
#     8   8   8   8   8   8
#     4  10  19  35  58  86 111 138 178 227 270 316
#     4  11  22  38  57  77 108 150 187 220 267 329
#     4   9  17  33  59  84 111 147 179 209 263 329
#     4  10  19  35  58  86 111 138 178 227 270 316
#     4   9  17  33  59  84 111 147 179 209 263 329
#     4  11  22  38  57  77 108 150 187 220 267 329
#
# _framework density 18.806056999999999
#
# number of rings (size 3 to 8) (size 9 to 14) (size 15 to 20)
#    0.000    2.000    0.000   11.000    0.000    6.000 
#    0.000   13.333    0.000    0.000    0.000    0.000 
#    0.000    0.000    0.000    0.000    0.000    0.000 
#
# Total GULP energy -297313.429262 kJ/mol
# GULP energy per Si atom -12388.059553 kJ/mol
# Density = 1.876325 g / cm^3
# Si number density = 18.806057 Si / 1000 Ang^3
#
#
#
# Elastic Constant Matrix: (Units=GPa)
#
#
# Indices 1 2 3 4 5 6 
#
# 1 155.9991 76.3683 52.9511 0.0000 0.0000 0.0000
# 2 76.3683 111.4771 26.4530 0.0000 0.0000 0.0000
# 3 52.9511 26.4530 99.8747 0.0000 0.0000 0.0000
# 4 0.0000 0.0000 0.0000 13.7845 0.0000 0.0000
# 5 0.0000 0.0000 0.0000 0.0000 8.7766 0.0000
# 6 0.0000 0.0000 0.0000 0.0000 0.0000 36.8565
#
#
#
# Elastic Compliance Matrix: (Units=1/GPa)
#
#
# Indices 1 2 3 4 5 6 
#
# 1 0.011023 -0.006578 -0.004102 0.000000 0.000000 0.000000
# 2 -0.006578 0.013497 -0.000088 0.000000 0.000000 0.000000
# 3 -0.004102 -0.000088 0.012210 0.000000 0.000000 0.000000
# 4 0.000000 0.000000 0.000000 0.072545 0.000000 0.000000
# 5 0.000000 0.000000 0.000000 0.000000 0.113939 0.000000
# 6 0.000000 0.000000 0.000000 0.000000 0.000000 0.027132
#
#
# Mechanical properties :
#
#
# Convention : Reuss Voigt Hill
#
# Bulk Modulus (GPa) = 65.80579 75.43286 70.61933
# Shear Modulus (GPa) = 18.05403 25.98876 22.02140
#
# Velocity S-wave (km/s) = 3.10177 3.72147 3.42566
# Velocity P-wave (km/s) = 6.92067 7.65923 7.29930
#
# Compressibility (1/GPa) = 0.01519623
#
# Stress axis : x y z
#
# Youngs Moduli (GPa) = 90.72189 74.08813 81.89760
#
# Poissons Ratio (x) = 0.48734 0.33592
# Poissons Ratio (y) = 0.59676 0.00717
# Poissons Ratio (z) = 0.37212 0.00649
#
# Static dielectric constant tensor:
#      x y z
#    x 3.286670 0.000000 0.000000 
#    y 0.000000 3.788580 0.000000 
#    z 0.000000 0.000000 3.877400 
# 
# 
# High freq. dielectric constant tensor:
#      x y z
#    x 1.715710 0.000000 0.000000 
#    y 0.000000 1.729640 0.000000 
#    z 0.000000 0.000000 1.718610 
# 
# From -- ./inp_files/5590.got.cif
#   From: 2010.03.12/outbox.cif.g09.slc.cpg/sg45_3_cif.got.tgz:5590.got - 2010.04.14 02:50:11.
