data_PCOD8190873
_publ_section_title
;
Structure prediction by ZEFSAII (Michael W. Deem and Ramdas Pophale) SiO2 
 PCOD8190873
Probable space group: I B A 2
;
_chemical_formula_sum "Si O2"
_cell_formula_units_Z 36
_cell_length_a 22.126394
_cell_length_b 5.155441
_cell_length_c 12.673707
_cell_angle_alpha 90.000000
_cell_angle_beta 90.000000
_cell_angle_gamma 90.000000
_cell_volume 1445.706472
_symmetry_space_group_name_H-M "I B A 2"
_symmetry_group_IT_number 45
_symmetry_cell_setting 'orthorhombic'
loop_
_space_group_symop_operation_xyz
x,y,z
-x,-y,z
-x,y,1/2+z
x,-y,1/2+z
1/2+x,1/2+y,1/2+z
1/2-x,1/2-y,1/2+z
1/2-x,1/2+y,z
1/2+x,1/2-y,z
loop_
_atom_site_type_symbol
_atom_site_label
_atom_site_fract_x
_atom_site_fract_y
_atom_site_fract_z
Si Si1 0.209623 0.772433 0.359230
Si Si2 0.534117 0.747443 0.795470
Si Si3 0.787743 0.214301 0.118883
Si Si4 0.500000 0.500000 0.592209
Si Si5 0.383180 0.604876 0.459812
O O1 0.241057 0.499097 0.385077
O O2 0.187813 0.771155 0.238005
O O3 0.149993 0.831673 0.429906
O O4 0.500000 0.500000 0.846620
O O5 0.530774 0.721983 0.667829
O O6 0.500000 0.000000 0.835224
O O7 0.601953 0.748719 0.847042
O O8 0.764203 0.923365 0.098219
O O9 0.840849 0.274380 0.036227
O O10 0.446020 0.595509 0.520531
#
# Coordination Sequence:
#
# PCOD8190873 Si02
#       5
#     8   8   8   4   8
#     4  10  23  44  66 101 139 172 221 284 342 398
#     4  10  25  47  62  96 138 176 222 282 338 396
#     4  10  23  43  66 100 134 172 223 278 342 400
#     4  10  24  48  64 102 136 180 228 282 340 406
#     4  12  22  44  73  99 132 185 231 278 336 421
#
# _framework density 24.901319000000001
#
# number of rings (size 3 to 8) (size 9 to 14) (size 15 to 20)
#    0.667    0.889    1.111    2.667    0.000    4.444 
#   16.000    0.000    0.000    0.000    0.000    0.000 
#    0.000    0.000    0.000    0.000    0.000    0.000 
#
# Total GULP energy -222989.695082 kJ/mol
# GULP energy per Si atom -12388.316393 kJ/mol
# Density = 2.484464 g / cm^3
# Si number density = 24.901319 Si / 1000 Ang^3
#
#
#
# Elastic Constant Matrix: (Units=GPa)
#
#
# Indices 1 2 3 4 5 6 
#
# 1 81.4892 -14.2301 66.8209 0.0000 0.0000 0.0000
# 2 -14.2301 77.8884 -2.2725 0.0000 0.0000 0.0000
# 3 66.8209 -2.2725 140.7376 0.0000 0.0000 0.0000
# 4 0.0000 0.0000 0.0000 11.0660 0.0000 0.0000
# 5 0.0000 0.0000 0.0000 0.0000 52.4741 0.0000
# 6 0.0000 0.0000 0.0000 0.0000 0.0000 19.2012
#
#
#
# Elastic Compliance Matrix: (Units=1/GPa)
#
#
# Indices 1 2 3 4 5 6 
#
# 1 0.021034 0.003553 -0.009929 0.000000 0.000000 0.000000
# 2 0.003553 0.013445 -0.001470 0.000000 0.000000 0.000000
# 3 -0.009929 -0.001470 0.011796 0.000000 0.000000 0.000000
# 4 0.000000 0.000000 0.000000 0.090367 0.000000 0.000000
# 5 0.000000 0.000000 0.000000 0.000000 0.019057 0.000000
# 6 0.000000 0.000000 0.000000 0.000000 0.000000 0.052080
#
#
# Mechanical properties :
#
#
# Convention : Reuss Voigt Hill
#
# Bulk Modulus (GPa) = 32.69779 44.52796 38.61288
# Shear Modulus (GPa) = 21.39803 33.20138 27.29970
#
# Velocity S-wave (km/s) = 2.93458 3.65542 3.31466
# Velocity P-wave (km/s) = 4.96405 5.97802 5.49448
#
# Compressibility (1/GPa) = 0.03058311
#
# Stress axis : x y z
#
# Youngs Moduli (GPa) = 47.54166 74.37616 84.77379
#
# Poissons Ratio (x) = -0.26428 0.84176
# Poissons Ratio (y) = -0.16893 0.12461
# Poissons Ratio (z) = 0.47206 0.10933
#
# Static dielectric constant tensor:
#      x y z
#    x 4.534300 0.000000 0.000000 
#    y 0.000000 4.186420 0.000000 
#    z 0.000000 0.000000 5.100820 
# 
# 
# High freq. dielectric constant tensor:
#      x y z
#    x 1.980560 0.000000 0.000000 
#    y 0.000000 1.966420 0.000000 
#    z 0.000000 0.000000 2.026440 
# 
# From -- ./inp_files/5069.got.cif
#   From: 2010.03.12/outbox.cif.g09.slc.cpg/sg45_3_cif.got.tgz:5069.got - 2010.04.14 02:50:11.
