data_PCOD8190315
_publ_section_title
;
Structure prediction by ZEFSAII (Michael W. Deem and Ramdas Pophale) SiO2 
 PCOD8190315
Probable space group: I M M 2
;
_chemical_formula_sum "Si O2"
_cell_formula_units_Z 64
_cell_length_a 14.073884
_cell_length_b 13.419242
_cell_length_c 17.398860
_cell_angle_alpha 90.000000
_cell_angle_beta 90.000000
_cell_angle_gamma 90.000000
_cell_volume 3285.963580
_symmetry_space_group_name_H-M "I M M 2"
_symmetry_group_IT_number 44
_symmetry_cell_setting 'orthorhombic'
loop_
_space_group_symop_operation_xyz
x,y,z
-x,-y,z
-x,y,z
x,-y,z
1/2+x,1/2+y,1/2+z
1/2-x,1/2-y,1/2+z
1/2-x,1/2+y,1/2+z
1/2+x,1/2-y,1/2+z
loop_
_atom_site_type_symbol
_atom_site_label
_atom_site_fract_x
_atom_site_fract_y
_atom_site_fract_z
Si Si1 0.775652 0.787241 0.647120
Si Si2 0.609353 0.113009 0.718083
Si Si3 0.394171 0.118353 0.380565
Si Si4 0.388833 0.112873 0.895810
Si Si5 0.389974 0.611757 0.447157
Si Si6 0.896389 0.883160 0.776330
Si Si7 0.891911 0.614264 0.705983
Si Si8 0.249635 0.738708 0.979975
O O1 0.665585 0.804054 0.668844
O O2 0.829549 0.861373 0.704723
O O3 0.815610 0.675588 0.656477
O O4 0.789125 0.814290 0.557122
O O5 0.500000 0.139640 0.706678
O O6 0.639037 0.120930 0.806795
O O7 0.630127 0.000000 0.689074
O O8 0.500000 0.152000 0.411507
O O9 0.384405 0.155776 0.292720
O O10 0.304070 0.156708 0.428582
O O11 0.389901 0.000000 0.381158
O O12 0.500000 0.131560 0.908633
O O13 0.334328 0.201496 0.938848
O O14 0.362581 0.000000 0.924401
O O15 0.500000 0.618438 0.466852
O O16 0.352393 0.500000 0.454682
O O17 0.366512 0.657372 0.361333
O O18 0.330066 0.679893 0.505325
O O19 0.000000 0.839667 0.755028
O O20 0.903053 0.000000 0.789344
O O21 0.861034 0.500000 0.700153
O O22 0.000000 0.627874 0.675316
#
# Coordination Sequence:
#
# PCOD8190315 Si02
#       8
#     8   8   8   8   8   8   8   8
#     4  12  23  31  48  78 112 144 169 201 256 317
#     4   9  19  37  59  79 100 133 179 224 260 299
#     4   9  19  37  59  79 100 133 179 224 260 299
#     4   9  19  37  59  79 100 133 179 224 260 299
#     4   9  18  34  57  81 101 125 163 213 266 314
#     4   9  18  34  57  81 101 125 163 213 266 314
#     4   9  19  37  59  79 100 133 179 224 260 299
#     4  12  23  31  48  78 112 144 169 201 256 317
#
# _framework density 19.476783000000001
#
# number of rings (size 3 to 8) (size 9 to 14) (size 15 to 20)
#    0.000    2.250    0.000    6.000    0.000    8.000 
#    0.000    2.500    0.000    0.750    0.000    3.500 
#    0.000    0.000    0.000    0.000    0.000    0.000 
#
# Total GULP energy -396539.323597 kJ/mol
# GULP energy per Si atom -12391.853862 kJ/mol
# Density = 1.943245 g / cm^3
# Si number density = 19.476783 Si / 1000 Ang^3
#
#
#
# Elastic Constant Matrix: (Units=GPa)
#
#
# Indices 1 2 3 4 5 6 
#
# 1 73.9617 25.5913 33.0262 0.0000 0.0000 0.0000
# 2 25.5913 23.1220 12.5423 0.0000 0.0000 0.0000
# 3 33.0262 12.5423 67.6622 0.0000 0.0000 0.0000
# 4 0.0000 0.0000 0.0000 16.0808 0.0000 0.0000
# 5 0.0000 0.0000 0.0000 0.0000 13.6713 0.0000
# 6 0.0000 0.0000 0.0000 0.0000 0.0000 41.0777
#
#
#
# Elastic Compliance Matrix: (Units=1/GPa)
#
#
# Indices 1 2 3 4 5 6 
#
# 1 0.025243 -0.023631 -0.007941 0.000000 0.000000 0.000000
# 2 -0.023631 0.070206 -0.001479 0.000000 0.000000 0.000000
# 3 -0.007941 -0.001479 0.018929 0.000000 0.000000 0.000000
# 4 0.000000 0.000000 0.000000 0.062186 0.000000 0.000000
# 5 0.000000 0.000000 0.000000 0.000000 0.073146 0.000000
# 6 0.000000 0.000000 0.000000 0.000000 0.000000 0.024344
#
#
# Mechanical properties :
#
#
# Convention : Reuss Voigt Hill
#
# Bulk Modulus (GPa) = 20.71430 34.11839 27.41634
# Shear Modulus (GPa) = 14.03513 20.40506 17.22010
#
# Velocity S-wave (km/s) = 2.68733 3.24027 2.97667
# Velocity P-wave (km/s) = 4.50416 5.61735 5.09127
#
# Compressibility (1/GPa) = 0.04827583
#
# Stress axis : x y z
#
# Youngs Moduli (GPa) = 39.61505 14.24374 52.82790
#
# Poissons Ratio (x) = 0.33660 0.41949
# Poissons Ratio (y) = 0.93616 0.07815
# Poissons Ratio (z) = 0.31457 0.02107
#
# Static dielectric constant tensor:
#      x y z
#    x 3.644370 0.000000 0.000000 
#    y 0.000000 3.531350 0.000000 
#    z 0.000000 0.000000 3.306350 
# 
# 
# High freq. dielectric constant tensor:
#      x y z
#    x 1.762590 0.000000 0.000000 
#    y 0.000000 1.761050 0.000000 
#    z 0.000000 0.000000 1.730430 
# 
# From -- ./inp_files/21972.got.cif
#   From: 2010.03.12/outbox.cif.g09.slc.cpg/sg44_11_cif.got.tgz:21972.got - 2010.04.14 02:36:11.
