data_PCOD8190030
_publ_section_title
;
Structure prediction by ZEFSAII (Michael W. Deem and Ramdas Pophale) SiO2 
 PCOD8190030
Probable space group: I M M 2
;
_chemical_formula_sum "Si O2"
_cell_formula_units_Z 64
_cell_length_a 22.376988
_cell_length_b 9.135333
_cell_length_c 15.389684
_cell_angle_alpha 90.000000
_cell_angle_beta 90.000000
_cell_angle_gamma 90.000000
_cell_volume 3145.978239
_symmetry_space_group_name_H-M "I M M 2"
_symmetry_group_IT_number 44
_symmetry_cell_setting 'orthorhombic'
loop_
_space_group_symop_operation_xyz
x,y,z
-x,-y,z
-x,y,z
x,-y,z
1/2+x,1/2+y,1/2+z
1/2-x,1/2-y,1/2+z
1/2-x,1/2+y,1/2+z
1/2+x,1/2-y,1/2+z
loop_
_atom_site_type_symbol
_atom_site_label
_atom_site_fract_x
_atom_site_fract_y
_atom_site_fract_z
Si Si1 0.822353 0.170986 0.455160
Si Si2 0.121097 0.332535 0.883990
Si Si3 0.929635 0.161446 0.225708
Si Si4 0.182230 0.830626 0.647422
Si Si5 0.431385 0.171788 0.898007
Si Si6 0.066465 0.667839 0.702709
Si Si7 0.764900 0.827658 0.826035
Si Si8 0.929438 0.337574 0.066043
O O1 0.791258 0.197401 0.550118
O O2 0.888473 0.241581 0.463899
O O3 0.788917 0.246021 0.374389
O O4 0.827551 0.000000 0.434933
O O5 0.145360 0.500000 0.889263
O O6 0.074095 0.317127 0.806256
O O7 0.174945 0.219961 0.873707
O O8 0.087776 0.282795 0.970848
O O9 0.913938 0.272403 0.302403
O O10 0.901630 0.228368 0.137558
O O11 0.000000 0.146550 0.215387
O O12 0.901885 0.000000 0.242683
O O13 0.118154 0.753395 0.653162
O O14 0.228663 0.779834 0.723510
O O15 0.168685 0.000000 0.662460
O O16 0.500000 0.208425 0.921702
O O17 0.418968 0.000000 0.902632
O O18 0.071782 0.500000 0.673214
O O19 0.000000 0.727313 0.678847
O O20 0.754516 0.000000 0.835898
O O21 0.903433 0.500000 0.083038
O O22 0.000000 0.341378 0.074818
#
# Coordination Sequence:
#
# PCOD8190030 Si02
#       8
#     8   8   8   8   8   8   8   8
#     4  11  23  41  64  88 114 149 191 235 287 345
#     4   9  17  31  51  76 109 150 192 238 288 339
#     4   9  17  30  48  72 106 145 184 229 278 328
#     4   9  21  40  60  83 115 152 189 234 288 343
#     4  10  21  38  60  86 116 149 185 228 282 341
#     4   9  17  30  52  83 117 152 191 234 280 334
#     4  10  21  40  61  82 111 148 191 242 289 337
#     4   9  16  27  46  73 107 149 194 237 286 344
#
# _framework density 20.343433000000001
#
# number of rings (size 3 to 8) (size 9 to 14) (size 15 to 20)
#    0.000    2.500    0.000    1.875    0.000    6.500 
#    2.250    2.500    0.000    2.250    0.000    0.000 
#    0.000    0.000    0.000    0.000    0.000    0.000 
#
# Total GULP energy -396624.447058 kJ/mol
# GULP energy per Si atom -12394.513971 kJ/mol
# Density = 2.029713 g / cm^3
# Si number density = 20.343433 Si / 1000 Ang^3
#
#
#
# Elastic Constant Matrix: (Units=GPa)
#
#
# Indices 1 2 3 4 5 6 
#
# 1 70.7914 39.9440 34.6059 0.0000 0.0000 0.0000
# 2 39.9440 95.3176 48.4317 0.0000 0.0000 0.0000
# 3 34.6059 48.4317 116.3602 0.0000 0.0000 0.0000
# 4 0.0000 0.0000 0.0000 29.2402 0.0000 0.0000
# 5 0.0000 0.0000 0.0000 0.0000 24.5565 0.0000
# 6 0.0000 0.0000 0.0000 0.0000 0.0000 30.8586
#
#
#
# Elastic Compliance Matrix: (Units=1/GPa)
#
#
# Indices 1 2 3 4 5 6 
#
# 1 0.019297 -0.006558 -0.003010 0.000000 0.000000 0.000000
# 2 -0.006558 0.015533 -0.004515 0.000000 0.000000 0.000000
# 3 -0.003010 -0.004515 0.011368 0.000000 0.000000 0.000000
# 4 0.000000 0.000000 0.000000 0.034200 0.000000 0.000000
# 5 0.000000 0.000000 0.000000 0.000000 0.040722 0.000000
# 6 0.000000 0.000000 0.000000 0.000000 0.000000 0.032406
#
#
# Mechanical properties :
#
#
# Convention : Reuss Voigt Hill
#
# Bulk Modulus (GPa) = 55.44941 58.71470 57.08205
# Shear Modulus (GPa) = 26.63781 27.56358 27.10069
#
# Velocity S-wave (km/s) = 3.62250 3.68491 3.65384
# Velocity P-wave (km/s) = 6.69421 6.85778 6.77649
#
# Compressibility (1/GPa) = 0.01803446
#
# Stress axis : x y z
#
# Youngs Moduli (GPa) = 51.82057 64.37733 87.96319
#
# Poissons Ratio (x) = 0.42216 0.26474
# Poissons Ratio (y) = 0.33981 0.39716
# Poissons Ratio (z) = 0.15597 0.29067
#
# Static dielectric constant tensor:
#      x y z
#    x 3.506180 0.000000 0.000000 
#    y 0.000000 3.768970 0.000000 
#    z 0.000000 0.000000 3.866450 
# 
# 
# High freq. dielectric constant tensor:
#      x y z
#    x 1.769010 0.000000 0.000000 
#    y 0.000000 1.793110 0.000000 
#    z 0.000000 0.000000 1.803800 
# 
# From -- ./inp_files/16839.got.cif
#   From: 2010.03.12/outbox.cif.g09.slc.cpg/sg44_9_cif.got.tgz:16839.got - 2010.04.14 02:36:11.
