data_PCOD8190679
_publ_section_title
;
Structure prediction by ZEFSAII (Michael W. Deem and Ramdas Pophale) SiO2 
 PCOD8190679
Probable space group: I B A 2
;
_chemical_formula_sum "Si O2"
_cell_formula_units_Z 64
_cell_length_a 9.143406
_cell_length_b 27.352256
_cell_length_c 12.731864
_cell_angle_alpha 90.000000
_cell_angle_beta 90.000000
_cell_angle_gamma 90.000000
_cell_volume 3184.147283
_symmetry_space_group_name_H-M "I B A 2"
_symmetry_group_IT_number 45
_symmetry_cell_setting 'orthorhombic'
loop_
_space_group_symop_operation_xyz
x,y,z
-x,-y,z
-x,y,1/2+z
x,-y,1/2+z
1/2+x,1/2+y,1/2+z
1/2-x,1/2-y,1/2+z
1/2-x,1/2+y,z
1/2+x,1/2-y,z
loop_
_atom_site_type_symbol
_atom_site_label
_atom_site_fract_x
_atom_site_fract_y
_atom_site_fract_z
Si Si1 0.149811 0.755794 0.338120
Si Si2 0.392678 0.728050 0.488061
Si Si3 0.074031 0.310491 0.650479
Si Si4 0.835152 0.583624 0.673039
Si Si5 0.666688 0.513557 0.811581
Si Si6 0.341186 0.001760 0.004472
Si Si7 0.339565 0.933452 0.195558
Si Si8 0.741931 0.669552 0.163641
O O1 0.285041 0.727800 0.389469
O O2 0.072874 0.716032 0.263457
O O3 0.202536 0.801266 0.268777
O O4 0.051448 0.774766 0.435038
O O5 0.365033 0.776397 0.557971
O O6 0.366411 0.682218 0.566528
O O7 0.179340 0.358363 0.650489
O O8 0.906479 0.321531 0.623133
O O9 0.710673 0.564470 0.754396
O O10 0.816671 0.553308 0.564645
O O11 0.993597 0.578146 0.728940
O O12 0.500000 0.500000 0.787236
O O13 0.701234 0.513272 0.934895
O O14 0.774702 0.470785 0.777461
O O15 0.500000 0.000000 0.945803
O O16 0.348068 0.956804 0.082607
O O17 0.231061 0.887160 0.193385
#
# Coordination Sequence:
#
# PCOD8190679 Si02
#       8
#     8   8   8   8   8   8   8   8
#     4  11  22  39  61  87 125 162 199 248 307 361
#     4  11  22  39  60  89 124 162 200 247 308 361
#     4  10  21  39  64  89 118 156 209 255 293 359
#     4   9  20  40  64  85 110 151 207 252 284 345
#     4  11  22  38  57  86 124 155 183 240 313 363
#     4   9  18  36  62  85 109 151 199 247 292 348
#     4   9  20  40  62  85 112 151 205 248 285 350
#     4  10  21  39  62  90 120 158 204 255 298 355
#
# _framework density 20.099575000000002
#
# number of rings (size 3 to 8) (size 9 to 14) (size 15 to 20)
#    0.000    2.000    2.500    1.875    0.000    4.000 
#    9.000    0.000    0.000    0.000    0.000    0.000 
#    0.000    0.000    0.000    0.000    0.000    0.000 
#
# Total GULP energy -396642.269920 kJ/mol
# GULP energy per Si atom -12395.070935 kJ/mol
# Density = 2.005383 g / cm^3
# Si number density = 20.099575 Si / 1000 Ang^3
#
#
#
# Elastic Constant Matrix: (Units=GPa)
#
#
# Indices 1 2 3 4 5 6 
#
# 1 70.3528 13.9954 16.9561 -0.0004 0.0005 0.0001
# 2 13.9954 88.9858 12.4235 -0.0007 0.0008 0.0003
# 3 16.9561 12.4235 68.3578 -0.0011 0.0024 0.0006
# 4 -0.0004 -0.0007 -0.0011 2.9346 0.0010 0.0003
# 5 0.0005 0.0008 0.0024 0.0010 13.7173 -0.0004
# 6 0.0001 0.0003 0.0006 0.0003 -0.0004 30.4147
#
#
#
# Elastic Compliance Matrix: (Units=1/GPa)
#
#
# Indices 1 2 3 4 5 6 
#
# 1 0.015438 -0.001943 -0.003476 0.000000 0.000000 0.000000
# 2 -0.001943 0.011775 -0.001658 0.000002 0.000000 0.000000
# 3 -0.003476 -0.001658 0.015793 0.000005 -0.000003 0.000000
# 4 0.000000 0.000002 0.000005 0.340762 -0.000026 -0.000003
# 5 0.000000 0.000000 -0.000003 -0.000026 0.072900 0.000001
# 6 0.000000 0.000000 0.000000 -0.000003 0.000001 0.032879
#
#
# Mechanical properties :
#
#
# Convention : Reuss Voigt Hill
#
# Bulk Modulus (GPa) = 34.66049 34.93850 34.79949
# Shear Modulus (GPa) = 9.74054 21.70143 15.72099
#
# Velocity S-wave (km/s) = 2.20378 3.28944 2.79974
# Velocity P-wave (km/s) = 4.87415 5.64337 5.27281
#
# Compressibility (1/GPa) = 0.02885129
#
# Stress axis : x y z
#
# Youngs Moduli (GPa) = 64.77351 84.92726 63.32088
#
# Poissons Ratio (x) = 0.16499 0.22013
# Poissons Ratio (y) = 0.12584 0.10499
# Poissons Ratio (z) = 0.22518 0.14082
#
# Static dielectric constant tensor:
#      x y z
#    x 3.562450 0.000000 0.000000 
#    y 0.000000 3.690040 0.000000 
#    z 0.000000 0.000000 3.612360 
# 
# 
# High freq. dielectric constant tensor:
#      x y z
#    x 1.775750 0.000000 0.000000 
#    y 0.000000 1.778040 0.000000 
#    z 0.000000 0.000000 1.784450 
# 
# From -- ./inp_files/3396.got.cif
#   From: 2010.03.12/outbox.cif.g09.slc.cpg/sg45_2_cif.got.tgz:3396.got - 2010.04.14 02:50:11.
