data_PCOD8190991
_publ_section_title
;
Structure prediction by ZEFSAII (Michael W. Deem and Ramdas Pophale) SiO2 
 PCOD8190991
Probable space group: I B A 2
;
_chemical_formula_sum "Si O2"
_cell_formula_units_Z 64
_cell_length_a 23.063145
_cell_length_b 9.301798
_cell_length_c 13.545227
_cell_angle_alpha 90.000000
_cell_angle_beta 90.000000
_cell_angle_gamma 90.000000
_cell_volume 2905.840157
_symmetry_space_group_name_H-M "I B A 2"
_symmetry_group_IT_number 45
_symmetry_cell_setting 'orthorhombic'
loop_
_space_group_symop_operation_xyz
x,y,z
-x,-y,z
-x,y,1/2+z
x,-y,1/2+z
1/2+x,1/2+y,1/2+z
1/2-x,1/2-y,1/2+z
1/2-x,1/2+y,z
1/2+x,1/2-y,z
loop_
_atom_site_type_symbol
_atom_site_label
_atom_site_fract_x
_atom_site_fract_y
_atom_site_fract_z
Si Si1 0.547012 0.321758 0.307750
Si Si2 0.272976 0.304127 0.711506
Si Si3 0.892450 0.196163 0.013861
Si Si4 0.376641 0.887575 0.210045
Si Si5 0.721439 0.566479 0.078730
Si Si6 0.576378 0.384008 0.730713
Si Si7 0.159427 0.663960 0.308657
Si Si8 0.846170 0.482271 0.509107
O O1 0.565252 0.340023 0.422278
O O2 0.564894 0.168078 0.260690
O O3 0.478197 0.328025 0.294627
O O4 0.578308 0.443917 0.241298
O O5 0.325419 0.211124 0.756374
O O6 0.296054 0.451902 0.663451
O O7 0.237420 0.217574 0.628451
O O8 0.229280 0.334111 0.802258
O O9 0.834556 0.096032 0.009692
O O10 0.926860 0.162201 0.115626
O O11 0.875558 0.362766 0.005676
O O12 0.374856 0.878631 0.091749
O O13 0.365500 0.055135 0.227208
O O14 0.776445 0.504378 0.019151
O O15 0.633484 0.319536 0.782744
O O16 0.138141 0.606578 0.412593
#
# Coordination Sequence:
#
# PCOD8190991 Si02
#       8
#     8   8   8   8   8   8   8   8
#     4  11  28  45  75 103 131 186 244 289 360 420
#     4  11  21  39  65  99 142 182 219 285 346 426
#     4  12  23  48  72  99 145 187 232 295 356 419
#     4  11  23  43  64 103 139 177 240 280 343 423
#     4  11  20  40  66  95 141 184 221 277 360 409
#     4  11  26  50  69  99 142 178 234 309 349 405
#     4  12  23  42  68  98 142 185 232 280 356 417
#     4  11  24  40  67 105 142 185 231 283 341 435
#
# _framework density 22.024612000000001
#
# number of rings (size 3 to 8) (size 9 to 14) (size 15 to 20)
#    0.000    0.750    7.500    0.750    1.750    6.500 
#    0.000    1.250    0.000    0.000    0.000    0.000 
#    0.000    0.000    0.000    0.000    0.000    0.000 
#
# Total GULP energy -396785.768296 kJ/mol
# GULP energy per Si atom -12399.555259 kJ/mol
# Density = 2.197448 g / cm^3
# Si number density = 22.024612 Si / 1000 Ang^3
#
#
#
# Elastic Constant Matrix: (Units=GPa)
#
#
# Indices 1 2 3 4 5 6 
#
# 1 63.1768 4.7139 27.1981 0.0000 0.0000 0.0000
# 2 4.7139 74.2784 11.1670 0.0000 0.0000 0.0000
# 3 27.1981 11.1670 123.7152 0.0000 0.0000 0.0000
# 4 0.0000 0.0000 0.0000 29.4922 0.0000 0.0000
# 5 0.0000 0.0000 0.0000 0.0000 36.4612 0.0000
# 6 0.0000 0.0000 0.0000 0.0000 0.0000 28.0507
#
#
#
# Elastic Compliance Matrix: (Units=1/GPa)
#
#
# Indices 1 2 3 4 5 6 
#
# 1 0.017505 -0.000540 -0.003800 0.000000 0.000000 0.000000
# 2 -0.000540 0.013665 -0.001115 0.000000 0.000000 0.000000
# 3 -0.003800 -0.001115 0.009019 0.000000 0.000000 0.000000
# 4 0.000000 0.000000 0.000000 0.033907 0.000000 0.000000
# 5 0.000000 0.000000 0.000000 0.000000 0.027426 0.000000
# 6 0.000000 0.000000 0.000000 0.000000 0.000000 0.035650
#
#
# Mechanical properties :
#
#
# Convention : Reuss Voigt Hill
#
# Bulk Modulus (GPa) = 34.15265 38.59203 36.37234
# Shear Modulus (GPa) = 31.67767 33.34026 32.50896
#
# Velocity S-wave (km/s) = 3.79659 3.89494 3.84608
# Velocity P-wave (km/s) = 5.89568 6.14717 6.02274
#
# Compressibility (1/GPa) = 0.02928030
#
# Stress axis : x y z
#
# Youngs Moduli (GPa) = 57.12777 73.18126 110.87673
#
# Poissons Ratio (x) = 0.03949 0.42129
# Poissons Ratio (y) = 0.03083 0.12360
# Poissons Ratio (z) = 0.21706 0.08158
#
# Static dielectric constant tensor:
#      x y z
#    x 3.872010 0.000000 0.000000 
#    y 0.000000 4.033570 0.000000 
#    z 0.000000 0.000000 3.878080 
# 
# 
# High freq. dielectric constant tensor:
#      x y z
#    x 1.852040 0.000000 0.000000 
#    y 0.000000 1.876920 0.000000 
#    z 0.000000 0.000000 1.859960 
# 
# From -- ./inp_files/7075.got.cif
#   From: 2010.03.12/outbox.cif.g09.slc.cpg/sg45_4_cif.got.tgz:7075.got - 2010.04.14 02:50:11.
