data_PCOD8190353
_publ_section_title
;
Structure prediction by ZEFSAII (Michael W. Deem and Ramdas Pophale) SiO2 
 PCOD8190353
Probable space group: I M M 2
;
_chemical_formula_sum "Si O2"
_cell_formula_units_Z 24
_cell_length_a 9.000000
_cell_length_b 18.000000
_cell_length_c 15.000000
_cell_angle_alpha 90.000000
_cell_angle_beta 90.000000
_cell_angle_gamma 90.000000
_cell_volume 2430.000000
_symmetry_space_group_name_H-M "I M M 2"
_symmetry_group_IT_number 44
_symmetry_cell_setting 'orthorhombic'
loop_
_space_group_symop_operation_xyz
x,y,z
-x,-y,z
-x,y,z
x,-y,z
1/2+x,1/2+y,1/2+z
1/2-x,1/2-y,1/2+z
1/2-x,1/2+y,1/2+z
1/2+x,1/2-y,1/2+z
loop_
_atom_site_type_symbol
_atom_site_label
_atom_site_fract_x
_atom_site_fract_y
_atom_site_fract_z
Si Si1 0.822743 0.732460 0.109360
Si Si2 0.670667 0.922091 0.548638
Si Si3 0.176596 0.845288 0.958304
Si Si4 0.673189 0.239183 0.810336
Si Si5 0.174980 0.000000 0.028200
Si Si6 0.831186 0.500000 0.710601
Si Si7 0.166945 0.379096 0.854184
O O1 0.751891 0.651774 0.086381
O O2 0.768574 0.749674 0.209213
O O3 0.000000 0.731671 0.102766
O O4 0.762343 0.791962 0.037723
O O5 0.500000 0.919332 0.578621
O O6 0.683087 0.927665 0.442198
O O7 0.741321 0.000000 0.585234
O O8 0.243852 0.826817 0.861815
O O9 0.000000 0.840967 0.952844
O O10 0.237136 0.927286 0.979510
O O11 0.500000 0.222418 0.812913
O O12 0.713030 0.314188 0.861782
O O13 0.217968 0.000000 0.130699
O O14 0.000000 0.000000 0.025254
O O15 0.797763 0.572362 0.768323
O O16 0.000000 0.500000 0.675813
O O17 0.000000 0.345171 0.849102
#
# Coordination Sequence:
#
# PCOD8190353 Si02
#       7
#     8   8   8   8   4   4   8
#     4   9  18  33  54  78 106 141 180 222 269 329
#     4   9  15  28  53  79 102 134 178 218 257 320
#     4  10  20  39  61  78 106 149 191 226 273 342
#     4  11  22  35  54  84 112 141 185 235 282 325
#     4  10  22  38  58  81 108 152 195 228 279 346
#     4  10  20  32  54  89 118 142 183 238 289 334
#     4  10  18  32  55  81 109 145 182 220 274 340
#
# _framework density 9.8765429999999999
#
# number of rings (size 3 to 8) (size 9 to 14) (size 15 to 20)
#    0.000    2.167    2.500    1.500    0.000    2.667 
#    1.500    1.667    0.000    0.000    0.000    0.000 
#    0.000    0.000    0.000    0.000    0.000    0.000 
#
# Total GULP energy -297419.858427 kJ/mol
# GULP energy per Si atom -12392.494101 kJ/mol
# Density = 0.985406 g / cm^3
# Si number density = 9.876543 Si / 1000 Ang^3
#
#
#
# Elastic Constant Matrix: (Units=GPa)
#
#
# Indices 1 2 3 4 5 6 
#
# 1 10.9911 23.4786 20.7867 0.0000 0.0000 0.0000
# 2 23.4786 141.0253 32.3317 0.0001 0.0000 0.0000
# 3 20.7867 32.3317 72.1173 0.0001 0.0000 0.0000
# 4 0.0000 0.0001 0.0001 -183.4825 0.0000 0.0000
# 5 0.0000 0.0000 0.0000 0.0000 25.4795 0.0000
# 6 0.0000 0.0000 0.0000 0.0000 0.0000 9.3422
#
#
#
# Elastic Compliance Matrix: (Units=1/GPa)
#
#
# Indices 1 2 3 4 5 6 
#
# 1 0.292814 -0.032768 -0.069709 0.000000 0.000000 0.000000
# 2 -0.032768 0.011570 0.004258 0.000000 0.000000 0.000000
# 3 -0.069709 0.004258 0.032050 0.000000 0.000000 0.000000
# 4 0.000000 0.000000 0.000000 -0.005450 0.000000 0.000000
# 5 0.000000 0.000000 0.000000 0.000000 0.039247 0.000000
# 6 0.000000 0.000000 0.000000 0.000000 0.000000 0.107041
#
#
# Mechanical properties :
#
#
# Convention : Reuss Voigt Hill
#
# Bulk Modulus (GPa) = 7.14302 41.92529 24.53416
# Shear Modulus (GPa) = 6.94083 -19.89636 -6.47777
#
# Velocity S-wave (km/s) = 1.87655 -3.17717 -1.81287
# Velocity P-wave (km/s) = 2.88431 2.79492 2.83996
#
# Compressibility (1/GPa) = 0.13999677
#
# Stress axis : x y z
#
# Youngs Moduli (GPa) = 3.41514 86.42951 31.20125
#
# Poissons Ratio (x) = 2.83208 2.17500
# Poissons Ratio (y) = 0.11191 -0.13284
# Poissons Ratio (z) = 0.23806 -0.36798
#
# Static dielectric constant tensor:
#      x y z
#    x 3.081360 0.000000 0.000000 
#    y 0.000000 4.321190 0.000000 
#    z 0.000000 0.000000 3.554530 
# 
# 
# High freq. dielectric constant tensor:
#      x y z
#    x 1.715000 0.000000 0.000000 
#    y 0.000000 1.775860 0.000000 
#    z 0.000000 0.000000 1.761900 
# 
# From -- ./inp_files/16155.got.cif
#   From: 2010.03.12/outbox.ucp.g09.slc.cvg/sg44_9_cif.got.tgz:16155.got - 2010.05.04 21:22:50.
