data_PCOD8190515
_publ_section_title
;
Structure prediction by ZEFSAII (Michael W. Deem and Ramdas Pophale) SiO2 
 PCOD8190515
Probable space group: I B A 2
;
_chemical_formula_sum "Si O2"
_cell_formula_units_Z 64
_cell_length_a 17.391867
_cell_length_b 9.495919
_cell_length_c 21.153496
_cell_angle_alpha 90.000000
_cell_angle_beta 90.000000
_cell_angle_gamma 90.000000
_cell_volume 3493.537101
_symmetry_space_group_name_H-M "I B A 2"
_symmetry_group_IT_number 45
_symmetry_cell_setting 'orthorhombic'
loop_
_space_group_symop_operation_xyz
x,y,z
-x,-y,z
-x,y,1/2+z
x,-y,1/2+z
1/2+x,1/2+y,1/2+z
1/2-x,1/2-y,1/2+z
1/2-x,1/2+y,z
1/2+x,1/2-y,z
loop_
_atom_site_type_symbol
_atom_site_label
_atom_site_fract_x
_atom_site_fract_y
_atom_site_fract_z
Si Si1 0.314339 0.809726 0.219150
Si Si2 0.179538 0.387563 0.744306
Si Si3 0.486250 0.665219 0.049515
Si Si4 0.058820 0.624727 0.955574
Si Si5 0.680838 0.265736 0.077022
Si Si6 0.421842 0.070475 0.813189
Si Si7 0.556614 0.123877 0.644277
Si Si8 0.679462 0.961762 0.044818
O O1 0.246555 0.724878 0.255070
O O2 0.333758 0.742045 0.152100
O O3 0.391596 0.810500 0.263191
O O4 0.286970 0.972114 0.208723
O O5 0.142438 0.442944 0.811091
O O6 0.110944 0.322261 0.701254
O O7 0.500000 0.500000 0.053644
O O8 0.395304 0.683378 0.041716
O O9 0.514374 0.741215 0.113967
O O10 0.528905 0.731523 0.988229
O O11 0.065366 0.644016 0.880391
O O12 0.000000 0.500000 0.973508
O O13 0.145389 0.585898 0.977242
O O14 0.749328 0.371077 0.065722
O O15 0.708186 0.121499 0.044819
O O16 0.500000 0.000000 0.788616
O O17 0.607438 0.048899 0.591355
O O18 0.500000 0.000000 0.668499
#
# Coordination Sequence:
#
# PCOD8190515 Si02
#       8
#     8   8   8   8   8   8   8   8
#     4  10  20  36  59  90 126 153 201 256 308 376
#     4  10  20  35  61  87 120 159 200 254 311 367
#     4  11  24  36  59  91 127 157 202 264 317 366
#     4  10  20  45  65  81 117 166 218 256 296 376
#     4  12  21  36  56  90 124 156 196 249 320 373
#     4   9  21  39  69  86 109 168 224 245 298 371
#     4  11  18  36  59  83 122 166 206 248 305 382
#     4  11  21  34  56  87 117 162 198 250 310 372
#
# _framework density 18.319542999999999
#
# number of rings (size 3 to 8) (size 9 to 14) (size 15 to 20)
#    0.750    0.750    5.000    1.125    5.250    1.000 
#    2.250    0.000    5.500    0.000    0.000    0.000 
#    0.000    0.000    0.000    0.000    0.000    0.000 
#
# Total GULP energy -396532.210397 kJ/mol
# GULP energy per Si atom -12391.631575 kJ/mol
# Density = 1.827785 g / cm^3
# Si number density = 18.319543 Si / 1000 Ang^3
#
#
#
# Elastic Constant Matrix: (Units=GPa)
#
#
# Indices 1 2 3 4 5 6 
#
# 1 106.6304 55.2151 45.3795 0.0000 0.0000 0.0000
# 2 55.2151 123.3437 36.0543 0.0000 0.0000 0.0000
# 3 45.3795 36.0543 85.3670 0.0000 0.0000 0.0000
# 4 0.0000 0.0000 0.0000 18.8236 0.0000 0.0000
# 5 0.0000 0.0000 0.0000 0.0000 26.1145 0.0000
# 6 0.0000 0.0000 0.0000 0.0000 0.0000 35.5543
#
#
#
# Elastic Compliance Matrix: (Units=1/GPa)
#
#
# Indices 1 2 3 4 5 6 
#
# 1 0.014187 -0.004730 -0.005544 0.000000 0.000000 0.000000
# 2 -0.004730 0.010827 -0.002058 0.000000 0.000000 0.000000
# 3 -0.005544 -0.002058 0.015530 0.000000 0.000000 0.000000
# 4 0.000000 0.000000 0.000000 0.053125 0.000000 0.000000
# 5 0.000000 0.000000 0.000000 0.000000 0.038293 0.000000
# 6 0.000000 0.000000 0.000000 0.000000 0.000000 0.028126
#
#
# Mechanical properties :
#
#
# Convention : Reuss Voigt Hill
#
# Bulk Modulus (GPa) = 62.97348 65.40433 64.18890
# Shear Modulus (GPa) = 26.30963 28.01129 27.16046
#
# Velocity S-wave (km/s) = 3.79377 3.91453 3.85463
# Velocity P-wave (km/s) = 7.32393 7.49739 7.41117
#
# Compressibility (1/GPa) = 0.01587970
#
# Stress axis : x y z
#
# Youngs Moduli (GPa) = 70.48762 92.36563 64.39067
#
# Poissons Ratio (x) = 0.43692 0.35696
# Poissons Ratio (y) = 0.33343 0.13251
# Poissons Ratio (z) = 0.39076 0.19009
#
# Static dielectric constant tensor:
#      x y z
#    x 3.491270 0.000000 0.000000 
#    y 0.000000 3.234380 0.000000 
#    z 0.000000 0.000000 3.219750 
# 
# 
# High freq. dielectric constant tensor:
#      x y z
#    x 1.717550 0.000000 0.000000 
#    y 0.000000 1.691800 0.000000 
#    z 0.000000 0.000000 1.691550 
# 
# From -- ./inp_files/9829.got.cif
#   From: 2010.03.12/outbox.cif.g09.slc.cpg/sg45_5_cif.got.tgz:9829.got - 2010.04.14 02:50:11.
