data_PCOD8190414
_publ_section_title
;
Structure prediction by ZEFSAII (Michael W. Deem and Ramdas Pophale) SiO2 
 PCOD8190414
Probable space group: I B A 2
;
_chemical_formula_sum "Si O2"
_cell_formula_units_Z 64
_cell_length_a 16.973262
_cell_length_b 9.635326
_cell_length_c 21.377482
_cell_angle_alpha 90.000000
_cell_angle_beta 90.000000
_cell_angle_gamma 90.000000
_cell_volume 3496.135671
_symmetry_space_group_name_H-M "I B A 2"
_symmetry_group_IT_number 45
_symmetry_cell_setting 'orthorhombic'
loop_
_space_group_symop_operation_xyz
x,y,z
-x,-y,z
-x,y,1/2+z
x,-y,1/2+z
1/2+x,1/2+y,1/2+z
1/2-x,1/2-y,1/2+z
1/2-x,1/2+y,z
1/2+x,1/2-y,z
loop_
_atom_site_type_symbol
_atom_site_label
_atom_site_fract_x
_atom_site_fract_y
_atom_site_fract_z
Si Si1 0.675101 0.759408 0.366280
Si Si2 0.750775 0.484643 0.571880
Si Si3 0.175994 0.758643 0.512094
Si Si4 0.547451 0.368542 0.777485
Si Si5 0.910364 0.698395 0.220586
Si Si6 0.920300 0.569938 0.089527
Si Si7 0.327956 0.519669 0.201764
Si Si8 0.792226 0.548638 0.307728
O O1 0.659397 0.745738 0.439206
O O2 0.599340 0.697591 0.331754
O O3 0.752509 0.672304 0.347369
O O4 0.684243 0.922538 0.352843
O O5 0.751122 0.339858 0.533599
O O6 0.699285 0.587097 0.530695
O O7 0.842954 0.530316 0.582091
O O8 0.710433 0.461815 0.638848
O O9 0.096556 0.709441 0.548647
O O10 0.500000 0.500000 0.805965
O O11 0.490003 0.252391 0.751263
O O12 0.599031 0.420807 0.718666
O O13 0.932729 0.603481 0.162197
O O14 0.868862 0.608475 0.274022
O O15 0.854070 0.820786 0.194854
O O16 0.000000 0.500000 0.063525
O O17 0.265506 0.515981 0.256960
#
# Coordination Sequence:
#
# PCOD8190414 Si02
#       8
#     8   8   8   8   8   8   8   8
#     4  11  23  40  62  87 124 161 208 245 294 362
#     4  10  20  38  66  86 117 158 201 250 297 358
#     4  10  22  41  61  86 119 163 206 242 290 359
#     4   9  23  38  60  88 127 160 192 254 311 360
#     4  11  20  38  59  91 123 150 201 246 320 365
#     4  10  23  37  60  87 125 149 194 258 302 353
#     4  10  18  38  60  90 119 153 196 256 306 355
#     4  11  21  35  62  93 117 156 198 255 301 357
#
# _framework density 18.305927000000001
#
# number of rings (size 3 to 8) (size 9 to 14) (size 15 to 20)
#    0.750    1.000    3.750    0.750    1.750    1.000 
#    2.250    0.000    2.750    0.000    0.000    0.000 
#    0.000    0.000    0.000    0.000    0.000    0.000 
#
# Total GULP energy -396726.862335 kJ/mol
# GULP energy per Si atom -12397.714448 kJ/mol
# Density = 1.826426 g / cm^3
# Si number density = 18.305927 Si / 1000 Ang^3
#
#
#
# Elastic Constant Matrix: (Units=GPa)
#
#
# Indices 1 2 3 4 5 6 
#
# 1 84.7819 22.3461 27.7108 0.0000 0.0000 0.0000
# 2 22.3461 53.1832 16.7313 0.0000 0.0000 0.0000
# 3 27.7108 16.7313 101.1259 0.0000 0.0000 0.0000
# 4 0.0000 0.0000 0.0000 19.6724 0.0000 0.0000
# 5 0.0000 0.0000 0.0000 0.0000 17.8733 0.0000
# 6 0.0000 0.0000 0.0000 0.0000 0.0000 29.7402
#
#
#
# Elastic Compliance Matrix: (Units=1/GPa)
#
#
# Indices 1 2 3 4 5 6 
#
# 1 0.014098 -0.004967 -0.003041 0.000000 0.000000 0.000000
# 2 -0.004967 0.021585 -0.002210 0.000000 0.000000 0.000000
# 3 -0.003041 -0.002210 0.011088 0.000000 0.000000 0.000000
# 4 0.000000 0.000000 0.000000 0.050833 0.000000 0.000000
# 5 0.000000 0.000000 0.000000 0.000000 0.055949 0.000000
# 6 0.000000 0.000000 0.000000 0.000000 0.000000 0.033625
#
#
# Mechanical properties :
#
#
# Convention : Reuss Voigt Hill
#
# Bulk Modulus (GPa) = 37.97359 41.40746 39.69053
# Shear Modulus (GPa) = 23.10614 24.94404 24.02509
#
# Velocity S-wave (km/s) = 3.55663 3.69537 3.62667
# Velocity P-wave (km/s) = 6.13637 6.39348 6.26624
#
# Compressibility (1/GPa) = 0.02633409
#
# Stress axis : x y z
#
# Youngs Moduli (GPa) = 70.93114 46.32809 90.18946
#
# Poissons Ratio (x) = 0.23010 0.27431
# Poissons Ratio (y) = 0.35230 0.19934
# Poissons Ratio (z) = 0.21573 0.10240
#
# Static dielectric constant tensor:
#      x y z
#    x 3.374540 0.000000 0.000000 
#    y 0.000000 3.375180 0.000000 
#    z 0.000000 0.000000 3.210730 
# 
# 
# High freq. dielectric constant tensor:
#      x y z
#    x 1.705900 0.000000 0.000000 
#    y 0.000000 1.710430 0.000000 
#    z 0.000000 0.000000 1.703520 
# 
# From -- ./inp_files/9249.got.cif
#   From: 2010.03.12/outbox.cif.g09.slc.cpg/sg45_5_cif.got.tgz:9249.got - 2010.04.14 02:50:11.
