data_PCOD8190543
_publ_section_title
;
Structure prediction by ZEFSAII (Michael W. Deem and Ramdas Pophale) SiO2 
 PCOD8190543
Probable space group: I B A 2
;
_chemical_formula_sum "Si O2"
_cell_formula_units_Z 52
_cell_length_a 15.644092
_cell_length_b 17.633175
_cell_length_c 8.780517
_cell_angle_alpha 90.000000
_cell_angle_beta 90.000000
_cell_angle_gamma 90.000000
_cell_volume 2422.149622
_symmetry_space_group_name_H-M "I B A 2"
_symmetry_group_IT_number 45
_symmetry_cell_setting 'orthorhombic'
loop_
_space_group_symop_operation_xyz
x,y,z
-x,-y,z
-x,y,1/2+z
x,-y,1/2+z
1/2+x,1/2+y,1/2+z
1/2-x,1/2-y,1/2+z
1/2-x,1/2+y,z
1/2+x,1/2-y,z
loop_
_atom_site_type_symbol
_atom_site_label
_atom_site_fract_x
_atom_site_fract_y
_atom_site_fract_z
Si Si1 0.500000 0.000000 0.135680
Si Si2 0.004770 0.802064 0.562012
Si Si3 0.618786 0.947779 0.893871
Si Si4 0.119834 0.841120 0.808747
Si Si5 0.386641 0.236306 0.305023
Si Si6 0.209453 0.395539 0.920637
Si Si7 0.212449 0.316301 0.249724
O O1 0.569089 0.044927 0.234454
O O2 0.451270 0.061254 0.027777
O O3 0.938025 0.847462 0.459229
O O4 0.953968 0.743889 0.669859
O O5 0.059743 0.862358 0.664142
O O6 0.068408 0.751232 0.464886
O O7 0.680507 0.875856 0.877614
O O8 0.677089 0.019645 0.937041
O O9 0.198022 0.898130 0.837856
O O10 0.152262 0.756218 0.771719
O O11 0.353458 0.149835 0.306855
O O12 0.309563 0.295806 0.287602
O O13 0.212155 0.351063 0.080515
#
# Coordination Sequence:
#
# PCOD8190543 Si02
#       7
#     4   8   8   8   8   8   8
#     4  10  24  40  56  94 116 166 192 240 276 372
#     4  10  20  37  60  96 112 159 186 260 298 347
#     4  11  24  40  62  81 130 156 202 231 300 340
#     4  10  22  37  64  87 123 147 206 241 303 347
#     4  10  22  37  64  87 123 147 206 241 303 347
#     4  11  22  41  59  91 117 164 197 246 285 369
#     4  11  22  41  59  91 117 164 197 246 285 369
#
# _framework density 21.468533000000001
#
# number of rings (size 3 to 8) (size 9 to 14) (size 15 to 20)
#    0.000    1.538    4.615    0.000    0.000    9.846 
#    0.000    0.000    0.000    5.538    0.000    0.000 
#    0.000    0.000    0.000    0.000    0.000    0.000 
#
# Total GULP energy -322357.846445 kJ/mol
# GULP energy per Si atom -12398.378709 kJ/mol
# Density = 2.141967 g / cm^3
# Si number density = 21.468533 Si / 1000 Ang^3
#
#
#
# Elastic Constant Matrix: (Units=GPa)
#
#
# Indices 1 2 3 4 5 6 
#
# 1 127.8411 25.6108 51.0624 0.0000 0.0000 0.0000
# 2 25.6108 62.8853 8.2014 0.0000 0.0000 0.0000
# 3 51.0624 8.2014 115.4568 0.0000 0.0000 0.0000
# 4 0.0000 0.0000 0.0000 17.7354 0.0000 0.0000
# 5 0.0000 0.0000 0.0000 0.0000 27.9459 0.0000
# 6 0.0000 0.0000 0.0000 0.0000 0.0000 12.2804
#
#
#
# Elastic Compliance Matrix: (Units=1/GPa)
#
#
# Indices 1 2 3 4 5 6 
#
# 1 0.010256 -0.003619 -0.004279 0.000000 0.000000 0.000000
# 2 -0.003619 0.017328 0.000370 0.000000 0.000000 0.000000
# 3 -0.004279 0.000370 0.010527 0.000000 0.000000 0.000000
# 4 0.000000 0.000000 0.000000 0.056385 0.000000 0.000000
# 5 0.000000 0.000000 0.000000 0.000000 0.035783 0.000000
# 6 0.000000 0.000000 0.000000 0.000000 0.000000 0.081431
#
#
# Mechanical properties :
#
#
# Convention : Reuss Voigt Hill
#
# Bulk Modulus (GPa) = 43.37470 52.88139 48.12804
# Shear Modulus (GPa) = 21.32639 26.34623 23.83631
#
# Velocity S-wave (km/s) = 3.15521 3.50695 3.33572
# Velocity P-wave (km/s) = 5.78978 6.40966 6.10759
#
# Compressibility (1/GPa) = 0.02305491
#
# Stress axis : x y z
#
# Youngs Moduli (GPa) = 97.50105 57.71134 94.99020
#
# Poissons Ratio (x) = 0.20885 0.40646
# Poissons Ratio (y) = 0.35285 -0.03512
# Poissons Ratio (z) = 0.41720 -0.02133
#
# Static dielectric constant tensor:
#      x y z
#    x 4.286190 0.000000 0.000000 
#    y 0.000000 3.315750 0.000000 
#    z 0.000000 0.000000 4.158070 
# 
# 
# High freq. dielectric constant tensor:
#      x y z
#    x 1.867980 0.000000 0.000000 
#    y 0.000000 1.785800 0.000000 
#    z 0.000000 0.000000 1.863180 
# 
# From -- ./inp_files/1795.got.cif
#   From: 2010.03.12/outbox.cif.g09.slc.cpg/sg45_1_cif.got.tgz:1795.got - 2010.04.14 02:50:11.
