data_PCOD8190337
_publ_section_title
;
Structure prediction by ZEFSAII (Michael W. Deem and Ramdas Pophale) SiO2 
 PCOD8190337
Probable space group: I M M 2
;
_chemical_formula_sum "Si O2"
_cell_formula_units_Z 64
_cell_length_a 21.791074
_cell_length_b 9.314639
_cell_length_c 21.523102
_cell_angle_alpha 90.000000
_cell_angle_beta 90.000000
_cell_angle_gamma 90.000000
_cell_volume 4368.672888
_symmetry_space_group_name_H-M "I M M 2"
_symmetry_group_IT_number 44
_symmetry_cell_setting 'orthorhombic'
loop_
_space_group_symop_operation_xyz
x,y,z
-x,-y,z
-x,y,z
x,-y,z
1/2+x,1/2+y,1/2+z
1/2-x,1/2-y,1/2+z
1/2-x,1/2+y,1/2+z
1/2+x,1/2-y,1/2+z
loop_
_atom_site_type_symbol
_atom_site_label
_atom_site_fract_x
_atom_site_fract_y
_atom_site_fract_z
Si Si1 0.256193 0.837242 0.431750
Si Si2 0.253599 0.163535 0.252646
Si Si3 0.346540 0.835600 0.153512
Si Si4 0.648899 0.657860 0.830854
Si Si5 0.568821 0.831880 0.914003
Si Si6 0.833149 0.833472 0.845191
Si Si7 0.668997 0.169672 0.014012
Si Si8 0.430212 0.667077 0.248453
O O1 0.206036 0.830821 0.377665
O O2 0.318532 0.759851 0.406992
O O3 0.229793 0.751354 0.490808
O O4 0.271700 0.000000 0.451422
O O5 0.277275 0.178675 0.181815
O O6 0.179810 0.188296 0.262663
O O7 0.287806 0.286554 0.290545
O O8 0.269286 0.000000 0.276534
O O9 0.344927 0.776499 0.083494
O O10 0.396054 0.750538 0.193624
O O11 0.368313 0.000000 0.153257
O O12 0.619069 0.500000 0.833112
O O13 0.595824 0.768020 0.849761
O O14 0.500000 0.773905 0.925239
O O15 0.568854 0.000000 0.904654
O O16 0.610108 0.785808 0.972608
O O17 0.901069 0.804869 0.817068
O O18 0.822273 0.000000 0.861186
O O19 0.681559 0.000000 0.010747
O O20 0.500000 0.720929 0.251470
O O21 0.425513 0.500000 0.231728
#
# Coordination Sequence:
#
# PCOD8190337 Si02
#       8
#     8   8   8   8   8   8   8   8
#     4   9  16  26  40  57  77  99 125 161 203 240
#     4   8  14  25  39  56  77  97 121 158 202 238
#     4   9  17  28  42  59  79 105 136 168 198 231
#     4   8  14  24  38  54  71  93 121 154 193 233
#     4   9  17  27  37  51  74 102 130 160 188 215
#     4   9  15  24  40  58  75  98 129 164 202 240
#     4   9  17  28  41  57  78 105 136 164 192 230
#     4   9  18  30  41  56  81 111 140 169 200 235
#
# _framework density 14.649758
#
# number of rings (size 3 to 8) (size 9 to 14) (size 15 to 20)
#    0.000    3.250    0.000    1.500    0.000    5.000 
#    0.000    1.250    0.000    0.000    0.000    0.000 
#    0.000    1.000    0.000    7.250    0.000    2.625 
#
# Total GULP energy -396448.368759 kJ/mol
# GULP energy per Si atom -12389.011524 kJ/mol
# Density = 1.461641 g / cm^3
# Si number density = 14.649758 Si / 1000 Ang^3
#
#
#
# Elastic Constant Matrix: (Units=GPa)
#
#
# Indices 1 2 3 4 5 6 
#
# 1 78.2787 39.1187 67.7379 0.0000 0.0000 0.0000
# 2 39.1187 55.7155 35.9062 0.0000 0.0000 0.0000
# 3 67.7379 35.9062 64.1743 0.0000 0.0000 0.0000
# 4 0.0000 0.0000 0.0000 18.9683 0.0000 0.0000
# 5 0.0000 0.0000 0.0000 0.0000 17.4469 0.0000
# 6 0.0000 0.0000 0.0000 0.0000 0.0000 18.8418
#
#
#
# Elastic Compliance Matrix: (Units=1/GPa)
#
#
# Indices 1 2 3 4 5 6 
#
# 1 0.148420 -0.005077 -0.153821 0.000000 0.000000 0.000000
# 2 -0.005077 0.028243 -0.010443 0.000000 0.000000 0.000000
# 3 -0.153821 -0.010443 0.183789 0.000000 0.000000 0.000000
# 4 0.000000 0.000000 0.000000 0.052719 0.000000 0.000000
# 5 0.000000 0.000000 0.000000 0.000000 0.057317 0.000000
# 6 0.000000 0.000000 0.000000 0.000000 0.000000 0.053074
#
#
# Mechanical properties :
#
#
# Convention : Reuss Voigt Hill
#
# Bulk Modulus (GPa) = 45.93753 53.74379 49.84066
# Shear Modulus (GPa) = 5.75042 14.74512 10.24777
#
# Velocity S-wave (km/s) = 1.98338 3.17600 2.64771
# Velocity P-wave (km/s) = 6.05560 7.08623 6.59109
#
# Compressibility (1/GPa) = 0.02176869
#
# Stress axis : x y z
#
# Youngs Moduli (GPa) = 6.73763 35.40663 5.44102
#
# Poissons Ratio (x) = 0.17976 0.83695
# Poissons Ratio (y) = 0.03421 0.05682
# Poissons Ratio (z) = 1.03639 0.36977
#
# Static dielectric constant tensor:
#      x y z
#    x 2.913460 0.000000 0.000000 
#    y 0.000000 2.909720 0.000000 
#    z 0.000000 0.000000 2.832670 
# 
# 
# High freq. dielectric constant tensor:
#      x y z
#    x 1.534460 0.000000 0.000000 
#    y 0.000000 1.567620 0.000000 
#    z 0.000000 0.000000 1.531510 
# 
# From -- ./inp_files/20881.got.cif
#   From: 2010.03.12/outbox.cif.g09.slc.cpg/sg44_11_cif.got.tgz:20881.got - 2010.04.14 02:36:11.
