data_PCOD8190743
_publ_section_title
;
Structure prediction by ZEFSAII (Michael W. Deem and Ramdas Pophale) SiO2 
 PCOD8190743
Probable space group: I B A 2
;
_chemical_formula_sum "Si O2"
_cell_formula_units_Z 52
_cell_length_a 18.990424
_cell_length_b 14.249131
_cell_length_c 9.537819
_cell_angle_alpha 90.000000
_cell_angle_beta 90.000000
_cell_angle_gamma 90.000000
_cell_volume 2580.905583
_symmetry_space_group_name_H-M "I B A 2"
_symmetry_group_IT_number 45
_symmetry_cell_setting 'orthorhombic'
loop_
_space_group_symop_operation_xyz
x,y,z
-x,-y,z
-x,y,1/2+z
x,-y,1/2+z
1/2+x,1/2+y,1/2+z
1/2-x,1/2-y,1/2+z
1/2-x,1/2+y,z
1/2+x,1/2-y,z
loop_
_atom_site_type_symbol
_atom_site_label
_atom_site_fract_x
_atom_site_fract_y
_atom_site_fract_z
Si Si1 0.500000 0.500000 0.439721
Si Si2 0.774482 0.441872 0.280777
Si Si3 0.048850 0.809392 0.575618
Si Si4 0.119003 0.895735 0.826612
Si Si5 0.393920 0.736659 0.571408
Si Si6 0.295154 0.113376 0.968855
Si Si7 0.831695 0.246891 0.371245
O O1 0.474079 0.413662 0.533110
O O2 0.562120 0.477866 0.331145
O O3 0.690899 0.444848 0.288479
O O4 0.805864 0.537091 0.346607
O O5 0.803878 0.353515 0.368509
O O6 0.790019 0.440220 0.116372
O O7 0.094806 0.815108 0.717488
O O8 0.096775 0.758182 0.460428
O O9 0.977561 0.748871 0.599445
O O10 0.122054 0.855510 0.982781
O O11 0.365342 0.824199 0.480289
O O12 0.349942 0.719678 0.712463
O O13 0.227287 0.178531 0.936558
#
# Coordination Sequence:
#
# PCOD8190743 Si02
#       7
#     4   8   8   8   8   8   8
#     4  10  22  34  56  96 130 156 204 256 326 396
#     4  11  25  39  65  94 126 172 219 267 329 387
#     4  11  22  40  65  90 130 168 215 267 333 398
#     4  11  21  37  59  92 124 169 200 263 327 390
#     4  10  23  40  63  91 127 171 211 265 328 390
#     4  11  24  42  64  93 131 169 223 269 325 393
#     4  11  23  44  63  95 127 170 217 271 327 396
#
# _framework density 20.147967999999999
#
# number of rings (size 3 to 8) (size 9 to 14) (size 15 to 20)
#    0.000    1.231    3.077    3.231    2.154    3.692 
#    0.000    0.769    0.000    3.692    0.000    0.000 
#    0.000    0.000    0.000    0.000    0.000    0.000 
#
# Total GULP energy -322372.041971 kJ/mol
# GULP energy per Si atom -12398.924691 kJ/mol
# Density = 2.010211 g / cm^3
# Si number density = 20.147968 Si / 1000 Ang^3
#
#
#
# Elastic Constant Matrix: (Units=GPa)
#
#
# Indices 1 2 3 4 5 6 
#
# 1 105.3809 44.0040 36.9399 0.0000 0.0000 0.0000
# 2 44.0040 81.8921 36.1587 0.0000 0.0000 0.0000
# 3 36.9399 36.1587 81.4078 0.0000 0.0000 0.0000
# 4 0.0000 0.0000 0.0000 40.3846 0.0000 0.0000
# 5 0.0000 0.0000 0.0000 0.0000 27.0893 0.0000
# 6 0.0000 0.0000 0.0000 0.0000 0.0000 37.7182
#
#
#
# Elastic Compliance Matrix: (Units=1/GPa)
#
#
# Indices 1 2 3 4 5 6 
#
# 1 0.012979 -0.005441 -0.003473 0.000000 0.000000 0.000000
# 2 -0.005441 0.017471 -0.005291 0.000000 0.000000 0.000000
# 3 -0.003473 -0.005291 0.016210 0.000000 0.000000 0.000000
# 4 0.000000 0.000000 0.000000 0.024762 0.000000 0.000000
# 5 0.000000 0.000000 0.000000 0.000000 0.036915 0.000000
# 6 0.000000 0.000000 0.000000 0.000000 0.000000 0.026512
#
#
# Mechanical properties :
#
#
# Convention : Reuss Voigt Hill
#
# Bulk Modulus (GPa) = 54.79379 55.87623 55.33501
# Shear Modulus (GPa) = 29.52624 31.14365 30.33494
#
# Velocity S-wave (km/s) = 3.83230 3.93586 3.88443
# Velocity P-wave (km/s) = 6.84374 6.96045 6.90234
#
# Compressibility (1/GPa) = 0.01825024
#
# Stress axis : x y z
#
# Youngs Moduli (GPa) = 77.05045 57.23791 61.69100
#
# Poissons Ratio (x) = 0.31141 0.21423
# Poissons Ratio (y) = 0.41920 0.32642
# Poissons Ratio (z) = 0.26757 0.30286
#
# Static dielectric constant tensor:
#      x y z
#    x 4.042560 0.000000 0.000000 
#    y 0.000000 3.641840 0.000000 
#    z 0.000000 0.000000 3.797830 
# 
# 
# High freq. dielectric constant tensor:
#      x y z
#    x 1.792960 0.000000 0.000000 
#    y 0.000000 1.766450 0.000000 
#    z 0.000000 0.000000 1.802450 
# 
# From -- ./inp_files/1783.got.cif
#   From: 2010.03.12/outbox.cif.g09.slc.cpg/sg45_1_cif.got.tgz:1783.got - 2010.04.14 02:50:11.
