data_PCOD8190013
_publ_section_title
;
Structure prediction by ZEFSAII (Michael W. Deem and Ramdas Pophale) SiO2 
 PCOD8190013
Probable space group: I M M 2
;
_chemical_formula_sum "Si O2"
_cell_formula_units_Z 56
_cell_length_a 26.722795
_cell_length_b 15.131485
_cell_length_c 6.837133
_cell_angle_alpha 90.000000
_cell_angle_beta 90.000000
_cell_angle_gamma 90.000000
_cell_volume 2764.632823
_symmetry_space_group_name_H-M "I M M 2"
_symmetry_group_IT_number 44
_symmetry_cell_setting 'orthorhombic'
loop_
_space_group_symop_operation_xyz
x,y,z
-x,-y,z
-x,y,z
x,-y,z
1/2+x,1/2+y,1/2+z
1/2-x,1/2-y,1/2+z
1/2-x,1/2+y,1/2+z
1/2+x,1/2-y,1/2+z
loop_
_atom_site_type_symbol
_atom_site_label
_atom_site_fract_x
_atom_site_fract_y
_atom_site_fract_z
Si Si1 0.558197 0.233854 0.615780
Si Si2 0.626546 0.395656 0.542629
Si Si3 0.444355 0.903103 0.279865
Si Si4 0.698474 0.341932 0.208494
Si Si5 0.212567 0.331434 0.510228
Si Si6 0.112929 0.598128 0.390743
Si Si7 0.284909 0.403509 0.804951
O O1 0.500000 0.241003 0.675483
O O2 0.578307 0.333050 0.575675
O O3 0.566499 0.176637 0.423535
O O4 0.588184 0.179565 0.778658
O O5 0.611349 0.500000 0.558199
O O6 0.650787 0.377799 0.328053
O O7 0.664750 0.361783 0.710792
O O8 0.500000 0.894072 0.190736
O O9 0.438892 0.000000 0.382878
O O10 0.404416 0.894940 0.111708
O O11 0.743094 0.317350 0.355113
O O12 0.684962 0.259768 0.065726
O O13 0.715580 0.411232 0.041177
O O14 0.173039 0.394609 0.403228
O O15 0.234094 0.362424 0.719139
O O16 0.099899 0.500000 0.303862
O O17 0.285206 0.500000 0.711740
#
# Coordination Sequence:
#
# PCOD8190013 Si02
#       7
#     8   8   8   8   8   8   8
#     4  11  23  39  63  89 117 159 206 255 316 374
#     4  10  23  41  61  86 116 155 207 258 308 360
#     4   9  19  37  59  85 118 154 193 240 299 369
#     4  11  21  37  60  85 118 162 198 245 303 361
#     4  11  22  35  57  89 120 160 202 243 295 362
#     4  11  23  37  58  89 125 160 200 249 301 367
#     4  10  21  38  58  83 117 157 199 244 299 358
#
# _framework density 20.255856000000001
#
# number of rings (size 3 to 8) (size 9 to 14) (size 15 to 20)
#    0.000    1.571    1.429    3.429    2.000    4.571 
#    0.000    0.000    0.000    0.000    0.000    4.000 
#    0.000    0.000    0.000    0.000    0.000    0.000 
#
# Total GULP energy -346920.407609 kJ/mol
# GULP energy per Si atom -12390.014557 kJ/mol
# Density = 2.020975 g / cm^3
# Si number density = 20.255856 Si / 1000 Ang^3
#
#
#
# Elastic Constant Matrix: (Units=GPa)
#
#
# Indices 1 2 3 4 5 6 
#
# 1 98.6237 52.1388 34.8216 0.0000 0.0000 0.0000
# 2 52.1388 127.5491 33.2530 0.0000 0.0000 0.0000
# 3 34.8216 33.2530 90.3689 0.0000 0.0000 0.0000
# 4 0.0000 0.0000 0.0000 61.3532 0.0000 0.0000
# 5 0.0000 0.0000 0.0000 0.0000 17.4005 0.0000
# 6 0.0000 0.0000 0.0000 0.0000 0.0000 31.0637
#
#
#
# Elastic Compliance Matrix: (Units=1/GPa)
#
#
# Indices 1 2 3 4 5 6 
#
# 1 0.013929 -0.004750 -0.003619 0.000000 0.000000 0.000000
# 2 -0.004750 0.010292 -0.001957 0.000000 0.000000 0.000000
# 3 -0.003619 -0.001957 0.013180 0.000000 0.000000 0.000000
# 4 0.000000 0.000000 0.000000 0.016299 0.000000 0.000000
# 5 0.000000 0.000000 0.000000 0.000000 0.057470 0.000000
# 6 0.000000 0.000000 0.000000 0.000000 0.000000 0.032192
#
#
# Mechanical properties :
#
#
# Convention : Reuss Voigt Hill
#
# Bulk Modulus (GPa) = 59.70578 61.88540 60.79559
# Shear Modulus (GPa) = 29.48174 35.05204 32.26689
#
# Velocity S-wave (km/s) = 3.81920 4.16440 3.99553
# Velocity P-wave (km/s) = 6.99915 7.33083 7.16691
#
# Compressibility (1/GPa) = 0.01674880
#
# Stress axis : x y z
#
# Youngs Moduli (GPa) = 71.79472 97.16295 75.87049
#
# Poissons Ratio (x) = 0.46153 0.27459
# Poissons Ratio (y) = 0.34103 0.14846
# Poissons Ratio (z) = 0.25984 0.19013
#
# Static dielectric constant tensor:
#      x y z
#    x 3.598360 0.000000 0.000000 
#    y 0.000000 3.483260 0.000000 
#    z 0.000000 0.000000 3.579040 
# 
# 
# High freq. dielectric constant tensor:
#      x y z
#    x 1.773130 0.000000 0.000000 
#    y 0.000000 1.802210 0.000000 
#    z 0.000000 0.000000 1.790380 
# 
# From -- ./inp_files/3311.got.cif
#   From: 2010.03.12/outbox.cif.g09.slc.cpg/sg44_2_cif.got.tgz:3311.got - 2010.04.14 02:36:11.
