data_PCOD8190915
_publ_section_title
;
Structure prediction by ZEFSAII (Michael W. Deem and Ramdas Pophale) SiO2 
 PCOD8190915
Probable space group: I B A 2
;
_chemical_formula_sum "Si O2"
_cell_formula_units_Z 56
_cell_length_a 13.473642
_cell_length_b 15.619356
_cell_length_c 11.394330
_cell_angle_alpha 90.000000
_cell_angle_beta 90.000000
_cell_angle_gamma 90.000000
_cell_volume 2397.932316
_symmetry_space_group_name_H-M "I B A 2"
_symmetry_group_IT_number 45
_symmetry_cell_setting 'orthorhombic'
loop_
_space_group_symop_operation_xyz
x,y,z
-x,-y,z
-x,y,1/2+z
x,-y,1/2+z
1/2+x,1/2+y,1/2+z
1/2-x,1/2-y,1/2+z
1/2-x,1/2+y,z
1/2+x,1/2-y,z
loop_
_atom_site_type_symbol
_atom_site_label
_atom_site_fract_x
_atom_site_fract_y
_atom_site_fract_z
Si Si1 0.000000 0.000000 0.837481
Si Si2 0.200608 0.424656 0.575985
Si Si3 0.984590 0.668896 0.895165
Si Si4 0.666937 0.553500 0.162067
Si Si5 0.000000 0.500000 0.543444
Si Si6 0.321011 0.867857 0.310699
Si Si7 0.410210 0.657739 0.462331
Si Si8 0.729673 0.192484 0.795040
O O1 0.907756 0.986085 0.753482
O O2 0.015216 0.916316 0.917998
O O3 0.297181 0.486276 0.562475
O O4 0.098550 0.473449 0.615518
O O5 0.186072 0.380146 0.450850
O O6 0.228999 0.355581 0.672501
O O7 0.060833 0.645331 0.787375
O O8 0.878613 0.696502 0.850424
O O9 0.034441 0.750330 0.963466
O O10 0.967870 0.583272 0.969292
O O11 0.771317 0.558496 0.234485
O O12 0.621305 0.636443 0.096908
O O13 0.257352 0.788703 0.265372
O O14 0.311060 0.654784 0.383895
#
# Coordination Sequence:
#
# PCOD8190915 Si02
#       8
#     4   8   8   8   4   8   8   8
#     4  12  24  46  68 112 136 188 246 314 372 442
#     4  11  25  45  71 111 147 196 249 305 375 445
#     4  10  24  46  71 104 145 192 248 298 363 446
#     4  12  25  43  77  99 146 195 240 316 377 441
#     4  10  24  42  72 102 148 190 242 304 356 446
#     4  10  26  45  68 108 145 189 250 302 369 450
#     4  11  25  48  71 110 145 192 252 301 379 443
#     4  11  24  46  74 102 147 191 242 310 366 440
#
# _framework density 23.353456000000001
#
# number of rings (size 3 to 8) (size 9 to 14) (size 15 to 20)
#    0.000    1.143    1.429    3.000   12.000    1.143 
#    0.000    0.000    0.000    0.000    0.000    0.000 
#    0.000    0.000    0.000    0.000    0.000    0.000 
#
# Total GULP energy -346995.079651 kJ/mol
# GULP energy per Si atom -12392.681416 kJ/mol
# Density = 2.330030 g / cm^3
# Si number density = 23.353456 Si / 1000 Ang^3
#
#
#
# Elastic Constant Matrix: (Units=GPa)
#
#
# Indices 1 2 3 4 5 6 
#
# 1 119.3740 37.8937 11.6587 0.0000 0.0000 0.0000
# 2 37.8937 103.0708 25.3210 0.0000 0.0000 0.0000
# 3 11.6587 25.3210 66.4017 0.0000 0.0000 0.0000
# 4 0.0000 0.0000 0.0000 515.9724 0.0000 0.0000
# 5 0.0000 0.0000 0.0000 0.0000 32.2366 0.0000
# 6 0.0000 0.0000 0.0000 0.0000 0.0000 41.9367
#
#
#
# Elastic Compliance Matrix: (Units=1/GPa)
#
#
# Indices 1 2 3 4 5 6 
#
# 1 0.009492 -0.003399 -0.000371 0.000000 0.000000 0.000000
# 2 -0.003399 0.011922 -0.003949 0.000000 0.000000 0.000000
# 3 -0.000371 -0.003949 0.016631 0.000000 0.000000 0.000000
# 4 0.000000 0.000000 0.000000 0.001938 0.000000 0.000000
# 5 0.000000 0.000000 0.000000 0.000000 0.031021 0.000000
# 6 0.000000 0.000000 0.000000 0.000000 0.000000 0.023845
#
#
# Mechanical properties :
#
#
# Convention : Reuss Voigt Hill
#
# Bulk Modulus (GPa) = 44.23317 48.73260 46.48288
# Shear Modulus (GPa) = 42.43679 132.29400 87.36539
#
# Velocity S-wave (km/s) = 4.26743 7.53469 6.12301
# Velocity P-wave (km/s) = 6.57747 9.82894 8.36275
#
# Compressibility (1/GPa) = 0.02260747
#
# Stress axis : x y z
#
# Youngs Moduli (GPa) = 105.35074 83.87974 60.12886
#
# Poissons Ratio (x) = 0.28508 0.02228
# Poissons Ratio (y) = 0.35806 0.23747
# Poissons Ratio (z) = 0.03904 0.33128
#
# Static dielectric constant tensor:
#      x y z
#    x 4.511600 0.000000 0.000000 
#    y 0.000000 4.287400 0.000000 
#    z 0.000000 0.000000 3.887240 
# 
# 
# High freq. dielectric constant tensor:
#      x y z
#    x 1.947780 0.000000 0.000000 
#    y 0.000000 1.941180 0.000000 
#    z 0.000000 0.000000 1.904060 
# 
# From -- ./inp_files/4183.got.cif
#   From: 2010.03.12/outbox.cif.g09.slc.cpg/sg45_3_cif.got.tgz:4183.got - 2010.04.14 02:50:11.
