data_PCOD8190057
_publ_section_title
;
Structure prediction by ZEFSAII (Michael W. Deem and Ramdas Pophale) SiO2 
 PCOD8190057
Probable space group: I M M 2
;
_chemical_formula_sum "Si O2"
_cell_formula_units_Z 48
_cell_length_a 12.357088
_cell_length_b 18.760429
_cell_length_c 9.840373
_cell_angle_alpha 90.000000
_cell_angle_beta 90.000000
_cell_angle_gamma 90.000000
_cell_volume 2281.237308
_symmetry_space_group_name_H-M "I M M 2"
_symmetry_group_IT_number 44
_symmetry_cell_setting 'orthorhombic'
loop_
_space_group_symop_operation_xyz
x,y,z
-x,-y,z
-x,y,z
x,-y,z
1/2+x,1/2+y,1/2+z
1/2-x,1/2-y,1/2+z
1/2-x,1/2+y,1/2+z
1/2+x,1/2-y,1/2+z
loop_
_atom_site_type_symbol
_atom_site_label
_atom_site_fract_x
_atom_site_fract_y
_atom_site_fract_z
Si Si1 0.379862 0.675976 0.426010
Si Si2 0.155098 0.332565 0.531654
Si Si3 0.844915 0.667436 0.832399
Si Si4 0.120134 0.824016 0.437988
Si Si5 0.000000 0.584571 0.341539
Si Si6 0.872751 0.921882 0.682010
Si Si7 0.000000 0.584570 0.022518
O O1 0.500000 0.655862 0.483175
O O2 0.286319 0.669772 0.538173
O O3 0.388808 0.754123 0.362804
O O4 0.337110 0.620988 0.313794
O O5 0.115927 0.355948 0.682024
O O6 0.111231 0.254112 0.501293
O O7 0.106558 0.385345 0.417736
O O8 0.713698 0.669795 0.825853
O O9 0.893438 0.614646 0.946314
O O10 0.162807 0.879066 0.550133
O O11 0.000000 0.844082 0.380755
O O12 0.000000 0.500000 0.353252
O O13 0.000000 0.608234 0.182028
O O14 0.000000 0.930566 0.682107
O O15 0.816508 0.000000 0.682025
O O16 0.000000 0.500000 0.010817
#
# Coordination Sequence:
#
# PCOD8190057 Si02
#       7
#     8   8   8   8   4   8   4
#     4  10  21  38  62  94 134 170 217 267 324 387
#     4  11  23  40  66  96 131 174 219 272 328 387
#     4  11  23  40  66  96 131 174 219 272 328 387
#     4  10  21  38  62  94 134 170 217 267 324 387
#     4  11  27  47  67  95 131 174 222 272 329 397
#     4   9  18  34  60  89 121 167 211 257 314 378
#     4  11  27  47  67  95 131 174 222 272 329 397
#
# _framework density 21.041214
#
# number of rings (size 3 to 8) (size 9 to 14) (size 15 to 20)
#    0.000    1.667    3.333    0.500    2.333    4.667 
#    0.000    0.000    0.000    0.000    0.000    7.000 
#    0.000    0.000    0.000    0.000    0.000    0.000 
#
# Total GULP energy -297405.921624 kJ/mol
# GULP energy per Si atom -12391.913401 kJ/mol
# Density = 2.099332 g / cm^3
# Si number density = 21.041214 Si / 1000 Ang^3
#
#
#
# Elastic Constant Matrix: (Units=GPa)
#
#
# Indices 1 2 3 4 5 6 
#
# 1 150.3146 12.4224 38.3659 -0.0001 -0.0001 -0.0001
# 2 12.4224 126.9745 46.6229 -0.0004 -0.0002 -0.0002
# 3 38.3659 46.6229 133.2155 -0.0021 -0.0007 -0.0008
# 4 -0.0001 -0.0004 -0.0021 31.6938 -0.0004 -0.0004
# 5 -0.0001 -0.0002 -0.0007 -0.0004 21.2474 -0.0002
# 6 -0.0001 -0.0002 -0.0008 -0.0004 -0.0002 -13.8535
#
#
#
# Elastic Compliance Matrix: (Units=1/GPa)
#
#
# Indices 1 2 3 4 5 6 
#
# 1 0.007181 0.000065 -0.002091 0.000000 0.000000 0.000000
# 2 0.000065 0.009037 -0.003182 0.000000 0.000000 0.000000
# 3 -0.002091 -0.003182 0.009222 0.000001 0.000000 0.000000
# 4 0.000000 0.000000 0.000001 0.031552 0.000001 -0.000001
# 5 0.000000 0.000000 0.000000 0.000001 0.047065 -0.000001
# 6 0.000000 0.000000 0.000000 -0.000001 -0.000001 -0.072184
#
#
# Mechanical properties :
#
#
# Convention : Reuss Voigt Hill
#
# Bulk Modulus (GPa) = 66.55155 67.25856 66.90506
# Shear Modulus (GPa) = 105.71561 28.69045 67.20303
#
# Velocity S-wave (km/s) = 7.09586 3.69661 5.65757
# Velocity P-wave (km/s) = 9.94147 7.08904 8.63387
#
# Compressibility (1/GPa) = 0.01502595
#
# Stress axis : x y z
#
# Youngs Moduli (GPa) = 139.25613 110.65014 108.43201
#
# Poissons Ratio (x) = -0.00722 0.22673
# Poissons Ratio (y) = -0.00908 0.34500
# Poissons Ratio (z) = 0.29118 0.35206
#
# Static dielectric constant tensor:
#      x y z
#    x 3.893510 0.000000 0.000000 
#    y 0.000000 3.998320 0.000000 
#    z 0.000000 0.000000 3.743080 
# 
# 
# High freq. dielectric constant tensor:
#      x y z
#    x 1.840920 0.000000 0.000000 
#    y 0.000000 1.813270 0.000000 
#    z 0.000000 0.000000 1.807250 
# 
# From -- ./inp_files/7156.got.cif
#   From: 2010.03.12/outbox.cif.g09.slc.cpg/sg44_4_cif.got.tgz:7156.got - 2010.04.14 02:36:11.
