data_PCOD8190692
_publ_section_title
;
Structure prediction by ZEFSAII (Michael W. Deem and Ramdas Pophale) SiO2 
 PCOD8190692
Probable space group: I B A 2
;
_chemical_formula_sum "Si O2"
_cell_formula_units_Z 64
_cell_length_a 7.934323
_cell_length_b 14.386227
_cell_length_c 22.116091
_cell_angle_alpha 90.000000
_cell_angle_beta 90.000000
_cell_angle_gamma 90.000000
_cell_volume 2524.440583
_symmetry_space_group_name_H-M "I B A 2"
_symmetry_group_IT_number 45
_symmetry_cell_setting 'orthorhombic'
loop_
_space_group_symop_operation_xyz
x,y,z
-x,-y,z
-x,y,1/2+z
x,-y,1/2+z
1/2+x,1/2+y,1/2+z
1/2-x,1/2-y,1/2+z
1/2-x,1/2+y,z
1/2+x,1/2-y,z
loop_
_atom_site_type_symbol
_atom_site_label
_atom_site_fract_x
_atom_site_fract_y
_atom_site_fract_z
Si Si1 0.993465 0.718187 0.117300
Si Si2 0.346192 0.849804 0.300229
Si Si3 0.320601 0.617229 0.163481
Si Si4 0.830919 0.941158 0.427422
Si Si5 0.743664 0.140485 0.798584
Si Si6 0.826803 0.442405 0.681142
Si Si7 0.363562 0.788183 0.982961
Si Si8 0.321612 0.122598 0.931658
O O1 0.986664 0.825220 0.143583
O O2 0.850677 0.655890 0.148452
O O3 0.177456 0.680016 0.131318
O O4 0.957715 0.709941 0.046486
O O5 0.544621 0.867026 0.303289
O O6 0.308943 0.743611 0.288725
O O7 0.266688 0.916139 0.248935
O O8 0.257839 0.877303 0.362566
O O9 0.300184 0.596838 0.234924
O O10 0.307880 0.507903 0.143728
O O11 0.825119 0.907218 0.357639
O O12 0.805123 0.852376 0.473036
O O13 0.682892 0.013458 0.448236
O O14 0.000000 0.000000 0.439306
O O15 0.000000 0.500000 0.682573
O O16 0.493455 0.832053 0.934642
O O17 0.315489 0.682095 0.969212
#
# Coordination Sequence:
#
# PCOD8190692 Si02
#       8
#     8   8   8   8   8   8   8   8
#     4  11  24  43  70  98 137 183 242 286 351 418
#     4  12  22  41  72 100 140 181 227 290 359 439
#     4  11  22  44  68 101 137 179 231 296 356 427
#     4  12  28  45  69 107 149 185 243 301 367 441
#     4  12  23  43  71 106 141 186 226 296 367 433
#     4  10  21  39  68  97 134 171 227 279 350 422
#     4  12  26  46  70 102 140 198 246 295 355 424
#     4  12  25  44  70  99 144 186 238 297 363 429
#
# _framework density 25.352152
#
# number of rings (size 3 to 8) (size 9 to 14) (size 15 to 20)
#    0.000    0.500    6.250    2.625    1.750    4.000 
#    0.000    0.625    0.000    0.000    0.000    0.875 
#    0.000    0.000    0.000    0.000    0.000    0.000 
#
# Total GULP energy -396512.523921 kJ/mol
# GULP energy per Si atom -12391.016373 kJ/mol
# Density = 2.529445 g / cm^3
# Si number density = 25.352152 Si / 1000 Ang^3
#
#
#
# Elastic Constant Matrix: (Units=GPa)
#
#
# Indices 1 2 3 4 5 6 
#
# 1 30.8578 -11.1039 -11.3703 0.0000 0.0000 0.0000
# 2 -11.1039 119.9874 13.9425 0.0000 0.0000 0.0000
# 3 -11.3703 13.9425 105.5419 0.0000 0.0000 0.0000
# 4 0.0000 0.0000 0.0000 23.1377 0.0000 0.0000
# 5 0.0000 0.0000 0.0000 0.0000 23.1788 0.0000
# 6 0.0000 0.0000 0.0000 0.0000 0.0000 33.2222
#
#
#
# Elastic Compliance Matrix: (Units=1/GPa)
#
#
# Indices 1 2 3 4 5 6 
#
# 1 0.034659 0.002817 0.003362 0.000000 0.000000 0.000000
# 2 0.002817 0.008693 -0.000845 0.000000 0.000000 0.000000
# 3 0.003362 -0.000845 0.009949 0.000000 0.000000 0.000000
# 4 0.000000 0.000000 0.000000 0.043220 0.000000 0.000000
# 5 0.000000 0.000000 0.000000 0.000000 0.043143 0.000000
# 6 0.000000 0.000000 0.000000 0.000000 0.000000 0.030100
#
#
# Mechanical properties :
#
#
# Convention : Reuss Voigt Hill
#
# Bulk Modulus (GPa) = 15.63278 26.59152 21.11215
# Shear Modulus (GPa) = 27.71325 33.56897 30.64111
#
# Velocity S-wave (km/s) = 3.30984 3.64278 3.48029
# Velocity P-wave (km/s) = 4.55921 5.31081 4.94930
#
# Compressibility (1/GPa) = 0.06396816
#
# Stress axis : x y z
#
# Youngs Moduli (GPa) = 28.85247 115.03425 100.51561
#
# Poissons Ratio (x) = -0.32403 -0.33791
# Poissons Ratio (y) = -0.08127 0.08493
# Poissons Ratio (z) = -0.09700 0.09720
#
# Static dielectric constant tensor:
#      x y z
#    x 4.448710 0.000000 0.000000 
#    y 0.000000 5.330730 0.000000 
#    z 0.000000 0.000000 4.502430 
# 
# 
# High freq. dielectric constant tensor:
#      x y z
#    x 2.000840 0.000000 0.000000 
#    y 0.000000 2.042480 0.000000 
#    z 0.000000 0.000000 1.996660 
# 
# From -- ./inp_files/9627.got.cif
#   From: 2010.03.12/outbox.cif.g09.slc.cpg/sg45_5_cif.got.tgz:9627.got - 2010.04.14 02:50:11.
