data_PCOD8190286
_publ_section_title
;
Structure prediction by ZEFSAII (Michael W. Deem and Ramdas Pophale) SiO2 
 PCOD8190286
Probable space group: I M M 2
;
_chemical_formula_sum "Si O2"
_cell_formula_units_Z 48
_cell_length_a 30.536874
_cell_length_b 8.468788
_cell_length_c 9.004069
_cell_angle_alpha 90.000000
_cell_angle_beta 90.000000
_cell_angle_gamma 90.000000
_cell_volume 2328.545094
_symmetry_space_group_name_H-M "I M M 2"
_symmetry_group_IT_number 44
_symmetry_cell_setting 'orthorhombic'
loop_
_space_group_symop_operation_xyz
x,y,z
-x,-y,z
-x,y,z
x,-y,z
1/2+x,1/2+y,1/2+z
1/2-x,1/2-y,1/2+z
1/2-x,1/2+y,1/2+z
1/2+x,1/2-y,1/2+z
loop_
_atom_site_type_symbol
_atom_site_label
_atom_site_fract_x
_atom_site_fract_y
_atom_site_fract_z
Si Si1 0.132491 0.184056 0.357100
Si Si2 0.626334 0.819256 0.173687
Si Si3 0.203017 0.817036 0.855208
Si Si4 0.547948 0.312640 0.686118
Si Si5 0.788736 0.316699 0.175584
Si Si6 0.449433 0.681626 0.352060
O O1 0.135544 0.209628 0.532372
O O2 0.085275 0.246040 0.298800
O O3 0.169229 0.285038 0.276114
O O4 0.139319 0.000000 0.320678
O O5 0.662119 0.784210 0.299309
O O6 0.578428 0.785938 0.238974
O O7 0.629227 0.000000 0.123475
O O8 0.246164 0.764040 0.767210
O O9 0.192540 0.000000 0.830176
O O10 0.210050 0.787169 0.028450
O O11 0.500000 0.246583 0.735522
O O12 0.545549 0.500000 0.683700
O O13 0.558840 0.255280 0.519172
O O14 0.786944 0.500000 0.132493
O O15 0.500000 0.700393 0.307685
O O16 0.434468 0.500000 0.337885
#
# Coordination Sequence:
#
# PCOD8190286 Si02
#       6
#     8   8   8   8   8   8
#     4  11  22  37  60  87 118 157 199 242 292 353
#     4  12  25  39  57  84 121 158 197 249 301 347
#     4  11  24  42  64  88 117 155 197 238 289 357
#     4   8  16  33  58  86 112 143 189 240 285 337
#     4  11  24  41  63  91 121 152 191 243 298 348
#     4   9  18  36  62  88 115 151 197 245 295 357
#
# _framework density 20.61373
#
# number of rings (size 3 to 8) (size 9 to 14) (size 15 to 20)
#    0.000    1.667    0.000    6.000    0.000    7.667 
#    0.000    2.500    0.000    3.500    0.000    0.000 
#    0.000    0.000    0.000    0.000    0.000    0.000 
#
# Total GULP energy -297715.682738 kJ/mol
# GULP energy per Si atom -12404.820114 kJ/mol
# Density = 2.056681 g / cm^3
# Si number density = 20.613730 Si / 1000 Ang^3
#
#
#
# Elastic Constant Matrix: (Units=GPa)
#
#
# Indices 1 2 3 4 5 6 
#
# 1 118.2297 24.8298 47.0517 0.0000 0.0000 0.0000
# 2 24.8298 51.0761 9.0695 0.0000 0.0000 0.0000
# 3 47.0517 9.0695 108.2931 0.0000 0.0000 0.0000
# 4 0.0000 0.0000 0.0000 29.6328 0.0000 0.0000
# 5 0.0000 0.0000 0.0000 0.0000 40.8496 0.0000
# 6 0.0000 0.0000 0.0000 0.0000 0.0000 30.1386
#
#
#
# Elastic Compliance Matrix: (Units=1/GPa)
#
#
# Indices 1 2 3 4 5 6 
#
# 1 0.011222 -0.004659 -0.004485 0.000000 0.000000 0.000000
# 2 -0.004659 0.021808 0.000198 0.000000 0.000000 0.000000
# 3 -0.004485 0.000198 0.011166 0.000000 0.000000 0.000000
# 4 0.000000 0.000000 0.000000 0.033746 0.000000 0.000000
# 5 0.000000 0.000000 0.000000 0.000000 0.024480 0.000000
# 6 0.000000 0.000000 0.000000 0.000000 0.000000 0.033180
#
#
# Mechanical properties :
#
#
# Convention : Reuss Voigt Hill
#
# Bulk Modulus (GPa) = 38.01781 48.83343 43.42562
# Shear Modulus (GPa) = 30.81406 33.23404 32.02405
#
# Velocity S-wave (km/s) = 3.87050 4.01961 3.94576
# Velocity P-wave (km/s) = 6.20140 6.72936 6.47076
#
# Compressibility (1/GPa) = 0.02630346
#
# Stress axis : x y z
#
# Youngs Moduli (GPa) = 89.11407 45.85414 89.55358
#
# Poissons Ratio (x) = 0.21362 0.40169
# Poissons Ratio (y) = 0.41516 -0.01771
# Poissons Ratio (z) = 0.39972 -0.00907
#
# Static dielectric constant tensor:
#      x y z
#    x 4.044910 0.000000 0.000000 
#    y 0.000000 3.459620 0.000000 
#    z 0.000000 0.000000 3.680830 
# 
# 
# High freq. dielectric constant tensor:
#      x y z
#    x 1.822620 0.000000 0.000000 
#    y 0.000000 1.787780 0.000000 
#    z 0.000000 0.000000 1.808810 
# 
# From -- ./inp_files/9962.got.cif
#   From: 2010.03.12/outbox.cif.g09.slc.cpg/sg44_5_cif.got.tgz:9962.got - 2010.04.14 02:36:11.
