data_PCOD8190722
_publ_section_title
;
Structure prediction by ZEFSAII (Michael W. Deem and Ramdas Pophale) SiO2 
 PCOD8190722
Probable space group: I B A 2
;
_chemical_formula_sum "Si O2"
_cell_formula_units_Z 48
_cell_length_a 16.176375
_cell_length_b 14.864951
_cell_length_c 8.687484
_cell_angle_alpha 90.000000
_cell_angle_beta 90.000000
_cell_angle_gamma 90.000000
_cell_volume 2089.001279
_symmetry_space_group_name_H-M "I B A 2"
_symmetry_group_IT_number 45
_symmetry_cell_setting 'orthorhombic'
loop_
_space_group_symop_operation_xyz
x,y,z
-x,-y,z
-x,y,1/2+z
x,-y,1/2+z
1/2+x,1/2+y,1/2+z
1/2-x,1/2-y,1/2+z
1/2-x,1/2+y,z
1/2+x,1/2-y,z
loop_
_atom_site_type_symbol
_atom_site_label
_atom_site_fract_x
_atom_site_fract_y
_atom_site_fract_z
Si Si1 0.153891 0.594251 0.785230
Si Si2 0.913742 0.543443 0.983185
Si Si3 0.911657 0.047390 0.911288
Si Si4 0.161427 0.212176 0.260578
Si Si5 0.666200 0.225490 0.912070
Si Si6 0.661140 0.396626 0.730650
O O1 0.157091 0.527717 0.930350
O O2 0.089699 0.549624 0.666651
O O3 0.125301 0.694756 0.832962
O O4 0.241034 0.607705 0.695325
O O5 0.898235 0.642713 0.912867
O O6 0.000000 0.500000 0.930440
O O7 0.904219 0.132623 0.794946
O O8 0.846199 0.972370 0.861425
O O9 0.893621 0.079489 0.083651
O O10 0.000000 0.000000 0.898625
O O11 0.245897 0.188142 0.351298
O O12 0.175494 0.225549 0.077882
O O13 0.630951 0.300179 0.794515
#
# Coordination Sequence:
#
# PCOD8190722 Si02
#       6
#     8   8   8   8   8   8
#     4  10  22  40  66  93 125 172 218 268 320 391
#     4  11  23  40  62  95 133 167 209 266 333 394
#     4  12  25  42  65  97 137 175 218 282 351 414
#     4  10  21  41  66  99 134 174 229 278 332 402
#     4  10  22  41  70 100 132 177 228 282 333 400
#     4  11  23  42  67  96 129 175 228 276 335 409
#
# _framework density 22.977487
#
# number of rings (size 3 to 8) (size 9 to 14) (size 15 to 20)
#    0.000    1.333    0.000    7.000    0.000    6.667 
#    0.000    4.167    0.000    0.000    0.000    0.000 
#    0.000    0.000    0.000    0.000    0.000    0.000 
#
# Total GULP energy -297523.783807 kJ/mol
# GULP energy per Si atom -12396.824325 kJ/mol
# Density = 2.292519 g / cm^3
# Si number density = 22.977487 Si / 1000 Ang^3
#
#
#
# Elastic Constant Matrix: (Units=GPa)
#
#
# Indices 1 2 3 4 5 6 
#
# 1 96.8100 71.2905 51.7507 0.0000 0.0000 0.0000
# 2 71.2905 184.6006 55.1090 0.0000 0.0000 0.0000
# 3 51.7507 55.1090 85.3726 0.0000 0.0000 0.0000
# 4 0.0000 0.0000 0.0000 49.3968 0.0000 0.0000
# 5 0.0000 0.0000 0.0000 0.0000 28.3084 0.0000
# 6 0.0000 0.0000 0.0000 0.0000 0.0000 44.2148
#
#
#
# Elastic Compliance Matrix: (Units=1/GPa)
#
#
# Indices 1 2 3 4 5 6 
#
# 1 0.017918 -0.004555 -0.007921 0.000000 0.000000 0.000000
# 2 -0.004555 0.007868 -0.002318 0.000000 0.000000 0.000000
# 3 -0.007921 -0.002318 0.018011 0.000000 0.000000 0.000000
# 4 0.000000 0.000000 0.000000 0.020244 0.000000 0.000000
# 5 0.000000 0.000000 0.000000 0.000000 0.035325 0.000000
# 6 0.000000 0.000000 0.000000 0.000000 0.000000 0.022617
#
#
# Mechanical properties :
#
#
# Convention : Reuss Voigt Hill
#
# Bulk Modulus (GPa) = 70.37621 80.34260 75.35941
# Shear Modulus (GPa) = 31.98802 36.95953 34.47378
#
# Velocity S-wave (km/s) = 3.73520 4.01498 3.87761
# Velocity P-wave (km/s) = 7.02119 7.51898 7.27434
#
# Compressibility (1/GPa) = 0.01420935
#
# Stress axis : x y z
#
# Youngs Moduli (GPa) = 55.80918 127.09471 55.52106
#
# Poissons Ratio (x) = 0.57892 0.43979
# Poissons Ratio (y) = 0.25421 0.12869
# Poissons Ratio (z) = 0.44208 0.29458
#
# Static dielectric constant tensor:
#      x y z
#    x 3.749120 0.000000 0.000000 
#    y 0.000000 4.549330 0.000000 
#    z 0.000000 0.000000 4.002740 
# 
# 
# High freq. dielectric constant tensor:
#      x y z
#    x 1.882920 0.000000 0.000000 
#    y 0.000000 1.933060 0.000000 
#    z 0.000000 0.000000 1.909510 
# 
# From -- ./inp_files/2073.got.cif
#   From: 2010.03.12/outbox.cif.g09.slc.cpg/sg45_2_cif.got.tgz:2073.got - 2010.04.14 02:50:11.
