data_PCOD8190778
_publ_section_title
;
Structure prediction by ZEFSAII (Michael W. Deem and Ramdas Pophale) SiO2 
 PCOD8190778
Probable space group: I B A 2
;
_chemical_formula_sum "Si O2"
_cell_formula_units_Z 56
_cell_length_a 14.351500
_cell_length_b 18.980295
_cell_length_c 8.848810
_cell_angle_alpha 90.000000
_cell_angle_beta 90.000000
_cell_angle_gamma 90.000000
_cell_volume 2410.377827
_symmetry_space_group_name_H-M "I B A 2"
_symmetry_group_IT_number 45
_symmetry_cell_setting 'orthorhombic'
loop_
_space_group_symop_operation_xyz
x,y,z
-x,-y,z
-x,y,1/2+z
x,-y,1/2+z
1/2+x,1/2+y,1/2+z
1/2-x,1/2-y,1/2+z
1/2-x,1/2+y,z
1/2+x,1/2-y,z
loop_
_atom_site_type_symbol
_atom_site_label
_atom_site_fract_x
_atom_site_fract_y
_atom_site_fract_z
Si Si1 0.928186 0.445225 0.406780
Si Si2 0.511628 0.584641 0.654878
Si Si3 0.701814 0.407719 0.989697
Si Si4 0.881675 0.862943 0.423005
Si Si5 0.741957 0.479309 0.283780
Si Si6 0.867517 0.297109 0.940596
Si Si7 0.478456 0.146964 0.662485
O O1 0.842240 0.492101 0.355143
O O2 0.909704 0.387924 0.537931
O O3 0.000000 0.500000 0.478405
O O4 0.965917 0.410851 0.254716
O O5 0.500000 0.500000 0.669508
O O6 0.599994 0.610983 0.552867
O O7 0.528316 0.621752 0.816073
O O8 0.415949 0.614983 0.589200
O O9 0.745304 0.466436 0.104909
O O10 0.686783 0.449082 0.829865
O O11 0.772560 0.341569 0.971626
O O12 0.797806 0.909764 0.363126
O O13 0.841061 0.784591 0.432336
O O14 0.912085 0.310794 0.775968
O O15 0.943889 0.307074 0.073155
#
# Coordination Sequence:
#
# PCOD8190778 Si02
#       7
#     8   8   8   8   8   8   8
#     4  11  22  37  62  93 128 178 225 276 334 407
#     4  11  23  47  74 104 137 183 240 305 354 412
#     4  11  25  42  70  98 144 172 235 292 352 417
#     4  11  25  45  72 100 136 182 233 290 358 423
#     4  11  24  43  64 100 130 180 230 289 342 418
#     4  11  23  47  64 103 139 183 226 285 354 429
#     4  10  22  40  63  89 137 179 220 274 341 420
#
# _framework density 23.232872
#
# number of rings (size 3 to 8) (size 9 to 14) (size 15 to 20)
#    0.000    1.143    2.857    3.429    6.000    0.000 
#   10.286    0.000    0.000    0.000    0.000    0.000 
#    0.000    0.000    0.000    0.000    0.000    0.000 
#
# Total GULP energy -346990.037957 kJ/mol
# GULP energy per Si atom -12392.501356 kJ/mol
# Density = 2.317999 g / cm^3
# Si number density = 23.232872 Si / 1000 Ang^3
#
#
#
# Elastic Constant Matrix: (Units=GPa)
#
#
# Indices 1 2 3 4 5 6 
#
# 1 30.9977 0.5516 16.4181 0.0000 0.0000 0.0000
# 2 0.5516 117.0419 26.3351 0.0000 0.0000 0.0000
# 3 16.4181 26.3351 85.4792 0.0000 0.0000 0.0000
# 4 0.0000 0.0000 0.0000 24.5003 0.0000 0.0000
# 5 0.0000 0.0000 0.0000 0.0000 31.3477 0.0000
# 6 0.0000 0.0000 0.0000 0.0000 0.0000 31.9076
#
#
#
# Elastic Compliance Matrix: (Units=1/GPa)
#
#
# Indices 1 2 3 4 5 6 
#
# 1 0.036156 0.001496 -0.007405 0.000000 0.000000 0.000000
# 2 0.001496 0.009242 -0.003135 0.000000 0.000000 0.000000
# 3 -0.007405 -0.003135 0.014087 0.000000 0.000000 0.000000
# 4 0.000000 0.000000 0.000000 0.040816 0.000000 0.000000
# 5 0.000000 0.000000 0.000000 0.000000 0.031900 0.000000
# 6 0.000000 0.000000 0.000000 0.000000 0.000000 0.031341
#
#
# Mechanical properties :
#
#
# Convention : Reuss Voigt Hill
#
# Bulk Modulus (GPa) = 24.15651 35.56983 29.86317
# Shear Modulus (GPa) = 25.58467 30.23203 27.90835
#
# Velocity S-wave (km/s) = 3.32207 3.61121 3.46966
# Velocity P-wave (km/s) = 5.01349 5.72112 5.37895
#
# Compressibility (1/GPa) = 0.04139671
#
# Stress axis : x y z
#
# Youngs Moduli (GPa) = 27.65780 108.19896 70.98794
#
# Poissons Ratio (x) = -0.16185 0.52570
# Poissons Ratio (y) = -0.04137 0.22253
# Poissons Ratio (z) = 0.20482 0.33918
#
# Static dielectric constant tensor:
#      x y z
#    x 4.223100 0.000000 0.000000 
#    y 0.000000 3.942320 0.000000 
#    z 0.000000 0.000000 4.509610 
# 
# 
# High freq. dielectric constant tensor:
#      x y z
#    x 1.915530 0.000000 0.000000 
#    y 0.000000 1.899610 0.000000 
#    z 0.000000 0.000000 1.939880 
# 
# From -- ./inp_files/1814.got.cif
#   From: 2010.03.12/outbox.cif.g09.slc.cpg/sg45_1_cif.got.tgz:1814.got - 2010.04.14 02:50:11.
