data_PCOD8190906
_publ_section_title
;
Structure prediction by ZEFSAII (Michael W. Deem and Ramdas Pophale) SiO2 
 PCOD8190906
Probable space group: I B A 2
;
_chemical_formula_sum "Si O2"
_cell_formula_units_Z 52
_cell_length_a 23.004350
_cell_length_b 8.678721
_cell_length_c 11.674726
_cell_angle_alpha 90.000000
_cell_angle_beta 90.000000
_cell_angle_gamma 90.000000
_cell_volume 2330.839613
_symmetry_space_group_name_H-M "I B A 2"
_symmetry_group_IT_number 45
_symmetry_cell_setting 'orthorhombic'
loop_
_space_group_symop_operation_xyz
x,y,z
-x,-y,z
-x,y,1/2+z
x,-y,1/2+z
1/2+x,1/2+y,1/2+z
1/2-x,1/2-y,1/2+z
1/2-x,1/2+y,z
1/2+x,1/2-y,z
loop_
_atom_site_type_symbol
_atom_site_label
_atom_site_fract_x
_atom_site_fract_y
_atom_site_fract_z
Si Si1 0.000000 0.000000 0.052940
Si Si2 0.706101 0.002993 0.696200
Si Si3 0.272815 0.271514 0.047906
Si Si4 0.030240 0.717608 0.189207
Si Si5 0.411509 0.709348 0.919391
Si Si6 0.086851 0.583038 0.634801
Si Si7 0.702995 0.533403 0.399974
O O1 0.037928 0.884565 0.131853
O O2 0.954845 0.913051 0.973336
O O3 0.694551 0.178271 0.649410
O O4 0.729300 0.896933 0.596193
O O5 0.642061 0.933703 0.721978
O O6 0.752655 0.007682 0.797740
O O7 0.314025 0.370799 0.962372
O O8 0.235277 0.147505 0.983074
O O9 0.056972 0.706115 0.315173
O O10 0.060193 0.586877 0.109832
O O11 0.960908 0.686600 0.199238
O O12 0.356250 0.619236 0.864936
O O13 0.394392 0.838366 0.013921
#
# Coordination Sequence:
#
# PCOD8190906 Si02
#       7
#     4   8   8   8   8   8   8
#     4  10  24  46  68 106 140 182 232 286 350 410
#     4  11  23  43  70  98 141 178 231 287 343 419
#     4  10  24  42  63 100 135 180 231 277 345 414
#     4  10  24  43  73 104 136 183 240 285 344 416
#     4  11  24  47  70 102 142 183 233 287 350 423
#     4  10  24  45  72 100 140 187 231 290 346 416
#     4  11  24  43  68 103 133 187 227 283 354 418
#
# _framework density 22.309557999999999
#
# number of rings (size 3 to 8) (size 9 to 14) (size 15 to 20)
#    0.000    1.538    1.538    1.385    6.462    6.154 
#   11.077    0.000    0.000    0.000    0.000    0.000 
#    0.000    0.000    0.000    0.000    0.000    0.000 
#
# Total GULP energy -322184.915983 kJ/mol
# GULP energy per Si atom -12391.727538 kJ/mol
# Density = 2.225878 g / cm^3
# Si number density = 22.309558 Si / 1000 Ang^3
#
#
#
# Elastic Constant Matrix: (Units=GPa)
#
#
# Indices 1 2 3 4 5 6 
#
# 1 133.0388 42.3986 62.7568 0.0000 0.0000 0.0000
# 2 42.3986 142.8814 61.7417 0.0000 0.0000 0.0000
# 3 62.7568 61.7417 116.3920 0.0000 0.0000 0.0000
# 4 0.0000 0.0000 0.0000 21.7529 0.0000 0.0000
# 5 0.0000 0.0000 0.0000 0.0000 5.2850 0.0000
# 6 0.0000 0.0000 0.0000 0.0000 0.0000 31.7957
#
#
#
# Elastic Compliance Matrix: (Units=1/GPa)
#
#
# Indices 1 2 3 4 5 6 
#
# 1 0.010158 -0.000840 -0.005031 0.000000 0.000000 0.000000
# 2 -0.000840 0.009150 -0.004401 0.000000 0.000000 0.000000
# 3 -0.005031 -0.004401 0.013639 0.000000 0.000000 0.000000
# 4 0.000000 0.000000 0.000000 0.045971 0.000000 0.000000
# 5 0.000000 0.000000 0.000000 0.000000 0.189213 0.000000
# 6 0.000000 0.000000 0.000000 0.000000 0.000000 0.031451
#
#
# Mechanical properties :
#
#
# Convention : Reuss Voigt Hill
#
# Bulk Modulus (GPa) = 80.63035 80.67848 80.65442
# Shear Modulus (GPa) = 15.41977 26.79440 21.10709
#
# Velocity S-wave (km/s) = 2.63187 3.46934 3.07921
# Velocity P-wave (km/s) = 6.74209 7.23119 6.99092
#
# Compressibility (1/GPa) = 0.01240228
#
# Stress axis : x y z
#
# Youngs Moduli (GPa) = 98.44794 109.29342 73.32038
#
# Poissons Ratio (x) = 0.09182 0.36889
# Poissons Ratio (y) = 0.08271 0.32265
# Poissons Ratio (z) = 0.49531 0.48096
#
# Static dielectric constant tensor:
#      x y z
#    x 4.106930 0.000000 0.000000 
#    y 0.000000 4.768400 0.000000 
#    z 0.000000 0.000000 3.689830 
# 
# 
# High freq. dielectric constant tensor:
#      x y z
#    x 1.876260 0.000000 0.000000 
#    y 0.000000 1.901100 0.000000 
#    z 0.000000 0.000000 1.860990 
# 
# From -- ./inp_files/3321.got.cif
#   From: 2010.03.12/outbox.cif.g09.slc.cpg/sg45_2_cif.got.tgz:3321.got - 2010.04.14 02:50:11.
