data_PCOD8190890
_publ_section_title
;
Structure prediction by ZEFSAII (Michael W. Deem and Ramdas Pophale) SiO2 
 PCOD8190890
Probable space group: I B A 2
;
_chemical_formula_sum "Si O2"
_cell_formula_units_Z 60
_cell_length_a 11.041928
_cell_length_b 23.739802
_cell_length_c 10.421456
_cell_angle_alpha 90.000000
_cell_angle_beta 90.000000
_cell_angle_gamma 90.000000
_cell_volume 2731.809448
_symmetry_space_group_name_H-M "I B A 2"
_symmetry_group_IT_number 45
_symmetry_cell_setting 'orthorhombic'
loop_
_space_group_symop_operation_xyz
x,y,z
-x,-y,z
-x,y,1/2+z
x,-y,1/2+z
1/2+x,1/2+y,1/2+z
1/2-x,1/2-y,1/2+z
1/2-x,1/2+y,z
1/2+x,1/2-y,z
loop_
_atom_site_type_symbol
_atom_site_label
_atom_site_fract_x
_atom_site_fract_y
_atom_site_fract_z
Si Si1 0.240959 0.323435 0.141170
Si Si2 0.831994 0.892132 0.882210
Si Si3 0.960870 0.819103 0.465699
Si Si4 0.724845 0.894048 0.151530
Si Si5 0.878264 0.210579 0.701155
Si Si6 0.787436 0.491400 0.773463
Si Si7 0.500000 0.000000 0.947498
Si Si8 0.035659 0.405012 0.131511
O O1 0.293688 0.350230 0.269762
O O2 0.221672 0.258094 0.174644
O O3 0.114094 0.350731 0.094373
O O4 0.329564 0.333881 0.021625
O O5 0.826106 0.956844 0.832121
O O6 0.967875 0.876695 0.927936
O O7 0.738317 0.884193 0.998962
O O8 0.948239 0.780213 0.337285
O O9 0.031887 0.787014 0.579378
O O10 0.813041 0.849738 0.220792
O O11 0.586735 0.882838 0.201333
O O12 0.765128 0.958412 0.185940
O O13 0.876670 0.518492 0.877279
O O14 0.877055 0.447182 0.705998
O O15 0.471379 0.057499 0.022211
#
# Coordination Sequence:
#
# PCOD8190890 Si02
#       8
#     8   8   8   8   8   8   4   8
#     4  11  27  44  72 106 137 199 239 302 375 439
#     4  10  23  45  70  94 148 185 241 307 359 445
#     4  11  25  51  71 100 147 189 250 303 363 444
#     4  11  22  41  68 105 138 191 236 306 373 439
#     4  11  28  46  75 100 145 189 250 305 364 448
#     4  11  20  38  65 100 138 185 237 297 372 426
#     4  12  18  36  62 102 146 174 230 310 358 440
#     4  11  22  37  64 101 143 177 231 301 373 436
#
# _framework density 21.963463999999998
#
# number of rings (size 3 to 8) (size 9 to 14) (size 15 to 20)
#    0.000    1.067    5.333    0.000    7.467    0.000 
#    0.000    0.667    5.867    0.000    0.000    0.000 
#    0.000    0.000    0.000    0.000    0.000    0.000 
#
# Total GULP energy -371746.028575 kJ/mol
# GULP energy per Si atom -12391.534286 kJ/mol
# Density = 2.191347 g / cm^3
# Si number density = 21.963464 Si / 1000 Ang^3
#
#
#
# Elastic Constant Matrix: (Units=GPa)
#
#
# Indices 1 2 3 4 5 6 
#
# 1 106.9314 55.7771 42.1831 0.0001 0.0002 0.0000
# 2 55.7771 95.8164 38.3940 0.0000 0.0005 0.0000
# 3 42.1831 38.3940 124.2695 0.0005 -0.0006 -0.0003
# 4 0.0001 0.0000 0.0005 19.9724 0.0001 -0.0001
# 5 0.0002 0.0005 -0.0006 0.0001 23.0979 0.0001
# 6 0.0000 0.0000 -0.0003 -0.0001 0.0001 36.3051
#
#
#
# Elastic Compliance Matrix: (Units=1/GPa)
#
#
# Indices 1 2 3 4 5 6 
#
# 1 0.014114 -0.007186 -0.002571 0.000000 0.000000 0.000000
# 2 -0.007186 0.015570 -0.002371 0.000000 0.000000 0.000000
# 3 -0.002571 -0.002371 0.009652 0.000000 0.000000 0.000000
# 4 0.000000 0.000000 0.000000 0.050069 0.000000 0.000000
# 5 0.000000 0.000000 0.000000 0.000000 0.043294 0.000000
# 6 0.000000 0.000000 0.000000 0.000000 0.000000 0.027544
#
#
# Mechanical properties :
#
#
# Convention : Reuss Voigt Hill
#
# Bulk Modulus (GPa) = 66.31170 66.63619 66.47394
# Shear Modulus (GPa) = 26.38143 28.58596 27.48369
#
# Velocity S-wave (km/s) = 3.46952 3.61158 3.54126
# Velocity P-wave (km/s) = 6.80496 6.91352 6.85945
#
# Compressibility (1/GPa) = 0.01508030
#
# Stress axis : x y z
#
# Youngs Moduli (GPa) = 70.84964 64.22610 103.60230
#
# Poissons Ratio (x) = 0.46154 0.26635
# Poissons Ratio (y) = 0.50914 0.24565
# Poissons Ratio (z) = 0.18215 0.15229
#
# Static dielectric constant tensor:
#      x y z
#    x 4.149860 0.000000 0.000000 
#    y 0.000000 3.948620 0.000000 
#    z 0.000000 0.000000 4.124610 
# 
# 
# High freq. dielectric constant tensor:
#      x y z
#    x 1.859310 0.000000 0.000000 
#    y 0.000000 1.851870 0.000000 
#    z 0.000000 0.000000 1.868470 
# 
# From -- ./inp_files/3839.got.cif
#   From: 2010.03.12/outbox.cif.g09.slc.cpg/sg45_2_cif.got.tgz:3839.got - 2010.04.14 02:50:11.
