data_PCOD8190557
_publ_section_title
;
Structure prediction by ZEFSAII (Michael W. Deem and Ramdas Pophale) SiO2 
 PCOD8190557
Probable space group: I B A 2
;
_chemical_formula_sum "Si O2"
_cell_formula_units_Z 48
_cell_length_a 29.366084
_cell_length_b 4.986627
_cell_length_c 16.301554
_cell_angle_alpha 90.000000
_cell_angle_beta 90.000000
_cell_angle_gamma 90.000000
_cell_volume 2387.162194
_symmetry_space_group_name_H-M "I B A 2"
_symmetry_group_IT_number 45
_symmetry_cell_setting 'orthorhombic'
loop_
_space_group_symop_operation_xyz
x,y,z
-x,-y,z
-x,y,1/2+z
x,-y,1/2+z
1/2+x,1/2+y,1/2+z
1/2-x,1/2-y,1/2+z
1/2-x,1/2+y,z
1/2+x,1/2-y,z
loop_
_atom_site_type_symbol
_atom_site_label
_atom_site_fract_x
_atom_site_fract_y
_atom_site_fract_z
Si Si1 0.371467 0.332879 0.888030
Si Si2 0.530769 0.241628 0.112523
Si Si3 0.405184 0.862237 0.974242
Si Si4 0.279633 0.177170 0.972069
Si Si5 0.342211 0.121162 0.112075
Si Si6 0.623678 0.352153 0.199541
O O1 0.384725 0.581916 0.944825
O O2 0.374201 0.426351 0.794555
O O3 0.407039 0.084257 0.901535
O O4 0.320648 0.237005 0.909648
O O5 0.500000 0.500000 0.114873
O O6 0.572998 0.263946 0.174532
O O7 0.500000 0.000000 0.144769
O O8 0.546568 0.190004 0.018220
O O9 0.372548 0.996871 0.040544
O O10 0.238506 0.379845 0.954383
O O11 0.294362 0.193259 0.068531
O O12 0.363891 0.389559 0.146921
O O13 0.340399 0.890943 0.182156
#
# Coordination Sequence:
#
# PCOD8190557 Si02
#       6
#     8   8   8   8   8   8
#     4  11  22  39  61  86 119 157 192 235 297 361
#     4  11  21  37  59  86 114 150 199 250 286 332
#     4  10  20  38  60  82 110 155 198 229 281 360
#     4  11  21  37  59  86 114 150 196 246 283 327
#     4  10  20  38  60  82 111 156 200 229 279 358
#     4  11  22  39  61  86 118 158 193 235 296 360
#
# _framework density 20.107557
#
# number of rings (size 3 to 8) (size 9 to 14) (size 15 to 20)
#    0.000    1.333    0.000   11.000    0.000    0.000 
#    0.000   10.000    0.000    0.000    0.000    0.000 
#    0.000    0.000    0.000    0.000    0.000    0.000 
#
# Total GULP energy -297540.197628 kJ/mol
# GULP energy per Si atom -12397.508234 kJ/mol
# Density = 2.006179 g / cm^3
# Si number density = 20.107557 Si / 1000 Ang^3
#
#
#
# Elastic Constant Matrix: (Units=GPa)
#
#
# Indices 1 2 3 4 5 6 
#
# 1 77.7652 43.3673 43.0992 0.0000 0.0000 0.0000
# 2 43.3673 142.6679 28.4684 0.0000 0.0000 0.0000
# 3 43.0992 28.4684 95.3412 0.0000 0.0000 0.0000
# 4 0.0000 0.0000 0.0000 28.9802 0.0000 0.0000
# 5 0.0000 0.0000 0.0000 0.0000 21.4129 0.0000
# 6 0.0000 0.0000 0.0000 0.0000 0.0000 36.6329
#
#
#
# Elastic Compliance Matrix: (Units=1/GPa)
#
#
# Indices 1 2 3 4 5 6 
#
# 1 0.019474 -0.004427 -0.007482 0.000000 0.000000 0.000000
# 2 -0.004427 0.008460 -0.000525 0.000000 0.000000 0.000000
# 3 -0.007482 -0.000525 0.014027 0.000000 0.000000 0.000000
# 4 0.000000 0.000000 0.000000 0.034506 0.000000 0.000000
# 5 0.000000 0.000000 0.000000 0.000000 0.046701 0.000000
# 6 0.000000 0.000000 0.000000 0.000000 0.000000 0.027298
#
#
# Mechanical properties :
#
#
# Convention : Reuss Voigt Hill
#
# Bulk Modulus (GPa) = 58.49691 60.62712 59.56201
# Shear Modulus (GPa) = 27.61953 30.79451 29.20702
#
# Velocity S-wave (km/s) = 3.71022 3.91767 3.81535
# Velocity P-wave (km/s) = 6.89271 7.11906 7.00680
#
# Compressibility (1/GPa) = 0.01709492
#
# Stress axis : x y z
#
# Youngs Moduli (GPa) = 51.34950 118.20821 71.28879
#
# Poissons Ratio (x) = 0.52328 0.53336
# Poissons Ratio (y) = 0.22731 0.03742
# Poissons Ratio (z) = 0.38418 0.06204
#
# Static dielectric constant tensor:
#      x y z
#    x 3.713180 0.000000 0.000000 
#    y 0.000000 4.060020 0.000000 
#    z 0.000000 0.000000 3.834550 
# 
# 
# High freq. dielectric constant tensor:
#      x y z
#    x 1.768010 0.000000 0.000000 
#    y 0.000000 1.815240 0.000000 
#    z 0.000000 0.000000 1.770570 
# 
# From -- ./inp_files/7149.got.cif
#   From: 2010.03.12/outbox.cif.g09.slc.cpg/sg45_4_cif.got.tgz:7149.got - 2010.04.14 02:50:11.
