data_PCOD8190522
_publ_section_title
;
Structure prediction by ZEFSAII (Michael W. Deem and Ramdas Pophale) SiO2 
 PCOD8190522
Probable space group: I B A 2
;
_chemical_formula_sum "Si O2"
_cell_formula_units_Z 60
_cell_length_a 17.471130
_cell_length_b 16.328070
_cell_length_c 9.836131
_cell_angle_alpha 90.000000
_cell_angle_beta 90.000000
_cell_angle_gamma 90.000000
_cell_volume 2805.951454
_symmetry_space_group_name_H-M "I B A 2"
_symmetry_group_IT_number 45
_symmetry_cell_setting 'orthorhombic'
loop_
_space_group_symop_operation_xyz
x,y,z
-x,-y,z
-x,y,1/2+z
x,-y,1/2+z
1/2+x,1/2+y,1/2+z
1/2-x,1/2-y,1/2+z
1/2-x,1/2+y,z
1/2+x,1/2-y,z
loop_
_atom_site_type_symbol
_atom_site_label
_atom_site_fract_x
_atom_site_fract_y
_atom_site_fract_z
Si Si1 0.593657 0.071058 0.155700
Si Si2 0.153994 0.752813 0.680686
Si Si3 0.317664 0.296842 0.190661
Si Si4 0.084751 0.818987 0.943421
Si Si5 0.500000 0.000000 0.404483
Si Si6 0.758952 0.979770 0.656797
Si Si7 0.589106 0.665786 0.433619
Si Si8 0.148366 0.992059 0.903186
O O1 0.620306 0.164418 0.142600
O O2 0.546278 0.058212 0.297179
O O3 0.667359 0.011142 0.167312
O O4 0.551488 0.052370 0.011273
O O5 0.245800 0.762363 0.664215
O O6 0.135816 0.772814 0.834889
O O7 0.115085 0.822030 0.588106
O O8 0.283273 0.386845 0.180695
O O9 0.354541 0.280820 0.338393
O O10 0.386661 0.281569 0.085640
O O11 0.996371 0.800487 0.917332
O O12 0.095593 0.916707 0.945949
O O13 0.804898 0.032658 0.768169
O O14 0.785788 0.012774 0.511804
O O15 0.593067 0.570648 0.388987
#
# Coordination Sequence:
#
# PCOD8190522 Si02
#       8
#     8   8   8   8   4   8   8   8
#     4  10  22  40  62  91 116 158 204 254 314 369
#     4  11  23  39  62  87 127 162 211 249 311 365
#     4   9  21  39  55  84 119 160 204 254 297 368
#     4  11  22  38  61  91 126 164 204 255 309 364
#     4  10  22  42  64  84 124 148 202 266 316 360
#     4   9  18  34  58  83 116 155 203 250 294 366
#     4  11  22  38  61  91 126 164 204 255 309 364
#     4  10  20  36  60  88 126 160 208 244 303 367
#
# _framework density 21.383120999999999
#
# number of rings (size 3 to 8) (size 9 to 14) (size 15 to 20)
#    0.000    1.867    0.000    3.600    1.867    0.000 
#    0.000    8.000    0.000    0.000    0.000    0.000 
#    0.000    0.000    0.000    0.000    0.000    0.000 
#
# Total GULP energy -371899.705313 kJ/mol
# GULP energy per Si atom -12396.656844 kJ/mol
# Density = 2.133445 g / cm^3
# Si number density = 21.383121 Si / 1000 Ang^3
#
#
#
# Elastic Constant Matrix: (Units=GPa)
#
#
# Indices 1 2 3 4 5 6 
#
# 1 140.5939 18.5771 39.5567 0.0000 0.0000 0.0000
# 2 18.5771 34.2249 3.1774 0.0000 0.0000 0.0000
# 3 39.5567 3.1774 119.1601 0.0000 0.0000 0.0000
# 4 0.0000 0.0000 0.0000 30.2983 0.0000 0.0000
# 5 0.0000 0.0000 0.0000 0.0000 39.7759 0.0000
# 6 0.0000 0.0000 0.0000 0.0000 0.0000 16.9686
#
#
#
# Elastic Compliance Matrix: (Units=1/GPa)
#
#
# Indices 1 2 3 4 5 6 
#
# 1 0.008441 -0.004332 -0.002687 0.000000 0.000000 0.000000
# 2 -0.004332 0.031515 0.000598 0.000000 0.000000 0.000000
# 3 -0.002687 0.000598 0.009268 0.000000 0.000000 0.000000
# 4 0.000000 0.000000 0.000000 0.033005 0.000000 0.000000
# 5 0.000000 0.000000 0.000000 0.000000 0.025141 0.000000
# 6 0.000000 0.000000 0.000000 0.000000 0.000000 0.058932
#
#
# Mechanical properties :
#
#
# Convention : Reuss Voigt Hill
#
# Bulk Modulus (GPa) = 27.48656 46.28903 36.88780
# Shear Modulus (GPa) = 26.14091 32.91975 29.53033
#
# Velocity S-wave (km/s) = 3.50022 3.92793 3.72023
# Velocity P-wave (km/s) = 5.40534 6.50123 5.97844
#
# Compressibility (1/GPa) = 0.03638141
#
# Stress axis : x y z
#
# Youngs Moduli (GPa) = 118.46920 31.73137 107.89850
#
# Poissons Ratio (x) = 0.13747 0.28988
# Poissons Ratio (y) = 0.51325 -0.06451
# Poissons Ratio (z) = 0.31828 -0.01897
#
# Static dielectric constant tensor:
#      x y z
#    x 4.003370 0.000000 0.000000 
#    y 0.000000 3.526750 0.000000 
#    z 0.000000 0.000000 3.971530 
# 
# 
# High freq. dielectric constant tensor:
#      x y z
#    x 1.847330 0.000000 0.000000 
#    y 0.000000 1.812380 0.000000 
#    z 0.000000 0.000000 1.853320 
# 
# From -- ./inp_files/2139.got.cif
#   From: 2010.03.12/outbox.cif.g09.slc.cpg/sg45_2_cif.got.tgz:2139.got - 2010.04.14 02:50:11.
