data_PCOD8190270
_publ_section_title
;
Structure prediction by ZEFSAII (Michael W. Deem and Ramdas Pophale) SiO2 
 PCOD8190270
Probable space group: I M M 2
;
_chemical_formula_sum "Si O2"
_cell_formula_units_Z 56
_cell_length_a 8.713852
_cell_length_b 16.746264
_cell_length_c 19.468320
_cell_angle_alpha 90.000000
_cell_angle_beta 90.000000
_cell_angle_gamma 90.000000
_cell_volume 2840.904201
_symmetry_space_group_name_H-M "I M M 2"
_symmetry_group_IT_number 44
_symmetry_cell_setting 'orthorhombic'
loop_
_space_group_symop_operation_xyz
x,y,z
-x,-y,z
-x,y,z
x,-y,z
1/2+x,1/2+y,1/2+z
1/2-x,1/2-y,1/2+z
1/2-x,1/2+y,1/2+z
1/2+x,1/2-y,1/2+z
loop_
_atom_site_type_symbol
_atom_site_label
_atom_site_fract_x
_atom_site_fract_y
_atom_site_fract_z
Si Si1 0.818248 0.000000 0.132340
Si Si2 0.681608 0.240718 0.297769
Si Si3 0.681329 0.914853 0.369710
Si Si4 0.678756 0.672058 0.669314
Si Si5 0.176198 0.752077 0.546417
Si Si6 0.817988 0.000000 0.976294
Si Si7 0.178323 0.342586 0.412037
Si Si8 0.321317 0.088186 0.527156
O O1 0.765659 0.920825 0.174448
O O2 0.000000 0.000000 0.124472
O O3 0.750812 0.000000 0.054285
O O4 0.500000 0.248373 0.304701
O O5 0.753348 0.159015 0.329097
O O6 0.729619 0.233852 0.218201
O O7 0.755903 0.314992 0.338029
O O8 0.500000 0.910164 0.363161
O O9 0.729534 0.910990 0.448457
O O10 0.740313 0.000000 0.339254
O O11 0.500000 0.680401 0.685338
O O12 0.713952 0.696588 0.591455
O O13 0.207815 0.728163 0.467267
O O14 0.219382 0.844010 0.562875
O O15 0.000000 0.737483 0.566706
O O16 0.761370 0.077418 0.935604
O O17 0.000000 0.000000 0.976544
O O18 0.000000 0.361480 0.403511
O O19 0.500000 0.109523 0.535830
O O20 0.287346 0.000000 0.558669
#
# Coordination Sequence:
#
# PCOD8190270 Si02
#       8
#     4   8   8   8   8   4   8   8
#     4   9  20  37  59  89 125 164 203 246 309 375
#     4  11  22  37  59  86 118 159 203 244 295 360
#     4   8  15  28  48  77 112 146 182 222 266 323
#     4  11  23  40  59  83 121 162 202 248 305 371
#     4  11  22  36  57  86 118 152 196 247 299 358
#     4  11  21  39  67  95 119 154 207 262 313 367
#     4  11  23  39  60  90 124 158 200 252 308 365
#     4   9  17  32  56  83 110 145 189 232 282 343
#
# _framework density 19.712035
#
# number of rings (size 3 to 8) (size 9 to 14) (size 15 to 20)
#    0.000    1.857    2.857    2.786    1.000    1.429 
#    0.000    1.071    1.571    0.000    0.000    0.000 
#    0.000    0.000    0.000    0.000    0.000    0.000 
#
# Total GULP energy -347091.934609 kJ/mol
# GULP energy per Si atom -12396.140522 kJ/mol
# Density = 1.966717 g / cm^3
# Si number density = 19.712035 Si / 1000 Ang^3
#
#
#
# Elastic Constant Matrix: (Units=GPa)
#
#
# Indices 1 2 3 4 5 6 
#
# 1 70.4343 37.1287 25.4502 0.0000 0.0000 0.0000
# 2 37.1287 109.1232 23.5432 0.0000 0.0000 0.0000
# 3 25.4502 23.5432 68.4906 0.0000 0.0000 0.0000
# 4 0.0000 0.0000 0.0000 34.8292 0.0000 0.0000
# 5 0.0000 0.0000 0.0000 0.0000 25.8531 0.0000
# 6 0.0000 0.0000 0.0000 0.0000 0.0000 29.2178
#
#
#
# Elastic Compliance Matrix: (Units=1/GPa)
#
#
# Indices 1 2 3 4 5 6 
#
# 1 0.018866 -0.005300 -0.005189 0.000000 0.000000 0.000000
# 2 -0.005300 0.011387 -0.001945 0.000000 0.000000 0.000000
# 3 -0.005189 -0.001945 0.017197 0.000000 0.000000 0.000000
# 4 0.000000 0.000000 0.000000 0.028712 0.000000 0.000000
# 5 0.000000 0.000000 0.000000 0.000000 0.038680 0.000000
# 6 0.000000 0.000000 0.000000 0.000000 0.000000 0.034226
#
#
# Mechanical properties :
#
#
# Convention : Reuss Voigt Hill
#
# Bulk Modulus (GPa) = 44.27987 46.69915 45.48951
# Shear Modulus (GPa) = 27.55405 28.77509 28.16457
#
# Velocity S-wave (km/s) = 3.74281 3.82484 3.78405
# Velocity P-wave (km/s) = 6.41797 6.57632 6.49763
#
# Compressibility (1/GPa) = 0.02258362
#
# Stress axis : x y z
#
# Youngs Moduli (GPa) = 53.00501 87.82149 58.14922
#
# Poissons Ratio (x) = 0.46542 0.30172
# Poissons Ratio (y) = 0.28091 0.11309
# Poissons Ratio (z) = 0.27503 0.17080
#
# Static dielectric constant tensor:
#      x y z
#    x 3.310170 0.000000 0.000000 
#    y 0.000000 3.802660 0.000000 
#    z 0.000000 0.000000 3.358950 
# 
# 
# High freq. dielectric constant tensor:
#      x y z
#    x 1.753550 0.000000 0.000000 
#    y 0.000000 1.774900 0.000000 
#    z 0.000000 0.000000 1.744520 
# 
# From -- ./inp_files/23145.got.cif
#   From: 2010.03.12/outbox.cif.g09.slc.cpg/sg44_12_cif.got.tgz:23145.got - 2010.04.14 02:36:11.
