data_PCOD8190467
_publ_section_title
;
Structure prediction by ZEFSAII (Michael W. Deem and Ramdas Pophale) SiO2 
 PCOD8190467
Probable space group: I B A 2
;
_chemical_formula_sum "Si O2"
_cell_formula_units_Z 64
_cell_length_a 21.838029
_cell_length_b 9.331235
_cell_length_c 15.395073
_cell_angle_alpha 90.000000
_cell_angle_beta 90.000000
_cell_angle_gamma 90.000000
_cell_volume 3137.143017
_symmetry_space_group_name_H-M "I B A 2"
_symmetry_group_IT_number 45
_symmetry_cell_setting 'orthorhombic'
loop_
_space_group_symop_operation_xyz
x,y,z
-x,-y,z
-x,y,1/2+z
x,-y,1/2+z
1/2+x,1/2+y,1/2+z
1/2-x,1/2-y,1/2+z
1/2-x,1/2+y,z
1/2+x,1/2-y,z
loop_
_atom_site_type_symbol
_atom_site_label
_atom_site_fract_x
_atom_site_fract_y
_atom_site_fract_z
Si Si1 0.323449 0.469981 0.977070
Si Si2 0.025597 0.341496 0.456773
Si Si3 0.379162 0.692654 0.329273
Si Si4 0.119154 0.258469 0.598694
Si Si5 0.736104 0.054175 0.608650
Si Si6 0.823354 0.711600 0.167778
Si Si7 0.913464 0.818212 0.038328
Si Si8 0.065977 0.981962 0.197381
O O1 0.326230 0.367381 0.893420
O O2 0.347376 0.375219 0.056213
O O3 0.255527 0.526168 0.006497
O O4 0.368708 0.606093 0.967808
O O5 0.062650 0.265565 0.377386
O O6 0.070691 0.344486 0.539282
O O7 0.000000 0.500000 0.432513
O O8 0.967443 0.246035 0.480873
O O9 0.349726 0.810669 0.265054
O O10 0.391442 0.557412 0.267556
O O11 0.170908 0.371973 0.623330
O O12 0.084955 0.185531 0.681857
O O13 0.792321 0.132554 0.655731
O O14 0.730289 0.901658 0.654787
O O15 0.876811 0.697418 0.094425
O O16 0.938872 0.934978 0.105513
O O17 0.000000 0.000000 0.240968
#
# Coordination Sequence:
#
# PCOD8190467 Si02
#       8
#     8   8   8   8   8   8   8   8
#     4   9  20  38  62  90 120 159 211 256 321 372
#     4  11  22  40  61  91 133 166 209 267 327 388
#     4  10  24  39  58  92 133 160 206 267 332 389
#     4  10  20  37  67  92 115 165 217 263 314 385
#     4  11  20  41  68  88 120 167 222 266 310 386
#     4  10  22  41  62  91 123 165 213 265 319 384
#     4   9  19  37  63  87 117 161 206 258 306 387
#     4  10  19  37  61  93 122 160 208 256 319 386
#
# _framework density 20.400727
#
# number of rings (size 3 to 8) (size 9 to 14) (size 15 to 20)
#    0.000    2.000    2.500    1.500    1.750    0.000 
#    6.750    1.250    0.000    0.000    0.000    0.000 
#    0.000    0.000    0.000    0.000    0.000    0.000 
#
# Total GULP energy -396431.179782 kJ/mol
# GULP energy per Si atom -12388.474368 kJ/mol
# Density = 2.035429 g / cm^3
# Si number density = 20.400727 Si / 1000 Ang^3
#
#
#
# Elastic Constant Matrix: (Units=GPa)
#
#
# Indices 1 2 3 4 5 6 
#
# 1 106.5375 40.5575 46.3278 0.0000 0.0000 0.0000
# 2 40.5575 84.8108 43.3290 0.0000 0.0000 0.0000
# 3 46.3278 43.3290 95.1980 0.0000 0.0000 0.0000
# 4 0.0000 0.0000 0.0000 13.9021 0.0000 0.0000
# 5 0.0000 0.0000 0.0000 0.0000 22.9782 0.0000
# 6 0.0000 0.0000 0.0000 0.0000 0.0000 42.3738
#
#
#
# Elastic Compliance Matrix: (Units=1/GPa)
#
#
# Indices 1 2 3 4 5 6 
#
# 1 0.012793 -0.003827 -0.004484 0.000000 0.000000 0.000000
# 2 -0.003827 0.016508 -0.005651 0.000000 0.000000 0.000000
# 3 -0.004484 -0.005651 0.015259 0.000000 0.000000 0.000000
# 4 0.000000 0.000000 0.000000 0.071932 0.000000 0.000000
# 5 0.000000 0.000000 0.000000 0.000000 0.043520 0.000000
# 6 0.000000 0.000000 0.000000 0.000000 0.000000 0.023599
#
#
# Mechanical properties :
#
#
# Convention : Reuss Voigt Hill
#
# Bulk Modulus (GPa) = 60.11181 60.77500 60.44341
# Shear Modulus (GPa) = 23.03295 26.27294 24.65295
#
# Velocity S-wave (km/s) = 3.36374 3.59255 3.48003
# Velocity P-wave (km/s) = 6.67951 6.86031 6.77051
#
# Compressibility (1/GPa) = 0.01663567
#
# Stress axis : x y z
#
# Youngs Moduli (GPa) = 78.16725 60.57572 65.53668
#
# Poissons Ratio (x) = 0.23183 0.29386
# Poissons Ratio (y) = 0.29915 0.37036
# Poissons Ratio (z) = 0.35049 0.34233
#
# Static dielectric constant tensor:
#      x y z
#    x 3.962780 0.000000 0.000000 
#    y 0.000000 3.796960 0.000000 
#    z 0.000000 0.000000 3.599390 
# 
# 
# High freq. dielectric constant tensor:
#      x y z
#    x 1.806060 0.000000 0.000000 
#    y 0.000000 1.790890 0.000000 
#    z 0.000000 0.000000 1.767230 
# 
# From -- ./inp_files/7057.got.cif
#   From: 2010.03.12/outbox.cif.g09.slc.cpg/sg45_4_cif.got.tgz:7057.got - 2010.04.14 02:50:11.
