data_PCOD8190059
_publ_section_title
;
Structure prediction by ZEFSAII (Michael W. Deem and Ramdas Pophale) SiO2 
 PCOD8190059
Probable space group: I M M 2
;
_chemical_formula_sum "Si O2"
_cell_formula_units_Z 52
_cell_length_a 19.677923
_cell_length_b 13.580824
_cell_length_c 9.368676
_cell_angle_alpha 90.000000
_cell_angle_beta 90.000000
_cell_angle_gamma 90.000000
_cell_volume 2503.707543
_symmetry_space_group_name_H-M "I M M 2"
_symmetry_group_IT_number 44
_symmetry_cell_setting 'orthorhombic'
loop_
_space_group_symop_operation_xyz
x,y,z
-x,-y,z
-x,y,z
x,-y,z
1/2+x,1/2+y,1/2+z
1/2-x,1/2-y,1/2+z
1/2-x,1/2+y,1/2+z
1/2+x,1/2-y,1/2+z
loop_
_atom_site_type_symbol
_atom_site_label
_atom_site_fract_x
_atom_site_fract_y
_atom_site_fract_z
Si Si1 0.851069 0.887972 0.796460
Si Si2 0.500000 0.884960 0.173917
Si Si3 0.000000 0.382652 0.109685
Si Si4 0.779728 0.609712 0.485053
Si Si5 0.500000 0.234566 0.901153
Si Si6 0.757446 0.611184 0.805214
Si Si7 0.896673 0.697203 0.887699
Si Si8 0.359320 0.697998 0.980178
O O1 0.775448 0.883615 0.859905
O O2 0.901110 0.817162 0.889856
O O3 0.849240 0.843426 0.638348
O O4 0.879033 0.000000 0.797828
O O5 0.567973 0.841129 0.243880
O O6 0.500000 0.000000 0.197741
O O7 0.500000 0.856457 0.010051
O O8 0.000000 0.500000 0.138407
O O9 0.000000 0.317470 0.249355
O O10 0.067712 0.352623 0.023095
O O11 0.812325 0.500000 0.484956
O O12 0.746058 0.633333 0.638230
O O13 0.839108 0.687626 0.460366
O O14 0.563415 0.307473 0.926340
O O15 0.779879 0.500000 0.831390
O O16 0.816487 0.674987 0.879659
O O17 0.685738 0.631020 0.877888
#
# Coordination Sequence:
#
# PCOD8190059 Si02
#       8
#     8   4   4   8   4   8   8   8
#     4  11  23  41  67  98 130 172 224 273 327 393
#     4  11  21  41  68  96 129 167 215 266 334 402
#     4  11  27  45  66 102 141 172 219 277 340 408
#     4  10  21  38  66 100 130 165 215 274 336 396
#     4  12  27  42  63  92 136 179 221 273 333 384
#     4  11  22  39  67  96 128 171 218 271 333 398
#     4  11  21  42  70  98 132 175 215 273 336 406
#     4  12  23  43  62  96 134 177 216 276 328 396
#
# _framework density 20.769199
#
# number of rings (size 3 to 8) (size 9 to 14) (size 15 to 20)
#    0.000    0.923    4.615    2.538    2.154    3.692 
#    0.000    6.154    0.000    1.846    0.000    0.000 
#    0.000    0.000    0.000    0.000    0.000    0.000 
#
# Total GULP energy -322388.906152 kJ/mol
# GULP energy per Si atom -12399.573314 kJ/mol
# Density = 2.072193 g / cm^3
# Si number density = 20.769199 Si / 1000 Ang^3
#
#
#
# Elastic Constant Matrix: (Units=GPa)
#
#
# Indices 1 2 3 4 5 6 
#
# 1 113.6728 32.7424 44.3540 0.0000 0.0000 0.0000
# 2 32.7424 120.5510 22.7048 0.0000 0.0000 0.0000
# 3 44.3540 22.7048 115.3994 0.0000 0.0000 0.0000
# 4 0.0000 0.0000 0.0000 34.3426 0.0000 0.0000
# 5 0.0000 0.0000 0.0000 0.0000 -76.7182 0.0000
# 6 0.0000 0.0000 0.0000 0.0000 0.0000 30.3625
#
#
#
# Elastic Compliance Matrix: (Units=1/GPa)
#
#
# Indices 1 2 3 4 5 6 
#
# 1 0.010910 -0.002257 -0.003749 0.000000 0.000000 0.000000
# 2 -0.002257 0.009081 -0.000919 0.000000 0.000000 0.000000
# 3 -0.003749 -0.000919 0.010287 0.000000 0.000000 0.000000
# 4 0.000000 0.000000 0.000000 0.029118 0.000000 0.000000
# 5 0.000000 0.000000 0.000000 0.000000 -0.013035 0.000000
# 6 0.000000 0.000000 0.000000 0.000000 0.000000 0.032935
#
#
# Mechanical properties :
#
#
# Convention : Reuss Voigt Hill
#
# Bulk Modulus (GPa) = 60.87235 61.02508 60.94871
# Shear Modulus (GPa) = 50.69684 14.25218 32.47451
#
# Velocity S-wave (km/s) = 4.94597 2.62242 3.95852
# Velocity P-wave (km/s) = 7.87334 6.21415 7.09243
#
# Compressibility (1/GPa) = 0.01642782
#
# Stress axis : x y z
#
# Youngs Moduli (GPa) = 91.65675 110.11488 97.20566
#
# Poissons Ratio (x) = 0.24855 0.36445
# Poissons Ratio (y) = 0.20688 0.08935
# Poissons Ratio (z) = 0.34365 0.10122
#
# Static dielectric constant tensor:
#      x y z
#    x 4.127490 0.000000 0.000000 
#    y 0.000000 4.056010 0.000000 
#    z 0.000000 0.000000 3.788250 
# 
# 
# High freq. dielectric constant tensor:
#      x y z
#    x 1.802120 0.000000 0.000000 
#    y 0.000000 1.826090 0.000000 
#    z 0.000000 0.000000 1.814120 
# 
# From -- ./inp_files/8901.got.cif
#   From: 2010.03.12/outbox.cif.g09.slc.cpg/sg44_5_cif.got.tgz:8901.got - 2010.04.14 02:36:11.
