data_PCOD8190153
_publ_section_title
;
Structure prediction by ZEFSAII (Michael W. Deem and Ramdas Pophale) SiO2 
 PCOD8190153
Probable space group: I M M 2
;
_chemical_formula_sum "Si O2"
_cell_formula_units_Z 64
_cell_length_a 8.759523
_cell_length_b 23.518715
_cell_length_c 15.343054
_cell_angle_alpha 90.000000
_cell_angle_beta 90.000000
_cell_angle_gamma 90.000000
_cell_volume 3160.864364
_symmetry_space_group_name_H-M "I M M 2"
_symmetry_group_IT_number 44
_symmetry_cell_setting 'orthorhombic'
loop_
_space_group_symop_operation_xyz
x,y,z
-x,-y,z
-x,y,z
x,-y,z
1/2+x,1/2+y,1/2+z
1/2-x,1/2-y,1/2+z
1/2-x,1/2+y,1/2+z
1/2+x,1/2-y,1/2+z
loop_
_atom_site_type_symbol
_atom_site_label
_atom_site_fract_x
_atom_site_fract_y
_atom_site_fract_z
Si Si1 0.321969 0.934085 0.057260
Si Si2 0.820596 0.624586 0.222124
Si Si3 0.820615 0.360059 0.720696
Si Si4 0.820436 0.131351 0.901709
Si Si5 0.823733 0.743411 0.469595
Si Si6 0.675671 0.634266 0.897845
Si Si7 0.324486 0.565851 0.063844
Si Si8 0.678890 0.752110 0.655698
O O1 0.500000 0.922151 0.039069
O O2 0.263099 0.899331 0.141286
O O3 0.290146 0.000000 0.074957
O O4 0.224999 0.914283 0.974569
O O5 0.728825 0.606422 0.308363
O O6 0.777085 0.580018 0.147451
O O7 0.768226 0.687313 0.192626
O O8 0.000000 0.621382 0.240571
O O9 0.763311 0.386276 0.811698
O O10 0.759042 0.296414 0.711660
O O11 0.000000 0.358396 0.722214
O O12 0.729650 0.190026 0.913443
O O13 0.000000 0.142526 0.905340
O O14 0.799744 0.798628 0.410608
O O15 0.722866 0.747544 0.555320
O O16 0.000000 0.735813 0.497092
O O17 0.500000 0.618396 0.884915
O O18 0.740782 0.600847 0.981503
O O19 0.500000 0.583189 0.082485
O O20 0.308528 0.500000 0.041450
O O21 0.500000 0.743471 0.665405
#
# Coordination Sequence:
#
# PCOD8190153 Si02
#       8
#     8   8   8   8   8   8   8   8
#     4  10  23  44  65  86 118 161 207 255 306 359
#     4  11  24  41  63  91 125 162 202 248 305 367
#     4  11  23  38  62  92 123 161 201 247 302 361
#     4  12  25  40  63  93 124 159 203 251 304 365
#     4  11  21  37  62  90 124 163 199 243 303 363
#     4  10  22  39  61  90 125 162 200 247 301 359
#     4  10  22  42  65  89 120 161 209 257 305 357
#     4  11  22  37  61  92 124 159 198 246 302 364
#
# _framework density 20.247627000000001
#
# number of rings (size 3 to 8) (size 9 to 14) (size 15 to 20)
#    0.000    1.250    2.500    3.375    0.000    8.000 
#    0.000    0.000    0.000    0.000    0.000    0.000 
#    0.000    0.000    0.000    0.000    0.000    0.000 
#
# Total GULP energy -397021.757103 kJ/mol
# GULP energy per Si atom -12406.929909 kJ/mol
# Density = 2.020154 g / cm^3
# Si number density = 20.247627 Si / 1000 Ang^3
#
#
#
# Elastic Constant Matrix: (Units=GPa)
#
#
# Indices 1 2 3 4 5 6 
#
# 1 38.7221 21.8381 29.2009 -0.0001 -0.0001 0.0000
# 2 21.8381 81.3721 27.6994 -0.0001 0.0000 0.0000
# 3 29.2009 27.6994 136.6210 -0.0001 0.0001 -0.0001
# 4 -0.0001 -0.0001 -0.0001 13.9239 0.0000 0.0000
# 5 -0.0001 0.0000 0.0001 0.0000 39.2666 0.0000
# 6 0.0000 0.0000 -0.0001 0.0000 0.0000 22.1801
#
#
#
# Elastic Compliance Matrix: (Units=1/GPa)
#
#
# Indices 1 2 3 4 5 6 
#
# 1 0.034322 -0.007212 -0.005874 0.000000 0.000000 0.000000
# 2 -0.007212 0.014716 -0.001442 0.000000 0.000000 0.000000
# 3 -0.005874 -0.001442 0.008867 0.000000 0.000000 0.000000
# 4 0.000000 0.000000 0.000000 0.071819 0.000000 0.000000
# 5 0.000000 0.000000 0.000000 0.000000 0.025467 0.000000
# 6 0.000000 0.000000 0.000000 0.000000 0.000000 0.045086
#
#
# Mechanical properties :
#
#
# Convention : Reuss Voigt Hill
#
# Bulk Modulus (GPa) = 34.66242 46.02131 40.34186
# Shear Modulus (GPa) = 20.92516 26.93924 23.93220
#
# Velocity S-wave (km/s) = 3.21824 3.65154 3.44172
# Velocity P-wave (km/s) = 5.56469 6.36843 5.98008
#
# Compressibility (1/GPa) = 0.02884969
#
# Stress axis : x y z
#
# Youngs Moduli (GPa) = 29.13623 67.95544 112.77361
#
# Poissons Ratio (x) = 0.49006 0.66239
# Poissons Ratio (y) = 0.21012 0.16264
# Poissons Ratio (z) = 0.17114 0.09800
#
# Static dielectric constant tensor:
#      x y z
#    x 3.664630 0.000000 0.000000 
#    y 0.000000 3.670020 0.000000 
#    z 0.000000 0.000000 3.820770 
# 
# 
# High freq. dielectric constant tensor:
#      x y z
#    x 1.789180 0.000000 0.000000 
#    y 0.000000 1.786790 0.000000 
#    z 0.000000 0.000000 1.805000 
# 
# From -- ./inp_files/16790.got.cif
#   From: 2010.03.12/outbox.cif.g09.slc.cpg/sg44_9_cif.got.tgz:16790.got - 2010.04.14 02:36:11.
