data_PCOD8190909
_publ_section_title
;
Structure prediction by ZEFSAII (Michael W. Deem and Ramdas Pophale) SiO2 
 PCOD8190909
Probable space group: I B A 2
;
_chemical_formula_sum "Si O2"
_cell_formula_units_Z 48
_cell_length_a 31.505283
_cell_length_b 7.539867
_cell_length_c 8.792752
_cell_angle_alpha 90.000000
_cell_angle_beta 90.000000
_cell_angle_gamma 90.000000
_cell_volume 2088.679933
_symmetry_space_group_name_H-M "I B A 2"
_symmetry_group_IT_number 45
_symmetry_cell_setting 'orthorhombic'
loop_
_space_group_symop_operation_xyz
x,y,z
-x,-y,z
-x,y,1/2+z
x,-y,1/2+z
1/2+x,1/2+y,1/2+z
1/2-x,1/2-y,1/2+z
1/2-x,1/2+y,z
1/2+x,1/2-y,z
loop_
_atom_site_type_symbol
_atom_site_label
_atom_site_fract_x
_atom_site_fract_y
_atom_site_fract_z
Si Si1 0.500000 0.000000 0.953171
Si Si2 0.000000 0.000000 0.905949
Si Si3 0.711568 0.862529 0.173458
Si Si4 0.147632 0.924366 0.278467
Si Si5 0.464388 0.791531 0.218680
Si Si6 0.796686 0.265358 0.817648
Si Si7 0.910305 0.060652 0.548406
O O1 0.539635 0.952223 0.839641
O O2 0.484515 0.837915 0.055235
O O3 0.956770 0.011743 0.004198
O O4 0.999886 0.832363 0.794528
O O5 0.684581 0.717193 0.263602
O O6 0.758262 0.844986 0.243470
O O7 0.694551 0.060594 0.213001
O O8 0.711861 0.826418 0.991966
O O9 0.164645 0.124766 0.309222
O O10 0.116243 0.857860 0.410993
O O11 0.119399 0.912918 0.125437
O O12 0.418635 0.705369 0.184246
#
# Coordination Sequence:
#
# PCOD8190909 Si02
#       7
#     4   4   8   8   8   8   8
#     4  10  24  42  68 108 144 182 258 330 372 456
#     4  12  24  44  80 102 136 210 264 302 382 454
#     4  12  27  48  81 114 155 201 249 307 390 470
#     4  12  28  50  72 115 160 194 258 318 378 456
#     4  11  23  44  70 104 143 192 256 314 387 438
#     4  12  27  48  81 117 152 203 249 306 391 470
#     4  12  26  46  75 105 147 200 258 318 370 456
#
# _framework density 22.981023
#
# number of rings (size 3 to 8) (size 9 to 14) (size 15 to 20)
#    0.000    0.333    6.667    1.500    4.667    0.000 
#    3.000    0.000    0.000    0.000    0.000    0.000 
#    0.000    0.000    0.000    0.000    0.000    0.000 
#
# Total GULP energy -297397.550849 kJ/mol
# GULP energy per Si atom -12391.564619 kJ/mol
# Density = 2.292872 g / cm^3
# Si number density = 22.981023 Si / 1000 Ang^3
#
#
#
# Elastic Constant Matrix: (Units=GPa)
#
#
# Indices 1 2 3 4 5 6 
#
# 1 108.8137 32.5954 44.9546 0.0000 0.0000 0.0000
# 2 32.5954 111.2061 32.7943 0.0000 0.0000 0.0000
# 3 44.9546 32.7943 135.3102 0.0000 0.0000 0.0000
# 4 0.0000 0.0000 0.0000 36.9103 0.0000 0.0000
# 5 0.0000 0.0000 0.0000 0.0000 46.7876 0.0000
# 6 0.0000 0.0000 0.0000 0.0000 0.0000 27.6412
#
#
#
# Elastic Compliance Matrix: (Units=1/GPa)
#
#
# Indices 1 2 3 4 5 6 
#
# 1 0.011196 -0.002353 -0.003149 0.000000 0.000000 0.000000
# 2 -0.002353 0.010179 -0.001685 0.000000 0.000000 0.000000
# 3 -0.003149 -0.001685 0.008845 0.000000 0.000000 0.000000
# 4 0.000000 0.000000 0.000000 0.027093 0.000000 0.000000
# 5 0.000000 0.000000 0.000000 0.000000 0.021373 0.000000
# 6 0.000000 0.000000 0.000000 0.000000 0.000000 0.036178
#
#
# Mechanical properties :
#
#
# Convention : Reuss Voigt Hill
#
# Bulk Modulus (GPa) = 63.11164 64.00206 63.55685
# Shear Modulus (GPa) = 37.16900 38.60021 37.88460
#
# Velocity S-wave (km/s) = 4.02603 4.10281 4.06460
# Velocity P-wave (km/s) = 7.00956 7.09609 7.05296
#
# Compressibility (1/GPa) = 0.01584494
#
# Stress axis : x y z
#
# Youngs Moduli (GPa) = 89.31792 98.24195 113.05531
#
# Poissons Ratio (x) = 0.23115 0.35606
# Poissons Ratio (y) = 0.21015 0.19053
# Poissons Ratio (z) = 0.28130 0.16557
#
# Static dielectric constant tensor:
#      x y z
#    x 4.220500 0.000000 0.000000 
#    y 0.000000 4.371920 0.000000 
#    z 0.000000 0.000000 4.558160 
# 
# 
# High freq. dielectric constant tensor:
#      x y z
#    x 1.892860 0.000000 0.000000 
#    y 0.000000 1.904840 0.000000 
#    z 0.000000 0.000000 1.940080 
# 
# From -- ./inp_files/1090.got.cif
#   From: 2010.03.12/outbox.cif.g09.slc.cpg/sg45_1_cif.got.tgz:1090.got - 2010.04.14 02:50:11.
