data_PCOD8190636
_publ_section_title
;
Structure prediction by ZEFSAII (Michael W. Deem and Ramdas Pophale) SiO2 
 PCOD8190636
Probable space group: I B A 2
;
_chemical_formula_sum "Si O2"
_cell_formula_units_Z 56
_cell_length_a 14.394268
_cell_length_b 19.344887
_cell_length_c 8.843557
_cell_angle_alpha 90.000000
_cell_angle_beta 90.000000
_cell_angle_gamma 90.000000
_cell_volume 2462.536979
_symmetry_space_group_name_H-M "I B A 2"
_symmetry_group_IT_number 45
_symmetry_cell_setting 'orthorhombic'
loop_
_space_group_symop_operation_xyz
x,y,z
-x,-y,z
-x,y,1/2+z
x,-y,1/2+z
1/2+x,1/2+y,1/2+z
1/2-x,1/2-y,1/2+z
1/2-x,1/2+y,z
1/2+x,1/2-y,z
loop_
_atom_site_type_symbol
_atom_site_label
_atom_site_fract_x
_atom_site_fract_y
_atom_site_fract_z
Si Si1 0.952452 0.914041 0.214770
Si Si2 0.130822 0.987972 0.984585
Si Si3 0.926113 0.581475 0.387218
Si Si4 0.335454 0.595444 0.741310
Si Si5 0.789728 0.700789 0.386108
Si Si6 0.725495 0.665048 0.708557
Si Si7 0.115889 0.444044 0.735427
O O1 0.877985 0.857495 0.162283
O O2 0.056497 0.885513 0.212272
O O3 0.933882 0.937865 0.386309
O O4 0.937313 0.980186 0.109739
O O5 0.184243 0.044981 0.885343
O O6 0.202508 0.941241 0.086232
O O7 0.883944 0.657529 0.356349
O O8 0.916006 0.560005 0.561901
O O9 0.871211 0.524380 0.284720
O O10 0.034158 0.586406 0.341885
O O11 0.288110 0.667244 0.778927
O O12 0.769872 0.700649 0.563633
O O13 0.791250 0.780910 0.343130
O O14 0.788408 0.599302 0.762343
#
# Coordination Sequence:
#
# PCOD8190636 Si02
#       7
#     8   8   8   8   8   8   8
#     4  11  21  38  62  94 128 161 197 248 307 372
#     4  10  21  36  62  96 127 156 199 248 306 370
#     4  10  22  42  68  96 121 158 210 266 315 364
#     4  11  21  38  62  94 128 161 197 248 307 372
#     4  11  27  44  61  90 126 167 213 254 310 375
#     4  11  27  44  61  90 126 167 213 254 310 375
#     4  10  22  42  68  96 121 158 210 266 315 364
#
# _framework density 22.740776
#
# number of rings (size 3 to 8) (size 9 to 14) (size 15 to 20)
#    0.000    1.429    1.429    5.143    6.000    3.429 
#    0.000    2.857    0.000    0.000    0.000    0.000 
#    0.000    0.000    0.000    0.000    0.000    0.000 
#
# Total GULP energy -347047.675848 kJ/mol
# GULP energy per Si atom -12394.559852 kJ/mol
# Density = 2.268902 g / cm^3
# Si number density = 22.740776 Si / 1000 Ang^3
#
#
#
# Elastic Constant Matrix: (Units=GPa)
#
#
# Indices 1 2 3 4 5 6 
#
# 1 62.4469 12.3813 -1.0239 0.0000 0.0000 0.0000
# 2 12.3813 81.4364 10.5951 0.0000 0.0000 0.0000
# 3 -1.0239 10.5951 102.9734 0.0000 0.0000 0.0000
# 4 0.0000 0.0000 0.0000 -60.1022 0.0000 0.0000
# 5 0.0000 0.0000 0.0000 0.0000 25.5681 0.0000
# 6 0.0000 0.0000 0.0000 0.0000 0.0000 25.5111
#
#
#
# Elastic Compliance Matrix: (Units=1/GPa)
#
#
# Indices 1 2 3 4 5 6 
#
# 1 0.016530 -0.002569 0.000429 0.000000 0.000000 0.000000
# 2 -0.002569 0.012845 -0.001347 0.000000 0.000000 0.000000
# 3 0.000429 -0.001347 0.009854 0.000000 0.000000 0.000000
# 4 0.000000 0.000000 0.000000 -0.016638 0.000000 0.000000
# 5 0.000000 0.000000 0.000000 0.000000 0.039111 0.000000
# 6 0.000000 0.000000 0.000000 0.000000 0.000000 0.039199
#
#
# Mechanical properties :
#
#
# Convention : Reuss Voigt Hill
#
# Bulk Modulus (GPa) = 31.00342 32.30687 31.65514
# Shear Modulus (GPa) = 42.14873 13.18900 27.66886
#
# Velocity S-wave (km/s) = 4.30983 2.41087 3.49192
# Velocity P-wave (km/s) = 6.19913 4.68905 5.49620
#
# Compressibility (1/GPa) = 0.03225451
#
# Stress axis : x y z
#
# Youngs Moduli (GPa) = 60.49619 77.84907 101.48032
#
# Poissons Ratio (x) = 0.19999 -0.04350
# Poissons Ratio (y) = 0.15541 0.13672
# Poissons Ratio (z) = -0.02593 0.10488
#
# Static dielectric constant tensor:
#      x y z
#    x 4.082220 0.000000 0.000000 
#    y 0.000000 4.002540 0.000000 
#    z 0.000000 0.000000 4.416420 
# 
# 
# High freq. dielectric constant tensor:
#      x y z
#    x 1.896480 0.000000 0.000000 
#    y 0.000000 1.871060 0.000000 
#    z 0.000000 0.000000 1.919300 
# 
# From -- ./inp_files/1830.got.cif
#   From: 2010.03.12/outbox.cif.g09.slc.cpg/sg45_1_cif.got.tgz:1830.got - 2010.04.14 02:50:11.
