data_PCOD8190354
_publ_section_title
;
Structure prediction by ZEFSAII (Michael W. Deem and Ramdas Pophale) SiO2 
 PCOD8190354
Probable space group: I B A 2
;
_chemical_formula_sum "Si O2"
_cell_formula_units_Z 56
_cell_length_a 5.235267
_cell_length_b 17.870331
_cell_length_c 32.614447
_cell_angle_alpha 90.000000
_cell_angle_beta 90.000000
_cell_angle_gamma 90.000000
_cell_volume 3051.275709
_symmetry_space_group_name_H-M "I B A 2"
_symmetry_group_IT_number 45
_symmetry_cell_setting 'orthorhombic'
loop_
_space_group_symop_operation_xyz
x,y,z
-x,-y,z
-x,y,1/2+z
x,-y,1/2+z
1/2+x,1/2+y,1/2+z
1/2-x,1/2-y,1/2+z
1/2-x,1/2+y,z
1/2+x,1/2-y,z
loop_
_atom_site_type_symbol
_atom_site_label
_atom_site_fract_x
_atom_site_fract_y
_atom_site_fract_z
Si Si1 0.966438 0.161556 0.772580
Si Si2 0.001286 0.912524 0.522700
Si Si3 0.525237 0.203694 0.402726
Si Si4 0.978806 0.799215 0.095019
Si Si5 0.498740 0.912758 0.972020
Si Si6 0.467192 0.703608 0.685765
Si Si7 0.466801 0.171483 0.807368
O O1 0.983891 0.147129 0.723628
O O2 0.709292 0.124290 0.790689
O O3 0.950288 0.249811 0.783425
O O4 0.210194 0.125732 0.795871
O O5 0.753410 0.889254 0.496799
O O6 0.995444 0.869190 0.565295
O O7 0.253682 0.889217 0.497968
O O8 0.000000 0.000000 0.533197
O O9 0.293364 0.258461 0.413949
O O10 0.499995 0.128502 0.428705
O O11 0.508660 0.182559 0.355439
O O12 0.708268 0.759004 0.087551
O O13 0.992916 0.833612 0.141124
O O14 0.500000 0.000000 0.961747
O O15 0.174964 0.730235 0.689771
#
# Coordination Sequence:
#
# PCOD8190354 Si02
#       7
#     8   8   8   8   8   8   8
#     4  10  14  25  41  61 102 130 159 184 244 289
#     4  10  21  40  57  71  96 139 176 199 244 317
#     4  12  21  32  50  81 105 125 168 219 254 286
#     4  10  21  32  51  80 109 123 163 213 262 285
#     4  10  23  39  55  72  99 137 173 203 251 310
#     4  10  16  25  41  67  98 128 153 195 241 289
#     4  10  16  25  41  66  99 126 162 195 240 284
#
# _framework density 18.352979999999999
#
# number of rings (size 3 to 8) (size 9 to 14) (size 15 to 20)
#    0.000    1.714    5.714    1.714    0.000    3.429 
#    0.000    0.000    0.000    0.000    0.000    2.000 
#    0.000    0.000    0.000    0.000    0.000    0.000 
#
# Total GULP energy -347061.814874 kJ/mol
# GULP energy per Si atom -12395.064817 kJ/mol
# Density = 1.831121 g / cm^3
# Si number density = 18.352980 Si / 1000 Ang^3
#
#
#
# Elastic Constant Matrix: (Units=GPa)
#
#
# Indices 1 2 3 4 5 6 
#
# 1 131.4393 8.8216 27.0741 0.0000 0.0000 0.0000
# 2 8.8216 27.4976 44.4281 0.0000 0.0000 0.0000
# 3 27.0741 44.4281 126.1880 0.0000 0.0000 0.0000
# 4 0.0000 0.0000 0.0000 3.6915 0.0000 0.0000
# 5 0.0000 0.0000 0.0000 0.0000 25.7641 0.0000
# 6 0.0000 0.0000 0.0000 0.0000 0.0000 4.9570
#
#
#
# Elastic Compliance Matrix: (Units=1/GPa)
#
#
# Indices 1 2 3 4 5 6 
#
# 1 0.007963 0.000477 -0.001876 0.000000 0.000000 0.000000
# 2 0.000477 0.084378 -0.029810 0.000000 0.000000 0.000000
# 3 -0.001876 -0.029810 0.018823 0.000000 0.000000 0.000000
# 4 0.000000 0.000000 0.000000 0.270893 0.000000 0.000000
# 5 0.000000 0.000000 0.000000 0.000000 0.038814 0.000000
# 6 0.000000 0.000000 0.000000 0.000000 0.000000 0.201733
#
#
# Mechanical properties :
#
#
# Convention : Reuss Voigt Hill
#
# Bulk Modulus (GPa) = 20.51494 49.53027 35.02261
# Shear Modulus (GPa) = 7.12992 20.53593 13.83292
#
# Velocity S-wave (km/s) = 1.97315 3.34869 2.74837
# Velocity P-wave (km/s) = 4.04887 6.48057 5.40329
#
# Compressibility (1/GPa) = 0.04874496
#
# Stress axis : x y z
#
# Youngs Moduli (GPa) = 125.58786 11.85138 53.12707
#
# Poissons Ratio (x) = -0.00566 0.09969
# Poissons Ratio (y) = -0.05994 1.58373
# Poissons Ratio (z) = 0.23566 0.35329
#
# Static dielectric constant tensor:
#      x y z
#    x 5.194780 0.000000 0.000000 
#    y 0.000000 2.717910 0.000000 
#    z 0.000000 0.000000 3.542260 
# 
# 
# High freq. dielectric constant tensor:
#      x y z
#    x 1.750870 0.000000 0.000000 
#    y 0.000000 1.631670 0.000000 
#    z 0.000000 0.000000 1.728590 
# 
# From -- ./inp_files/10126.got.cif
#   From: 2010.03.12/outbox.cif.g09.slc.cpg/sg45_6_cif.got.tgz:10126.got - 2010.04.14 02:50:11.
