data_PCOD8190055
_publ_section_title
;
Structure prediction by ZEFSAII (Michael W. Deem and Ramdas Pophale) SiO2 
 PCOD8190055
Probable space group: I M M 2
;
_chemical_formula_sum "Si O2"
_cell_formula_units_Z 64
_cell_length_a 30.517799
_cell_length_b 8.532475
_cell_length_c 11.878937
_cell_angle_alpha 90.000000
_cell_angle_beta 90.000000
_cell_angle_gamma 90.000000
_cell_volume 3093.184404
_symmetry_space_group_name_H-M "I M M 2"
_symmetry_group_IT_number 44
_symmetry_cell_setting 'orthorhombic'
loop_
_space_group_symop_operation_xyz
x,y,z
-x,-y,z
-x,y,z
x,-y,z
1/2+x,1/2+y,1/2+z
1/2-x,1/2-y,1/2+z
1/2-x,1/2+y,1/2+z
1/2+x,1/2-y,1/2+z
loop_
_atom_site_type_symbol
_atom_site_label
_atom_site_fract_x
_atom_site_fract_y
_atom_site_fract_z
Si Si1 0.951133 0.178948 0.787530
Si Si2 0.204284 0.819347 0.757126
Si Si3 0.080131 0.178689 0.545158
Si Si4 0.629417 0.815837 0.666103
Si Si5 0.629493 0.818866 0.407064
Si Si6 0.671633 0.179227 0.035482
Si Si7 0.950992 0.681278 0.319576
Si Si8 0.294799 0.319507 0.812968
O O1 0.950623 0.202844 0.653034
O O2 0.917331 0.292196 0.849487
O O3 0.000000 0.220910 0.829431
O O4 0.939001 0.000000 0.817792
O O5 0.167184 0.781537 0.848339
O O6 0.200079 0.715590 0.645343
O O7 0.251694 0.786615 0.808341
O O8 0.199754 0.000000 0.723527
O O9 0.121034 0.293162 0.563472
O O10 0.053435 0.220517 0.433528
O O11 0.096776 0.000000 0.536740
O O12 0.625748 0.767018 0.536467
O O13 0.584594 0.762326 0.727837
O O14 0.670805 0.726288 0.716936
O O15 0.637127 0.000000 0.681453
O O16 0.642385 0.000000 0.395884
O O17 0.679171 0.000000 0.999270
O O18 0.684094 0.293235 0.934311
O O19 0.943233 0.500000 0.349176
O O20 0.000000 0.708932 0.270756
O O21 0.281751 0.500000 0.798628
#
# Coordination Sequence:
#
# PCOD8190055 Si02
#       8
#     8   8   8   8   8   8   8   8
#     4  10  22  40  62  90 128 170 212 263 322 381
#     4  12  26  45  68  95 130 170 213 263 320 378
#     4  11  21  37  62  94 128 167 209 259 321 382
#     4  10  23  43  64  90 129 170 213 264 319 377
#     4  11  24  42  65  93 127 168 216 266 319 381
#     4  12  24  42  68  98 131 167 211 263 320 379
#     4  10  21  38  62  91 125 168 215 263 317 377
#     4  12  26  44  68  98 130 168 214 261 319 381
#
# _framework density 20.690652
#
# number of rings (size 3 to 8) (size 9 to 14) (size 15 to 20)
#    0.000    1.000    2.500    4.500    1.750    3.000 
#    0.000    1.250    0.000    0.000    0.000    0.000 
#    0.000    0.000    0.000    0.000    0.000    0.000 
#
# Total GULP energy -396997.883156 kJ/mol
# GULP energy per Si atom -12406.183849 kJ/mol
# Density = 2.064356 g / cm^3
# Si number density = 20.690652 Si / 1000 Ang^3
#
#
#
# Elastic Constant Matrix: (Units=GPa)
#
#
# Indices 1 2 3 4 5 6 
#
# 1 122.1772 32.8825 34.5946 0.0000 0.0000 0.0000
# 2 32.8825 71.9187 33.1884 0.0000 0.0000 0.0000
# 3 34.5946 33.1884 119.4367 0.0000 0.0000 0.0000
# 4 0.0000 0.0000 0.0000 24.3349 0.0000 0.0000
# 5 0.0000 0.0000 0.0000 0.0000 -2.0529 0.0000
# 6 0.0000 0.0000 0.0000 0.0000 0.0000 24.3264
#
#
#
# Elastic Compliance Matrix: (Units=1/GPa)
#
#
# Indices 1 2 3 4 5 6 
#
# 1 0.009660 -0.003585 -0.001802 0.000000 0.000000 0.000000
# 2 -0.003585 0.017281 -0.003763 0.000000 0.000000 0.000000
# 3 -0.001802 -0.003763 0.009940 0.000000 0.000000 0.000000
# 4 0.000000 0.000000 0.000000 0.041093 0.000000 0.000000
# 5 0.000000 0.000000 0.000000 0.000000 -0.487105 0.000000
# 6 0.000000 0.000000 0.000000 0.000000 0.000000 0.041108
#
#
# Mechanical properties :
#
#
# Convention : Reuss Voigt Hill
#
# Bulk Modulus (GPa) = 53.82123 57.20704 55.51414
# Shear Modulus (GPa) = -14.55478 23.51281 4.47901
#
# Velocity S-wave (km/s) = -2.65514 3.37471 1.47291
# Velocity P-wave (km/s) = 4.08279 6.54932 5.45723
#
# Compressibility (1/GPa) = 0.01858003
#
# Stress axis : x y z
#
# Youngs Moduli (GPa) = 103.52054 57.86868 100.60123
#
# Poissons Ratio (x) = 0.20747 0.18126
# Poissons Ratio (y) = 0.37115 0.37860
# Poissons Ratio (z) = 0.18652 0.21778
#
# Static dielectric constant tensor:
#      x y z
#    x 3.764110 0.000000 0.000000 
#    y 0.000000 3.708980 0.000000 
#    z 0.000000 0.000000 3.743370 
# 
# 
# High freq. dielectric constant tensor:
#      x y z
#    x 1.818850 0.000000 0.000000 
#    y 0.000000 1.809850 0.000000 
#    z 0.000000 0.000000 1.810930 
# 
# From -- ./inp_files/15085.got.cif
#   From: 2010.03.12/outbox.cif.g09.slc.cpg/sg44_8_cif.got.tgz:15085.got - 2010.04.14 02:36:11.
