data_PCOD8190068
_publ_section_title
;
Structure prediction by ZEFSAII (Michael W. Deem and Ramdas Pophale) SiO2 
 PCOD8190068
Probable space group: I M M 2
;
_chemical_formula_sum "Si O2"
_cell_formula_units_Z 40
_cell_length_a 7.584549
_cell_length_b 9.228336
_cell_length_c 29.260997
_cell_angle_alpha 90.000000
_cell_angle_beta 90.000000
_cell_angle_gamma 90.000000
_cell_volume 2048.058133
_symmetry_space_group_name_H-M "I M M 2"
_symmetry_group_IT_number 44
_symmetry_cell_setting 'orthorhombic'
loop_
_space_group_symop_operation_xyz
x,y,z
-x,-y,z
-x,y,z
x,-y,z
1/2+x,1/2+y,1/2+z
1/2-x,1/2-y,1/2+z
1/2-x,1/2+y,1/2+z
1/2+x,1/2-y,1/2+z
loop_
_atom_site_type_symbol
_atom_site_label
_atom_site_fract_x
_atom_site_fract_y
_atom_site_fract_z
Si Si1 0.500000 0.827240 0.663530
Si Si2 0.701826 0.329622 0.992638
Si Si3 0.206808 0.165272 0.316408
Si Si4 0.301409 0.833502 0.216086
Si Si5 0.000000 0.671170 0.060633
Si Si6 0.709452 0.162791 0.903093
O O1 0.324389 0.770036 0.687476
O O2 0.500000 0.766259 0.611777
O O3 0.500000 0.000000 0.665826
O O4 0.500000 0.287229 0.004195
O O5 0.720392 0.500000 0.983727
O O6 0.823542 0.276451 0.034515
O O7 0.772975 0.250425 0.947404
O O8 0.298677 0.211647 0.269266
O O9 0.284640 0.263065 0.357241
O O10 0.000000 0.189474 0.309847
O O11 0.250650 0.000000 0.329036
O O12 0.500000 0.813920 0.197564
O O13 0.237439 0.000000 0.211140
O O14 0.000000 0.500000 0.063267
O O15 0.500000 0.165643 0.901137
O O16 0.783390 0.000000 0.906013
#
# Coordination Sequence:
#
# PCOD8190068 Si02
#       6
#     4   8   8   8   4   8
#     4  11  23  39  61  87 119 151 187 243 306 353
#     4   9  17  33  56  77 102 139 183 226 266 319
#     4   9  16  30  53  78 107 146 190 230 270 325
#     4  10  21  39  61  84 113 151 197 243 285 341
#     4   9  20  37  57  83 107 139 187 233 276 333
#     4   9  17  29  48  77 112 145 177 218 274 333
#
# _framework density 19.530694
#
# number of rings (size 3 to 8) (size 9 to 14) (size 15 to 20)
#    0.000    2.600    1.000    0.900    0.000    4.400 
#    1.800    4.500    0.000    2.400    0.000    0.000 
#    0.000    0.000    0.000    0.000    0.000    0.000 
#
# Total GULP energy -247996.697851 kJ/mol
# GULP energy per Si atom -12399.834893 kJ/mol
# Density = 1.948624 g / cm^3
# Si number density = 19.530694 Si / 1000 Ang^3
#
#
#
# Elastic Constant Matrix: (Units=GPa)
#
#
# Indices 1 2 3 4 5 6 
#
# 1 90.0452 37.7171 60.0340 0.0000 0.0000 0.0000
# 2 37.7171 86.8467 66.6542 0.0000 0.0000 0.0000
# 3 60.0340 66.6542 143.4458 0.0000 0.0000 0.0000
# 4 0.0000 0.0000 0.0000 28.5593 0.0000 0.0000
# 5 0.0000 0.0000 0.0000 0.0000 2.6335 0.0000
# 6 0.0000 0.0000 0.0000 0.0000 0.0000 12.2619
#
#
#
# Elastic Compliance Matrix: (Units=1/GPa)
#
#
# Indices 1 2 3 4 5 6 
#
# 1 0.015824 -0.002782 -0.005330 0.000000 0.000000 0.000000
# 2 -0.002782 0.018386 -0.007379 0.000000 0.000000 0.000000
# 3 -0.005330 -0.007379 0.012631 0.000000 0.000000 0.000000
# 4 0.000000 0.000000 0.000000 0.035015 0.000000 0.000000
# 5 0.000000 0.000000 0.000000 0.000000 0.379717 0.000000
# 6 0.000000 0.000000 0.000000 0.000000 0.000000 0.081554
#
#
# Mechanical properties :
#
#
# Convention : Reuss Voigt Hill
#
# Bulk Modulus (GPa) = 63.05437 72.12759 67.59098
# Shear Modulus (GPa) = 8.62969 19.08643 13.85806
#
# Velocity S-wave (km/s) = 2.10431 3.12950 2.66663
# Velocity P-wave (km/s) = 6.18539 7.07594 6.64560
#
# Compressibility (1/GPa) = 0.01585933
#
# Stress axis : x y z
#
# Youngs Moduli (GPa) = 63.19380 54.38903 79.17076
#
# Poissons Ratio (x) = 0.15128 0.42200
# Poissons Ratio (y) = 0.17577 0.58422
# Poissons Ratio (z) = 0.33684 0.40135
#
# Static dielectric constant tensor:
#      x y z
#    x 3.452030 0.000000 0.000000 
#    y 0.000000 3.473220 0.000000 
#    z 0.000000 0.000000 3.728150 
# 
# 
# High freq. dielectric constant tensor:
#      x y z
#    x 1.756530 0.000000 0.000000 
#    y 0.000000 1.742860 0.000000 
#    z 0.000000 0.000000 1.759030 
# 
# From -- ./inp_files/25927.got.cif
#   From: 2010.03.12/outbox.cif.g09.slc.cpg/sg44_13_cif.got.tgz:25927.got - 2010.04.14 02:36:11.
