data_PCOD8190260
_publ_section_title
;
Structure prediction by ZEFSAII (Michael W. Deem and Ramdas Pophale) SiO2 
 PCOD8190260
Probable space group: I M M 2
;
_chemical_formula_sum "Si O2"
_cell_formula_units_Z 40
_cell_length_a 13.567203
_cell_length_b 7.742474
_cell_length_c 21.314008
_cell_angle_alpha 90.000000
_cell_angle_beta 90.000000
_cell_angle_gamma 90.000000
_cell_volume 2238.902613
_symmetry_space_group_name_H-M "I M M 2"
_symmetry_group_IT_number 44
_symmetry_cell_setting 'orthorhombic'
loop_
_space_group_symop_operation_xyz
x,y,z
-x,-y,z
-x,y,z
x,-y,z
1/2+x,1/2+y,1/2+z
1/2-x,1/2-y,1/2+z
1/2-x,1/2+y,1/2+z
1/2+x,1/2-y,1/2+z
loop_
_atom_site_type_symbol
_atom_site_label
_atom_site_fract_x
_atom_site_fract_y
_atom_site_fract_z
Si Si1 0.113652 0.500000 0.907980
Si Si2 0.199443 0.811029 0.684526
Si Si3 0.889864 0.300833 0.558644
Si Si4 0.889861 0.202280 0.120992
Si Si5 0.386359 0.000000 0.260113
Si Si6 0.300777 0.300254 0.487591
O O1 0.125718 0.500000 0.834023
O O2 0.165263 0.325963 0.932609
O O3 0.000000 0.500000 0.928461
O O4 0.136316 0.804218 0.620766
O O5 0.315140 0.793154 0.668573
O O6 0.165956 0.670470 0.734434
O O7 0.182653 0.000000 0.714569
O O8 0.879732 0.500000 0.578694
O O9 0.814525 0.261743 0.502034
O O10 0.000000 0.253992 0.535633
O O11 0.000000 0.269836 0.134898
O O12 0.880338 0.000000 0.132321
O O13 0.863735 0.245040 0.049200
O O14 0.500000 0.000000 0.238928
O O15 0.316728 0.500000 0.467081
#
# Coordination Sequence:
#
# PCOD8190260 Si02
#       6
#     4   8   8   8   4   8
#     4  11  24  38  57  77 103 149 189 222 266 318
#     4  11  21  34  54  82 111 143 182 223 275 324
#     4   9  17  32  55  82 115 143 167 218 279 327
#     4   9  17  32  56  84 116 145 170 217 278 329
#     4  11  24  42  55  73 109 147 189 232 268 318
#     4   9  19  35  53  81 112 139 177 221 269 321
#
# _framework density 17.865895999999999
#
# number of rings (size 3 to 8) (size 9 to 14) (size 15 to 20)
#    0.000    2.200    2.000    2.400    5.600    4.000 
#    0.000    2.000    0.000    2.400    0.000    2.800 
#    0.000    0.000    0.000    0.000    0.000    0.000 
#
# Total GULP energy -247988.770980 kJ/mol
# GULP energy per Si atom -12399.438549 kJ/mol
# Density = 1.782523 g / cm^3
# Si number density = 17.865896 Si / 1000 Ang^3
#
#
#
# Elastic Constant Matrix: (Units=GPa)
#
#
# Indices 1 2 3 4 5 6 
#
# 1 151.6007 51.6755 45.2109 0.0000 0.0000 0.0000
# 2 51.6755 120.5855 47.6938 0.0000 0.0000 0.0000
# 3 45.2109 47.6938 63.2928 0.0000 0.0000 0.0000
# 4 0.0000 0.0000 0.0000 9.9356 0.0000 0.0000
# 5 0.0000 0.0000 0.0000 0.0000 22.2243 0.0000
# 6 0.0000 0.0000 0.0000 0.0000 0.0000 15.2085
#
#
#
# Elastic Compliance Matrix: (Units=1/GPa)
#
#
# Indices 1 2 3 4 5 6 
#
# 1 0.008647 -0.001799 -0.004821 0.000000 0.000000 0.000000
# 2 -0.001799 0.012188 -0.007899 0.000000 0.000000 0.000000
# 3 -0.004821 -0.007899 0.025196 0.000000 0.000000 0.000000
# 4 0.000000 0.000000 0.000000 0.100648 0.000000 0.000000
# 5 0.000000 0.000000 0.000000 0.000000 0.044996 0.000000
# 6 0.000000 0.000000 0.000000 0.000000 0.000000 0.065753
#
#
# Mechanical properties :
#
#
# Convention : Reuss Voigt Hill
#
# Bulk Modulus (GPa) = 58.84992 69.40437 64.12714
# Shear Modulus (GPa) = 17.11562 22.20028 19.65795
#
# Velocity S-wave (km/s) = 3.09852 3.52889 3.32068
# Velocity P-wave (km/s) = 6.76849 7.45223 7.11858
#
# Compressibility (1/GPa) = 0.01699238
#
# Stress axis : x y z
#
# Youngs Moduli (GPa) = 115.64346 82.04776 39.68862
#
# Poissons Ratio (x) = 0.14758 0.19136
# Poissons Ratio (y) = 0.20801 0.31351
# Poissons Ratio (z) = 0.55757 0.64812
#
# Static dielectric constant tensor:
#      x y z
#    x 3.654460 0.000000 0.000000 
#    y 0.000000 3.312060 0.000000 
#    z 0.000000 0.000000 2.861280 
# 
# 
# High freq. dielectric constant tensor:
#      x y z
#    x 1.705640 0.000000 0.000000 
#    y 0.000000 1.700210 0.000000 
#    z 0.000000 0.000000 1.641910 
# 
# From -- ./inp_files/23979.got.cif
#   From: 2010.03.12/outbox.cif.g09.slc.cpg/sg44_12_cif.got.tgz:23979.got - 2010.04.14 02:36:11.
