data_PCOD8190833
_publ_section_title
;
Structure prediction by ZEFSAII (Michael W. Deem and Ramdas Pophale) SiO2 
 PCOD8190833
Probable space group: I B A 2
;
_chemical_formula_sum "Si O2"
_cell_formula_units_Z 44
_cell_length_a 8.856411
_cell_length_b 10.470962
_cell_length_c 21.710354
_cell_angle_alpha 90.000000
_cell_angle_beta 90.000000
_cell_angle_gamma 90.000000
_cell_volume 2013.312784
_symmetry_space_group_name_H-M "I B A 2"
_symmetry_group_IT_number 45
_symmetry_cell_setting 'orthorhombic'
loop_
_space_group_symop_operation_xyz
x,y,z
-x,-y,z
-x,y,1/2+z
x,-y,1/2+z
1/2+x,1/2+y,1/2+z
1/2-x,1/2-y,1/2+z
1/2-x,1/2+y,z
1/2+x,1/2-y,z
loop_
_atom_site_type_symbol
_atom_site_label
_atom_site_fract_x
_atom_site_fract_y
_atom_site_fract_z
Si Si1 0.308456 0.414027 0.833670
Si Si2 0.528310 0.205479 0.874949
Si Si3 0.000000 0.000000 0.229522
Si Si4 0.755444 0.106298 0.435680
Si Si5 0.796741 0.891563 0.076835
Si Si6 0.890289 0.153009 0.121480
O O1 0.429063 0.300205 0.834320
O O2 0.133935 0.372350 0.827209
O O3 0.350354 0.491609 0.772279
O O4 0.333084 0.491987 0.897411
O O5 0.416811 0.115275 0.912795
O O6 0.646868 0.267126 0.923142
O O7 0.030546 0.872628 0.188140
O O8 0.742188 0.083519 0.507848
O O9 0.698947 0.785917 0.114349
O O10 0.971071 0.845796 0.072998
O O11 0.781790 0.029781 0.109986
#
# Coordination Sequence:
#
# PCOD8190833 Si02
#       6
#     8   8   4   8   8   8
#     4  11  22  40  61  98 131 176 215 278 346 403
#     4  10  23  35  61  98 129 171 214 263 352 412
#     4  10  22  44  70  86 138 174 238 284 334 414
#     4  11  21  38  62  94 136 167 217 275 347 405
#     4  10  23  42  68  95 136 171 231 282 338 407
#     4  10  25  44  66  97 127 184 232 278 339 393
#
# _framework density 21.854527999999998
#
# number of rings (size 3 to 8) (size 9 to 14) (size 15 to 20)
#    0.000    1.818    1.818    1.636   10.182    3.636 
#    3.273    0.000    8.000    0.000    0.000    0.000 
#    0.000    0.000    0.000    0.000    0.000    0.000 
#
# Total GULP energy -272648.069958 kJ/mol
# GULP energy per Si atom -12393.094089 kJ/mol
# Density = 2.180479 g / cm^3
# Si number density = 21.854528 Si / 1000 Ang^3
#
#
#
# Elastic Constant Matrix: (Units=GPa)
#
#
# Indices 1 2 3 4 5 6 
#
# 1 136.7559 44.3238 46.5208 0.0000 0.0000 0.0000
# 2 44.3238 88.4669 42.9403 0.0000 0.0000 0.0000
# 3 46.5208 42.9403 120.5600 0.0000 0.0000 0.0000
# 4 0.0000 0.0000 0.0000 25.5009 0.0000 0.0000
# 5 0.0000 0.0000 0.0000 0.0000 23.8712 0.0000
# 6 0.0000 0.0000 0.0000 0.0000 0.0000 54.2162
#
#
#
# Elastic Compliance Matrix: (Units=1/GPa)
#
#
# Indices 1 2 3 4 5 6 
#
# 1 0.009236 -0.003503 -0.002316 0.000000 0.000000 0.000000
# 2 -0.003503 0.014995 -0.003989 0.000000 0.000000 0.000000
# 3 -0.002316 -0.003989 0.010609 0.000000 0.000000 0.000000
# 4 0.000000 0.000000 0.000000 0.039214 0.000000 0.000000
# 5 0.000000 0.000000 0.000000 0.000000 0.041891 0.000000
# 6 0.000000 0.000000 0.000000 0.000000 0.000000 0.018445
#
#
# Mechanical properties :
#
#
# Convention : Reuss Voigt Hill
#
# Bulk Modulus (GPa) = 65.68876 68.15028 66.91952
# Shear Modulus (GPa) = 31.43057 34.85087 33.14072
#
# Velocity S-wave (km/s) = 3.79644 3.99767 3.89835
# Velocity P-wave (km/s) = 7.02423 7.24981 7.13791
#
# Compressibility (1/GPa) = 0.01522331
#
# Stress axis : x y z
#
# Youngs Moduli (GPa) = 108.27769 66.68895 94.25832
#
# Poissons Ratio (x) = 0.23361 0.21831
# Poissons Ratio (y) = 0.37930 0.37601
# Poissons Ratio (z) = 0.25078 0.26603
#
# Static dielectric constant tensor:
#      x y z
#    x 4.219530 0.000000 0.000000 
#    y 0.000000 3.996660 0.000000 
#    z 0.000000 0.000000 3.751420 
# 
# 
# High freq. dielectric constant tensor:
#      x y z
#    x 1.866710 0.000000 0.000000 
#    y 0.000000 1.855390 0.000000 
#    z 0.000000 0.000000 1.839520 
# 
# From -- ./inp_files/9517.got.cif
#   From: 2010.03.12/outbox.cif.g09.slc.cpg/sg45_5_cif.got.tgz:9517.got - 2010.04.14 02:50:11.
