data_PCOD8190420
_publ_section_title
;
Structure prediction by ZEFSAII (Michael W. Deem and Ramdas Pophale) SiO2 
 PCOD8190420
Probable space group: I B A 2
;
_chemical_formula_sum "Si O2"
_cell_formula_units_Z 56
_cell_length_a 18.125582
_cell_length_b 9.633706
_cell_length_c 14.107022
_cell_angle_alpha 90.000000
_cell_angle_beta 90.000000
_cell_angle_gamma 90.000000
_cell_volume 2463.319203
_symmetry_space_group_name_H-M "I B A 2"
_symmetry_group_IT_number 45
_symmetry_cell_setting 'orthorhombic'
loop_
_space_group_symop_operation_xyz
x,y,z
-x,-y,z
-x,y,1/2+z
x,-y,1/2+z
1/2+x,1/2+y,1/2+z
1/2-x,1/2-y,1/2+z
1/2-x,1/2+y,z
1/2+x,1/2-y,z
loop_
_atom_site_type_symbol
_atom_site_label
_atom_site_fract_x
_atom_site_fract_y
_atom_site_fract_z
Si Si1 0.350802 0.792032 0.822200
Si Si2 0.690394 0.410280 0.988742
Si Si3 0.645055 0.029761 0.449386
Si Si4 0.391936 0.930706 0.146592
Si Si5 0.037580 0.281173 0.682990
Si Si6 0.878460 0.180585 0.021396
Si Si7 0.242929 0.256674 0.155834
O O1 0.328440 0.713928 0.917956
O O2 0.424623 0.715547 0.777604
O O3 0.279543 0.796197 0.752852
O O4 0.372831 0.951117 0.851240
O O5 0.767740 0.479796 0.963959
O O6 0.627127 0.528937 0.974209
O O7 0.693339 0.357045 0.098531
O O8 0.617824 0.191044 0.446638
O O9 0.604376 0.941755 0.532379
O O10 0.452763 0.823616 0.188038
O O11 0.311823 0.883096 0.182970
O O12 0.406661 0.086501 0.179630
O O13 0.049999 0.186150 0.590259
O O14 0.805120 0.193565 0.084078
#
# Coordination Sequence:
#
# PCOD8190420 Si02
#       7
#     8   8   8   8   8   8   8
#     4  11  23  36  66  99 133 162 220 275 323 397
#     4  11  20  38  63  98 128 169 210 269 333 382
#     4  10  19  37  64  94 122 164 218 267 317 383
#     4  10  18  42  64  89 126 174 215 270 325 378
#     4   9  22  37  64  93 125 171 226 266 321 387
#     4   9  19  37  62  93 127 164 215 261 329 386
#     4  10  21  37  66  92 128 166 218 266 328 384
#
# _framework density 22.733553000000001
#
# number of rings (size 3 to 8) (size 9 to 14) (size 15 to 20)
#    0.000    2.000    2.857    1.714    2.000    1.143 
#    0.000    6.429    3.143    1.714    0.000    0.000 
#    0.000    0.000    0.000    0.000    0.000    0.000 
#
# Total GULP energy -346943.143898 kJ/mol
# GULP energy per Si atom -12390.826568 kJ/mol
# Density = 2.268181 g / cm^3
# Si number density = 22.733553 Si / 1000 Ang^3
#
#
#
# Elastic Constant Matrix: (Units=GPa)
#
#
# Indices 1 2 3 4 5 6 
#
# 1 58.4983 8.3031 7.1187 0.0000 0.0000 0.0000
# 2 8.3031 77.9534 35.7501 0.0000 0.0000 0.0000
# 3 7.1187 35.7501 88.4983 0.0000 0.0000 0.0000
# 4 0.0000 0.0000 0.0000 18.0236 0.0000 0.0000
# 5 0.0000 0.0000 0.0000 0.0000 21.3319 0.0000
# 6 0.0000 0.0000 0.0000 0.0000 0.0000 30.3382
#
#
#
# Elastic Compliance Matrix: (Units=1/GPa)
#
#
# Indices 1 2 3 4 5 6 
#
# 1 0.017403 -0.001487 -0.000799 0.000000 0.000000 0.000000
# 2 -0.001487 0.015872 -0.006292 0.000000 0.000000 0.000000
# 3 -0.000799 -0.006292 0.013906 0.000000 0.000000 0.000000
# 4 0.000000 0.000000 0.000000 0.055483 0.000000 0.000000
# 5 0.000000 0.000000 0.000000 0.000000 0.046878 0.000000
# 6 0.000000 0.000000 0.000000 0.000000 0.000000 0.032962
#
#
# Mechanical properties :
#
#
# Convention : Reuss Voigt Hill
#
# Bulk Modulus (GPa) = 33.30677 36.36598 34.83637
# Shear Modulus (GPa) = 23.84716 25.52394 24.68555
#
# Velocity S-wave (km/s) = 3.24232 3.35437 3.29882
# Velocity P-wave (km/s) = 5.35720 5.57079 5.46504
#
# Compressibility (1/GPa) = 0.03002393
#
# Stress axis : x y z
#
# Youngs Moduli (GPa) = 57.46186 63.00307 71.91272
#
# Poissons Ratio (x) = 0.09370 0.05746
# Poissons Ratio (y) = 0.08546 0.45249
# Poissons Ratio (z) = 0.04592 0.39643
#
# Static dielectric constant tensor:
#      x y z
#    x 3.821770 0.000000 0.000000 
#    y 0.000000 4.110910 0.000000 
#    z 0.000000 0.000000 4.186990 
# 
# 
# High freq. dielectric constant tensor:
#      x y z
#    x 1.871960 0.000000 0.000000 
#    y 0.000000 1.883760 0.000000 
#    z 0.000000 0.000000 1.889690 
# 
# From -- ./inp_files/6949.got.cif
#   From: 2010.03.12/outbox.cif.g09.slc.cpg/sg45_4_cif.got.tgz:6949.got - 2010.04.14 02:50:11.
