data_PCOD8190708
_publ_section_title
;
Structure prediction by ZEFSAII (Michael W. Deem and Ramdas Pophale) SiO2 
 PCOD8190708
Probable space group: I B A 2
;
_chemical_formula_sum "Si O2"
_cell_formula_units_Z 60
_cell_length_a 10.577507
_cell_length_b 9.053186
_cell_length_c 29.180395
_cell_angle_alpha 90.000000
_cell_angle_beta 90.000000
_cell_angle_gamma 90.000000
_cell_volume 2794.318660
_symmetry_space_group_name_H-M "I B A 2"
_symmetry_group_IT_number 45
_symmetry_cell_setting 'orthorhombic'
loop_
_space_group_symop_operation_xyz
x,y,z
-x,-y,z
-x,y,1/2+z
x,-y,1/2+z
1/2+x,1/2+y,1/2+z
1/2-x,1/2-y,1/2+z
1/2-x,1/2+y,z
1/2+x,1/2-y,z
loop_
_atom_site_type_symbol
_atom_site_label
_atom_site_fract_x
_atom_site_fract_y
_atom_site_fract_z
Si Si1 0.751100 0.754393 0.525160
Si Si2 0.856317 0.498769 0.964714
Si Si3 0.144129 0.511091 0.162548
Si Si4 0.191546 0.823337 0.809523
Si Si5 0.294788 0.299970 0.218681
Si Si6 0.500000 0.500000 0.253656
Si Si7 0.355029 0.046284 0.864659
Si Si8 0.142822 0.010295 0.084958
O O1 0.835881 0.632039 0.500586
O O2 0.839978 0.867250 0.552718
O O3 0.653722 0.665602 0.557740
O O4 0.677768 0.843609 0.486107
O O5 0.790902 0.474763 0.915051
O O6 0.000000 0.500000 0.951212
O O7 0.169645 0.371110 0.195623
O O8 0.157205 0.662230 0.189882
O O9 0.246481 0.506227 0.122187
O O10 0.000000 0.500000 0.143492
O O11 0.271585 0.739303 0.771131
O O12 0.274783 0.957172 0.827692
O O13 0.155732 0.718021 0.851625
O O14 0.063182 0.879198 0.786359
O O15 0.401126 0.426319 0.218779
O O16 0.500000 0.000000 0.861354
O O17 0.000000 0.000000 0.105337
#
# Coordination Sequence:
#
# PCOD8190708 Si02
#       8
#     8   8   8   8   8   4   8   8
#     4  10  22  42  67  95 130 169 218 260 330 393
#     4  10  21  40  66  93 130 171 212 267 321 386
#     4  12  28  45  68 100 133 173 223 277 333 396
#     4  12  23  43  65  95 131 176 222 269 326 386
#     4  12  25  45  69  93 134 174 226 269 332 390
#     4  12  24  42  70  94 126 182 220 272 324 392
#     4  11  24  40  64  97 134 171 221 271 323 384
#     4  11  25  43  69  99 132 170 216 273 329 399
#
# _framework density 21.472141000000001
#
# number of rings (size 3 to 8) (size 9 to 14) (size 15 to 20)
#    0.000    0.800    2.667    4.000    0.933    6.400 
#    0.000    0.000    2.933    0.000    0.000    0.000 
#    0.000    0.000    0.000    0.000    0.000    0.000 
#
# Total GULP energy -372032.095664 kJ/mol
# GULP energy per Si atom -12401.069855 kJ/mol
# Density = 2.142327 g / cm^3
# Si number density = 21.472141 Si / 1000 Ang^3
#
#
#
# Elastic Constant Matrix: (Units=GPa)
#
#
# Indices 1 2 3 4 5 6 
#
# 1 119.4303 25.9887 36.3619 0.0000 0.0000 0.0000
# 2 25.9887 112.7522 31.4552 0.0000 0.0000 0.0000
# 3 36.3619 31.4552 104.5622 0.0000 0.0000 0.0000
# 4 0.0000 0.0000 0.0000 27.7243 0.0000 0.0000
# 5 0.0000 0.0000 0.0000 0.0000 29.0452 0.0000
# 6 0.0000 0.0000 0.0000 0.0000 0.0000 31.4503
#
#
#
# Elastic Compliance Matrix: (Units=1/GPa)
#
#
# Indices 1 2 3 4 5 6 
#
# 1 0.009561 -0.001393 -0.002906 0.000000 0.000000 0.000000
# 2 -0.001393 0.009885 -0.002489 0.000000 0.000000 0.000000
# 3 -0.002906 -0.002489 0.011323 0.000000 0.000000 0.000000
# 4 0.000000 0.000000 0.000000 0.036069 0.000000 0.000000
# 5 0.000000 0.000000 0.000000 0.000000 0.034429 0.000000
# 6 0.000000 0.000000 0.000000 0.000000 0.000000 0.031796
#
#
# Mechanical properties :
#
#
# Convention : Reuss Voigt Hill
#
# Bulk Modulus (GPa) = 58.16488 58.26182 58.21335
# Shear Modulus (GPa) = 32.81491 33.83989 33.32740
#
# Velocity S-wave (km/s) = 3.91353 3.97418 3.94397
# Velocity P-wave (km/s) = 6.89698 6.94632 6.92170
#
# Compressibility (1/GPa) = 0.01719250
#
# Stress axis : x y z
#
# Youngs Moduli (GPa) = 104.59244 101.16845 88.31610
#
# Poissons Ratio (x) = 0.14094 0.25663
# Poissons Ratio (y) = 0.14571 0.21983
# Poissons Ratio (z) = 0.30392 0.25182
#
# Static dielectric constant tensor:
#      x y z
#    x 3.782240 0.000000 0.000000 
#    y 0.000000 4.104300 0.000000 
#    z 0.000000 0.000000 4.058160 
# 
# 
# High freq. dielectric constant tensor:
#      x y z
#    x 1.837170 0.000000 0.000000 
#    y 0.000000 1.861740 0.000000 
#    z 0.000000 0.000000 1.851590 
# 
# From -- ./inp_files/10028.got.cif
#   From: 2010.03.12/outbox.cif.g09.slc.cpg/sg45_6_cif.got.tgz:10028.got - 2010.04.14 02:50:11.
