data_PCOD8190073
_publ_section_title
;
Structure prediction by ZEFSAII (Michael W. Deem and Ramdas Pophale) SiO2 
 PCOD8190073
Probable space group: I M M 2
;
_chemical_formula_sum "Si O2"
_cell_formula_units_Z 64
_cell_length_a 21.919887
_cell_length_b 9.108129
_cell_length_c 15.353312
_cell_angle_alpha 90.000000
_cell_angle_beta 90.000000
_cell_angle_gamma 90.000000
_cell_volume 3065.275820
_symmetry_space_group_name_H-M "I M M 2"
_symmetry_group_IT_number 44
_symmetry_cell_setting 'orthorhombic'
loop_
_space_group_symop_operation_xyz
x,y,z
-x,-y,z
-x,y,z
x,-y,z
1/2+x,1/2+y,1/2+z
1/2-x,1/2-y,1/2+z
1/2-x,1/2+y,1/2+z
1/2+x,1/2-y,1/2+z
loop_
_atom_site_type_symbol
_atom_site_label
_atom_site_fract_x
_atom_site_fract_y
_atom_site_fract_z
Si Si1 0.571935 0.163143 0.427840
Si Si2 0.307886 0.171163 0.833674
Si Si3 0.927734 0.161663 0.089222
Si Si4 0.932339 0.667282 0.259185
Si Si5 0.303701 0.675273 0.010114
Si Si6 0.896892 0.667111 0.741612
Si Si7 0.760760 0.670237 0.680396
Si Si8 0.433552 0.669529 0.077318
O O1 0.500000 0.155985 0.439374
O O2 0.601291 0.256999 0.505916
O O3 0.589258 0.237691 0.335951
O O4 0.600421 0.000000 0.432971
O O5 0.382003 0.186401 0.834650
O O6 0.284790 0.244996 0.744606
O O7 0.288334 0.000000 0.836979
O O8 0.282154 0.256563 0.918044
O O9 0.908583 0.241960 0.176940
O O10 0.000000 0.155453 0.080479
O O11 0.899042 0.000000 0.092445
O O12 0.936123 0.500000 0.227736
O O13 0.000000 0.719717 0.291284
O O14 0.294086 0.500000 0.009498
O O15 0.263353 0.747759 0.086832
O O16 0.375392 0.720805 0.020632
O O17 0.919962 0.500000 0.740789
O O18 0.825769 0.680499 0.725312
O O19 0.935534 0.750552 0.669641
O O20 0.741007 0.500000 0.667483
O O21 0.500000 0.699712 0.031461
O O22 0.425130 0.500000 0.098325
#
# Coordination Sequence:
#
# PCOD8190073 Si02
#       8
#     8   8   8   8   8   8   8   8
#     4   9  16  27  45  70 103 143 185 229 280 337
#     4  11  23  40  63  90 117 151 194 240 293 352
#     4   9  17  29  46  71 104 140 179 225 276 330
#     4   9  19  37  59  82 111 147 185 229 284 346
#     4  10  21  39  62  87 119 157 196 242 291 345
#     4   9  18  32  51  76 106 145 192 239 284 336
#     4  10  21  40  62  84 114 152 195 246 296 344
#     4   9  18  32  52  81 117 154 189 230 286 345
#
# _framework density 20.879034000000001
#
# number of rings (size 3 to 8) (size 9 to 14) (size 15 to 20)
#    0.000    2.500    0.000    1.875    0.000    5.250 
#    2.250    1.250    0.000    0.000    0.000    0.000 
#    0.000    0.000    0.000    0.000    0.000    0.000 
#
# Total GULP energy -396643.744941 kJ/mol
# GULP energy per Si atom -12395.117029 kJ/mol
# Density = 2.083151 g / cm^3
# Si number density = 20.879034 Si / 1000 Ang^3
#
#
#
# Elastic Constant Matrix: (Units=GPa)
#
#
# Indices 1 2 3 4 5 6 
#
# 1 50.8173 23.0402 25.6251 0.0000 0.0000 0.0000
# 2 23.0402 105.8912 59.3372 0.0000 0.0000 0.0000
# 3 25.6251 59.3372 120.4840 0.0000 0.0000 0.0000
# 4 0.0000 0.0000 0.0000 31.9300 0.0000 0.0000
# 5 0.0000 0.0000 0.0000 0.0000 24.1853 0.0000
# 6 0.0000 0.0000 0.0000 0.0000 0.0000 19.4641
#
#
#
# Elastic Compliance Matrix: (Units=1/GPa)
#
#
# Indices 1 2 3 4 5 6 
#
# 1 0.022753 -0.003092 -0.003316 0.000000 0.000000 0.000000
# 2 -0.003092 0.013463 -0.005973 0.000000 0.000000 0.000000
# 3 -0.003316 -0.005973 0.011947 0.000000 0.000000 0.000000
# 4 0.000000 0.000000 0.000000 0.031318 0.000000 0.000000
# 5 0.000000 0.000000 0.000000 0.000000 0.041347 0.000000
# 6 0.000000 0.000000 0.000000 0.000000 0.000000 0.051377
#
#
# Mechanical properties :
#
#
# Convention : Reuss Voigt Hill
#
# Bulk Modulus (GPa) = 42.73516 54.79971 48.76744
# Shear Modulus (GPa) = 24.41786 26.39523 25.40654
#
# Velocity S-wave (km/s) = 3.42349 3.55941 3.49211
# Velocity P-wave (km/s) = 6.01161 6.57235 6.29823
#
# Compressibility (1/GPa) = 0.02339994
#
# Stress axis : x y z
#
# Youngs Moduli (GPa) = 43.95104 74.27492 83.70455
#
# Poissons Ratio (x) = 0.22968 0.27758
# Poissons Ratio (y) = 0.13591 0.49996
# Poissons Ratio (z) = 0.14575 0.44364
#
# Static dielectric constant tensor:
#      x y z
#    x 3.704580 0.000000 0.000000 
#    y 0.000000 3.907440 0.000000 
#    z 0.000000 0.000000 3.655240 
# 
# 
# High freq. dielectric constant tensor:
#      x y z
#    x 1.805980 0.000000 0.000000 
#    y 0.000000 1.816600 0.000000 
#    z 0.000000 0.000000 1.811350 
# 
# From -- ./inp_files/16869.got.cif
#   From: 2010.03.12/outbox.cif.g09.slc.cpg/sg44_9_cif.got.tgz:16869.got - 2010.04.14 02:36:11.
