data_PCOD8190625
_publ_section_title
;
Structure prediction by ZEFSAII (Michael W. Deem and Ramdas Pophale) SiO2 
 PCOD8190625
Probable space group: I B A 2
;
_chemical_formula_sum "Si O2"
_cell_formula_units_Z 64
_cell_length_a 5.140434
_cell_length_b 30.692190
_cell_length_c 19.054031
_cell_angle_alpha 90.000000
_cell_angle_beta 90.000000
_cell_angle_gamma 90.000000
_cell_volume 3006.176898
_symmetry_space_group_name_H-M "I B A 2"
_symmetry_group_IT_number 45
_symmetry_cell_setting 'orthorhombic'
loop_
_space_group_symop_operation_xyz
x,y,z
-x,-y,z
-x,y,1/2+z
x,-y,1/2+z
1/2+x,1/2+y,1/2+z
1/2-x,1/2-y,1/2+z
1/2-x,1/2+y,z
1/2+x,1/2-y,z
loop_
_atom_site_type_symbol
_atom_site_label
_atom_site_fract_x
_atom_site_fract_y
_atom_site_fract_z
Si Si1 0.135609 0.642395 0.379070
Si Si2 0.752130 0.451782 0.741964
Si Si3 0.631025 0.413922 0.881635
Si Si4 0.471649 0.224282 0.287291
Si Si5 0.187788 0.086629 0.036153
Si Si6 0.190768 0.642963 0.534342
Si Si7 0.508706 0.224128 0.122127
Si Si8 0.242054 0.048767 0.179500
O O1 0.351631 0.605917 0.359105
O O2 0.126556 0.680005 0.321898
O O3 0.212037 0.662168 0.455328
O O4 0.845366 0.623666 0.381459
O O5 0.726422 0.451044 0.826577
O O6 0.750411 0.500299 0.711052
O O7 0.505287 0.425828 0.711114
O O8 0.003704 0.426857 0.710556
O O9 0.614250 0.434307 0.960301
O O10 0.759076 0.239390 0.310586
O O11 0.488724 0.216500 0.204629
O O12 0.476532 0.105394 0.033297
O O13 0.210756 0.048933 0.095293
O O14 0.970755 0.122880 0.056733
O O15 0.094179 0.679104 0.587940
O O16 0.723471 0.259911 0.098055
#
# Coordination Sequence:
#
# PCOD8190625 Si02
#       8
#     8   8   8   8   8   8   8   8
#     4  10  21  36  57  84 111 148 195 238 286 341
#     4  10  21  38  58  85 115 145 186 233 282 345
#     4  10  21  38  58  83 116 150 190 240 291 342
#     4  10  21  36  53  78 113 150 189 233 284 338
#     4  10  21  38  58  83 116 150 190 240 291 342
#     4  10  21  36  57  84 111 148 195 238 286 341
#     4  10  21  36  53  78 113 150 189 233 284 338
#     4  10  21  38  58  85 115 145 186 233 282 345
#
# _framework density 21.2895
#
# number of rings (size 3 to 8) (size 9 to 14) (size 15 to 20)
#    0.000    2.000    0.000    3.000    0.000    4.000 
#    0.000    5.000    0.000    0.000    0.000    0.000 
#    0.000    0.000    0.000    0.000    0.000    0.000 
#
# Total GULP energy -396480.740032 kJ/mol
# GULP energy per Si atom -12390.023126 kJ/mol
# Density = 2.124104 g / cm^3
# Si number density = 21.289500 Si / 1000 Ang^3
#
#
#
# Elastic Constant Matrix: (Units=GPa)
#
#
# Indices 1 2 3 4 5 6 
#
# 1 147.8857 8.0771 43.4017 0.0000 0.0000 0.0000
# 2 8.0771 53.2485 54.4153 0.0000 0.0000 0.0000
# 3 43.4017 54.4153 146.8470 -0.0001 0.0000 0.0000
# 4 0.0000 0.0000 -0.0001 44.2033 0.0000 0.0000
# 5 0.0000 0.0000 0.0000 0.0000 32.5795 0.0000
# 6 0.0000 0.0000 0.0000 0.0000 0.0000 11.4049
#
#
#
# Elastic Compliance Matrix: (Units=1/GPa)
#
#
# Indices 1 2 3 4 5 6 
#
# 1 0.007512 0.001818 -0.002894 0.000000 0.000000 0.000000
# 2 0.001818 0.030665 -0.011901 0.000000 0.000000 0.000000
# 3 -0.002894 -0.011901 0.012075 0.000000 0.000000 0.000000
# 4 0.000000 0.000000 0.000000 0.022623 0.000000 0.000000
# 5 0.000000 0.000000 0.000000 0.000000 0.030694 0.000000
# 6 0.000000 0.000000 0.000000 0.000000 0.000000 0.087682
#
#
# Mechanical properties :
#
#
# Convention : Reuss Voigt Hill
#
# Bulk Modulus (GPa) = 41.15378 62.19662 51.67520
# Shear Modulus (GPa) = 22.19222 33.77666 27.98444
#
# Velocity S-wave (km/s) = 3.23213 3.98746 3.62950
# Velocity P-wave (km/s) = 5.77074 7.10478 6.47222
#
# Compressibility (1/GPa) = 0.02429911
#
# Stress axis : x y z
#
# Youngs Moduli (GPa) = 133.12082 32.61000 82.81620
#
# Poissons Ratio (x) = -0.05928 0.23965
# Poissons Ratio (y) = -0.24198 0.98556
# Poissons Ratio (z) = 0.38522 0.38808
#
# Static dielectric constant tensor:
#      x y z
#    x 0.373130 0.000000 0.000000 
#    y 0.000000 3.246380 0.000000 
#    z 0.000000 0.000000 4.109260 
# 
# 
# High freq. dielectric constant tensor:
#      x y z
#    x 1.872610 0.000000 0.000000 
#    y 0.000000 1.783540 0.000000 
#    z 0.000000 0.000000 1.843000 
# 
# From -- ./inp_files/7375.got.cif
#   From: 2010.03.12/outbox.cif.g09.slc.cpg/sg45_4_cif.got.tgz:7375.got - 2010.04.14 02:50:11.
