data_PCOD8190407
_publ_section_title
;
Structure prediction by ZEFSAII (Michael W. Deem and Ramdas Pophale) SiO2 
 PCOD8190407
Probable space group: I B A 2
;
_chemical_formula_sum "Si O2"
_cell_formula_units_Z 40
_cell_length_a 13.876975
_cell_length_b 15.324978
_cell_length_c 8.478445
_cell_angle_alpha 90.000000
_cell_angle_beta 90.000000
_cell_angle_gamma 90.000000
_cell_volume 1803.062881
_symmetry_space_group_name_H-M "I B A 2"
_symmetry_group_IT_number 45
_symmetry_cell_setting 'orthorhombic'
loop_
_space_group_symop_operation_xyz
x,y,z
-x,-y,z
-x,y,1/2+z
x,-y,1/2+z
1/2+x,1/2+y,1/2+z
1/2-x,1/2-y,1/2+z
1/2-x,1/2+y,z
1/2+x,1/2-y,z
loop_
_atom_site_type_symbol
_atom_site_label
_atom_site_fract_x
_atom_site_fract_y
_atom_site_fract_z
Si Si1 0.347348 0.369662 0.851920
Si Si2 0.334566 0.953245 0.347923
Si Si3 0.448325 0.201067 0.739623
Si Si4 0.195385 0.999927 0.094228
Si Si5 0.874235 0.353256 0.398531
O O1 0.420658 0.292738 0.819092
O O2 0.364280 0.439926 0.712148
O O3 0.237649 0.333513 0.859583
O O4 0.369205 0.422326 0.015334
O O5 0.406708 0.872759 0.357605
O O6 0.290257 0.956118 0.172075
O O7 0.240994 0.938735 0.458345
O O8 0.390511 0.042432 0.392617
O O9 0.563875 0.190857 0.756256
O O10 0.410123 0.190492 0.562251
#
# Coordination Sequence:
#
# PCOD8190407 Si02
#       5
#     8   8   8   8   8
#     4  10  22  42  66  94 124 172 211 270 315 380
#     4  10  18  36  60  89 133 163 196 254 324 384
#     4  12  24  38  64  94 131 170 216 258 318 387
#     4   8  18  37  60  91 121 162 212 250 319 363
#     4  10  25  39  55 100 129 167 207 260 329 378
#
# _framework density 22.184474000000002
#
# number of rings (size 3 to 8) (size 9 to 14) (size 15 to 20)
#    0.000    2.400    4.000    0.600    8.400    1.600 
#    0.000    0.000    0.000    3.600    5.200    0.000 
#    0.000    0.000    0.000    0.000    0.000    0.000 
#
# Total GULP energy -247812.309327 kJ/mol
# GULP energy per Si atom -12390.615466 kJ/mol
# Density = 2.213398 g / cm^3
# Si number density = 22.184474 Si / 1000 Ang^3
#
#
#
# Elastic Constant Matrix: (Units=GPa)
#
#
# Indices 1 2 3 4 5 6 
#
# 1 30.3789 38.7729 9.7463 0.0000 0.0000 0.0000
# 2 38.7729 116.3829 41.5609 0.0000 0.0000 0.0000
# 3 9.7463 41.5609 102.0471 0.0000 0.0000 0.0000
# 4 0.0000 0.0000 0.0000 38.1715 0.0000 0.0000
# 5 0.0000 0.0000 0.0000 0.0000 15.0094 0.0000
# 6 0.0000 0.0000 0.0000 0.0000 0.0000 29.2757
#
#
#
# Elastic Compliance Matrix: (Units=1/GPa)
#
#
# Indices 1 2 3 4 5 6 
#
# 1 0.057907 -0.020264 0.002722 0.000000 0.000000 0.000000
# 2 -0.020264 0.017146 -0.005048 0.000000 0.000000 0.000000
# 3 0.002722 -0.005048 0.011595 0.000000 0.000000 0.000000
# 4 0.000000 0.000000 0.000000 0.026198 0.000000 0.000000
# 5 0.000000 0.000000 0.000000 0.000000 0.066625 0.000000
# 6 0.000000 0.000000 0.000000 0.000000 0.000000 0.034158
#
#
# Mechanical properties :
#
#
# Convention : Reuss Voigt Hill
#
# Bulk Modulus (GPa) = 24.11401 47.66323 35.88862
# Shear Modulus (GPa) = 18.33987 27.07323 22.70655
#
# Velocity S-wave (km/s) = 2.87836 3.49717 3.20274
# Velocity P-wave (km/s) = 4.68401 6.15130 5.46710
#
# Compressibility (1/GPa) = 0.04146967
#
# Stress axis : x y z
#
# Youngs Moduli (GPa) = 17.26905 58.32351 86.24292
#
# Poissons Ratio (x) = 1.18186 -0.23478
# Poissons Ratio (y) = 0.34994 0.43532
# Poissons Ratio (z) = -0.04701 0.29440
#
# Static dielectric constant tensor:
#      x y z
#    x 3.533830 0.000000 0.000000 
#    y 0.000000 3.783270 0.000000 
#    z 0.000000 0.000000 4.211660 
# 
# 
# High freq. dielectric constant tensor:
#      x y z
#    x 1.837020 0.000000 0.000000 
#    y 0.000000 1.856660 0.000000 
#    z 0.000000 0.000000 1.887860 
# 
# From -- ./inp_files/2052.got.cif
#   From: 2010.03.12/outbox.cif.g09.slc.cpg/sg45_2_cif.got.tgz:2052.got - 2010.04.14 02:50:11.
