data_PCOD8190271
_publ_section_title
;
Structure prediction by ZEFSAII (Michael W. Deem and Ramdas Pophale) SiO2 
 PCOD8190271
Probable space group: I M M 2
;
_chemical_formula_sum "Si O2"
_cell_formula_units_Z 34
_cell_length_a 15.305839
_cell_length_b 9.768050
_cell_length_c 10.830153
_cell_angle_alpha 90.000000
_cell_angle_beta 90.000000
_cell_angle_gamma 90.000000
_cell_volume 1619.196688
_symmetry_space_group_name_H-M "I M M 2"
_symmetry_group_IT_number 44
_symmetry_cell_setting 'orthorhombic'
loop_
_space_group_symop_operation_xyz
x,y,z
-x,-y,z
-x,y,z
x,-y,z
1/2+x,1/2+y,1/2+z
1/2-x,1/2-y,1/2+z
1/2-x,1/2+y,1/2+z
1/2+x,1/2-y,1/2+z
loop_
_atom_site_type_symbol
_atom_site_label
_atom_site_fract_x
_atom_site_fract_y
_atom_site_fract_z
Si Si1 0.627298 0.500000 0.314011
Si Si2 0.500000 0.348825 0.930868
Si Si3 0.292926 0.000000 0.673620
Si Si4 0.102092 0.000000 0.084376
Si Si5 0.000000 0.798100 0.712321
Si Si6 0.500000 0.000000 0.282042
Si Si7 0.662617 0.710331 0.779916
Si Si8 0.802650 0.500000 0.881457
O O1 0.692630 0.500000 0.202081
O O2 0.658422 0.500000 0.456844
O O3 0.579633 0.355779 0.292043
O O4 0.500000 0.500000 0.871118
O O5 0.500000 0.360217 0.076916
O O6 0.410313 0.279818 0.886700
O O7 0.329441 0.865923 0.739752
O O8 0.302902 0.000000 0.528026
O O9 0.126375 0.134231 0.159966
O O10 0.000000 0.000000 0.048413
O O11 0.000000 0.634832 0.698405
O O12 0.407026 0.000000 0.354258
O O13 0.751452 0.635260 0.829304
#
# Coordination Sequence:
#
# PCOD8190271 Si02
#       8
#     4   4   4   4   4   2   8   4
#     4  11  23  43  67  99 131 185 236 269 328 424
#     4  12  20  47  73  95 135 182 228 276 335 425
#     4  12  28  42  66 106 138 177 230 283 344 400
#     4  11  21  43  72  97 134 179 233 278 335 414
#     4  11  24  41  72  96 130 180 234 282 342 392
#     4  12  28  44  64 106 140 172 224 296 354 384
#     4  11  25  44  71 101 136 183 224 280 344 405
#     4  11  26  49  68  97 144 183 225 282 342 411
#
# _framework density 20.998065
#
# number of rings (size 3 to 8) (size 9 to 14) (size 15 to 20)
#    0.000    0.706    5.882    2.824    6.588    2.353 
#    4.235    0.000    0.000    0.000    0.000    0.000 
#    0.000    0.000    0.000    0.000    0.000    0.000 
#
# Total GULP energy -210610.388151 kJ/mol
# GULP energy per Si atom -12388.846362 kJ/mol
# Density = 2.095027 g / cm^3
# Si number density = 20.998065 Si / 1000 Ang^3
#
#
#
# Elastic Constant Matrix: (Units=GPa)
#
#
# Indices 1 2 3 4 5 6 
#
# 1 130.8512 34.5037 42.4563 0.0000 0.0000 0.0000
# 2 34.5037 179.8392 40.4152 0.0000 0.0000 0.0000
# 3 42.4563 40.4152 124.4065 0.0000 0.0000 0.0000
# 4 0.0000 0.0000 0.0000 18.8765 0.0000 0.0000
# 5 0.0000 0.0000 0.0000 0.0000 31.5565 0.0000
# 6 0.0000 0.0000 0.0000 0.0000 0.0000 -110.1077
#
#
#
# Elastic Compliance Matrix: (Units=1/GPa)
#
#
# Indices 1 2 3 4 5 6 
#
# 1 0.008788 -0.001092 -0.002644 0.000000 0.000000 0.000000
# 2 -0.001092 0.006134 -0.001620 0.000000 0.000000 0.000000
# 3 -0.002644 -0.001620 0.009467 0.000000 0.000000 0.000000
# 4 0.000000 0.000000 0.000000 0.052976 0.000000 0.000000
# 5 0.000000 0.000000 0.000000 0.000000 0.031689 0.000000
# 6 0.000000 0.000000 0.000000 0.000000 0.000000 -0.009082
#
#
# Mechanical properties :
#
#
# Convention : Reuss Voigt Hill
#
# Bulk Modulus (GPa) = 73.11853 74.42750 73.77301
# Shear Modulus (GPa) = 43.38619 9.24649 26.31634
#
# Velocity S-wave (km/s) = 4.55048 2.10073 3.54400
# Velocity P-wave (km/s) = 7.90609 6.43475 7.20806
#
# Compressibility (1/GPa) = 0.01367642
#
# Stress axis : x y z
#
# Youngs Moduli (GPa) = 113.78899 163.02343 105.63043
#
# Poissons Ratio (x) = 0.17799 0.27934
# Poissons Ratio (y) = 0.12423 0.17114
# Poissons Ratio (z) = 0.30091 0.26412
#
# Static dielectric constant tensor:
#      x y z
#    x 4.090770 0.000000 0.000000 
#    y 0.000000 3.827040 0.000000 
#    z 0.000000 0.000000 3.740620 
# 
# 
# High freq. dielectric constant tensor:
#      x y z
#    x 1.825960 0.000000 0.000000 
#    y 0.000000 1.828080 0.000000 
#    z 0.000000 0.000000 1.831620 
# 
# From -- ./inp_files/12877.got.cif
#   From: 2010.03.12/outbox.cif.g09.slc.cpg/sg44_7_cif.got.tgz:12877.got - 2010.04.14 02:36:11.
