data_PCOD8190218
_publ_section_title
;
Structure prediction by ZEFSAII (Michael W. Deem and Ramdas Pophale) SiO2 
 PCOD8190218
Probable space group: I M M 2
;
_chemical_formula_sum "Si O2"
_cell_formula_units_Z 48
_cell_length_a 10.302936
_cell_length_b 17.281936
_cell_length_c 13.457167
_cell_angle_alpha 90.000000
_cell_angle_beta 90.000000
_cell_angle_gamma 90.000000
_cell_volume 2396.111571
_symmetry_space_group_name_H-M "I M M 2"
_symmetry_group_IT_number 44
_symmetry_cell_setting 'orthorhombic'
loop_
_space_group_symop_operation_xyz
x,y,z
-x,-y,z
-x,y,z
x,-y,z
1/2+x,1/2+y,1/2+z
1/2-x,1/2-y,1/2+z
1/2-x,1/2+y,1/2+z
1/2+x,1/2-y,1/2+z
loop_
_atom_site_type_symbol
_atom_site_label
_atom_site_fract_x
_atom_site_fract_y
_atom_site_fract_z
Si Si1 0.000000 0.092256 0.695650
Si Si2 0.650079 0.843650 0.196419
Si Si3 0.356282 0.000000 0.508854
Si Si4 0.000000 0.092063 0.932719
Si Si5 0.354895 0.000000 0.275982
Si Si6 0.739568 0.849443 0.605838
Si Si7 0.643843 0.225056 0.783350
Si Si8 0.247318 0.191060 0.993317
O O1 0.116469 0.141532 0.649076
O O2 0.000000 0.101908 0.814245
O O3 0.000000 0.000000 0.668323
O O4 0.500000 0.831327 0.229921
O O5 0.740399 0.779967 0.247112
O O6 0.713018 0.923217 0.235493
O O7 0.659891 0.844881 0.077468
O O8 0.355163 0.000000 0.392404
O O9 0.282731 0.925130 0.543531
O O10 0.500000 0.000000 0.553016
O O11 0.877212 0.136078 0.980211
O O12 0.000000 0.000000 0.960272
O O13 0.500000 0.000000 0.231948
O O14 0.643265 0.843369 0.700897
O O15 0.714637 0.778072 0.530025
O O16 0.500000 0.263791 0.784296
O O17 0.672695 0.192066 0.891651
#
# Coordination Sequence:
#
# PCOD8190218 Si02
#       8
#     4   8   4   4   4   8   8   8
#     4  11  22  46  70  98 134 181 236 286 340 412
#     4  10  23  41  66  91 128 175 220 274 338 414
#     4  11  22  39  64  95 128 171 211 271 340 411
#     4  11  26  46  70 101 137 190 241 292 344 414
#     4   9  20  42  63  90 123 165 219 265 334 413
#     4  11  24  40  65  96 133 170 222 277 343 401
#     4  11  24  41  61  96 132 168 220 279 337 401
#     4  11  25  39  69  93 136 172 228 277 345 403
#
# _framework density 20.032454999999999
#
# number of rings (size 3 to 8) (size 9 to 14) (size 15 to 20)
#    0.000    1.333    2.500    2.000   14.000    0.000 
#    0.000    0.417    0.000    0.000    0.000    0.000 
#    0.000    0.000    0.000    0.000    0.000    0.000 
#
# Total GULP energy -297423.102159 kJ/mol
# GULP energy per Si atom -12392.629257 kJ/mol
# Density = 1.998686 g / cm^3
# Si number density = 20.032455 Si / 1000 Ang^3
#
#
#
# Elastic Constant Matrix: (Units=GPa)
#
#
# Indices 1 2 3 4 5 6 
#
# 1 126.1681 48.1453 32.6442 0.0000 0.0000 0.0000
# 2 48.1453 126.4621 37.1255 0.0001 0.0000 0.0000
# 3 32.6442 37.1255 82.8865 0.0002 0.0001 0.0000
# 4 0.0000 0.0001 0.0002 43.8887 0.0000 0.0000
# 5 0.0000 0.0000 0.0001 0.0000 28.5490 0.0000
# 6 0.0000 0.0000 0.0000 0.0000 0.0000 38.8861
#
#
#
# Elastic Compliance Matrix: (Units=1/GPa)
#
#
# Indices 1 2 3 4 5 6 
#
# 1 0.009701 -0.002961 -0.002494 0.000000 0.000000 0.000000
# 2 -0.002961 0.010008 -0.003317 0.000000 0.000000 0.000000
# 3 -0.002494 -0.003317 0.014533 0.000000 0.000000 0.000000
# 4 0.000000 0.000000 0.000000 0.022785 0.000000 0.000000
# 5 0.000000 0.000000 0.000000 0.000000 0.035027 0.000000
# 6 0.000000 0.000000 0.000000 0.000000 0.000000 0.025716
#
#
# Mechanical properties :
#
#
# Convention : Reuss Voigt Hill
#
# Bulk Modulus (GPa) = 59.88745 63.48295 61.68520
# Shear Modulus (GPa) = 35.49082 36.77154 36.13118
#
# Velocity S-wave (km/s) = 4.21368 4.28904 4.25153
# Velocity P-wave (km/s) = 7.32350 7.50244 7.41351
#
# Compressibility (1/GPa) = 0.01669799
#
# Stress axis : x y z
#
# Youngs Moduli (GPa) = 103.07920 99.91518 68.81033
#
# Poissons Ratio (x) = 0.29585 0.17165
# Poissons Ratio (y) = 0.30522 0.22822
# Poissons Ratio (z) = 0.25713 0.33139
#
# Static dielectric constant tensor:
#      x y z
#    x 3.678450 0.000000 0.000000 
#    y 0.000000 3.876270 0.000000 
#    z 0.000000 0.000000 3.889750 
# 
# 
# High freq. dielectric constant tensor:
#      x y z
#    x 1.778960 0.000000 0.000000 
#    y 0.000000 1.785600 0.000000 
#    z 0.000000 0.000000 1.796660 
# 
# From -- ./inp_files/16253.got.cif
#   From: 2010.03.12/outbox.cif.g09.slc.cpg/sg44_9_cif.got.tgz:16253.got - 2010.04.14 02:36:11.
