data_PCOD8190430
_publ_section_title
;
Structure prediction by ZEFSAII (Michael W. Deem and Ramdas Pophale) SiO2 
 PCOD8190430
Probable space group: I B A 2
;
_chemical_formula_sum "Si O2"
_cell_formula_units_Z 64
_cell_length_a 27.338266
_cell_length_b 14.728366
_cell_length_c 8.651736
_cell_angle_alpha 90.000000
_cell_angle_beta 90.000000
_cell_angle_gamma 90.000000
_cell_volume 3483.604088
_symmetry_space_group_name_H-M "I B A 2"
_symmetry_group_IT_number 45
_symmetry_cell_setting 'orthorhombic'
loop_
_space_group_symop_operation_xyz
x,y,z
-x,-y,z
-x,y,1/2+z
x,-y,1/2+z
1/2+x,1/2+y,1/2+z
1/2-x,1/2-y,1/2+z
1/2-x,1/2+y,z
1/2+x,1/2-y,z
loop_
_atom_site_type_symbol
_atom_site_label
_atom_site_fract_x
_atom_site_fract_y
_atom_site_fract_z
Si Si1 0.947681 0.596267 0.697250
Si Si2 0.217630 0.405095 0.063520
Si Si3 0.447681 0.096267 0.561971
Si Si4 0.328553 0.591990 0.559500
Si Si5 0.671447 0.408010 0.199720
Si Si6 0.217630 0.594905 0.195700
Si Si7 0.135718 0.284732 0.561121
Si Si8 0.364282 0.215268 0.698099
O O1 0.929918 0.500000 0.629611
O O2 0.909393 0.673711 0.653744
O O3 1.000000 0.624533 0.629611
O O4 0.951810 0.587071 0.879611
O O5 0.273364 0.391398 0.120337
O O6 0.211116 0.401978 0.879610
O O7 0.197221 0.500000 0.129610
O O8 0.186784 0.325652 0.141762
O O9 0.409393 0.173712 0.605476
O O10 0.325342 0.576427 0.379610
O O11 0.351468 0.500000 0.629610
O O12 0.362707 0.677485 0.600795
O O13 0.726636 0.391397 0.138883
O O14 0.637293 0.322515 0.158425
O O15 0.186784 0.674348 0.117458
O O16 0.128994 0.302201 0.379610
#
# Coordination Sequence:
#
# PCOD8190430 Si02
#       8
#     8   8   8   8   8   8   8   8
#     4  11  22  38  58  81 107 136 166 206 255 308
#     4  10  19  32  49  74 105 140 176 214 256 303
#     4  11  22  38  58  81 107 136 166 206 255 308
#     4   9  20  35  52  73 103 139 177 217 258 300
#     4   9  20  35  52  73 103 139 177 217 258 300
#     4  10  19  32  49  74 105 140 176 214 256 303
#     4  11  21  34  52  77 105 137 174 214 256 306
#     4  11  21  34  52  77 105 137 174 214 256 306
#
# _framework density 18.371777999999999
#
# number of rings (size 3 to 8) (size 9 to 14) (size 15 to 20)
#    0.000    1.750    0.000    6.000    0.000    3.000 
#    0.000    0.000    0.000    0.750    0.000    5.250 
#    0.000    0.000    0.000    0.000    0.000    0.000 
#
# Total GULP energy -396882.366124 kJ/mol
# GULP energy per Si atom -12402.573941 kJ/mol
# Density = 1.832996 g / cm^3
# Si number density = 18.371778 Si / 1000 Ang^3
#
#
#
# Elastic Constant Matrix: (Units=GPa)
#
#
# Indices 1 2 3 4 5 6 
#
# 1 81.5038 57.2280 35.2749 0.0000 0.0000 0.0000
# 2 57.2280 127.6523 50.7583 0.0000 0.0000 0.0000
# 3 35.2749 50.7583 99.7651 0.0000 0.0000 0.0000
# 4 0.0000 0.0000 0.0000 31.3623 0.0000 0.0000
# 5 0.0000 0.0000 0.0000 0.0000 26.5672 0.0000
# 6 0.0000 0.0000 0.0000 0.0000 0.0000 24.5356
#
#
#
# Elastic Compliance Matrix: (Units=1/GPa)
#
#
# Indices 1 2 3 4 5 6 
#
# 1 0.018560 -0.007160 -0.002920 0.000000 0.000000 0.000000
# 2 -0.007160 0.012582 -0.003870 0.000000 0.000000 0.000000
# 3 -0.002920 -0.003870 0.013025 0.000000 0.000000 0.000000
# 4 0.000000 0.000000 0.000000 0.031885 0.000000 0.000000
# 5 0.000000 0.000000 0.000000 0.000000 0.037640 0.000000
# 6 0.000000 0.000000 0.000000 0.000000 0.000000 0.040757
#
#
# Mechanical properties :
#
#
# Convention : Reuss Voigt Hill
#
# Bulk Modulus (GPa) = 61.46925 66.16041 63.81483
# Shear Modulus (GPa) = 26.62792 27.53703 27.08248
#
# Velocity S-wave (km/s) = 3.81122 3.87573 3.84361
# Velocity P-wave (km/s) = 7.27312 7.49123 7.38298
#
# Compressibility (1/GPa) = 0.01626830
#
# Stress axis : x y z
#
# Youngs Moduli (GPa) = 53.87841 79.47559 76.77566
#
# Poissons Ratio (x) = 0.56903 0.22417
# Poissons Ratio (y) = 0.38576 0.29713
# Poissons Ratio (z) = 0.15731 0.30758
#
# Static dielectric constant tensor:
#      x y z
#    x 3.225640 0.000000 0.000000 
#    y 0.000000 3.706150 0.000000 
#    z 0.000000 0.000000 3.444180 
# 
# 
# High freq. dielectric constant tensor:
#      x y z
#    x 1.689170 0.000000 0.000000 
#    y 0.000000 1.713580 0.000000 
#    z 0.000000 0.000000 1.725500 
# 
# From -- ./inp_files/1994.got.cif
#   From: 2010.03.12/outbox.cif.g09.slc.cpg/sg45_1_cif.got.tgz:1994.got - 2010.04.14 02:50:11.
