data_PCOD8190387
_publ_section_title
;
Structure prediction by ZEFSAII (Michael W. Deem and Ramdas Pophale) SiO2 
 PCOD8190387
Probable space group: I B A 2
;
_chemical_formula_sum "Si O2"
_cell_formula_units_Z 60
_cell_length_a 19.609228
_cell_length_b 14.103576
_cell_length_c 13.259505
_cell_angle_alpha 90.000000
_cell_angle_beta 90.000000
_cell_angle_gamma 90.000000
_cell_volume 3667.051851
_symmetry_space_group_name_H-M "I B A 2"
_symmetry_group_IT_number 45
_symmetry_cell_setting 'orthorhombic'
loop_
_space_group_symop_operation_xyz
x,y,z
-x,-y,z
-x,y,1/2+z
x,-y,1/2+z
1/2+x,1/2+y,1/2+z
1/2-x,1/2-y,1/2+z
1/2-x,1/2+y,z
1/2+x,1/2-y,z
loop_
_atom_site_type_symbol
_atom_site_label
_atom_site_fract_x
_atom_site_fract_y
_atom_site_fract_z
Si Si1 0.803429 0.260561 0.451340
Si Si2 0.587355 0.949918 0.993859
Si Si3 0.730620 0.097698 0.557199
Si Si4 0.600581 0.147030 0.088203
Si Si5 0.035778 0.338315 0.672914
Si Si6 0.251841 0.892757 0.107096
Si Si7 0.671866 0.242679 0.718739
Si Si8 0.500000 0.000000 0.316183
O O1 0.781900 0.155480 0.486221
O O2 0.879103 0.281125 0.497431
O O3 0.750358 0.338058 0.498389
O O4 0.803399 0.271839 0.332320
O O5 0.668759 0.938860 0.987013
O O6 0.558772 0.864691 0.060434
O O7 0.567051 0.051784 0.041573
O O8 0.555488 0.943543 0.882671
O O9 0.705041 0.158731 0.652637
O O10 0.768498 0.003059 0.597495
O O11 0.543795 0.194575 0.162480
O O12 0.669960 0.119517 0.149855
O O13 0.088907 0.258766 0.712372
O O14 0.042116 0.427132 0.747833
O O15 0.197581 0.845076 0.181945
#
# Coordination Sequence:
#
# PCOD8190387 Si02
#       8
#     8   8   8   8   8   8   8   4
#     4   9  19  33  52  75 101 136 177 208 258 310
#     4  10  18  31  44  72 109 131 170 202 254 320
#     4   9  19  35  52  72 107 139 168 223 252 301
#     4   9  16  34  44  69 106 134 158 215 250 304
#     4  11  20  29  47  74 109 136 168 211 257 310
#     4   8  19  34  52  72 107 136 174 213 259 302
#     4  10  20  33  51  80 103 136 179 210 260 317
#     4  12  18  26  48  78 100 150 162 198 264 328
#
# _framework density 16.361917999999999
#
# number of rings (size 3 to 8) (size 9 to 14) (size 15 to 20)
#    0.800    1.600    2.667    0.800    0.000    2.133 
#    0.000    0.000    0.000    0.800    0.000    1.867 
#    0.000    0.000    0.000    0.000    0.000    0.000 
#
# Total GULP energy -371723.378184 kJ/mol
# GULP energy per Si atom -12390.779273 kJ/mol
# Density = 1.632468 g / cm^3
# Si number density = 16.361918 Si / 1000 Ang^3
#
#
#
# Elastic Constant Matrix: (Units=GPa)
#
#
# Indices 1 2 3 4 5 6 
#
# 1 63.4882 29.6749 28.3965 0.0000 0.0000 0.0000
# 2 29.6749 79.6093 23.1688 0.0000 0.0000 0.0000
# 3 28.3965 23.1688 85.7258 0.0000 0.0000 0.0000
# 4 0.0000 0.0000 0.0000 15.3455 0.0000 0.0000
# 5 0.0000 0.0000 0.0000 0.0000 21.4792 0.0000
# 6 0.0000 0.0000 0.0000 0.0000 0.0000 28.8126
#
#
#
# Elastic Compliance Matrix: (Units=1/GPa)
#
#
# Indices 1 2 3 4 5 6 
#
# 1 0.021060 -0.006317 -0.005269 0.000000 0.000000 0.000000
# 2 -0.006317 0.015528 -0.002104 0.000000 0.000000 0.000000
# 3 -0.005269 -0.002104 0.013979 0.000000 0.000000 0.000000
# 4 0.000000 0.000000 0.000000 0.065166 0.000000 0.000000
# 5 0.000000 0.000000 0.000000 0.000000 0.046557 0.000000
# 6 0.000000 0.000000 0.000000 0.000000 0.000000 0.034707
#
#
# Mechanical properties :
#
#
# Convention : Reuss Voigt Hill
#
# Bulk Modulus (GPa) = 43.12676 43.47818 43.30247
# Shear Modulus (GPa) = 21.54183 22.96634 22.25408
#
# Velocity S-wave (km/s) = 3.63241 3.75059 3.69197
# Velocity P-wave (km/s) = 6.63384 6.73694 6.68559
#
# Compressibility (1/GPa) = 0.02318746
#
# Stress axis : x y z
#
# Youngs Moduli (GPa) = 47.48300 64.39798 71.53517
#
# Poissons Ratio (x) = 0.40680 0.37691
# Poissons Ratio (y) = 0.29995 0.15053
# Poissons Ratio (z) = 0.25018 0.13552
#
# Static dielectric constant tensor:
#      x y z
#    x 3.146870 0.000000 0.000000 
#    y 0.000000 2.912230 0.000000 
#    z 0.000000 0.000000 2.933180 
# 
# 
# High freq. dielectric constant tensor:
#      x y z
#    x 1.619820 0.000000 0.000000 
#    y 0.000000 1.597000 0.000000 
#    z 0.000000 0.000000 1.620920 
# 
# From -- ./inp_files/4714.got.cif
#   From: 2010.03.12/outbox.cif.g09.slc.cpg/sg45_3_cif.got.tgz:4714.got - 2010.04.14 02:50:11.
