data_PCOD8190158
_publ_section_title
;
Structure prediction by ZEFSAII (Michael W. Deem and Ramdas Pophale) SiO2 
 PCOD8190158
Probable space group: I M M 2
;
_chemical_formula_sum "Si O2"
_cell_formula_units_Z 56
_cell_length_a 9.026588
_cell_length_b 14.234958
_cell_length_c 22.634681
_cell_angle_alpha 90.000000
_cell_angle_beta 90.000000
_cell_angle_gamma 90.000000
_cell_volume 2908.400353
_symmetry_space_group_name_H-M "I M M 2"
_symmetry_group_IT_number 44
_symmetry_cell_setting 'orthorhombic'
loop_
_space_group_symop_operation_xyz
x,y,z
-x,-y,z
-x,y,z
x,-y,z
1/2+x,1/2+y,1/2+z
1/2-x,1/2-y,1/2+z
1/2-x,1/2+y,1/2+z
1/2+x,1/2-y,1/2+z
loop_
_atom_site_type_symbol
_atom_site_label
_atom_site_fract_x
_atom_site_fract_y
_atom_site_fract_z
Si Si1 0.174074 0.799421 0.834720
Si Si2 0.838568 0.644769 0.224604
Si Si3 0.670499 0.101076 0.290115
Si Si4 0.173042 0.889330 0.956615
Si Si5 0.676054 0.209842 0.064856
Si Si6 0.163542 0.147463 0.179042
Si Si7 0.673678 0.897057 0.597711
O O1 0.234177 0.864814 0.781565
O O2 0.228203 0.690016 0.828760
O O3 0.230242 0.841372 0.896266
O O4 0.000000 0.807216 0.831423
O O5 0.854189 0.751856 0.207271
O O6 0.774014 0.593710 0.166312
O O7 0.000000 0.603238 0.241175
O O8 0.500000 0.120440 0.274623
O O9 0.754685 0.086114 0.228236
O O10 0.689402 0.000000 0.324074
O O11 0.000000 0.867822 0.968263
O O12 0.202842 0.000000 0.953419
O O13 0.272642 0.843305 0.006649
O O14 0.500000 0.211770 0.068836
O O15 0.740595 0.150963 0.119535
O O16 0.734938 0.317412 0.063398
O O17 0.000000 0.105700 0.164697
O O18 0.500000 0.868787 0.595883
O O19 0.700087 0.000000 0.568295
#
# Coordination Sequence:
#
# PCOD8190158 Si02
#       7
#     8   8   8   8   8   8   8
#     4   9  18  33  52  74 102 136 175 219 263 309
#     4   8  15  28  48  75 105 136 169 205 248 298
#     4   9  17  30  50  78 110 139 168 208 261 320
#     4  10  22  40  58  74  97 135 183 229 271 321
#     4  11  22  36  55  79 108 139 176 226 276 319
#     4   9  17  31  51  74 103 139 175 209 251 306
#     4   9  18  34  56  82 113 148 181 211 252 314
#
# _framework density 19.254570000000001
#
# number of rings (size 3 to 8) (size 9 to 14) (size 15 to 20)
#    0.000    2.714    0.000    2.571    0.000    6.000 
#    0.000    0.714    0.000    2.571    0.000    0.000 
#    0.000    0.000    0.000    0.000    0.000    0.000 
#
# Total GULP energy -346949.944621 kJ/mol
# GULP energy per Si atom -12391.069451 kJ/mol
# Density = 1.921075 g / cm^3
# Si number density = 19.254570 Si / 1000 Ang^3
#
#
#
# Elastic Constant Matrix: (Units=GPa)
#
#
# Indices 1 2 3 4 5 6 
#
# 1 88.0167 39.4124 51.5684 0.0000 0.0000 0.0000
# 2 39.4124 109.9588 48.1852 0.0000 0.0000 0.0000
# 3 51.5684 48.1852 113.9217 0.0000 0.0000 0.0000
# 4 0.0000 0.0000 0.0000 15.0528 0.0000 0.0000
# 5 0.0000 0.0000 0.0000 0.0000 30.7832 0.0000
# 6 0.0000 0.0000 0.0000 0.0000 0.0000 14.1831
#
#
#
# Elastic Compliance Matrix: (Units=1/GPa)
#
#
# Indices 1 2 3 4 5 6 
#
# 1 0.016336 -0.003210 -0.006037 0.000000 0.000000 0.000000
# 2 -0.003210 0.011794 -0.003536 0.000000 0.000000 0.000000
# 3 -0.006037 -0.003536 0.013006 0.000000 0.000000 0.000000
# 4 0.000000 0.000000 0.000000 0.066433 0.000000 0.000000
# 5 0.000000 0.000000 0.000000 0.000000 0.032485 0.000000
# 6 0.000000 0.000000 0.000000 0.000000 0.000000 0.070506
#
#
# Mechanical properties :
#
#
# Convention : Reuss Voigt Hill
#
# Bulk Modulus (GPa) = 64.22051 65.58103 64.90077
# Shear Modulus (GPa) = 20.71975 23.51923 22.11949
#
# Velocity S-wave (km/s) = 3.28395 3.49877 3.39306
# Velocity P-wave (km/s) = 6.91411 7.10322 7.00930
#
# Compressibility (1/GPa) = 0.01557135
#
# Stress axis : x y z
#
# Youngs Moduli (GPa) = 61.21524 84.78798 76.88657
#
# Poissons Ratio (x) = 0.27215 0.46417
# Poissons Ratio (y) = 0.19648 0.27184
# Poissons Ratio (z) = 0.36956 0.29978
#
# Static dielectric constant tensor:
#      x y z
#    x 3.628300 0.000000 0.000000 
#    y 0.000000 4.123470 0.000000 
#    z 0.000000 0.000000 3.507850 
# 
# 
# High freq. dielectric constant tensor:
#      x y z
#    x 1.738430 0.000000 0.000000 
#    y 0.000000 1.756430 0.000000 
#    z 0.000000 0.000000 1.724500 
# 
# From -- ./inp_files/23084.got.cif
#   From: 2010.03.12/outbox.cif.g09.slc.cpg/sg44_12_cif.got.tgz:23084.got - 2010.04.14 02:36:11.
