data_PCOD8190547
_publ_section_title
;
Structure prediction by ZEFSAII (Michael W. Deem and Ramdas Pophale) SiO2 
 PCOD8190547
Probable space group: I B A 2
;
_chemical_formula_sum "Si O2"
_cell_formula_units_Z 60
_cell_length_a 26.605988
_cell_length_b 5.171815
_cell_length_c 21.312416
_cell_angle_alpha 90.000000
_cell_angle_beta 90.000000
_cell_angle_gamma 90.000000
_cell_volume 2932.615036
_symmetry_space_group_name_H-M "I B A 2"
_symmetry_group_IT_number 45
_symmetry_cell_setting 'orthorhombic'
loop_
_space_group_symop_operation_xyz
x,y,z
-x,-y,z
-x,y,1/2+z
x,-y,1/2+z
1/2+x,1/2+y,1/2+z
1/2-x,1/2-y,1/2+z
1/2-x,1/2+y,z
1/2+x,1/2-y,z
loop_
_atom_site_type_symbol
_atom_site_label
_atom_site_fract_x
_atom_site_fract_y
_atom_site_fract_z
Si Si1 0.055140 0.604287 0.890300
Si Si2 0.394165 0.036661 0.022186
Si Si3 0.575533 0.430159 0.721819
Si Si4 0.282499 0.014662 0.985459
Si Si5 0.280357 0.990312 0.840608
Si Si6 0.942960 0.975162 0.080105
Si Si7 0.117662 0.540911 0.775134
Si Si8 0.000000 0.000000 0.317283
O O1 0.085774 0.451640 0.836761
O O2 0.000000 0.500000 0.904464
O O3 0.043478 0.886174 0.861934
O O4 0.087877 0.603711 0.952341
O O5 0.334161 0.001241 0.024569
O O6 0.408797 0.282580 0.062828
O O7 0.420198 0.783276 0.050299
O O8 0.555994 0.525672 0.654962
O O9 0.602279 0.679114 0.751065
O O10 0.530044 0.322887 0.766569
O O11 0.612205 0.179853 0.721031
O O12 0.251932 0.271394 0.003657
O O13 0.297742 0.016933 0.912573
O O14 0.263371 0.697622 0.827268
O O15 0.324575 0.059537 0.793662
O O16 0.000000 0.000000 0.054571
#
# Coordination Sequence:
#
# PCOD8190547 Si02
#       8
#     8   8   8   8   8   8   8   4
#     4  11  22  37  58  95 133 162 199 255 327 372
#     4  12  26  41  67  95 133 167 214 273 324 386
#     4  11  23  41  64  85 128 172 224 242 298 366
#     4  10  21  41  65  93 125 165 210 265 328 397
#     4  10  20  37  62  94 130 159 198 259 334 387
#     4  12  26  45  63  92 132 182 219 258 306 383
#     4  11  22  38  65  95 122 164 208 268 304 381
#     4  10  22  38  60  88 128 170 206 250 298 376
#
# _framework density 20.459557
#
# number of rings (size 3 to 8) (size 9 to 14) (size 15 to 20)
#    0.000    1.067    3.333    3.600    2.800    0.000 
#    0.000    0.000    0.000   16.000    0.000    0.000 
#    0.000    0.000    0.000    0.000    0.000    0.000 
#
# Total GULP energy -371763.372577 kJ/mol
# GULP energy per Si atom -12392.112419 kJ/mol
# Density = 2.041299 g / cm^3
# Si number density = 20.459557 Si / 1000 Ang^3
#
#
#
# Elastic Constant Matrix: (Units=GPa)
#
#
# Indices 1 2 3 4 5 6 
#
# 1 146.6290 43.8395 30.8280 0.0000 0.0000 0.0000
# 2 43.8395 124.5143 23.0377 0.0000 0.0000 0.0000
# 3 30.8280 23.0377 66.7249 0.0000 0.0000 0.0000
# 4 0.0000 0.0000 0.0000 30.7300 0.0000 0.0000
# 5 0.0000 0.0000 0.0000 0.0000 27.3679 0.0000
# 6 0.0000 0.0000 0.0000 0.0000 0.0000 26.7391
#
#
#
# Elastic Compliance Matrix: (Units=1/GPa)
#
#
# Indices 1 2 3 4 5 6 
#
# 1 0.008135 -0.002317 -0.002958 0.000000 0.000000 0.000000
# 2 -0.002317 0.009239 -0.002120 0.000000 0.000000 0.000000
# 3 -0.002958 -0.002120 0.017086 0.000000 0.000000 0.000000
# 4 0.000000 0.000000 0.000000 0.032541 0.000000 0.000000
# 5 0.000000 0.000000 0.000000 0.000000 0.036539 0.000000
# 6 0.000000 0.000000 0.000000 0.000000 0.000000 0.037398
#
#
# Mechanical properties :
#
#
# Convention : Reuss Voigt Hill
#
# Bulk Modulus (GPa) = 50.83931 59.25316 55.04624
# Shear Modulus (GPa) = 30.81014 32.97827 31.89420
#
# Velocity S-wave (km/s) = 3.88481 4.01917 3.95256
# Velocity P-wave (km/s) = 6.71006 7.11072 6.91329
#
# Compressibility (1/GPa) = 0.01966982
#
# Stress axis : x y z
#
# Youngs Moduli (GPa) = 122.93200 108.23641 58.52890
#
# Poissons Ratio (x) = 0.25075 0.17315
# Poissons Ratio (y) = 0.28479 0.12406
# Poissons Ratio (z) = 0.36369 0.22941
#
# Static dielectric constant tensor:
#      x y z
#    x 3.549040 0.000000 0.000000 
#    y 0.000000 3.576560 0.000000 
#    z 0.000000 0.000000 3.567890 
# 
# 
# High freq. dielectric constant tensor:
#      x y z
#    x 1.803200 0.000000 0.000000 
#    y 0.000000 1.808160 0.000000 
#    z 0.000000 0.000000 1.785840 
# 
# From -- ./inp_files/7355.got.cif
#   From: 2010.03.12/outbox.cif.g09.slc.cpg/sg45_4_cif.got.tgz:7355.got - 2010.04.14 02:50:11.
