data_PCOD8190249
_publ_section_title
;
Structure prediction by ZEFSAII (Michael W. Deem and Ramdas Pophale) SiO2 
 PCOD8190249
Probable space group: I M M 2
;
_chemical_formula_sum "Si O2"
_cell_formula_units_Z 64
_cell_length_a 22.698416
_cell_length_b 9.196013
_cell_length_c 19.837704
_cell_angle_alpha 90.000000
_cell_angle_beta 90.000000
_cell_angle_gamma 90.000000
_cell_volume 4140.821728
_symmetry_space_group_name_H-M "I M M 2"
_symmetry_group_IT_number 44
_symmetry_cell_setting 'orthorhombic'
loop_
_space_group_symop_operation_xyz
x,y,z
-x,-y,z
-x,y,z
x,-y,z
1/2+x,1/2+y,1/2+z
1/2-x,1/2-y,1/2+z
1/2-x,1/2+y,1/2+z
1/2+x,1/2-y,1/2+z
loop_
_atom_site_type_symbol
_atom_site_label
_atom_site_fract_x
_atom_site_fract_y
_atom_site_fract_z
Si Si1 0.644819 0.172138 0.671890
Si Si2 0.143392 0.164875 0.306943
Si Si3 0.932281 0.829204 0.062429
Si Si4 0.259939 0.661218 0.600583
Si Si5 0.164349 0.160841 0.965006
Si Si6 0.242104 0.166087 0.404164
Si Si7 0.432615 0.330593 0.937474
Si Si8 0.660996 0.829301 0.008557
O O1 0.630840 0.223388 0.747264
O O2 0.595476 0.238915 0.623425
O O3 0.710766 0.224786 0.651782
O O4 0.642052 0.000000 0.667587
O O5 0.212137 0.176346 0.330380
O O6 0.099532 0.208088 0.367493
O O7 0.130164 0.000000 0.282975
O O8 0.000000 0.785011 0.054994
O O9 0.923758 0.000000 0.078404
O O10 0.900415 0.790242 0.991141
O O11 0.263181 0.500000 0.633304
O O12 0.295240 0.661555 0.530984
O O13 0.191783 0.700792 0.581747
O O14 0.191234 0.269254 0.908144
O O15 0.161915 0.000000 0.932846
O O16 0.201885 0.261164 0.451958
O O17 0.243409 0.000000 0.429458
O O18 0.500000 0.281035 0.931722
O O19 0.426277 0.500000 0.953463
O O20 0.403071 0.244834 0.000580
O O21 0.655460 0.000000 0.995443
#
# Coordination Sequence:
#
# PCOD8190249 Si02
#       8
#     8   8   8   8   8   8   8   8
#     4  11  21  29  41  62  84 107 140 181 216 240
#     4   9  18  31  43  56  80 115 148 171 198 245
#     4   9  18  32  46  58  79 115 149 170 197 244
#     4   8  15  28  43  58  79 107 135 163 204 256
#     4   8  14  25  42  62  80 100 130 169 208 243
#     4   9  16  26  42  61  79 103 133 166 208 253
#     4   9  18  31  45  61  82 111 145 175 204 242
#     4   9  16  26  42  62  81 103 132 168 209 248
#
# _framework density 15.455869
#
# number of rings (size 3 to 8) (size 9 to 14) (size 15 to 20)
#    0.000    3.000    0.000    4.125    0.000    8.500 
#    0.000    1.250    0.000    0.000    0.000    0.000 
#    0.000    1.000    0.000    7.500    0.000    4.375 
#
# Total GULP energy -396483.622450 kJ/mol
# GULP energy per Si atom -12390.113202 kJ/mol
# Density = 1.542069 g / cm^3
# Si number density = 15.455869 Si / 1000 Ang^3
#
#
#
# Elastic Constant Matrix: (Units=GPa)
#
#
# Indices 1 2 3 4 5 6 
#
# 1 116.5978 57.0356 48.2336 0.0000 0.0000 0.0000
# 2 57.0356 79.9244 24.4857 0.0000 0.0000 0.0000
# 3 48.2336 24.4857 21.7581 0.0000 0.0000 0.0000
# 4 0.0000 0.0000 0.0000 21.3226 0.0000 0.0000
# 5 0.0000 0.0000 0.0000 0.0000 15.3786 0.0000
# 6 0.0000 0.0000 0.0000 0.0000 0.0000 21.9793
#
#
#
# Elastic Compliance Matrix: (Units=1/GPa)
#
#
# Indices 1 2 3 4 5 6 
#
# 1 0.104953 -0.005522 -0.226445 0.000000 0.000000 0.000000
# 2 -0.005522 0.019386 -0.009574 0.000000 0.000000 0.000000
# 3 -0.226445 -0.009574 0.558719 0.000000 0.000000 0.000000
# 4 0.000000 0.000000 0.000000 0.046898 0.000000 0.000000
# 5 0.000000 0.000000 0.000000 0.000000 0.065025 0.000000
# 6 0.000000 0.000000 0.000000 0.000000 0.000000 0.045497
#
#
# Mechanical properties :
#
#
# Convention : Reuss Voigt Hill
#
# Bulk Modulus (GPa) = 5.00063 53.08780 29.04421
# Shear Modulus (GPa) = 3.59655 17.63781 10.61718
#
# Velocity S-wave (km/s) = 1.52710 3.38179 2.62379
# Velocity P-wave (km/s) = 2.52028 7.04778 5.29259
#
# Compressibility (1/GPa) = 0.19997487
#
# Stress axis : x y z
#
# Youngs Moduli (GPa) = 9.52811 51.58427 1.78981
#
# Poissons Ratio (x) = 0.28487 0.40529
# Poissons Ratio (y) = 0.05262 0.01714
# Poissons Ratio (z) = 2.15759 0.49386
#
# Static dielectric constant tensor:
#      x y z
#    x 3.508910 0.000000 0.000000 
#    y 0.000000 3.084520 0.000000 
#    z 0.000000 0.000000 2.815630 
# 
# 
# High freq. dielectric constant tensor:
#      x y z
#    x 1.582660 0.000000 0.000000 
#    y 0.000000 1.597710 0.000000 
#    z 0.000000 0.000000 1.546560 
# 
# From -- ./inp_files/24511.got.cif
#   From: 2010.03.12/outbox.cif.g09.slc.cpg/sg44_13_cif.got.tgz:24511.got - 2010.04.14 02:36:11.
