data_PCOD8190877
_publ_section_title
;
Structure prediction by ZEFSAII (Michael W. Deem and Ramdas Pophale) SiO2 
 PCOD8190877
Probable space group: I B A 2
;
_chemical_formula_sum "Si O2"
_cell_formula_units_Z 48
_cell_length_a 14.891688
_cell_length_b 13.610528
_cell_length_c 11.119153
_cell_angle_alpha 90.000000
_cell_angle_beta 90.000000
_cell_angle_gamma 90.000000
_cell_volume 2253.671477
_symmetry_space_group_name_H-M "I B A 2"
_symmetry_group_IT_number 45
_symmetry_cell_setting 'orthorhombic'
loop_
_space_group_symop_operation_xyz
x,y,z
-x,-y,z
-x,y,1/2+z
x,-y,1/2+z
1/2+x,1/2+y,1/2+z
1/2-x,1/2-y,1/2+z
1/2-x,1/2+y,z
1/2+x,1/2-y,z
loop_
_atom_site_type_symbol
_atom_site_label
_atom_site_fract_x
_atom_site_fract_y
_atom_site_fract_z
Si Si1 0.163977 0.011236 0.334830
Si Si2 0.167859 0.400917 0.716952
Si Si3 0.123158 0.343422 0.455125
Si Si4 0.500000 0.000000 0.334180
Si Si5 0.126524 0.138975 0.549884
Si Si6 0.500000 0.500000 0.686042
Si Si7 0.286417 0.310701 0.285636
O O1 0.251989 0.026170 0.252703
O O2 0.176688 0.067110 0.458511
O O3 0.076011 0.051673 0.267500
O O4 0.152393 0.892889 0.354421
O O5 0.174311 0.385413 0.573089
O O6 0.072925 0.449009 0.748991
O O7 0.178325 0.300849 0.796690
O O8 0.084704 0.236626 0.490180
O O9 0.187498 0.323825 0.340646
O O10 0.044161 0.417140 0.418738
O O11 0.040508 0.086108 0.605604
O O12 0.206159 0.163603 0.643746
#
# Coordination Sequence:
#
# PCOD8190877 Si02
#       7
#     8   8   8   4   8   4   8
#     4  11  22  43  68  95 137 177 229 286 340 405
#     4  11  25  46  67 101 137 187 227 281 349 411
#     4  11  24  45  66 102 138 179 231 283 339 417
#     4  12  26  44  70 104 142 182 234 284 348 412
#     4  10  23  43  67 100 133 175 231 282 345 403
#     4  10  24  38  66 104 130 176 226 290 340 406
#     4  10  23  43  68  96 131 179 229 276 341 407
#
# _framework density 21.298577999999999
#
# number of rings (size 3 to 8) (size 9 to 14) (size 15 to 20)
#    0.000    1.333    3.333    1.000    4.667    5.333 
#    3.000    0.000    0.000    0.000    0.000    0.000 
#    0.000    0.000    0.000    0.000    0.000    0.000 
#
# Total GULP energy -297445.852573 kJ/mol
# GULP energy per Si atom -12393.577191 kJ/mol
# Density = 2.125010 g / cm^3
# Si number density = 21.298578 Si / 1000 Ang^3
#
#
#
# Elastic Constant Matrix: (Units=GPa)
#
#
# Indices 1 2 3 4 5 6 
#
# 1 136.1336 48.1071 55.3994 0.0000 0.0000 0.0000
# 2 48.1071 131.3218 53.2070 0.0000 0.0000 0.0000
# 3 55.3994 53.2070 98.2574 0.0000 0.0000 0.0000
# 4 0.0000 0.0000 0.0000 30.0245 0.0000 0.0000
# 5 0.0000 0.0000 0.0000 0.0000 32.8827 0.0000
# 6 0.0000 0.0000 0.0000 0.0000 0.0000 39.2729
#
#
#
# Elastic Compliance Matrix: (Units=1/GPa)
#
#
# Indices 1 2 3 4 5 6 
#
# 1 0.009833 -0.001737 -0.004603 0.000000 0.000000 0.000000
# 2 -0.001737 0.010062 -0.004469 0.000000 0.000000 0.000000
# 3 -0.004603 -0.004469 0.015193 0.000000 0.000000 0.000000
# 4 0.000000 0.000000 0.000000 0.033306 0.000000 0.000000
# 5 0.000000 0.000000 0.000000 0.000000 0.030411 0.000000
# 6 0.000000 0.000000 0.000000 0.000000 0.000000 0.025463
#
#
# Mechanical properties :
#
#
# Convention : Reuss Voigt Hill
#
# Bulk Modulus (GPa) = 74.24700 75.45998 74.85349
# Shear Modulus (GPa) = 33.24983 34.36932 33.80958
#
# Velocity S-wave (km/s) = 3.95540 4.02144 3.98855
# Velocity P-wave (km/s) = 7.46967 7.55441 7.51216
#
# Compressibility (1/GPa) = 0.01346856
#
# Stress axis : x y z
#
# Youngs Moduli (GPa) = 101.69967 99.38402 65.81986
#
# Poissons Ratio (x) = 0.17262 0.30300
# Poissons Ratio (y) = 0.17665 0.29417
# Poissons Ratio (z) = 0.46816 0.44418
#
# Static dielectric constant tensor:
#      x y z
#    x 3.583370 0.000000 0.000000 
#    y 0.000000 4.273390 0.000000 
#    z 0.000000 0.000000 3.965240 
# 
# 
# High freq. dielectric constant tensor:
#      x y z
#    x 1.814730 0.000000 0.000000 
#    y 0.000000 1.859330 0.000000 
#    z 0.000000 0.000000 1.837870 
# 
# From -- ./inp_files/4109.got.cif
#   From: 2010.03.12/outbox.cif.g09.slc.cpg/sg45_3_cif.got.tgz:4109.got - 2010.04.14 02:50:11.
