data_PCOD8190328
_publ_section_title
;
Structure prediction by ZEFSAII (Michael W. Deem and Ramdas Pophale) SiO2 
 PCOD8190328
Probable space group: I M M 2
;
_chemical_formula_sum "Si O2"
_cell_formula_units_Z 64
_cell_length_a 9.267404
_cell_length_b 14.267275
_cell_length_c 28.563649
_cell_angle_alpha 90.000000
_cell_angle_beta 90.000000
_cell_angle_gamma 90.000000
_cell_volume 3776.702849
_symmetry_space_group_name_H-M "I M M 2"
_symmetry_group_IT_number 44
_symmetry_cell_setting 'orthorhombic'
loop_
_space_group_symop_operation_xyz
x,y,z
-x,-y,z
-x,y,z
x,-y,z
1/2+x,1/2+y,1/2+z
1/2-x,1/2-y,1/2+z
1/2-x,1/2+y,1/2+z
1/2+x,1/2-y,1/2+z
loop_
_atom_site_type_symbol
_atom_site_label
_atom_site_fract_x
_atom_site_fract_y
_atom_site_fract_z
Si Si1 0.171382 0.250287 0.980180
Si Si2 0.669620 0.738308 0.734141
Si Si3 0.830380 0.238308 0.875366
Si Si4 0.672071 0.896062 0.554754
Si Si5 0.171771 0.103819 0.054754
Si Si6 0.831856 0.392659 0.308456
Si Si7 0.828618 0.250287 0.129327
Si Si8 0.668143 0.107342 0.301051
O O1 0.233461 0.250061 0.927634
O O2 0.000000 0.252140 0.978222
O O3 0.226296 0.342097 0.008170
O O4 0.224579 0.158014 0.008136
O O5 0.500000 0.718222 0.733734
O O6 0.706758 0.833597 0.761985
O O7 0.733462 0.750061 0.681873
O O8 0.744958 0.648437 0.757200
O O9 0.755039 0.148438 0.852307
O O10 0.793244 0.333597 0.847522
O O11 0.000000 0.218220 0.875773
O O12 0.500000 0.899647 0.554754
O O13 0.726296 0.842097 0.601337
O O14 0.739114 0.000000 0.554753
O O15 0.224579 0.158014 0.101371
O O16 0.000000 0.099297 0.054754
O O17 0.239790 0.000000 0.054754
O O18 0.785463 0.500000 0.299718
O O19 0.000000 0.384630 0.320334
O O20 0.000000 0.252140 0.131285
O O21 0.500000 0.115372 0.289172
O O22 0.714534 0.000000 0.309790
#
# Coordination Sequence:
#
# PCOD8190328 Si02
#       8
#     8   8   8   8   8   8   8   8
#     4   8  14  23  35  55  81 106 134 166 200 241
#     4   9  17  29  45  64  85 110 143 179 210 246
#     4   9  17  29  45  64  85 110 143 179 210 246
#     4   8  13  21  34  55  85 114 134 160 204 252
#     4   8  13  21  32  49  77 105 124 153 200 242
#     4   9  18  31  44  60  85 114 141 173 215 256
#     4   8  14  23  35  55  81 106 134 166 200 241
#     4   9  18  31  44  60  85 114 141 173 215 256
#
# _framework density 16.945997999999999
#
# number of rings (size 3 to 8) (size 9 to 14) (size 15 to 20)
#    0.000    3.500    0.000    1.500    0.000    2.500 
#    0.000    7.500    0.000    0.000    0.000    3.500 
#    0.000   10.000    0.000    0.000    0.000    0.000 
#
# Total GULP energy -396622.595265 kJ/mol
# GULP energy per Si atom -12394.456102 kJ/mol
# Density = 1.690743 g / cm^3
# Si number density = 16.945998 Si / 1000 Ang^3
#
#
#
# Elastic Constant Matrix: (Units=GPa)
#
#
# Indices 1 2 3 4 5 6 
#
# 1 13.9625 21.9158 22.6700 0.0000 0.0000 0.0000
# 2 21.9158 165.6368 81.6634 0.0000 0.0000 0.0000
# 3 22.6700 81.6634 171.9213 0.0000 0.0000 0.0000
# 4 0.0000 0.0000 0.0000 14.7718 0.0000 0.0000
# 5 0.0000 0.0000 0.0000 0.0000 16.5189 0.0000
# 6 0.0000 0.0000 0.0000 0.0000 0.0000 15.2565
#
#
#
# Elastic Compliance Matrix: (Units=1/GPa)
#
#
# Indices 1 2 3 4 5 6 
#
# 1 0.100065 -0.008794 -0.009018 0.000000 0.000000 0.000000
# 2 -0.008794 0.008656 -0.002952 0.000000 0.000000 0.000000
# 3 -0.009018 -0.002952 0.008408 0.000000 0.000000 0.000000
# 4 0.000000 0.000000 0.000000 0.067696 0.000000 0.000000
# 5 0.000000 0.000000 0.000000 0.000000 0.060537 0.000000
# 6 0.000000 0.000000 0.000000 0.000000 0.000000 0.065546
#
#
# Mechanical properties :
#
#
# Convention : Reuss Voigt Hill
#
# Bulk Modulus (GPa) = 13.22718 67.11320 40.17019
# Shear Modulus (GPa) = 13.24024 24.32754 18.78389
#
# Velocity S-wave (km/s) = 2.79824 3.79303 3.33296
# Velocity P-wave (km/s) = 4.27348 7.67287 6.21030
#
# Compressibility (1/GPa) = 0.07560188
#
# Stress axis : x y z
#
# Youngs Moduli (GPa) = 9.99349 115.52179 118.93383
#
# Poissons Ratio (x) = 1.01588 1.07251
# Poissons Ratio (y) = 0.08788 0.35112
# Poissons Ratio (z) = 0.09012 0.34105
#
# Static dielectric constant tensor:
#      x y z
#    x 2.635960 0.000000 0.000000 
#    y 0.000000 3.420230 0.000000 
#    z 0.000000 0.000000 3.453980 
# 
# 
# High freq. dielectric constant tensor:
#      x y z
#    x 1.592680 0.000000 0.000000 
#    y 0.000000 1.659730 0.000000 
#    z 0.000000 0.000000 1.659590 
# 
# From -- ./inp_files/27277.got.cif
#   From: 2010.03.12/outbox.cif.g09.slc.cpg/sg44_14_cif.got.tgz:27277.got - 2010.04.14 02:36:11.
