data_PCOD8190336
_publ_section_title
;
Structure prediction by ZEFSAII (Michael W. Deem and Ramdas Pophale) SiO2 
 PCOD8190336
Probable space group: I M M 2
;
_chemical_formula_sum "Si O2"
_cell_formula_units_Z 64
_cell_length_a 9.825593
_cell_length_b 33.826484
_cell_length_c 13.441574
_cell_angle_alpha 90.000000
_cell_angle_beta 90.000000
_cell_angle_gamma 90.000000
_cell_volume 4467.512297
_symmetry_space_group_name_H-M "I M M 2"
_symmetry_group_IT_number 44
_symmetry_cell_setting 'orthorhombic'
loop_
_space_group_symop_operation_xyz
x,y,z
-x,-y,z
-x,y,z
x,-y,z
1/2+x,1/2+y,1/2+z
1/2-x,1/2-y,1/2+z
1/2-x,1/2+y,1/2+z
1/2+x,1/2-y,1/2+z
loop_
_atom_site_type_symbol
_atom_site_label
_atom_site_fract_x
_atom_site_fract_y
_atom_site_fract_z
Si Si1 0.342756 0.112968 0.495430
Si Si2 0.347233 0.543749 0.992798
Si Si3 0.343257 0.727927 0.496192
Si Si4 0.347232 0.543749 0.229127
Si Si5 0.657007 0.192423 0.838616
Si Si6 0.342993 0.807577 0.383308
Si Si7 0.342756 0.112968 0.726494
Si Si8 0.156743 0.772073 0.225732
O O1 0.500000 0.102404 0.479788
O O2 0.256371 0.076483 0.450747
O O3 0.300224 0.152003 0.436274
O O4 0.309858 0.120517 0.610962
O O5 0.500000 0.554321 0.957580
O O6 0.306426 0.500000 0.953038
O O7 0.339812 0.543429 0.110962
O O8 0.500000 0.716353 0.478330
O O9 0.249490 0.697389 0.436065
O O10 0.314766 0.772571 0.461268
O O11 0.302733 0.724844 0.610962
O O12 0.500000 0.554321 0.264344
O O13 0.306426 0.500000 0.268887
O O14 0.243629 0.576483 0.271177
O O15 0.500000 0.191900 0.872038
O O16 0.699777 0.152003 0.785650
O O17 0.685234 0.227430 0.760656
O O18 0.500000 0.808100 0.349885
O O19 0.250510 0.802611 0.285859
O O20 0.500000 0.102405 0.742136
O O21 0.000000 0.783647 0.243594
#
# Coordination Sequence:
#
# PCOD8190336 Si02
#       8
#     8   8   8   8   8   8   8   8
#     4   9  16  25  38  56  78 104 132 161 192 226
#     4   8  14  24  36  51  74 103 131 158 189 224
#     4   9  17  29  43  57  76 103 132 162 196 231
#     4   8  14  24  36  51  74 103 131 158 189 224
#     4   9  17  28  41  58  79 102 130 163 196 229
#     4   9  17  28  41  58  79 102 130 163 196 229
#     4   9  16  25  38  56  78 104 132 161 192 226
#     4   9  17  29  43  57  76 103 132 162 196 231
#
# _framework density 14.325646000000001
#
# number of rings (size 3 to 8) (size 9 to 14) (size 15 to 20)
#    0.000    3.250    0.000    1.500    0.000    5.000 
#    0.000    2.500    0.000    4.500    0.000    0.000 
#    0.000    1.000    0.000   11.000    0.000    8.500 
#
# Total GULP energy -396716.789520 kJ/mol
# GULP energy per Si atom -12397.399672 kJ/mol
# Density = 1.429304 g / cm^3
# Si number density = 14.325646 Si / 1000 Ang^3
#
#
#
# Elastic Constant Matrix: (Units=GPa)
#
#
# Indices 1 2 3 4 5 6 
#
# 1 78.4404 70.2583 47.7171 -0.0002 -0.0001 0.0000
# 2 70.2583 120.1369 43.8805 -0.0004 0.0000 0.0000
# 3 47.7171 43.8805 72.0650 -0.0010 -0.0003 -0.0001
# 4 -0.0002 -0.0004 -0.0010 17.0197 0.0000 0.0000
# 5 -0.0001 0.0000 -0.0003 0.0000 21.3205 -0.0003
# 6 0.0000 0.0000 -0.0001 0.0000 -0.0003 29.7250
#
#
#
# Elastic Compliance Matrix: (Units=1/GPa)
#
#
# Indices 1 2 3 4 5 6 
#
# 1 0.034877 -0.015383 -0.013727 -0.000001 0.000000 0.000000
# 2 -0.015383 0.017490 -0.000464 0.000000 0.000000 0.000000
# 3 -0.013727 -0.000464 0.023248 0.000001 0.000000 0.000000
# 4 -0.000001 0.000000 0.000001 0.058755 0.000000 0.000000
# 5 0.000000 0.000000 0.000000 0.000000 0.046903 0.000000
# 6 0.000000 0.000000 0.000000 0.000000 0.000000 0.033642
#
#
# Mechanical properties :
#
#
# Convention : Reuss Voigt Hill
#
# Bulk Modulus (GPa) = 60.72599 66.03934 63.38267
# Shear Modulus (GPa) = 17.88579 20.86548 19.37564
#
# Velocity S-wave (km/s) = 3.53727 3.82057 3.68164
# Velocity P-wave (km/s) = 7.69186 8.10315 7.90018
#
# Compressibility (1/GPa) = 0.01646741
#
# Stress axis : x y z
#
# Youngs Moduli (GPa) = 28.67183 57.17710 43.01494
#
# Poissons Ratio (x) = 0.87956 0.59046
# Poissons Ratio (y) = 0.44106 0.01994
# Poissons Ratio (z) = 0.39357 0.02651
#
# Static dielectric constant tensor:
#      x y z
#    x 2.904090 0.000000 0.000000 
#    y 0.000000 2.942600 0.000000 
#    z 0.000000 0.000000 2.499690 
# 
# 
# High freq. dielectric constant tensor:
#      x y z
#    x 1.553080 0.000000 0.000000 
#    y 0.000000 1.544930 0.000000 
#    z 0.000000 0.000000 1.503330 
# 
# From -- ./inp_files/12719.got.cif
#   From: 2010.03.12/outbox.cif.g09.slc.cpg/sg44_7_cif.got.tgz:12719.got - 2010.04.14 02:36:11.
