data_PCOD8190499
_publ_section_title
;
Structure prediction by ZEFSAII (Michael W. Deem and Ramdas Pophale) SiO2 
 PCOD8190499
Probable space group: I B A 2
;
_chemical_formula_sum "Si O2"
_cell_formula_units_Z 64
_cell_length_a 18.056647
_cell_length_b 19.457105
_cell_length_c 9.926784
_cell_angle_alpha 90.000000
_cell_angle_beta 90.000000
_cell_angle_gamma 90.000000
_cell_volume 3487.577783
_symmetry_space_group_name_H-M "I B A 2"
_symmetry_group_IT_number 45
_symmetry_cell_setting 'orthorhombic'
loop_
_space_group_symop_operation_xyz
x,y,z
-x,-y,z
-x,y,1/2+z
x,-y,1/2+z
1/2+x,1/2+y,1/2+z
1/2-x,1/2-y,1/2+z
1/2-x,1/2+y,z
1/2+x,1/2-y,z
loop_
_atom_site_type_symbol
_atom_site_label
_atom_site_fract_x
_atom_site_fract_y
_atom_site_fract_z
Si Si1 0.445173 0.580317 0.557350
Si Si2 0.333494 0.560408 0.336364
Si Si3 0.216242 0.204188 0.427637
Si Si4 0.554977 0.760952 0.688584
Si Si5 0.711815 0.803579 0.697027
Si Si6 0.399139 0.386041 0.577605
Si Si7 0.947569 0.235124 0.980623
Si Si8 0.827692 0.087721 0.298573
O O1 0.409193 0.548727 0.422637
O O2 0.531276 0.557768 0.581058
O O3 0.468412 0.658959 0.524770
O O4 0.391923 0.577742 0.686829
O O5 0.289486 0.621910 0.408962
O O6 0.343373 0.577125 0.179675
O O7 0.293243 0.486470 0.340028
O O8 0.275357 0.217830 0.542925
O O9 0.240025 0.240662 0.289983
O O10 0.140910 0.241040 0.479133
O O11 0.622841 0.815531 0.704304
O O12 0.589937 0.688930 0.641588
O O13 0.489569 0.785610 0.587286
O O14 0.517979 0.751147 0.834638
O O15 0.758750 0.870081 0.739432
O O16 0.363376 0.376920 0.430052
#
# Coordination Sequence:
#
# PCOD8190499 Si02
#       8
#     8   8   8   8   8   8   8   8
#     4  10  20  35  49  73 109 148 190 225 255 315
#     4  11  21  39  47  76 110 148 183 238 259 327
#     4  10  21  38  55  76 114 142 188 226 276 329
#     4  10  20  34  56  79 110 139 185 227 275 324
#     4  11  21  38  55  81 106 153 181 235 273 338
#     4  11  21  33  53  77 103 156 193 225 262 316
#     4   9  18  33  53  76 105 144 174 228 262 320
#     4  12  24  32  56  74 110 154 189 224 280 315
#
# _framework density 18.350845
#
# number of rings (size 3 to 8) (size 9 to 14) (size 15 to 20)
#    0.000    1.500    6.250    2.250    5.250    4.000 
#    0.000    0.000    0.000    0.000    0.000    0.000 
#    0.000   21.000    0.000    0.000    0.000    0.000 
#
# Total GULP energy -396464.640958 kJ/mol
# GULP energy per Si atom -12389.520030 kJ/mol
# Density = 1.830908 g / cm^3
# Si number density = 18.350845 Si / 1000 Ang^3
#
#
#
# Elastic Constant Matrix: (Units=GPa)
#
#
# Indices 1 2 3 4 5 6 
#
# 1 42.8329 26.7053 25.8560 0.0000 0.0000 0.0000
# 2 26.7053 53.4286 13.9635 0.0000 0.0000 0.0000
# 3 25.8560 13.9635 125.5697 0.0000 0.0000 0.0000
# 4 0.0000 0.0000 0.0000 18.4301 0.0000 0.0000
# 5 0.0000 0.0000 0.0000 0.0000 32.3869 0.0000
# 6 0.0000 0.0000 0.0000 0.0000 0.0000 22.6198
#
#
#
# Elastic Compliance Matrix: (Units=1/GPa)
#
#
# Indices 1 2 3 4 5 6 
#
# 1 0.037648 -0.017294 -0.005829 0.000000 0.000000 0.000000
# 2 -0.017294 0.027221 0.000534 0.000000 0.000000 0.000000
# 3 -0.005829 0.000534 0.009105 0.000000 0.000000 0.000000
# 4 0.000000 0.000000 0.000000 0.054259 0.000000 0.000000
# 5 0.000000 0.000000 0.000000 0.000000 0.030877 0.000000
# 6 0.000000 0.000000 0.000000 0.000000 0.000000 0.044209
#
#
# Mechanical properties :
#
#
# Convention : Reuss Voigt Hill
#
# Bulk Modulus (GPa) = 34.72785 39.43121 37.07953
# Shear Modulus (GPa) = 19.37274 25.04112 22.20693
#
# Velocity S-wave (km/s) = 3.25266 3.69802 3.48247
# Velocity P-wave (km/s) = 5.75081 6.30618 6.03489
#
# Compressibility (1/GPa) = 0.02879533
#
# Stress axis : x y z
#
# Youngs Moduli (GPa) = 26.56209 36.73610 109.83519
#
# Poissons Ratio (x) = 0.63532 0.64022
# Poissons Ratio (y) = 0.45937 -0.05865
# Poissons Ratio (z) = 0.15483 -0.01962
#
# Static dielectric constant tensor:
#      x y z
#    x 3.339200 0.000000 0.000000 
#    y 0.000000 3.245360 0.000000 
#    z 0.000000 0.000000 3.793670 
# 
# 
# High freq. dielectric constant tensor:
#      x y z
#    x 1.678340 0.000000 0.000000 
#    y 0.000000 1.675820 0.000000 
#    z 0.000000 0.000000 1.741150 
# 
# From -- ./inp_files/2373.got.cif
#   From: 2010.03.12/outbox.cif.g09.slc.cpg/sg45_2_cif.got.tgz:2373.got - 2010.04.14 02:50:11.
