data_PCOD8190202
_publ_section_title
;
Structure prediction by ZEFSAII (Michael W. Deem and Ramdas Pophale) SiO2 
 PCOD8190202
Probable space group: I M M 2
;
_chemical_formula_sum "Si O2"
_cell_formula_units_Z 48
_cell_length_a 16.854282
_cell_length_b 8.718807
_cell_length_c 16.714045
_cell_angle_alpha 90.000000
_cell_angle_beta 90.000000
_cell_angle_gamma 90.000000
_cell_volume 2456.116074
_symmetry_space_group_name_H-M "I M M 2"
_symmetry_group_IT_number 44
_symmetry_cell_setting 'orthorhombic'
loop_
_space_group_symop_operation_xyz
x,y,z
-x,-y,z
-x,y,z
x,-y,z
1/2+x,1/2+y,1/2+z
1/2-x,1/2-y,1/2+z
1/2-x,1/2+y,1/2+z
1/2+x,1/2-y,1/2+z
loop_
_atom_site_type_symbol
_atom_site_label
_atom_site_fract_x
_atom_site_fract_y
_atom_site_fract_z
Si Si1 0.678934 0.675749 0.777770
Si Si2 0.156348 0.820121 0.095898
Si Si3 0.092234 0.677737 0.422626
Si Si4 0.500000 0.682452 0.508132
Si Si5 0.179432 0.820353 0.570171
Si Si6 0.643059 0.177580 0.236406
Si Si7 0.500000 0.680228 0.329629
O O1 0.661018 0.500000 0.801111
O O2 0.646100 0.713564 0.689764
O O3 0.635694 0.786920 0.839347
O O4 0.772882 0.708029 0.778738
O O5 0.229692 0.729495 0.057365
O O6 0.077940 0.756807 0.053076
O O7 0.171678 0.000000 0.081319
O O8 0.104810 0.500000 0.443643
O O9 0.129203 0.780769 0.492019
O O10 0.000000 0.719347 0.413673
O O11 0.500000 0.500000 0.509730
O O12 0.500000 0.750190 0.418782
O O13 0.142064 0.732430 0.645148
O O14 0.174923 0.000000 0.586656
O O15 0.578488 0.269489 0.284987
O O16 0.620646 0.000000 0.236497
O O17 0.500000 0.500000 0.335362
#
# Coordination Sequence:
#
# PCOD8190202 Si02
#       7
#     8   8   8   4   8   8   4
#     4   9  20  38  63  90 118 155 201 246 296 350
#     4   9  19  39  64  90 121 160 199 241 297 356
#     4  11  25  41  60  87 121 159 199 244 302 359
#     4   9  20  37  61  92 123 158 199 241 290 351
#     4  11  23  40  63  90 119 154 200 251 302 357
#     4  10  22  42  64  87 120 161 200 245 303 358
#     4  11  23  37  59  94 125 158 203 247 294 351
#
# _framework density 19.543050999999998
#
# number of rings (size 3 to 8) (size 9 to 14) (size 15 to 20)
#    0.000    2.000    0.000    3.750    4.667    4.667 
#    0.000    1.250    0.000    0.000    0.000    0.000 
#    0.000    0.000    0.000    0.000    0.000    0.000 
#
# Total GULP energy -297708.294731 kJ/mol
# GULP energy per Si atom -12404.512280 kJ/mol
# Density = 1.949857 g / cm^3
# Si number density = 19.543051 Si / 1000 Ang^3
#
#
#
# Elastic Constant Matrix: (Units=GPa)
#
#
# Indices 1 2 3 4 5 6 
#
# 1 119.6213 23.3220 66.9144 0.0000 0.0000 0.0000
# 2 23.3220 48.9081 13.5979 0.0000 0.0000 0.0000
# 3 66.9144 13.5979 98.2646 0.0000 0.0000 0.0000
# 4 0.0000 0.0000 0.0000 31.5195 0.0000 0.0000
# 5 0.0000 0.0000 0.0000 0.0000 13.1969 0.0000
# 6 0.0000 0.0000 0.0000 0.0000 0.0000 32.1299
#
#
#
# Elastic Compliance Matrix: (Units=1/GPa)
#
#
# Indices 1 2 3 4 5 6 
#
# 1 0.014316 -0.004281 -0.009156 0.000000 0.000000 0.000000
# 2 -0.004281 0.022545 -0.000205 0.000000 0.000000 0.000000
# 3 -0.009156 -0.000205 0.016440 0.000000 0.000000 0.000000
# 4 0.000000 0.000000 0.000000 0.031726 0.000000 0.000000
# 5 0.000000 0.000000 0.000000 0.000000 0.075775 0.000000
# 6 0.000000 0.000000 0.000000 0.000000 0.000000 0.031124
#
#
# Mechanical properties :
#
#
# Convention : Reuss Voigt Hill
#
# Bulk Modulus (GPa) = 38.43614 52.71804 45.57709
# Shear Modulus (GPa) = 21.94108 26.23325 24.08716
#
# Velocity S-wave (km/s) = 3.35431 3.66776 3.51453
# Velocity P-wave (km/s) = 5.89169 6.70601 6.31199
#
# Compressibility (1/GPa) = 0.02601718
#
# Stress axis : x y z
#
# Youngs Moduli (GPa) = 69.85010 44.35616 60.82683
#
# Poissons Ratio (x) = 0.18989 0.55696
# Poissons Ratio (y) = 0.29903 0.01244
# Poissons Ratio (z) = 0.63958 0.00907
#
# Static dielectric constant tensor:
#      x y z
#    x 3.729360 0.000000 0.000000 
#    y 0.000000 3.471800 0.000000 
#    z 0.000000 0.000000 3.603060 
# 
# 
# High freq. dielectric constant tensor:
#      x y z
#    x 1.770800 0.000000 0.000000 
#    y 0.000000 1.755560 0.000000 
#    z 0.000000 0.000000 1.768520 
# 
# From -- ./inp_files/16204.got.cif
#   From: 2010.03.12/outbox.cif.g09.slc.cpg/sg44_9_cif.got.tgz:16204.got - 2010.04.14 02:36:11.
