data_PCOD8190038
_publ_section_title
;
Structure prediction by ZEFSAII (Michael W. Deem and Ramdas Pophale) SiO2 
 PCOD8190038
Probable space group: I M M 2
;
_chemical_formula_sum "Si O2"
_cell_formula_units_Z 48
_cell_length_a 18.605669
_cell_length_b 8.929695
_cell_length_c 15.113451
_cell_angle_alpha 90.000000
_cell_angle_beta 90.000000
_cell_angle_gamma 90.000000
_cell_volume 2510.993325
_symmetry_space_group_name_H-M "I M M 2"
_symmetry_group_IT_number 44
_symmetry_cell_setting 'orthorhombic'
loop_
_space_group_symop_operation_xyz
x,y,z
-x,-y,z
-x,y,z
x,-y,z
1/2+x,1/2+y,1/2+z
1/2-x,1/2-y,1/2+z
1/2-x,1/2+y,1/2+z
1/2+x,1/2-y,1/2+z
loop_
_atom_site_type_symbol
_atom_site_label
_atom_site_fract_x
_atom_site_fract_y
_atom_site_fract_z
Si Si1 0.082802 0.828415 0.636310
Si Si2 0.670559 0.176399 0.488829
Si Si3 0.916180 0.826067 0.145009
Si Si4 0.175728 0.675588 0.493129
Si Si5 0.082509 0.828062 0.840760
Si Si6 0.417568 0.173844 0.825106
O O1 0.132082 0.717404 0.580821
O O2 0.102331 0.804322 0.738657
O O3 0.000000 0.787152 0.619135
O O4 0.097642 0.000000 0.608868
O O5 0.626846 0.239533 0.570888
O O6 0.750753 0.236011 0.490894
O O7 0.633606 0.222353 0.397217
O O8 0.672076 0.000000 0.496352
O O9 0.891390 0.768174 0.240853
O O10 0.000000 0.793179 0.130192
O O11 0.897913 0.000000 0.137951
O O12 0.191607 0.500000 0.493919
O O13 0.129803 0.724127 0.408002
O O14 0.000000 0.784017 0.858706
O O15 0.095381 0.000000 0.868773
O O16 0.500000 0.210482 0.848773
O O17 0.407200 0.000000 0.802507
#
# Coordination Sequence:
#
# PCOD8190038 Si02
#       6
#     8   8   8   8   8   8
#     4   9  19  37  61  87 115 148 185 227 276 330
#     4  12  25  38  55  81 114 151 188 230 280 332
#     4  10  21  38  61  86 111 143 184 230 279 332
#     4  11  23  38  57  82 115 153 189 229 277 329
#     4   9  19  38  62  85 111 145 184 227 277 332
#     4   9  19  37  60  85 112 144 184 229 277 328
#
# _framework density 19.115940999999999
#
# number of rings (size 3 to 8) (size 9 to 14) (size 15 to 20)
#    0.000    2.000    0.000    4.500    0.000    7.667 
#    0.000    5.000    0.000    0.000    0.000    0.000 
#    0.000    0.000    0.000    0.000    0.000    0.000 
#
# Total GULP energy -297709.871753 kJ/mol
# GULP energy per Si atom -12404.577990 kJ/mol
# Density = 1.907243 g / cm^3
# Si number density = 19.115941 Si / 1000 Ang^3
#
#
#
# Elastic Constant Matrix: (Units=GPa)
#
#
# Indices 1 2 3 4 5 6 
#
# 1 96.8454 61.8542 72.4969 0.0000 0.0000 0.0000
# 2 61.8542 110.0921 70.4063 0.0000 0.0000 0.0000
# 3 72.4969 70.4063 125.5707 0.0000 0.0000 0.0000
# 4 0.0000 0.0000 0.0000 38.7882 0.0000 0.0000
# 5 0.0000 0.0000 0.0000 0.0000 -3.8257 0.0000
# 6 0.0000 0.0000 0.0000 0.0000 0.0000 33.1036
#
#
#
# Elastic Compliance Matrix: (Units=1/GPa)
#
#
# Indices 1 2 3 4 5 6 
#
# 1 0.020567 -0.006176 -0.008411 0.000000 0.000000 0.000000
# 2 -0.006176 0.016016 -0.005414 0.000000 0.000000 0.000000
# 3 -0.008411 -0.005414 0.015855 0.000000 0.000000 0.000000
# 4 0.000000 0.000000 0.000000 0.025781 0.000000 0.000000
# 5 0.000000 0.000000 0.000000 0.000000 -0.261388 0.000000
# 6 0.000000 0.000000 0.000000 0.000000 0.000000 0.030208
#
#
# Mechanical properties :
#
#
# Convention : Reuss Voigt Hill
#
# Bulk Modulus (GPa) = 80.41755 82.44702 81.43228
# Shear Modulus (GPa) = -45.95059 22.12993 -11.91033
#
# Velocity S-wave (km/s) = -4.90816 3.40614 -2.49882
# Velocity P-wave (km/s) = 3.16854 7.66112 5.86227
#
# Compressibility (1/GPa) = 0.01243510
#
# Stress axis : x y z
#
# Youngs Moduli (GPa) = 48.62197 62.43835 63.07016
#
# Poissons Ratio (x) = 0.38563 0.53049
# Poissons Ratio (y) = 0.30030 0.34147
# Poissons Ratio (z) = 0.40896 0.33805
#
# Static dielectric constant tensor:
#      x y z
#    x 3.530150 0.000000 0.000000 
#    y 0.000000 3.486640 0.000000 
#    z 0.000000 0.000000 3.581650 
# 
# 
# High freq. dielectric constant tensor:
#      x y z
#    x 1.743240 0.000000 0.000000 
#    y 0.000000 1.744940 0.000000 
#    z 0.000000 0.000000 1.755930 
# 
# From -- ./inp_files/16066.got.cif
#   From: 2010.03.12/outbox.cif.g09.slc.cpg/sg44_9_cif.got.tgz:16066.got - 2010.04.14 02:36:11.
