data_PCOD8190615
_publ_section_title
;
Structure prediction by ZEFSAII (Michael W. Deem and Ramdas Pophale) SiO2 
 PCOD8190615
Probable space group: I B A 2
;
_chemical_formula_sum "Si O2"
_cell_formula_units_Z 64
_cell_length_a 20.588884
_cell_length_b 29.199087
_cell_length_c 4.947367
_cell_angle_alpha 90.000000
_cell_angle_beta 90.000000
_cell_angle_gamma 90.000000
_cell_volume 2974.241347
_symmetry_space_group_name_H-M "I B A 2"
_symmetry_group_IT_number 45
_symmetry_cell_setting 'orthorhombic'
loop_
_space_group_symop_operation_xyz
x,y,z
-x,-y,z
-x,y,1/2+z
x,-y,1/2+z
1/2+x,1/2+y,1/2+z
1/2-x,1/2-y,1/2+z
1/2-x,1/2+y,z
1/2+x,1/2-y,z
loop_
_atom_site_type_symbol
_atom_site_label
_atom_site_fract_x
_atom_site_fract_y
_atom_site_fract_z
Si Si1 0.166300 0.969386 0.120790
Si Si2 0.750068 0.883684 0.664792
Si Si3 0.793073 0.745523 0.457516
Si Si4 0.458159 0.158407 0.387069
Si Si5 0.869794 0.176179 0.161658
Si Si6 0.458574 0.263118 0.472658
Si Si7 0.175446 0.646636 0.154591
Si Si8 0.455730 0.406732 0.086176
O O1 0.226278 0.934415 0.086254
O O2 0.097775 0.945936 0.052952
O O3 0.172084 0.987271 0.425571
O O4 0.810368 0.853943 0.779720
O O5 0.727296 0.859016 0.391944
O O6 0.694918 0.885333 0.898497
O O7 0.763972 0.738886 0.160678
O O8 0.846940 0.785647 0.444528
O O9 0.826743 0.698537 0.547794
O O10 0.481914 0.145708 0.687695
O O11 0.437445 0.211492 0.401825
O O12 0.394482 0.131786 0.278907
O O13 0.899036 0.202969 0.417949
O O14 0.923522 0.142807 0.032371
O O15 0.479413 0.272814 0.779363
O O16 0.484386 0.412195 0.384890
#
# Coordination Sequence:
#
# PCOD8190615 Si02
#       8
#     8   8   8   8   8   8   8   8
#     4  11  24  45  69  94 124 156 198 261 331 401
#     4  11  25  38  63  89 118 152 195 254 318 369
#     4  12  23  36  53  82 116 167 209 250 303 358
#     4  10  21  35  53  78 112 157 200 231 271 329
#     4  11  22  38  54  81 118 160 210 257 304 348
#     4  10  21  33  48  70 103 154 205 249 284 323
#     4  12  21  40  57  87 123 156 204 254 288 360
#     4  11  25  41  61  91 122 165 216 265 314 366
#
# _framework density 21.518090000000001
#
# number of rings (size 3 to 8) (size 9 to 14) (size 15 to 20)
#    0.000    1.000    3.750    3.000    0.000    7.500 
#    0.000    0.000    0.000    0.000    0.000    0.000 
#    0.000   35.000    0.000    0.000    0.000    0.000 
#
# Total GULP energy -396860.304539 kJ/mol
# GULP energy per Si atom -12401.884517 kJ/mol
# Density = 2.146911 g / cm^3
# Si number density = 21.518090 Si / 1000 Ang^3
#
#
#
# Elastic Constant Matrix: (Units=GPa)
#
#
# Indices 1 2 3 4 5 6 
#
# 1 70.7270 33.3481 6.7411 0.0000 0.0000 0.0000
# 2 33.3481 74.1913 15.6661 0.0000 0.0000 0.0000
# 3 6.7411 15.6661 69.9242 0.0000 0.0000 0.0000
# 4 0.0000 0.0000 0.0000 23.5571 0.0000 0.0000
# 5 0.0000 0.0000 0.0000 0.0000 19.3449 0.0000
# 6 0.0000 0.0000 0.0000 0.0000 0.0000 23.5852
#
#
#
# Elastic Compliance Matrix: (Units=1/GPa)
#
#
# Indices 1 2 3 4 5 6 
#
# 1 0.017942 -0.008082 0.000081 0.000000 0.000000 0.000000
# 2 -0.008082 0.017788 -0.003206 0.000000 0.000000 0.000000
# 3 0.000081 -0.003206 0.015012 0.000000 0.000000 0.000000
# 4 0.000000 0.000000 0.000000 0.042450 0.000000 0.000000
# 5 0.000000 0.000000 0.000000 0.000000 0.051693 0.000000
# 6 0.000000 0.000000 0.000000 0.000000 0.000000 0.042400
#
#
# Mechanical properties :
#
#
# Convention : Reuss Voigt Hill
#
# Bulk Modulus (GPa) = 35.30097 36.26146 35.78122
# Shear Modulus (GPa) = 22.81637 23.90326 23.35982
#
# Velocity S-wave (km/s) = 3.25981 3.33655 3.29840
# Velocity P-wave (km/s) = 5.53257 5.63308 5.58305
#
# Compressibility (1/GPa) = 0.02832783
#
# Stress axis : x y z
#
# Youngs Moduli (GPa) = 55.73609 56.21673 66.61459
#
# Poissons Ratio (x) = 0.45432 -0.00539
# Poissons Ratio (y) = 0.45044 0.21358
# Poissons Ratio (z) = -0.00451 0.18024
#
# Static dielectric constant tensor:
#      x y z
#    x 3.927510 0.000000 0.000000 
#    y 0.000000 3.644390 0.000000 
#    z 0.000000 0.000000 3.787260 
# 
# 
# High freq. dielectric constant tensor:
#      x y z
#    x 1.847480 0.000000 0.000000 
#    y 0.000000 1.802840 0.000000 
#    z 0.000000 0.000000 1.853380 
# 
# From -- ./inp_files/481.got.cif
#   From: 2010.03.12/outbox.cif.g09.slc.cpg/sg45_1_cif.got.tgz:481.got - 2010.04.14 02:50:11.
