data_PCOD8190211
_publ_section_title
;
Structure prediction by ZEFSAII (Michael W. Deem and Ramdas Pophale) SiO2 
 PCOD8190211
Probable space group: I M M 2
;
_chemical_formula_sum "Si O2"
_cell_formula_units_Z 48
_cell_length_a 16.148331
_cell_length_b 7.639650
_cell_length_c 19.955010
_cell_angle_alpha 90.000000
_cell_angle_beta 90.000000
_cell_angle_gamma 90.000000
_cell_volume 2461.801630
_symmetry_space_group_name_H-M "I M M 2"
_symmetry_group_IT_number 44
_symmetry_cell_setting 'orthorhombic'
loop_
_space_group_symop_operation_xyz
x,y,z
-x,-y,z
-x,y,z
x,-y,z
1/2+x,1/2+y,1/2+z
1/2-x,1/2-y,1/2+z
1/2-x,1/2+y,1/2+z
1/2+x,1/2-y,1/2+z
loop_
_atom_site_type_symbol
_atom_site_label
_atom_site_fract_x
_atom_site_fract_y
_atom_site_fract_z
Si Si1 0.500000 0.206488 0.086820
Si Si2 0.500000 0.208608 0.239642
Si Si3 0.592942 0.000000 0.837343
Si Si4 0.093731 0.500000 0.178555
Si Si5 0.678918 0.698962 0.047193
Si Si6 0.285787 0.303013 0.665464
Si Si7 0.296584 0.296227 0.896696
Si Si8 0.826454 0.295957 0.785221
O O1 0.500000 0.275317 0.163158
O O2 0.419845 0.277032 0.048181
O O3 0.500000 0.000000 0.084958
O O4 0.581673 0.285944 0.276826
O O5 0.500000 0.000000 0.242569
O O6 0.595589 0.000000 0.758026
O O7 0.633453 0.177574 0.863932
O O8 0.500000 0.000000 0.864811
O O9 0.137605 0.324971 0.150240
O O10 0.000000 0.500000 0.151189
O O11 0.702180 0.500000 0.062956
O O12 0.723687 0.816932 0.102451
O O13 0.713531 0.753397 0.974338
O O14 0.318643 0.500000 0.680064
O O15 0.236156 0.221785 0.728908
O O16 0.322003 0.500000 0.887519
O O17 0.209341 0.256181 0.859158
O O18 0.833683 0.500000 0.770410
#
# Coordination Sequence:
#
# PCOD8190211 Si02
#       8
#     4   4   4   4   8   8   8   8
#     4  11  21  33  53  91 127 156 199 243 305 373
#     4   9  16  29  57  89 115 146 191 244 292 357
#     4  11  24  38  60  88 116 157 201 246 301 360
#     4  11  24  42  64  90 116 151 207 262 303 362
#     4  11  23  37  56  86 126 165 202 246 304 370
#     4  11  21  38  63  88 119 156 197 252 310 365
#     4  10  23  39  57  83 122 163 200 242 294 362
#     4   9  17  34  57  84 116 153 195 239 294 352
#
# _framework density 19.497914000000002
#
# number of rings (size 3 to 8) (size 9 to 14) (size 15 to 20)
#    0.000    1.667    4.167    0.750    3.500    0.667 
#    0.000    1.667    1.833    0.000    0.000    0.000 
#    0.000    0.000    0.000    0.000    0.000    0.000 
#
# Total GULP energy -297604.613749 kJ/mol
# GULP energy per Si atom -12400.192240 kJ/mol
# Density = 1.945354 g / cm^3
# Si number density = 19.497914 Si / 1000 Ang^3
#
#
#
# Elastic Constant Matrix: (Units=GPa)
#
#
# Indices 1 2 3 4 5 6 
#
# 1 141.5347 36.4963 51.9032 0.0000 0.0000 0.0000
# 2 36.4963 68.3379 14.1151 0.0000 0.0000 0.0000
# 3 51.9032 14.1151 116.8244 0.0000 0.0000 0.0000
# 4 0.0000 0.0000 0.0000 21.3385 0.0000 0.0000
# 5 0.0000 0.0000 0.0000 0.0000 34.3559 0.0000
# 6 0.0000 0.0000 0.0000 0.0000 0.0000 21.0353
#
#
#
# Elastic Compliance Matrix: (Units=1/GPa)
#
#
# Indices 1 2 3 4 5 6 
#
# 1 0.009545 -0.004330 -0.003718 0.000000 0.000000 0.000000
# 2 -0.004330 0.016972 -0.000127 0.000000 0.000000 0.000000
# 3 -0.003718 -0.000127 0.010227 0.000000 0.000000 0.000000
# 4 0.000000 0.000000 0.000000 0.046864 0.000000 0.000000
# 5 0.000000 0.000000 0.000000 0.000000 0.029107 0.000000
# 6 0.000000 0.000000 0.000000 0.000000 0.000000 0.047539
#
#
# Mechanical properties :
#
#
# Convention : Reuss Voigt Hill
#
# Bulk Modulus (GPa) = 49.03137 59.08068 54.05603
# Shear Modulus (GPa) = 27.26270 30.29144 28.77707
#
# Velocity S-wave (km/s) = 3.74336 3.94582 3.84592
# Velocity P-wave (km/s) = 6.62459 7.15025 6.89243
#
# Compressibility (1/GPa) = 0.02039511
#
# Stress axis : x y z
#
# Youngs Moduli (GPa) = 104.76441 58.92147 97.78147
#
# Poissons Ratio (x) = 0.25512 0.36352
# Poissons Ratio (y) = 0.45361 0.01241
# Poissons Ratio (z) = 0.38948 0.00748
#
# Static dielectric constant tensor:
#      x y z
#    x 3.655240 0.000000 0.000000 
#    y 0.000000 3.436690 0.000000 
#    z 0.000000 0.000000 3.539280 
# 
# 
# High freq. dielectric constant tensor:
#      x y z
#    x 1.748390 0.000000 0.000000 
#    y 0.000000 1.759110 0.000000 
#    z 0.000000 0.000000 1.749330 
# 
# From -- ./inp_files/21757.got.cif
#   From: 2010.03.12/outbox.cif.g09.slc.cpg/sg44_11_cif.got.tgz:21757.got - 2010.04.14 02:36:11.
