data_PCOD8190863
_publ_section_title
;
Structure prediction by ZEFSAII (Michael W. Deem and Ramdas Pophale) SiO2 
 PCOD8190863
Probable space group: I B A 2
;
_chemical_formula_sum "Si O2"
_cell_formula_units_Z 48
_cell_length_a 26.320435
_cell_length_b 15.412789
_cell_length_c 5.225159
_cell_angle_alpha 90.000000
_cell_angle_beta 90.000000
_cell_angle_gamma 90.000000
_cell_volume 2119.697102
_symmetry_space_group_name_H-M "I B A 2"
_symmetry_group_IT_number 45
_symmetry_cell_setting 'orthorhombic'
loop_
_space_group_symop_operation_xyz
x,y,z
-x,-y,z
-x,y,1/2+z
x,-y,1/2+z
1/2+x,1/2+y,1/2+z
1/2-x,1/2-y,1/2+z
1/2-x,1/2+y,z
1/2+x,1/2-y,z
loop_
_atom_site_type_symbol
_atom_site_label
_atom_site_fract_x
_atom_site_fract_y
_atom_site_fract_z
Si Si1 0.441981 0.961860 0.565500
Si Si2 0.519252 0.404528 0.926329
Si Si3 0.227412 0.704042 0.064392
Si Si4 0.705029 0.555939 0.629401
Si Si5 0.891799 0.280395 0.090861
Si Si6 0.612398 0.324406 0.100083
O O1 0.432623 0.858633 0.565558
O O2 0.500000 0.000000 0.564967
O O3 0.414177 0.999688 0.315106
O O4 0.500000 0.500000 0.851073
O O5 0.513359 0.356151 0.651504
O O6 0.577173 0.406264 0.022000
O O7 0.254043 0.738266 0.804341
O O8 0.166989 0.698654 0.031784
O O9 0.240573 0.602086 0.107769
O O10 0.696229 0.488089 0.402911
O O11 0.668781 0.639552 0.610955
O O12 0.906764 0.211035 0.872882
O O13 0.895403 0.247346 0.381079
#
# Coordination Sequence:
#
# PCOD8190863 Si02
#       6
#     8   8   8   8   8   8
#     4  10  23  46  70  99 139 175 227 295 360 408
#     4  10  23  42  60  90 134 181 212 280 336 389
#     4  12  23  46  67 100 146 180 233 293 349 411
#     4  12  26  41  70 104 141 185 230 284 345 417
#     4  12  24  45  76  99 135 188 227 289 357 412
#     4  12  25  44  69 104 136 179 236 275 347 422
#
# _framework density 22.644746000000001
#
# number of rings (size 3 to 8) (size 9 to 14) (size 15 to 20)
#    0.000    0.667    3.333    4.000    4.667    1.333 
#   18.000    0.000    0.000    0.000    0.000    0.000 
#    0.000    0.000    0.000    0.000    0.000    0.000 
#
# Total GULP energy -297356.520746 kJ/mol
# GULP energy per Si atom -12389.855031 kJ/mol
# Density = 2.259321 g / cm^3
# Si number density = 22.644746 Si / 1000 Ang^3
#
#
#
# Elastic Constant Matrix: (Units=GPa)
#
#
# Indices 1 2 3 4 5 6 
#
# 1 76.2603 26.9333 5.7850 0.0000 0.0000 0.0000
# 2 26.9333 96.4088 20.2748 0.0000 0.0000 0.0000
# 3 5.7850 20.2748 158.4674 0.0000 0.0000 0.0000
# 4 0.0000 0.0000 0.0000 33.6947 0.0000 0.0000
# 5 0.0000 0.0000 0.0000 0.0000 26.4890 0.0000
# 6 0.0000 0.0000 0.0000 0.0000 0.0000 46.6179
#
#
#
# Elastic Compliance Matrix: (Units=1/GPa)
#
#
# Indices 1 2 3 4 5 6 
#
# 1 0.014548 -0.004062 -0.000011 0.000000 0.000000 0.000000
# 2 -0.004062 0.011793 -0.001361 0.000000 0.000000 0.000000
# 3 -0.000011 -0.001361 0.006485 0.000000 0.000000 0.000000
# 4 0.000000 0.000000 0.000000 0.029678 0.000000 0.000000
# 5 0.000000 0.000000 0.000000 0.000000 0.037752 0.000000
# 6 0.000000 0.000000 0.000000 0.000000 0.000000 0.021451
#
#
# Mechanical properties :
#
#
# Convention : Reuss Voigt Hill
#
# Bulk Modulus (GPa) = 45.53964 48.56919 47.05441
# Shear Modulus (GPa) = 35.74106 39.90320 37.82213
#
# Velocity S-wave (km/s) = 3.97714 4.20234 4.09129
# Velocity P-wave (km/s) = 6.42217 6.71127 6.56831
#
# Compressibility (1/GPa) = 0.02195889
#
# Stress axis : x y z
#
# Youngs Moduli (GPa) = 68.73592 84.79322 154.20340
#
# Poissons Ratio (x) = 0.34442 0.00176
# Poissons Ratio (y) = 0.27920 0.20981
# Poissons Ratio (z) = 0.00078 0.11537
#
# Static dielectric constant tensor:
#      x y z
#    x 4.128920 0.000000 0.000000 
#    y 0.000000 3.997040 0.000000 
#    z 0.000000 0.000000 4.988920 
# 
# 
# High freq. dielectric constant tensor:
#      x y z
#    x 1.885240 0.000000 0.000000 
#    y 0.000000 1.874050 0.000000 
#    z 0.000000 0.000000 1.934790 
# 
# From -- ./inp_files/602.got.cif
#   From: 2010.03.12/outbox.cif.g09.slc.cpg/sg45_1_cif.got.tgz:602.got - 2010.04.14 02:50:11.
