data_PCOD8190944
_publ_section_title
;
Structure prediction by ZEFSAII (Michael W. Deem and Ramdas Pophale) SiO2 
 PCOD8190944
Probable space group: I B A 2
;
_chemical_formula_sum "Si O2"
_cell_formula_units_Z 60
_cell_length_a 17.900595
_cell_length_b 18.113566
_cell_length_c 8.587900
_cell_angle_alpha 90.000000
_cell_angle_beta 90.000000
_cell_angle_gamma 90.000000
_cell_volume 2784.571689
_symmetry_space_group_name_H-M "I B A 2"
_symmetry_group_IT_number 45
_symmetry_cell_setting 'orthorhombic'
loop_
_space_group_symop_operation_xyz
x,y,z
-x,-y,z
-x,y,1/2+z
x,-y,1/2+z
1/2+x,1/2+y,1/2+z
1/2-x,1/2-y,1/2+z
1/2-x,1/2+y,z
1/2+x,1/2-y,z
loop_
_atom_site_type_symbol
_atom_site_label
_atom_site_fract_x
_atom_site_fract_y
_atom_site_fract_z
Si Si1 0.350678 0.977833 0.322280
Si Si2 0.728860 0.182957 0.712074
Si Si3 0.744272 0.469913 0.078467
Si Si4 0.905713 0.368217 0.402552
Si Si5 0.601028 0.569008 0.027582
Si Si6 0.849717 0.231493 0.933208
Si Si7 0.054926 0.660771 0.752667
Si Si8 0.500000 0.500000 0.270113
O O1 0.270935 0.958956 0.402136
O O2 0.404683 0.908708 0.329668
O O3 0.320809 0.995290 0.149821
O O4 0.397687 0.043549 0.401644
O O5 0.771678 0.108501 0.658872
O O6 0.672444 0.166430 0.852394
O O7 0.791805 0.232798 0.789927
O O8 0.686305 0.221876 0.571932
O O9 0.671310 0.520231 0.081542
O O10 0.927266 0.334610 0.569881
O O11 0.966433 0.346373 0.272627
O O12 0.538744 0.563227 0.163451
O O13 0.627888 0.652332 0.002636
O O14 0.564740 0.538655 0.869508
O O15 0.921895 0.268411 0.855005
#
# Coordination Sequence:
#
# PCOD8190944 Si02
#       8
#     8   8   8   8   8   8   8   4
#     4  11  22  38  67  96 131 175 228 277 326 406
#     4  11  25  44  66 101 136 181 227 286 338 414
#     4  11  22  42  68  98 130 175 231 278 333 402
#     4  11  25  43  66  94 139 185 231 272 340 405
#     4  11  24  44  70 100 129 176 223 287 335 409
#     4  12  26  43  69 100 139 178 231 282 353 399
#     4  12  25  42  64  98 140 184 221 282 339 410
#     4  10  24  46  70  96 132 170 232 278 346 394
#
# _framework density 21.5473
#
# number of rings (size 3 to 8) (size 9 to 14) (size 15 to 20)
#    0.000    0.800    2.667    5.200    3.733    4.267 
#    0.000    2.667    0.000    0.000    0.000    0.000 
#    0.000    0.000    0.000    0.000    0.000    0.000 
#
# Total GULP energy -371992.513135 kJ/mol
# GULP energy per Si atom -12399.750438 kJ/mol
# Density = 2.149826 g / cm^3
# Si number density = 21.547300 Si / 1000 Ang^3
#
#
#
# Elastic Constant Matrix: (Units=GPa)
#
#
# Indices 1 2 3 4 5 6 
#
# 1 81.9151 35.1913 28.0269 0.0000 0.0000 0.0000
# 2 35.1913 93.4593 44.3925 0.0000 0.0000 0.0000
# 3 28.0269 44.3925 106.7560 0.0000 0.0000 0.0000
# 4 0.0000 0.0000 0.0000 24.9022 0.0000 0.0000
# 5 0.0000 0.0000 0.0000 0.0000 33.7567 0.0000
# 6 0.0000 0.0000 0.0000 0.0000 0.0000 26.6489
#
#
#
# Elastic Compliance Matrix: (Units=1/GPa)
#
#
# Indices 1 2 3 4 5 6 
#
# 1 0.014887 -0.004672 -0.001966 0.000000 0.000000 0.000000
# 2 -0.004672 0.014800 -0.004928 0.000000 0.000000 0.000000
# 3 -0.001966 -0.004928 0.011932 0.000000 0.000000 0.000000
# 4 0.000000 0.000000 0.000000 0.040157 0.000000 0.000000
# 5 0.000000 0.000000 0.000000 0.000000 0.029624 0.000000
# 6 0.000000 0.000000 0.000000 0.000000 0.000000 0.037525
#
#
# Mechanical properties :
#
#
# Convention : Reuss Voigt Hill
#
# Bulk Modulus (GPa) = 54.08699 55.26132 54.67415
# Shear Modulus (GPa) = 28.05542 28.69622 28.37582
#
# Velocity S-wave (km/s) = 3.61229 3.65331 3.63286
# Velocity P-wave (km/s) = 6.52336 6.59528 6.55942
#
# Compressibility (1/GPa) = 0.01848873
#
# Stress axis : x y z
#
# Youngs Moduli (GPa) = 67.17064 67.56922 83.80655
#
# Poissons Ratio (x) = 0.31569 0.16473
# Poissons Ratio (y) = 0.31383 0.41296
# Poissons Ratio (z) = 0.13203 0.33295
#
# Static dielectric constant tensor:
#      x y z
#    x 3.925450 0.000000 0.000000 
#    y 0.000000 3.822210 0.000000 
#    z 0.000000 0.000000 3.986780 
# 
# 
# High freq. dielectric constant tensor:
#      x y z
#    x 1.854090 0.000000 0.000000 
#    y 0.000000 1.835840 0.000000 
#    z 0.000000 0.000000 1.866060 
# 
# From -- ./inp_files/2161.got.cif
#   From: 2010.03.12/outbox.cif.g09.slc.cpg/sg45_2_cif.got.tgz:2161.got - 2010.04.14 02:50:11.
