data_PCOD8190844
_publ_section_title
;
Structure prediction by ZEFSAII (Michael W. Deem and Ramdas Pophale) SiO2 
 PCOD8190844
Probable space group: I B A 2
;
_chemical_formula_sum "Si O2"
_cell_formula_units_Z 56
_cell_length_a 13.799778
_cell_length_b 12.783969
_cell_length_c 14.139149
_cell_angle_alpha 90.000000
_cell_angle_beta 90.000000
_cell_angle_gamma 90.000000
_cell_volume 2494.371179
_symmetry_space_group_name_H-M "I B A 2"
_symmetry_group_IT_number 45
_symmetry_cell_setting 'orthorhombic'
loop_
_space_group_symop_operation_xyz
x,y,z
-x,-y,z
-x,y,1/2+z
x,-y,1/2+z
1/2+x,1/2+y,1/2+z
1/2-x,1/2-y,1/2+z
1/2-x,1/2+y,z
1/2+x,1/2-y,z
loop_
_atom_site_type_symbol
_atom_site_label
_atom_site_fract_x
_atom_site_fract_y
_atom_site_fract_z
Si Si1 0.927003 0.788201 0.936560
Si Si2 0.805709 0.535359 0.609688
Si Si3 0.744581 0.145984 0.967717
Si Si4 0.500000 0.500000 0.891634
Si Si5 0.000000 0.500000 0.720413
Si Si6 0.992220 0.731616 0.249764
Si Si7 0.833069 0.105652 0.775684
Si Si8 0.906358 0.267464 0.052103
O O1 0.934710 0.784657 0.823446
O O2 0.825117 0.747811 0.977247
O O3 0.954101 0.909661 0.960817
O O4 0.007921 0.708937 0.978314
O O5 0.789028 0.452877 0.527095
O O6 0.904234 0.500585 0.658189
O O7 0.717554 0.551386 0.684585
O O8 0.825708 0.643440 0.556580
O O9 0.850255 0.167658 0.010539
O O10 0.750546 0.121912 0.855596
O O11 0.585102 0.533263 0.820630
O O12 0.989344 0.391841 0.778242
O O13 0.884250 0.782887 0.248974
O O14 0.043220 0.755320 0.151181
#
# Coordination Sequence:
#
# PCOD8190844 Si02
#       8
#     8   8   8   4   4   8   8   8
#     4  11  25  47  70 101 146 185 247 302 361 436
#     4  11  27  43  71 111 144 192 246 300 362 436
#     4  12  25  44  74 107 138 196 242 297 363 441
#     4  10  24  48  72 104 144 196 236 304 370 428
#     4  10  22  46  70  98 146 196 238 298 368 420
#     4  10  23  46  68 100 144 189 237 303 361 422
#     4  11  26  47  71 110 145 193 243 298 373 434
#     4  11  25  44  67 105 141 188 238 297 361 427
#
# _framework density 22.450548000000001
#
# number of rings (size 3 to 8) (size 9 to 14) (size 15 to 20)
#    0.000    1.143    2.857    3.429   10.000    3.429 
#    0.000    0.714    0.000    0.000    0.000    0.000 
#    0.000    0.000    0.000    0.000    0.000    0.000 
#
# Total GULP energy -346947.319759 kJ/mol
# GULP energy per Si atom -12390.975706 kJ/mol
# Density = 2.239945 g / cm^3
# Si number density = 22.450548 Si / 1000 Ang^3
#
#
#
# Elastic Constant Matrix: (Units=GPa)
#
#
# Indices 1 2 3 4 5 6 
#
# 1 122.3372 39.2695 41.2919 0.0000 0.0000 0.0000
# 2 39.2695 89.3598 53.2169 0.0000 0.0000 0.0000
# 3 41.2919 53.2169 101.6154 0.0000 0.0000 0.0000
# 4 0.0000 0.0000 0.0000 53.4515 0.0000 0.0000
# 5 0.0000 0.0000 0.0000 0.0000 20.7395 0.0000
# 6 0.0000 0.0000 0.0000 0.0000 0.0000 40.6942
#
#
#
# Elastic Compliance Matrix: (Units=1/GPa)
#
#
# Indices 1 2 3 4 5 6 
#
# 1 0.009951 -0.002855 -0.002548 0.000000 0.000000 0.000000
# 2 -0.002855 0.017082 -0.007786 0.000000 0.000000 0.000000
# 3 -0.002548 -0.007786 0.014954 0.000000 0.000000 0.000000
# 4 0.000000 0.000000 0.000000 0.018709 0.000000 0.000000
# 5 0.000000 0.000000 0.000000 0.000000 0.048217 0.000000
# 6 0.000000 0.000000 0.000000 0.000000 0.000000 0.024574
#
#
# Mechanical properties :
#
#
# Convention : Reuss Voigt Hill
#
# Bulk Modulus (GPa) = 64.06859 64.54101 64.30480
# Shear Modulus (GPa) = 30.29058 34.94598 32.61828
#
# Velocity S-wave (km/s) = 3.67715 3.94963 3.81582
# Velocity P-wave (km/s) = 6.82848 7.04343 6.93679
#
# Compressibility (1/GPa) = 0.01560827
#
# Stress axis : x y z
#
# Youngs Moduli (GPa) = 100.49493 58.54030 66.87182
#
# Poissons Ratio (x) = 0.16716 0.17040
# Poissons Ratio (y) = 0.28695 0.52065
# Poissons Ratio (z) = 0.25608 0.45578
#
# Static dielectric constant tensor:
#      x y z
#    x 4.419470 0.000000 0.000000 
#    y 0.000000 3.885230 0.000000 
#    z 0.000000 0.000000 3.961080 
# 
# 
# High freq. dielectric constant tensor:
#      x y z
#    x 1.898470 0.000000 0.000000 
#    y 0.000000 1.886220 0.000000 
#    z 0.000000 0.000000 1.880630 
# 
# From -- ./inp_files/6195.got.cif
#   From: 2010.03.12/outbox.cif.g09.slc.cpg/sg45_4_cif.got.tgz:6195.got - 2010.04.14 02:50:11.
