data_PCOD8190864
_publ_section_title
;
Structure prediction by ZEFSAII (Michael W. Deem and Ramdas Pophale) SiO2 
 PCOD8190864
Probable space group: I B A 2
;
_chemical_formula_sum "Si O2"
_cell_formula_units_Z 48
_cell_length_a 12.937546
_cell_length_b 5.213776
_cell_length_c 30.562910
_cell_angle_alpha 90.000000
_cell_angle_beta 90.000000
_cell_angle_gamma 90.000000
_cell_volume 2061.574236
_symmetry_space_group_name_H-M "I B A 2"
_symmetry_group_IT_number 45
_symmetry_cell_setting 'orthorhombic'
loop_
_space_group_symop_operation_xyz
x,y,z
-x,-y,z
-x,y,1/2+z
x,-y,1/2+z
1/2+x,1/2+y,1/2+z
1/2-x,1/2-y,1/2+z
1/2-x,1/2+y,z
1/2+x,1/2-y,z
loop_
_atom_site_type_symbol
_atom_site_label
_atom_site_fract_x
_atom_site_fract_y
_atom_site_fract_z
Si Si1 0.684799 0.343467 0.950850
Si Si2 0.313111 0.635029 0.050057
Si Si3 0.000000 0.000000 0.889580
Si Si4 0.644770 0.366137 0.220202
Si Si5 0.125679 0.371467 0.757216
Si Si6 0.935003 0.242126 0.633720
Si Si7 0.000000 0.500000 0.336294
O O1 0.770389 0.560798 0.942117
O O2 0.590470 0.388004 0.919131
O O3 0.643847 0.348075 0.000876
O O4 0.277121 0.343520 0.058539
O O5 0.402585 0.707786 0.083640
O O6 0.959456 0.250662 0.863109
O O7 0.752204 0.404872 0.246448
O O8 0.574663 0.139341 0.240959
O O9 0.660010 0.281033 0.168926
O O10 0.583232 0.629860 0.229497
O O11 0.095891 0.375278 0.808618
O O12 0.000000 0.500000 0.638711
O O13 0.000000 0.000000 0.648817
#
# Coordination Sequence:
#
# PCOD8190864 Si02
#       7
#     8   8   4   8   8   8   4
#     4  10  23  48  73 108 146 192 234 286 375 439
#     4  10  23  43  71 100 143 186 235 288 340 424
#     4  12  26  48  76 106 146 180 238 314 362 452
#     4  10  23  42  63  91 130 186 218 275 350 413
#     4  10  23  43  66  89 130 170 228 285 353 408
#     4  12  26  40  64 106 142 185 246 288 334 414
#     4  12  26  46  70 108 130 172 246 308 360 432
#
# _framework density 23.283176000000001
#
# number of rings (size 3 to 8) (size 9 to 14) (size 15 to 20)
#    0.000    1.333    0.000    4.000    9.333    0.000 
#   19.500    0.000    0.000    0.000    0.000    0.000 
#    0.000    0.000    0.000    0.000    0.000    0.000 
#
# Total GULP energy -297346.975236 kJ/mol
# GULP energy per Si atom -12389.457301 kJ/mol
# Density = 2.323018 g / cm^3
# Si number density = 23.283176 Si / 1000 Ang^3
#
#
#
# Elastic Constant Matrix: (Units=GPa)
#
#
# Indices 1 2 3 4 5 6 
#
# 1 66.8440 26.1290 56.1676 0.0000 0.0000 0.0000
# 2 26.1290 195.9214 54.1187 0.0000 0.0000 0.0000
# 3 56.1676 54.1187 147.3921 0.0000 0.0000 0.0000
# 4 0.0000 0.0000 0.0000 44.0381 0.0000 0.0000
# 5 0.0000 0.0000 0.0000 0.0000 35.1380 0.0000
# 6 0.0000 0.0000 0.0000 0.0000 0.0000 29.3013
#
#
#
# Elastic Compliance Matrix: (Units=1/GPa)
#
#
# Indices 1 2 3 4 5 6 
#
# 1 0.022091 -0.000691 -0.008165 0.000000 0.000000 0.000000
# 2 -0.000691 0.005702 -0.001830 0.000000 0.000000 0.000000
# 3 -0.008165 -0.001830 0.010568 0.000000 0.000000 0.000000
# 4 0.000000 0.000000 0.000000 0.022708 0.000000 0.000000
# 5 0.000000 0.000000 0.000000 0.000000 0.028459 0.000000
# 6 0.000000 0.000000 0.000000 0.000000 0.000000 0.034128
#
#
# Mechanical properties :
#
#
# Convention : Reuss Voigt Hill
#
# Bulk Modulus (GPa) = 58.86130 75.88758 67.37444
# Shear Modulus (GPa) = 33.18067 39.94496 36.56282
#
# Velocity S-wave (km/s) = 3.77913 4.14649 3.96707
# Velocity P-wave (km/s) = 6.66168 7.45578 7.06989
#
# Compressibility (1/GPa) = 0.01698909
#
# Stress axis : x y z
#
# Youngs Moduli (GPa) = 45.26771 175.38329 94.62526
#
# Poissons Ratio (x) = 0.12116 0.77258
# Poissons Ratio (y) = 0.03127 0.17319
# Poissons Ratio (z) = 0.36959 0.32100
#
# Static dielectric constant tensor:
#      x y z
#    x 3.949630 0.000000 0.000000 
#    y 0.000000 5.358710 0.000000 
#    z 0.000000 0.000000 4.306120 
# 
# 
# High freq. dielectric constant tensor:
#      x y z
#    x 1.904210 0.000000 0.000000 
#    y 0.000000 1.964790 0.000000 
#    z 0.000000 0.000000 1.923310 
# 
# From -- ./inp_files/10061.got.cif
#   From: 2010.03.12/outbox.cif.g09.slc.cpg/sg45_6_cif.got.tgz:10061.got - 2010.04.14 02:50:11.
