data_PCOD8190688
_publ_section_title
;
Structure prediction by ZEFSAII (Michael W. Deem and Ramdas Pophale) SiO2 
 PCOD8190688
Probable space group: I B A 2
;
_chemical_formula_sum "Si O2"
_cell_formula_units_Z 64
_cell_length_a 15.462661
_cell_length_b 19.115604
_cell_length_c 9.045334
_cell_angle_alpha 90.000000
_cell_angle_beta 90.000000
_cell_angle_gamma 90.000000
_cell_volume 2673.602678
_symmetry_space_group_name_H-M "I B A 2"
_symmetry_group_IT_number 45
_symmetry_cell_setting 'orthorhombic'
loop_
_space_group_symop_operation_xyz
x,y,z
-x,-y,z
-x,y,1/2+z
x,-y,1/2+z
1/2+x,1/2+y,1/2+z
1/2-x,1/2-y,1/2+z
1/2-x,1/2+y,z
1/2+x,1/2-y,z
loop_
_atom_site_type_symbol
_atom_site_label
_atom_site_fract_x
_atom_site_fract_y
_atom_site_fract_z
Si Si1 0.820685 0.650503 0.094810
Si Si2 0.832728 0.341209 0.089064
Si Si3 0.563239 0.609837 0.454788
Si Si4 0.227929 0.912188 0.345087
Si Si5 0.101690 0.867482 0.791334
Si Si6 0.866189 0.254561 0.346850
Si Si7 0.558584 0.206759 0.332304
Si Si8 0.289204 0.062649 0.331194
O O1 0.735618 0.635592 0.196771
O O2 0.903123 0.658428 0.202307
O O3 0.811979 0.719076 0.990160
O O4 0.832356 0.583989 0.986457
O O5 0.812077 0.274035 0.197353
O O6 0.846799 0.408753 0.195377
O O7 0.753546 0.359686 0.979601
O O8 0.916833 0.324447 0.992087
O O9 0.633127 0.554574 0.387955
O O10 0.465668 0.595701 0.405248
O O11 0.564769 0.616156 0.629332
O O12 0.606835 0.675181 0.366576
O O13 0.289259 0.978987 0.324155
O O14 0.099608 0.784430 0.818269
O O15 0.195025 0.900012 0.817769
O O16 0.955730 0.297442 0.326714
#
# Coordination Sequence:
#
# PCOD8190688 Si02
#       8
#     8   8   8   8   8   8   8   8
#     4  10  22  37  65  94 119 169 212 256 323 372
#     4  10  22  39  67  92 127 169 206 264 317 376
#     4  11  25  42  65  97 130 166 207 258 323 387
#     4  11  24  43  63  89 129 171 218 262 304 367
#     4  11  25  42  65  97 130 166 207 258 323 387
#     4  10  21  39  65  97 131 158 203 260 329 383
#     4  10  21  39  65  97 131 158 203 260 329 383
#     4  11  24  43  63  89 129 171 218 262 304 367
#
# _framework density 23.937739000000001
#
# number of rings (size 3 to 8) (size 9 to 14) (size 15 to 20)
#    0.000    1.500    2.500    1.500    7.000    6.500 
#    0.000    1.250    0.000   52.500    0.000    0.000 
#    0.000    0.000    0.000    0.000    0.000    0.000 
#
# Total GULP energy -396465.604697 kJ/mol
# GULP energy per Si atom -12389.550147 kJ/mol
# Density = 2.388326 g / cm^3
# Si number density = 23.937739 Si / 1000 Ang^3
#
#
#
# Elastic Constant Matrix: (Units=GPa)
#
#
# Indices 1 2 3 4 5 6 
#
# 1 58.2475 -7.4910 18.2937 0.0000 0.0000 0.0000
# 2 -7.4910 51.5462 7.4720 0.0000 0.0000 0.0000
# 3 18.2937 7.4720 164.4842 0.0000 0.0000 0.0000
# 4 0.0000 0.0000 0.0000 20.2626 0.0000 0.0000
# 5 0.0000 0.0000 0.0000 0.0000 29.3200 0.0000
# 6 0.0000 0.0000 0.0000 0.0000 0.0000 27.5254
#
#
#
# Elastic Compliance Matrix: (Units=1/GPa)
#
#
# Indices 1 2 3 4 5 6 
#
# 1 0.018228 0.002962 -0.002162 0.000000 0.000000 0.000000
# 2 0.002962 0.020010 -0.001238 0.000000 0.000000 0.000000
# 3 -0.002162 -0.001238 0.006376 0.000000 0.000000 0.000000
# 4 0.000000 0.000000 0.000000 0.049352 0.000000 0.000000
# 5 0.000000 0.000000 0.000000 0.000000 0.034106 0.000000
# 6 0.000000 0.000000 0.000000 0.000000 0.000000 0.036330
#
#
# Mechanical properties :
#
#
# Convention : Reuss Voigt Hill
#
# Bulk Modulus (GPa) = 22.86311 34.53636 28.69974
# Shear Modulus (GPa) = 27.79964 32.48847 30.14406
#
# Velocity S-wave (km/s) = 3.41153 3.68803 3.55247
# Velocity P-wave (km/s) = 5.00898 5.70914 5.37048
#
# Compressibility (1/GPa) = 0.04373858
#
# Stress axis : x y z
#
# Youngs Moduli (GPa) = 54.86045 49.97478 156.83047
#
# Poissons Ratio (x) = -0.14804 0.33905
# Poissons Ratio (y) = -0.16252 0.19423
# Poissons Ratio (z) = 0.11860 0.06189
#
# Static dielectric constant tensor:
#      x y z
#    x 4.348000 0.000000 0.000000 
#    y 0.000000 4.155360 0.000000 
#    z 0.000000 0.000000 4.662060 
# 
# 
# High freq. dielectric constant tensor:
#      x y z
#    x 1.936440 0.000000 0.000000 
#    y 0.000000 1.928980 0.000000 
#    z 0.000000 0.000000 1.974610 
# 
# From -- ./inp_files/2201.got.cif
#   From: 2010.03.12/outbox.cif.g09.slc.cpg/sg45_2_cif.got.tgz:2201.got - 2010.04.14 02:50:11.
