data_PCOD8190134
_publ_section_title
;
Structure prediction by ZEFSAII (Michael W. Deem and Ramdas Pophale) SiO2 
 PCOD8190134
Probable space group: I M M 2
;
_chemical_formula_sum "Si O2"
_cell_formula_units_Z 40
_cell_length_a 9.009927
_cell_length_b 28.098722
_cell_length_c 7.749489
_cell_angle_alpha 90.000000
_cell_angle_beta 90.000000
_cell_angle_gamma 90.000000
_cell_volume 1961.918245
_symmetry_space_group_name_H-M "I M M 2"
_symmetry_group_IT_number 44
_symmetry_cell_setting 'orthorhombic'
loop_
_space_group_symop_operation_xyz
x,y,z
-x,-y,z
-x,y,z
x,-y,z
1/2+x,1/2+y,1/2+z
1/2-x,1/2-y,1/2+z
1/2-x,1/2+y,1/2+z
1/2+x,1/2-y,1/2+z
loop_
_atom_site_type_symbol
_atom_site_label
_atom_site_fract_x
_atom_site_fract_y
_atom_site_fract_z
Si Si1 0.829689 0.444758 0.224410
Si Si2 0.829576 0.797129 0.506497
Si Si3 0.173240 0.100718 0.043477
Si Si4 0.331324 0.703418 0.405454
Si Si5 0.824652 0.387962 0.887406
O O1 0.810624 0.500000 0.182252
O O2 0.732964 0.431774 0.389736
O O3 0.000000 0.431469 0.263832
O O4 0.772142 0.416211 0.057233
O O5 0.780263 0.743643 0.468131
O O6 0.806194 0.808474 0.706189
O O7 0.732393 0.833754 0.396278
O O8 0.000000 0.802912 0.449708
O O9 0.207683 0.155993 0.009134
O O10 0.000000 0.090697 0.061723
O O11 0.253806 0.086293 0.221138
O O12 0.500000 0.720123 0.439894
O O13 0.000000 0.388342 0.866340
#
# Coordination Sequence:
#
# PCOD8190134 Si02
#       5
#     8   8   8   8   8
#     4  10  23  44  68  93 124 166 214 264 318 378
#     4  11  22  37  58  86 123 165 211 261 310 370
#     4  11  23  41  65  94 129 165 209 263 319 376
#     4  10  22  38  56  85 124 165 208 258 313 375
#     4  11  23  40  64  93 127 167 211 259 316 377
#
# _framework density 20.388210000000001
#
# number of rings (size 3 to 8) (size 9 to 14) (size 15 to 20)
#    0.000    1.400    2.000    3.000    0.000    8.400 
#    0.000    2.000    0.000    0.000    0.000    0.000 
#    0.000    0.000    0.000    0.000    0.000    0.000 
#
# Total GULP energy -248140.202549 kJ/mol
# GULP energy per Si atom -12407.010127 kJ/mol
# Density = 2.034181 g / cm^3
# Si number density = 20.388210 Si / 1000 Ang^3
#
#
#
# Elastic Constant Matrix: (Units=GPa)
#
#
# Indices 1 2 3 4 5 6 
#
# 1 92.6373 33.3859 49.1153 0.0006 0.0017 0.0004
# 2 33.3859 67.5128 25.9453 0.0129 -0.0009 -0.0012
# 3 49.1153 25.9453 111.7655 -0.0243 0.0001 -0.0021
# 4 0.0006 0.0129 -0.0243 24.6767 -0.0009 -0.0022
# 5 0.0017 -0.0009 0.0001 -0.0009 35.9421 0.0011
# 6 0.0004 -0.0012 -0.0021 -0.0022 0.0011 30.8678
#
#
#
# Elastic Compliance Matrix: (Units=1/GPa)
#
#
# Indices 1 2 3 4 5 6 
#
# 1 0.015824 -0.005658 -0.005641 -0.000003 -0.000001 -0.000001
# 2 -0.005658 0.018286 -0.001759 -0.000011 0.000001 0.000001
# 3 -0.005641 -0.001759 0.011834 0.000013 0.000000 0.000001
# 4 -0.000003 -0.000011 0.000013 0.040524 0.000001 0.000003
# 5 -0.000001 0.000001 0.000000 0.000001 0.027823 -0.000001
# 6 -0.000001 0.000001 0.000001 0.000003 -0.000001 0.032396
#
#
# Mechanical properties :
#
#
# Convention : Reuss Voigt Hill
#
# Bulk Modulus (GPa) = 50.42721 54.31207 52.36964
# Shear Modulus (GPa) = 27.86894 29.19525 28.53210
#
# Velocity S-wave (km/s) = 3.70119 3.78824 3.74497
# Velocity P-wave (km/s) = 6.56143 6.76987 6.66646
#
# Compressibility (1/GPa) = 0.01983056
#
# Stress axis : x y z
#
# Youngs Moduli (GPa) = 63.19358 54.68786 84.49989
#
# Poissons Ratio (x) = 0.30940 0.47664
# Poissons Ratio (y) = 0.35753 0.14860
# Poissons Ratio (z) = 0.35645 0.09617
#
# Static dielectric constant tensor:
#      x y z
#    x 3.722850 0.000030 0.000020 
#    y 0.000030 3.563640 0.000040 
#    z 0.000020 0.000040 3.851490 
# 
# 
# High freq. dielectric constant tensor:
#      x y z
#    x 1.800020 0.000000 0.000000 
#    y 0.000000 1.789210 0.000000 
#    z 0.000000 0.000000 1.812600 
# 
# From -- ./inp_files/4425.got.cif
#   From: 2010.03.12/outbox.cif.g09.slc.cpg/sg44_3_cif.got.tgz:4425.got - 2010.04.14 02:36:11.
