data_PCOD8190339
_publ_section_title
;
Structure prediction by ZEFSAII (Michael W. Deem and Ramdas Pophale) SiO2 
 PCOD8190339
Probable space group: I M M 2
;
_chemical_formula_sum "Si O2"
_cell_formula_units_Z 40
_cell_length_a 7.759999
_cell_length_b 9.837283
_cell_length_c 29.556711
_cell_angle_alpha 90.000000
_cell_angle_beta 90.000000
_cell_angle_gamma 90.000000
_cell_volume 2256.279699
_symmetry_space_group_name_H-M "I M M 2"
_symmetry_group_IT_number 44
_symmetry_cell_setting 'orthorhombic'
loop_
_space_group_symop_operation_xyz
x,y,z
-x,-y,z
-x,y,z
x,-y,z
1/2+x,1/2+y,1/2+z
1/2-x,1/2-y,1/2+z
1/2-x,1/2+y,1/2+z
1/2+x,1/2-y,1/2+z
loop_
_atom_site_type_symbol
_atom_site_label
_atom_site_fract_x
_atom_site_fract_y
_atom_site_fract_z
Si Si1 0.308690 0.838769 0.160860
Si Si2 0.500000 0.662421 0.721808
Si Si3 0.191553 0.338205 0.885005
Si Si4 0.500000 0.662365 0.823791
Si Si5 0.795794 0.349029 0.985454
Si Si6 0.295162 0.346616 0.563024
O O1 0.500000 0.793715 0.176424
O O2 0.272158 0.784597 0.110341
O O3 0.169615 0.780242 0.196347
O O4 0.290305 0.000000 0.159653
O O5 0.500000 0.500000 0.722157
O O6 0.500000 0.719155 0.772810
O O7 0.184288 0.500000 0.883600
O O8 0.328994 0.281477 0.848845
O O9 0.251805 0.294053 0.935371
O O10 0.000000 0.280459 0.873639
O O11 0.500000 0.500000 0.824517
O O12 0.717818 0.500000 0.993352
O O13 0.000000 0.356769 0.989748
O O14 0.719349 0.246303 0.022752
O O15 0.500000 0.345258 0.563814
O O16 0.226582 0.500000 0.555640
#
# Coordination Sequence:
#
# PCOD8190339 Si02
#       6
#     8   4   8   4   8   8
#     4   9  16  26  39  55  80 112 140 172 217 259
#     4   9  16  26  38  56  81 109 143 177 212 261
#     4   8  14  25  38  53  78 109 137 169 211 255
#     4   9  16  24  38  58  79 107 143 177 212 255
#     4   8  14  25  41  60  85 117 146 173 212 257
#     4   9  15  25  42  61  84 115 147 177 211 253
#
# _framework density 17.728297000000001
#
# number of rings (size 3 to 8) (size 9 to 14) (size 15 to 20)
#    0.000    3.400    1.000    1.200    0.000    0.800 
#    1.800    4.000    0.000    0.000    0.000    0.000 
#    0.000    3.200    0.000    4.600    0.000    4.800 
#
# Total GULP energy -247855.395958 kJ/mol
# GULP energy per Si atom -12392.769798 kJ/mol
# Density = 1.768795 g / cm^3
# Si number density = 17.728297 Si / 1000 Ang^3
#
#
#
# Elastic Constant Matrix: (Units=GPa)
#
#
# Indices 1 2 3 4 5 6 
#
# 1 105.4624 14.7718 78.8730 0.0000 0.0000 0.0000
# 2 14.7718 27.4894 33.4202 0.0000 0.0000 0.0000
# 3 78.8730 33.4202 178.2629 0.0000 0.0000 0.0000
# 4 0.0000 0.0000 0.0000 18.1818 0.0000 0.0000
# 5 0.0000 0.0000 0.0000 0.0000 17.4200 0.0000
# 6 0.0000 0.0000 0.0000 0.0000 0.0000 4.3734
#
#
#
# Elastic Compliance Matrix: (Units=1/GPa)
#
#
# Indices 1 2 3 4 5 6 
#
# 1 0.014171 0.000010 -0.006272 0.000000 0.000000 0.000000
# 2 0.000010 0.047117 -0.008838 0.000000 0.000000 0.000000
# 3 -0.006272 -0.008838 0.010042 0.000000 0.000000 0.000000
# 4 0.000000 0.000000 0.000000 0.055000 0.000000 0.000000
# 5 0.000000 0.000000 0.000000 0.000000 0.057405 0.000000
# 6 0.000000 0.000000 0.000000 0.000000 0.000000 0.228657
#
#
# Mechanical properties :
#
#
# Convention : Reuss Voigt Hill
#
# Bulk Modulus (GPa) = 24.31298 62.81607 43.56453
# Shear Modulus (GPa) = 10.95767 20.27167 15.61467
#
# Velocity S-wave (km/s) = 2.48884 3.38518 2.97101
# Velocity P-wave (km/s) = 4.69074 7.12663 6.03291
#
# Compressibility (1/GPa) = 0.04113029
#
# Stress axis : x y z
#
# Youngs Moduli (GPa) = 70.56476 21.22389 99.58511
#
# Poissons Ratio (x) = -0.00021 0.62460
# Poissons Ratio (y) = -0.00071 0.88011
# Poissons Ratio (z) = 0.44259 0.18757
#
# Static dielectric constant tensor:
#      x y z
#    x 3.376130 0.000000 0.000000 
#    y 0.000000 2.823520 0.000000 
#    z 0.000000 0.000000 3.534230 
# 
# 
# High freq. dielectric constant tensor:
#      x y z
#    x 1.686260 0.000000 0.000000 
#    y 0.000000 1.601600 0.000000 
#    z 0.000000 0.000000 1.690500 
# 
# From -- ./inp_files/22768.got.cif
#   From: 2010.03.12/outbox.cif.g09.slc.cpg/sg44_12_cif.got.tgz:22768.got - 2010.04.14 02:36:11.
