data_PCOD8190630
_publ_section_title
;
Structure prediction by ZEFSAII (Michael W. Deem and Ramdas Pophale) SiO2 
 PCOD8190630
Probable space group: I B A 2
;
_chemical_formula_sum "Si O2"
_cell_formula_units_Z 64
_cell_length_a 24.325751
_cell_length_b 14.263400
_cell_length_c 8.305202
_cell_angle_alpha 90.000000
_cell_angle_beta 90.000000
_cell_angle_gamma 90.000000
_cell_volume 2881.638637
_symmetry_space_group_name_H-M "I B A 2"
_symmetry_group_IT_number 45
_symmetry_cell_setting 'orthorhombic'
loop_
_space_group_symop_operation_xyz
x,y,z
-x,-y,z
-x,y,1/2+z
x,-y,1/2+z
1/2+x,1/2+y,1/2+z
1/2-x,1/2-y,1/2+z
1/2-x,1/2+y,z
1/2+x,1/2-y,z
loop_
_atom_site_type_symbol
_atom_site_label
_atom_site_fract_x
_atom_site_fract_y
_atom_site_fract_z
Si Si1 0.102190 0.908970 0.216460
Si Si2 0.639436 0.397196 0.078686
Si Si3 0.754290 0.634876 0.437088
Si Si4 0.307751 0.725527 0.662044
Si Si5 0.970668 0.765985 0.601643
Si Si6 0.918921 0.264704 0.751308
Si Si7 0.889865 0.370623 0.235233
Si Si8 0.131550 0.441700 0.392243
O O1 0.110586 0.889815 0.405625
O O2 0.142176 0.841947 0.108588
O O3 0.041230 0.873509 0.163831
O O4 0.114427 0.015587 0.174961
O O5 0.627752 0.308374 0.193507
O O6 0.705566 0.405562 0.051059
O O7 0.733271 0.662091 0.262228
O O8 0.778890 0.731671 0.506312
O O9 0.801797 0.557873 0.407816
O O10 0.333545 0.812225 0.764456
O O11 0.947629 0.757831 0.421182
O O12 0.941914 0.698436 0.736051
O O13 0.035007 0.740994 0.610680
O O14 0.889538 0.366425 0.759094
O O15 0.891538 0.454504 0.361783
O O16 0.893479 0.416254 0.060990
#
# Coordination Sequence:
#
# PCOD8190630 Si02
#       8
#     8   8   8   8   8   8   8   8
#     4  10  22  39  58  87 120 158 204 255 310 375
#     4  11  23  38  61  90 122 162 209 256 311 378
#     4  10  21  36  58  88 122 166 208 257 315 366
#     4   9  20  36  55  80 116 158 203 252 311 368
#     4  10  22  42  63  88 122 159 203 260 320 373
#     4  11  23  41  65  91 122 162 208 262 318 384
#     4   9  21  38  57  84 118 156 200 252 305 369
#     4  10  22  38  59  88 122 159 205 252 306 371
#
# _framework density 22.209586999999999
#
# number of rings (size 3 to 8) (size 9 to 14) (size 15 to 20)
#    0.000    2.000    0.000    3.000    0.000   12.000 
#    0.000    5.000    0.000    0.000    0.000    0.000 
#    0.000    0.000    0.000    0.000    0.000    0.000 
#
# Total GULP energy -396564.157234 kJ/mol
# GULP energy per Si atom -12392.629914 kJ/mol
# Density = 2.215904 g / cm^3
# Si number density = 22.209587 Si / 1000 Ang^3
#
#
#
# Elastic Constant Matrix: (Units=GPa)
#
#
# Indices 1 2 3 4 5 6 
#
# 1 88.4900 8.6177 12.1750 0.0000 0.0000 0.0000
# 2 8.6177 72.2977 3.3095 0.0000 0.0000 0.0000
# 3 12.1750 3.3095 53.4425 0.0000 0.0000 0.0000
# 4 0.0000 0.0000 0.0000 32.9956 0.0000 0.0000
# 5 0.0000 0.0000 0.0000 0.0000 29.7848 0.0000
# 6 0.0000 0.0000 0.0000 0.0000 0.0000 23.5684
#
#
#
# Elastic Compliance Matrix: (Units=1/GPa)
#
#
# Indices 1 2 3 4 5 6 
#
# 1 0.011784 -0.001285 -0.002605 0.000000 0.000000 0.000000
# 2 -0.001285 0.014011 -0.000575 0.000000 0.000000 0.000000
# 3 -0.002605 -0.000575 0.019341 0.000000 0.000000 0.000000
# 4 0.000000 0.000000 0.000000 0.030307 0.000000 0.000000
# 5 0.000000 0.000000 0.000000 0.000000 0.033574 0.000000
# 6 0.000000 0.000000 0.000000 0.000000 0.000000 0.042430
#
#
# Mechanical properties :
#
#
# Convention : Reuss Voigt Hill
#
# Bulk Modulus (GPa) = 27.61994 29.15942 28.38968
# Shear Modulus (GPa) = 28.99452 29.94496 29.46974
#
# Velocity S-wave (km/s) = 3.61708 3.67589 3.64661
# Velocity P-wave (km/s) = 5.46877 5.58336 5.52636
#
# Compressibility (1/GPa) = 0.03620572
#
# Stress axis : x y z
#
# Youngs Moduli (GPa) = 84.85863 71.37130 51.70428
#
# Poissons Ratio (x) = 0.09174 0.13469
# Poissons Ratio (y) = 0.10908 0.02972
# Poissons Ratio (z) = 0.22106 0.04103
#
# Static dielectric constant tensor:
#      x y z
#    x 4.280630 0.000000 0.000000 
#    y 0.000000 4.175550 0.000000 
#    z 0.000000 0.000000 3.820670 
# 
# 
# High freq. dielectric constant tensor:
#      x y z
#    x 1.871540 0.000000 0.000000 
#    y 0.000000 1.869560 0.000000 
#    z 0.000000 0.000000 1.867400 
# 
# From -- ./inp_files/2547.got.cif
#   From: 2010.03.12/outbox.cif.g09.slc.cpg/sg45_2_cif.got.tgz:2547.got - 2010.04.14 02:50:11.
