data_PCOD8190705
_publ_section_title
;
Structure prediction by ZEFSAII (Michael W. Deem and Ramdas Pophale) SiO2 
 PCOD8190705
Probable space group: I B A 2
;
_chemical_formula_sum "Si O2"
_cell_formula_units_Z 64
_cell_length_a 19.203395
_cell_length_b 8.956159
_cell_length_c 15.936283
_cell_angle_alpha 90.000000
_cell_angle_beta 90.000000
_cell_angle_gamma 90.000000
_cell_volume 2740.859942
_symmetry_space_group_name_H-M "I B A 2"
_symmetry_group_IT_number 45
_symmetry_cell_setting 'orthorhombic'
loop_
_space_group_symop_operation_xyz
x,y,z
-x,-y,z
-x,y,1/2+z
x,-y,1/2+z
1/2+x,1/2+y,1/2+z
1/2-x,1/2-y,1/2+z
1/2-x,1/2+y,z
1/2+x,1/2-y,z
loop_
_atom_site_type_symbol
_atom_site_label
_atom_site_fract_x
_atom_site_fract_y
_atom_site_fract_z
Si Si1 0.283507 0.616904 0.337680
Si Si2 0.895636 0.690542 0.622569
Si Si3 0.145812 0.368318 0.931609
Si Si4 0.718454 0.344094 0.723485
Si Si5 0.145309 0.371678 0.129380
Si Si6 0.534065 0.352820 0.122936
Si Si7 0.468035 0.649282 0.933256
Si Si8 0.892365 0.692419 0.432438
O O1 0.226901 0.639184 0.410697
O O2 0.294380 0.448381 0.305026
O O3 0.254774 0.694457 0.254935
O O4 0.354493 0.685265 0.373946
O O5 0.854712 0.811788 0.678828
O O6 0.890118 0.524712 0.660571
O O7 0.864475 0.701316 0.528149
O O8 0.976970 0.723725 0.623856
O O9 0.100705 0.228825 0.892122
O O10 0.118831 0.526786 0.895337
O O11 0.136316 0.359739 0.030361
O O12 0.774432 0.395037 0.654115
O O13 0.103477 0.223611 0.165759
O O14 0.500000 0.500000 0.168455
O O15 0.552748 0.401126 0.027706
O O16 0.500000 0.500000 0.887755
O O17 0.525769 0.777715 0.931063
#
# Coordination Sequence:
#
# PCOD8190705 Si02
#       8
#     8   8   8   8   8   8   8   8
#     4  12  25  42  61  88 131 169 208 258 317 382
#     4  10  21  40  65  92 122 164 212 260 317 380
#     4  10  21  40  65  92 122 164 212 262 317 378
#     4  12  25  42  61  88 131 169 208 258 317 382
#     4  10  21  40  65  92 122 164 212 262 317 378
#     4   9  19  35  62  95 122 152 204 265 313 364
#     4   9  19  35  62  95 122 152 204 265 313 364
#     4  10  21  40  65  92 122 164 212 260 317 380
#
# _framework density 23.350335000000001
#
# number of rings (size 3 to 8) (size 9 to 14) (size 15 to 20)
#    0.000    1.750    2.500    1.500    3.500    3.000 
#    0.000    1.250    0.000    0.000    0.000    0.000 
#    0.000    0.000    0.000    0.000    0.000    0.000 
#
# Total GULP energy -396493.493478 kJ/mol
# GULP energy per Si atom -12390.421671 kJ/mol
# Density = 2.329719 g / cm^3
# Si number density = 23.350335 Si / 1000 Ang^3
#
#
#
# Elastic Constant Matrix: (Units=GPa)
#
#
# Indices 1 2 3 4 5 6 
#
# 1 73.1104 31.2920 16.3038 0.0000 0.0000 0.0000
# 2 31.2920 117.8058 15.7418 0.0000 0.0000 0.0000
# 3 16.3038 15.7418 29.7753 0.0000 0.0000 0.0000
# 4 0.0000 0.0000 0.0000 30.9386 0.0000 0.0000
# 5 0.0000 0.0000 0.0000 0.0000 14.9572 0.0000
# 6 0.0000 0.0000 0.0000 0.0000 0.0000 44.5112
#
#
#
# Elastic Compliance Matrix: (Units=1/GPa)
#
#
# Indices 1 2 3 4 5 6 
#
# 1 0.016810 -0.003481 -0.007364 0.000000 0.000000 0.000000
# 2 -0.003481 0.009855 -0.003304 0.000000 0.000000 0.000000
# 3 -0.007364 -0.003304 0.039364 0.000000 0.000000 0.000000
# 4 0.000000 0.000000 0.000000 0.032322 0.000000 0.000000
# 5 0.000000 0.000000 0.000000 0.000000 0.066857 0.000000
# 6 0.000000 0.000000 0.000000 0.000000 0.000000 0.022466
#
#
# Mechanical properties :
#
#
# Convention : Reuss Voigt Hill
#
# Bulk Modulus (GPa) = 26.50385 38.59630 32.55008
# Shear Modulus (GPa) = 21.87709 28.57167 25.22438
#
# Velocity S-wave (km/s) = 3.06421 3.50181 3.29029
# Velocity P-wave (km/s) = 4.88819 5.73719 5.32962
#
# Compressibility (1/GPa) = 0.03773037
#
# Stress axis : x y z
#
# Youngs Moduli (GPa) = 59.48797 101.47445 25.40399
#
# Poissons Ratio (x) = 0.35325 0.18708
# Poissons Ratio (y) = 0.20709 0.08393
# Poissons Ratio (z) = 0.43808 0.33526
#
# Static dielectric constant tensor:
#      x y z
#    x 4.382540 0.000000 0.000000 
#    y 0.000000 4.417130 0.000000 
#    z 0.000000 0.000000 3.765040 
# 
# 
# High freq. dielectric constant tensor:
#      x y z
#    x 1.924840 0.000000 0.000000 
#    y 0.000000 1.937890 0.000000 
#    z 0.000000 0.000000 1.883950 
# 
# From -- ./inp_files/8453.got.cif
#   From: 2010.03.12/outbox.cif.g09.slc.cpg/sg45_5_cif.got.tgz:8453.got - 2010.04.14 02:50:11.
