data_PCOD8190287
_publ_section_title
;
Structure prediction by ZEFSAII (Michael W. Deem and Ramdas Pophale) SiO2 
 PCOD8190287
Probable space group: I M M 2
;
_chemical_formula_sum "Si O2"
_cell_formula_units_Z 24
_cell_length_a 18.980607
_cell_length_b 7.729145
_cell_length_c 8.675967
_cell_angle_alpha 90.000000
_cell_angle_beta 90.000000
_cell_angle_gamma 90.000000
_cell_volume 1272.797880
_symmetry_space_group_name_H-M "I M M 2"
_symmetry_group_IT_number 44
_symmetry_cell_setting 'orthorhombic'
loop_
_space_group_symop_operation_xyz
x,y,z
-x,-y,z
-x,y,z
x,-y,z
1/2+x,1/2+y,1/2+z
1/2-x,1/2-y,1/2+z
1/2-x,1/2+y,1/2+z
1/2+x,1/2-y,1/2+z
loop_
_atom_site_type_symbol
_atom_site_label
_atom_site_fract_x
_atom_site_fract_y
_atom_site_fract_z
Si Si1 0.810645 0.690424 0.960590
Si Si2 0.917870 0.500000 0.780100
Si Si3 0.918328 0.500000 0.418964
Si Si4 0.328553 0.305219 0.790047
O O1 0.791008 0.500000 0.026653
O O2 0.880653 0.671645 0.852557
O O3 0.746096 0.760417 0.857735
O O4 0.824470 0.814258 0.104450
O O5 0.903015 0.500000 0.599497
O O6 0.000000 0.500000 0.821546
O O7 0.888252 0.673801 0.343774
O O8 0.000000 0.500000 0.380699
O O9 0.346909 0.500000 0.845615
#
# Coordination Sequence:
#
# PCOD8190287 Si02
#       4
#     8   4   4   8
#     4   9  20  35  57  91 117 155 201 249 294 359
#     4   9  19  39  63  85 118 165 202 245 309 357
#     4  11  23  41  63  85 124 165 202 255 305 359
#     4  11  22  37  61  91 122 159 203 250 304 363
#
# _framework density 18.856097999999999
#
# number of rings (size 3 to 8) (size 9 to 14) (size 15 to 20)
#    1.000    1.000    1.667    2.000    2.333    3.333 
#    0.000    1.667    0.000    2.000    0.000    0.000 
#    0.000    0.000    0.000    0.000    0.000    0.000 
#
# Total GULP energy -148731.713555 kJ/mol
# GULP energy per Si atom -12394.309463 kJ/mol
# Density = 1.881318 g / cm^3
# Si number density = 18.856098 Si / 1000 Ang^3
#
#
#
# Elastic Constant Matrix: (Units=GPa)
#
#
# Indices 1 2 3 4 5 6 
#
# 1 142.8947 50.2282 76.0313 0.0000 0.0000 0.0000
# 2 50.2282 90.1288 39.9437 0.0000 0.0000 0.0000
# 3 76.0313 39.9437 125.6693 0.0000 0.0000 0.0000
# 4 0.0000 0.0000 0.0000 16.4334 0.0000 0.0000
# 5 0.0000 0.0000 0.0000 0.0000 35.0013 0.0000
# 6 0.0000 0.0000 0.0000 0.0000 0.0000 31.8801
#
#
#
# Elastic Compliance Matrix: (Units=1/GPa)
#
#
# Indices 1 2 3 4 5 6 
#
# 1 0.011348 -0.003819 -0.005652 0.000000 0.000000 0.000000
# 2 -0.003819 0.014200 -0.002203 0.000000 0.000000 0.000000
# 3 -0.005652 -0.002203 0.012077 0.000000 0.000000 0.000000
# 4 0.000000 0.000000 0.000000 0.060852 0.000000 0.000000
# 5 0.000000 0.000000 0.000000 0.000000 0.028570 0.000000
# 6 0.000000 0.000000 0.000000 0.000000 0.000000 0.031367
#
#
# Mechanical properties :
#
#
# Convention : Reuss Voigt Hill
#
# Bulk Modulus (GPa) = 70.04120 76.78879 73.41499
# Shear Modulus (GPa) = 26.80676 29.49562 28.15119
#
# Velocity S-wave (km/s) = 3.77457 3.95935 3.86806
# Velocity P-wave (km/s) = 7.49815 7.85582 7.67907
#
# Compressibility (1/GPa) = 0.01427731
#
# Stress axis : x y z
#
# Youngs Moduli (GPa) = 88.12315 70.42295 82.80373
#
# Poissons Ratio (x) = 0.26897 0.46797
# Poissons Ratio (y) = 0.33657 0.18239
# Poissons Ratio (z) = 0.49803 0.15512
#
# Static dielectric constant tensor:
#      x y z
#    x 3.354140 0.000000 0.000000 
#    y 0.000000 3.204910 0.000000 
#    z 0.000000 0.000000 3.414550 
# 
# 
# High freq. dielectric constant tensor:
#      x y z
#    x 1.725220 0.000000 0.000000 
#    y 0.000000 1.713300 0.000000 
#    z 0.000000 0.000000 1.741750 
# 
# From -- ./inp_files/3979.got.cif
#   From: 2010.03.12/outbox.cif.g09.slc.cpg/sg44_2_cif.got.tgz:3979.got - 2010.04.14 02:36:11.
