data_PCOD8190281
_publ_section_title
;
Structure prediction by ZEFSAII (Michael W. Deem and Ramdas Pophale) SiO2 
 PCOD8190281
Probable space group: I M M 2
;
_chemical_formula_sum "Si O2"
_cell_formula_units_Z 64
_cell_length_a 8.621508
_cell_length_b 14.266506
_cell_length_c 28.400429
_cell_angle_alpha 90.000000
_cell_angle_beta 90.000000
_cell_angle_gamma 90.000000
_cell_volume 3493.218562
_symmetry_space_group_name_H-M "I M M 2"
_symmetry_group_IT_number 44
_symmetry_cell_setting 'orthorhombic'
loop_
_space_group_symop_operation_xyz
x,y,z
-x,-y,z
-x,y,z
x,-y,z
1/2+x,1/2+y,1/2+z
1/2-x,1/2-y,1/2+z
1/2-x,1/2+y,1/2+z
1/2+x,1/2-y,1/2+z
loop_
_atom_site_type_symbol
_atom_site_label
_atom_site_fract_x
_atom_site_fract_y
_atom_site_fract_z
Si Si1 0.181354 0.248564 0.998290
Si Si2 0.818352 0.751190 0.747733
Si Si3 0.681517 0.249601 0.896175
Si Si4 0.817542 0.893480 0.567264
Si Si5 0.315766 0.105022 0.067540
Si Si6 0.683758 0.392299 0.325595
Si Si7 0.682988 0.248153 0.143874
Si Si8 0.681721 0.107609 0.325351
O O1 0.226244 0.256775 0.944315
O O2 0.000000 0.235479 0.003505
O O3 0.232389 0.343722 0.024104
O O4 0.262100 0.157312 0.020453
O O5 0.758683 0.840065 0.778075
O O6 0.739426 0.749523 0.695920
O O7 0.778827 0.655017 0.775090
O O8 0.000000 0.762736 0.740702
O O9 0.500000 0.246697 0.906471
O O10 0.732618 0.154579 0.870013
O O11 0.722048 0.341551 0.865977
O O12 0.774174 0.843921 0.616669
O O13 0.000000 0.886113 0.557712
O O14 0.759958 0.000000 0.570311
O O15 0.500000 0.103754 0.067419
O O16 0.252731 0.160221 0.113617
O O17 0.247594 0.000000 0.068366
O O18 0.500000 0.380275 0.332238
O O19 0.734285 0.500000 0.322233
O O20 0.500000 0.237103 0.148678
O O21 0.500000 0.118853 0.336757
O O22 0.733411 0.000000 0.322752
#
# Coordination Sequence:
#
# PCOD8190281 Si02
#       8
#     8   8   8   8   8   8   8   8
#     4  11  22  36  54  74  99 130 166 208 253 302
#     4   8  14  26  47  77 108 134 164 204 248 291
#     4  11  22  36  54  74  99 130 166 208 253 302
#     4   9  18  33  52  75 104 135 168 207 249 294
#     4   9  18  33  52  75 104 135 168 207 249 294
#     4   9  18  33  52  75 104 135 168 207 249 294
#     4   8  14  26  47  77 108 134 164 204 248 291
#     4   9  18  33  52  75 104 135 168 207 249 294
#
# _framework density 18.321211999999999
#
# number of rings (size 3 to 8) (size 9 to 14) (size 15 to 20)
#    0.000    2.750    0.000    3.750    0.000    3.000 
#    0.000    5.000    0.000   12.000    0.000   14.000 
#    0.000    0.000    0.000    0.000    0.000    0.000 
#
# Total GULP energy -396736.931075 kJ/mol
# GULP energy per Si atom -12398.029096 kJ/mol
# Density = 1.827951 g / cm^3
# Si number density = 18.321212 Si / 1000 Ang^3
#
#
#
# Elastic Constant Matrix: (Units=GPa)
#
#
# Indices 1 2 3 4 5 6 
#
# 1 23.3142 20.1019 7.6308 0.0000 0.0000 0.0000
# 2 20.1019 152.0016 46.7027 0.0000 0.0000 0.0000
# 3 7.6308 46.7027 124.8192 0.0000 0.0000 0.0000
# 4 0.0000 0.0000 0.0000 11.9670 0.0000 0.0000
# 5 0.0000 0.0000 0.0000 0.0000 19.7132 0.0000
# 6 0.0000 0.0000 0.0000 0.0000 0.0000 19.3978
#
#
#
# Elastic Compliance Matrix: (Units=1/GPa)
#
#
# Indices 1 2 3 4 5 6 
#
# 1 0.048458 -0.006212 -0.000638 0.000000 0.000000 0.000000
# 2 -0.006212 0.008230 -0.002700 0.000000 0.000000 0.000000
# 3 -0.000638 -0.002700 0.009061 0.000000 0.000000 0.000000
# 4 0.000000 0.000000 0.000000 0.083563 0.000000 0.000000
# 5 0.000000 0.000000 0.000000 0.000000 0.050728 0.000000
# 6 0.000000 0.000000 0.000000 0.000000 0.000000 0.051552
#
#
# Mechanical properties :
#
#
# Convention : Reuss Voigt Hill
#
# Bulk Modulus (GPa) = 21.43700 49.88952 35.66326
# Shear Modulus (GPa) = 17.46785 25.26223 21.36504
#
# Velocity S-wave (km/s) = 3.09110 3.71732 3.41858
# Velocity P-wave (km/s) = 4.94631 6.76123 5.92369
#
# Compressibility (1/GPa) = 0.04664831
#
# Stress axis : x y z
#
# Youngs Moduli (GPa) = 20.63660 121.50836 110.36737
#
# Poissons Ratio (x) = 0.75486 0.07041
# Poissons Ratio (y) = 0.12820 0.29794
# Poissons Ratio (z) = 0.01317 0.32801
#
# Static dielectric constant tensor:
#      x y z
#    x 3.048490 0.000000 0.000000 
#    y 0.000000 3.582470 0.000000 
#    z 0.000000 0.000000 3.619780 
# 
# 
# High freq. dielectric constant tensor:
#      x y z
#    x 1.678400 0.000000 0.000000 
#    y 0.000000 1.714870 0.000000 
#    z 0.000000 0.000000 1.715520 
# 
# From -- ./inp_files/27279.got.cif
#   From: 2010.03.12/outbox.cif.g09.slc.cpg/sg44_14_cif.got.tgz:27279.got - 2010.04.14 02:36:11.
