data_PCOD8190575
_publ_section_title
;
Structure prediction by ZEFSAII (Michael W. Deem and Ramdas Pophale) SiO2 
 PCOD8190575
Probable space group: I B A 2
;
_chemical_formula_sum "Si O2"
_cell_formula_units_Z 64
_cell_length_a 14.224364
_cell_length_b 11.384634
_cell_length_c 17.953088
_cell_angle_alpha 90.000000
_cell_angle_beta 90.000000
_cell_angle_gamma 90.000000
_cell_volume 2907.308314
_symmetry_space_group_name_H-M "I B A 2"
_symmetry_group_IT_number 45
_symmetry_cell_setting 'orthorhombic'
loop_
_space_group_symop_operation_xyz
x,y,z
-x,-y,z
-x,y,1/2+z
x,-y,1/2+z
1/2+x,1/2+y,1/2+z
1/2-x,1/2-y,1/2+z
1/2-x,1/2+y,z
1/2+x,1/2-y,z
loop_
_atom_site_type_symbol
_atom_site_label
_atom_site_fract_x
_atom_site_fract_y
_atom_site_fract_z
Si Si1 0.092529 0.245260 0.747080
Si Si2 0.604112 0.471156 0.661271
Si Si3 0.241476 0.844923 0.684388
Si Si4 0.957437 0.747506 0.510692
Si Si5 0.569098 0.811370 0.648598
Si Si6 0.676285 0.458087 0.503628
Si Si7 0.138444 0.529462 0.063439
Si Si8 0.931426 0.110117 0.398502
O O1 0.184675 0.327907 0.752976
O O2 0.086365 0.161555 0.817618
O O3 0.995388 0.311701 0.724351
O O4 0.124786 0.164610 0.676659
O O5 0.500000 0.500000 0.688680
O O6 0.675015 0.549020 0.711113
O O7 0.621625 0.508335 0.576000
O O8 0.173466 0.734381 0.666488
O O9 0.304184 0.876701 0.612428
O O10 0.865628 0.827548 0.493928
O O11 0.928265 0.609189 0.509988
O O12 0.013295 0.771480 0.588786
O O13 0.030184 0.778629 0.445185
O O14 0.577419 0.942753 0.615562
O O15 0.788793 0.450970 0.515243
O O16 0.660128 0.552356 0.437350
O O17 0.000000 0.000000 0.394332
#
# Coordination Sequence:
#
# PCOD8190575 Si02
#       8
#     8   8   8   8   8   8   8   8
#     4  12  24  42  64 103 139 181 227 288 360 422
#     4  11  18  36  65  94 124 171 231 278 332 398
#     4  11  22  37  65  99 133 175 226 291 338 399
#     4  11  20  41  67  95 136 182 222 287 350 408
#     4  12  23  40  71  99 137 180 233 296 334 420
#     4  10  20  39  65  97 129 173 233 288 332 414
#     4  11  22  37  67 105 132 172 239 289 348 399
#     4  10  24  43  68  98 141 185 230 284 358 430
#
# _framework density 22.013490000000001
#
# number of rings (size 3 to 8) (size 9 to 14) (size 15 to 20)
#    0.000    1.000    3.750    5.625    0.000    0.000 
#    2.250    1.250    5.500    0.000    0.000    0.000 
#    0.000    0.000    0.000    0.000    0.000    0.000 
#
# Total GULP energy -396462.665474 kJ/mol
# GULP energy per Si atom -12389.458296 kJ/mol
# Density = 2.196339 g / cm^3
# Si number density = 22.013490 Si / 1000 Ang^3
#
#
#
# Elastic Constant Matrix: (Units=GPa)
#
#
# Indices 1 2 3 4 5 6 
#
# 1 74.9213 34.3890 33.3458 0.0000 0.0000 0.0000
# 2 34.3890 107.4441 26.9608 0.0000 0.0000 0.0000
# 3 33.3458 26.9608 77.6403 0.0000 0.0000 0.0000
# 4 0.0000 0.0000 0.0000 39.8400 0.0000 0.0000
# 5 0.0000 0.0000 0.0000 0.0000 20.4145 0.0000
# 6 0.0000 0.0000 0.0000 0.0000 0.0000 36.6847
#
#
#
# Elastic Compliance Matrix: (Units=1/GPa)
#
#
# Indices 1 2 3 4 5 6 
#
# 1 0.018085 -0.004206 -0.006307 0.000000 0.000000 0.000000
# 2 -0.004206 0.011174 -0.002074 0.000000 0.000000 0.000000
# 3 -0.006307 -0.002074 0.016309 0.000000 0.000000 0.000000
# 4 0.000000 0.000000 0.000000 0.025100 0.000000 0.000000
# 5 0.000000 0.000000 0.000000 0.000000 0.048985 0.000000
# 6 0.000000 0.000000 0.000000 0.000000 0.000000 0.027259
#
#
# Mechanical properties :
#
#
# Convention : Reuss Voigt Hill
#
# Bulk Modulus (GPa) = 49.03259 49.93298 49.48279
# Shear Modulus (GPa) = 27.95131 30.40850 29.17990
#
# Velocity S-wave (km/s) = 3.56720 3.72069 3.64476
# Velocity P-wave (km/s) = 6.26808 6.41796 6.34346
#
# Compressibility (1/GPa) = 0.02039460
#
# Stress axis : x y z
#
# Youngs Moduli (GPa) = 55.29502 89.49637 61.31680
#
# Poissons Ratio (x) = 0.37640 0.38671
# Poissons Ratio (y) = 0.23256 0.12716
# Poissons Ratio (z) = 0.34874 0.18559
#
# Static dielectric constant tensor:
#      x y z
#    x 4.339430 0.000000 0.000000 
#    y 0.000000 4.125840 0.000000 
#    z 0.000000 0.000000 3.597040 
# 
# 
# High freq. dielectric constant tensor:
#      x y z
#    x 1.882130 0.000000 0.000000 
#    y 0.000000 1.870470 0.000000 
#    z 0.000000 0.000000 1.812920 
# 
# From -- ./inp_files/8020.got.cif
#   From: 2010.03.12/outbox.cif.g09.slc.cpg/sg45_5_cif.got.tgz:8020.got - 2010.04.14 02:50:11.
