data_PCOD8190684
_publ_section_title
;
Structure prediction by ZEFSAII (Michael W. Deem and Ramdas Pophale) SiO2 
 PCOD8190684
Probable space group: I B A 2
;
_chemical_formula_sum "Si O2"
_cell_formula_units_Z 64
_cell_length_a 16.351867
_cell_length_b 11.808789
_cell_length_c 15.774629
_cell_angle_alpha 90.000000
_cell_angle_beta 90.000000
_cell_angle_gamma 90.000000
_cell_volume 3046.013773
_symmetry_space_group_name_H-M "I B A 2"
_symmetry_group_IT_number 45
_symmetry_cell_setting 'orthorhombic'
loop_
_space_group_symop_operation_xyz
x,y,z
-x,-y,z
-x,y,1/2+z
x,-y,1/2+z
1/2+x,1/2+y,1/2+z
1/2-x,1/2-y,1/2+z
1/2-x,1/2+y,z
1/2+x,1/2-y,z
loop_
_atom_site_type_symbol
_atom_site_label
_atom_site_fract_x
_atom_site_fract_y
_atom_site_fract_z
Si Si1 0.825261 0.091879 0.113180
Si Si2 0.674745 0.324127 0.908427
Si Si3 0.910426 0.046350 0.949891
Si Si4 0.384323 0.776726 0.735461
Si Si5 0.847489 0.255004 0.853372
Si Si6 0.450212 0.882035 0.220643
Si Si7 0.229084 0.115523 0.205421
Si Si8 0.832197 0.703044 0.077352
O O1 0.854591 0.203505 0.157602
O O2 0.741344 0.113958 0.060870
O O3 0.805155 0.008707 0.190930
O O4 0.895716 0.047837 0.050980
O O5 0.655330 0.457686 0.912642
O O6 0.631219 0.277218 0.825931
O O7 0.773371 0.311947 0.905656
O O8 0.636641 0.251444 0.987092
O O9 0.901971 0.175353 0.914927
O O10 0.000000 0.000000 0.929680
O O11 0.479927 0.788120 0.723185
O O12 0.327614 0.889770 0.723555
O O13 0.895664 0.356938 0.804878
O O14 0.813734 0.167331 0.786122
O O15 0.401469 0.862719 0.132441
O O16 0.500000 0.000000 0.225291
O O17 0.204721 0.188937 0.124418
#
# Coordination Sequence:
#
# PCOD8190684 Si02
#       8
#     8   8   8   8   8   8   8   8
#     4  11  21  39  63  93 127 176 221 270 336 409
#     4  11  22  43  65  98 132 178 222 284 337 417
#     4  12  25  38  65 102 135 169 223 290 349 393
#     4  10  23  38  65  93 131 164 223 273 336 401
#     4  10  23  42  66  95 137 178 236 275 343 430
#     4  11  24  45  67  97 135 179 219 283 344 418
#     4   9  19  38  63  89 122 179 218 271 327 406
#     4  10  21  39  64  91 130 173 230 272 327 414
#
# _framework density 21.011068000000002
#
# number of rings (size 3 to 8) (size 9 to 14) (size 15 to 20)
#    0.000    1.500    2.500    3.000    1.750    2.000 
#    0.000    1.250    0.000    0.000    0.000    0.000 
#    0.000    0.000    0.000    0.000    0.000    0.000 
#
# Total GULP energy -396598.318342 kJ/mol
# GULP energy per Si atom -12393.697448 kJ/mol
# Density = 2.096325 g / cm^3
# Si number density = 21.011068 Si / 1000 Ang^3
#
#
#
# Elastic Constant Matrix: (Units=GPa)
#
#
# Indices 1 2 3 4 5 6 
#
# 1 116.2350 33.9197 35.8321 0.0000 0.0000 0.0000
# 2 33.9197 75.3770 22.4816 0.0000 0.0000 0.0000
# 3 35.8321 22.4816 98.4397 0.0000 0.0000 0.0000
# 4 0.0000 0.0000 0.0000 13.0972 0.0000 0.0000
# 5 0.0000 0.0000 0.0000 0.0000 29.1860 0.0000
# 6 0.0000 0.0000 0.0000 0.0000 0.0000 28.3189
#
#
#
# Elastic Compliance Matrix: (Units=1/GPa)
#
#
# Indices 1 2 3 4 5 6 
#
# 1 0.010665 -0.003908 -0.002990 0.000000 0.000000 0.000000
# 2 -0.003908 0.015668 -0.002156 0.000000 0.000000 0.000000
# 3 -0.002990 -0.002156 0.011739 0.000000 0.000000 0.000000
# 4 0.000000 0.000000 0.000000 0.076352 0.000000 0.000000
# 5 0.000000 0.000000 0.000000 0.000000 0.034263 0.000000
# 6 0.000000 0.000000 0.000000 0.000000 0.000000 0.035312
#
#
# Mechanical properties :
#
#
# Convention : Reuss Voigt Hill
#
# Bulk Modulus (GPa) = 50.08533 52.72428 51.40480
# Shear Modulus (GPa) = 23.95077 27.30830 25.62953
#
# Velocity S-wave (km/s) = 3.37992 3.60906 3.49637
# Velocity P-wave (km/s) = 6.25469 6.52036 6.38891
#
# Compressibility (1/GPa) = 0.01996593
#
# Stress axis : x y z
#
# Youngs Moduli (GPa) = 93.76243 63.82396 85.18521
#
# Poissons Ratio (x) = 0.24940 0.25468
# Poissons Ratio (y) = 0.36639 0.18365
# Poissons Ratio (z) = 0.28032 0.13760
#
# Static dielectric constant tensor:
#      x y z
#    x 4.149000 0.000000 0.000000 
#    y 0.000000 4.028960 0.000000 
#    z 0.000000 0.000000 3.829310 
# 
# 
# High freq. dielectric constant tensor:
#      x y z
#    x 1.822960 0.000000 0.000000 
#    y 0.000000 1.819490 0.000000 
#    z 0.000000 0.000000 1.825240 
# 
# From -- ./inp_files/6815.got.cif
#   From: 2010.03.12/outbox.cif.g09.slc.cpg/sg45_4_cif.got.tgz:6815.got - 2010.04.14 02:50:11.
