data_PCOD8190273
_publ_section_title
;
Structure prediction by ZEFSAII (Michael W. Deem and Ramdas Pophale) SiO2 
 PCOD8190273
Probable space group: I M M 2
;
_chemical_formula_sum "Si O2"
_cell_formula_units_Z 64
_cell_length_a 30.034021
_cell_length_b 8.679929
_cell_length_c 14.287337
_cell_angle_alpha 90.000000
_cell_angle_beta 90.000000
_cell_angle_gamma 90.000000
_cell_volume 3724.611171
_symmetry_space_group_name_H-M "I M M 2"
_symmetry_group_IT_number 44
_symmetry_cell_setting 'orthorhombic'
loop_
_space_group_symop_operation_xyz
x,y,z
-x,-y,z
-x,y,z
x,-y,z
1/2+x,1/2+y,1/2+z
1/2-x,1/2-y,1/2+z
1/2-x,1/2+y,1/2+z
1/2+x,1/2-y,1/2+z
loop_
_atom_site_type_symbol
_atom_site_label
_atom_site_fract_x
_atom_site_fract_y
_atom_site_fract_z
Si Si1 0.864793 0.823877 0.657360
Si Si2 0.782531 0.820847 0.114816
Si Si3 0.774984 0.321504 0.314859
Si Si4 0.816631 0.677090 0.823387
Si Si5 0.635552 0.678165 0.487599
Si Si6 0.049866 0.680312 0.944356
Si Si7 0.798143 0.823273 0.499283
Si Si8 0.550245 0.820705 0.227869
O O1 0.835807 0.711362 0.721595
O O2 0.844861 0.803748 0.553610
O O3 0.916536 0.775822 0.661489
O O4 0.859376 0.000000 0.691264
O O5 0.786486 0.774754 0.222826
O O6 0.830907 0.782434 0.071686
O O7 0.743555 0.730149 0.062257
O O8 0.770906 0.000000 0.106667
O O9 0.781920 0.500000 0.292868
O O10 0.724626 0.287604 0.346430
O O11 0.804799 0.271872 0.403473
O O12 0.801680 0.500000 0.828029
O O13 0.853908 0.713867 0.899275
O O14 0.638739 0.500000 0.459886
O O15 0.584445 0.725154 0.510295
O O16 0.058072 0.500000 0.957356
O O17 0.056130 0.728180 0.835804
O O18 0.000000 0.724202 0.976873
O O19 0.788913 0.000000 0.473555
O O20 0.500000 0.785289 0.194470
O O21 0.561426 0.000000 0.216477
#
# Coordination Sequence:
#
# PCOD8190273 Si02
#       8
#     8   8   8   8   8   8   8   8
#     4  11  22  34  51  77 106 137 178 218 258 311
#     4  11  23  37  54  76 106 141 177 218 264 312
#     4  12  24  38  54  75 104 137 182 226 260 309
#     4  12  22  32  51  73 104 143 177 215 262 307
#     4  11  22  34  51  77 106 137 178 218 258 311
#     4   9  18  32  50  74 105 140 175 211 257 312
#     4  11  23  37  54  76 106 141 177 218 264 312
#     4   9  18  32  50  74 105 140 175 211 257 312
#
# _framework density 17.183001999999998
#
# number of rings (size 3 to 8) (size 9 to 14) (size 15 to 20)
#    0.000    1.250    3.750    4.500    0.000    3.500 
#    0.000    1.250    0.000    0.000    0.000    0.875 
#    0.000    7.000    0.000    0.000    0.000    0.000 
#
# Total GULP energy -396832.979653 kJ/mol
# GULP energy per Si atom -12401.030614 kJ/mol
# Density = 1.714389 g / cm^3
# Si number density = 17.183002 Si / 1000 Ang^3
#
#
#
# Elastic Constant Matrix: (Units=GPa)
#
#
# Indices 1 2 3 4 5 6 
#
# 1 95.5840 28.5306 18.9973 0.0000 0.0000 0.0000
# 2 28.5306 66.5212 13.6628 0.0000 0.0000 0.0000
# 3 18.9973 13.6628 55.6879 0.0000 0.0000 0.0000
# 4 0.0000 0.0000 0.0000 23.7821 0.0000 0.0000
# 5 0.0000 0.0000 0.0000 0.0000 23.0084 0.0000
# 6 0.0000 0.0000 0.0000 0.0000 0.0000 30.5511
#
#
#
# Elastic Compliance Matrix: (Units=1/GPa)
#
#
# Indices 1 2 3 4 5 6 
#
# 1 0.012487 -0.004718 -0.003102 0.000000 0.000000 0.000000
# 2 -0.004718 0.017613 -0.002712 0.000000 0.000000 0.000000
# 3 -0.003102 -0.002712 0.019681 0.000000 0.000000 0.000000
# 4 0.000000 0.000000 0.000000 0.042048 0.000000 0.000000
# 5 0.000000 0.000000 0.000000 0.000000 0.043462 0.000000
# 6 0.000000 0.000000 0.000000 0.000000 0.000000 0.032732
#
#
# Mechanical properties :
#
#
# Convention : Reuss Voigt Hill
#
# Bulk Modulus (GPa) = 34.82309 37.79717 36.31013
# Shear Modulus (GPa) = 25.16852 25.90849 25.53850
#
# Velocity S-wave (km/s) = 3.83134 3.88725 3.85939
# Velocity P-wave (km/s) = 6.31523 6.49555 6.40603
#
# Compressibility (1/GPa) = 0.02871658
#
# Stress axis : x y z
#
# Youngs Moduli (GPa) = 80.08366 56.77471 50.81096
#
# Poissons Ratio (x) = 0.26789 0.15762
# Poissons Ratio (y) = 0.37787 0.13779
# Poissons Ratio (z) = 0.24843 0.15396
#
# Static dielectric constant tensor:
#      x y z
#    x 3.332750 0.000000 0.000000 
#    y 0.000000 3.238620 0.000000 
#    z 0.000000 0.000000 3.025980 
# 
# 
# High freq. dielectric constant tensor:
#      x y z
#    x 1.657510 0.000000 0.000000 
#    y 0.000000 1.675640 0.000000 
#    z 0.000000 0.000000 1.630680 
# 
# From -- ./inp_files/15102.got.cif
#   From: 2010.03.12/outbox.cif.g09.slc.cpg/sg44_8_cif.got.tgz:15102.got - 2010.04.14 02:36:11.
