data_PCOD8190071
_publ_section_title
;
Structure prediction by ZEFSAII (Michael W. Deem and Ramdas Pophale) SiO2 
 PCOD8190071
Probable space group: I M M 2
;
_chemical_formula_sum "Si O2"
_cell_formula_units_Z 48
_cell_length_a 18.266951
_cell_length_b 7.930991
_cell_length_c 16.492687
_cell_angle_alpha 90.000000
_cell_angle_beta 90.000000
_cell_angle_gamma 90.000000
_cell_volume 2389.378425
_symmetry_space_group_name_H-M "I M M 2"
_symmetry_group_IT_number 44
_symmetry_cell_setting 'orthorhombic'
loop_
_space_group_symop_operation_xyz
x,y,z
-x,-y,z
-x,y,z
x,-y,z
1/2+x,1/2+y,1/2+z
1/2-x,1/2-y,1/2+z
1/2-x,1/2+y,1/2+z
1/2+x,1/2-y,1/2+z
loop_
_atom_site_type_symbol
_atom_site_label
_atom_site_fract_x
_atom_site_fract_y
_atom_site_fract_z
Si Si1 0.673475 0.307418 0.895020
Si Si2 0.414239 0.500000 0.328184
Si Si3 0.660517 0.809609 0.409031
Si Si4 0.914438 0.000000 0.649884
Si Si5 0.416498 0.199721 0.739586
Si Si6 0.313322 0.806980 0.594961
Si Si7 0.843709 0.314873 0.568183
O O1 0.665240 0.500000 0.923584
O O2 0.758294 0.271175 0.874871
O O3 0.622530 0.273218 0.818527
O O4 0.650677 0.192847 0.970701
O O5 0.500000 0.500000 0.322324
O O6 0.392600 0.328462 0.372548
O O7 0.378129 0.500000 0.238953
O O8 0.653654 0.790607 0.505615
O O9 0.636816 0.000000 0.383846
O O10 0.893392 0.830012 0.604362
O O11 0.000000 0.000000 0.657835
O O12 0.500000 0.267544 0.734968
O O13 0.372703 0.261350 0.659700
O O14 0.416178 0.000000 0.744957
O O15 0.239236 0.700409 0.600495
O O16 0.292232 0.000000 0.613935
O O17 0.872412 0.500000 0.594609
#
# Coordination Sequence:
#
# PCOD8190071 Si02
#       7
#     8   4   8   4   8   8   8
#     4  10  21  39  61  91 127 167 210 255 306 368
#     4  11  26  42  64  93 121 165 209 255 326 372
#     4   9  21  40  65  94 122 161 214 260 306 365
#     4  11  26  46  62  89 127 161 205 263 322 374
#     4  10  22  37  58  93 133 173 209 249 312 379
#     4   9  19  38  63  92 128 168 209 254 303 366
#     4  11  22  40  68  94 119 163 213 259 311 367
#
# _framework density 20.088905
#
# number of rings (size 3 to 8) (size 9 to 14) (size 15 to 20)
#    0.000    2.000    1.667    1.500    8.167    3.667 
#    0.000    3.333    0.000    0.000    0.000    0.000 
#    0.000    0.000    0.000    0.000    0.000    0.000 
#
# Total GULP energy -297581.215672 kJ/mol
# GULP energy per Si atom -12399.217320 kJ/mol
# Density = 2.004318 g / cm^3
# Si number density = 20.088905 Si / 1000 Ang^3
#
#
#
# Elastic Constant Matrix: (Units=GPa)
#
#
# Indices 1 2 3 4 5 6 
#
# 1 86.4509 34.7021 57.5948 0.0000 0.0000 0.0000
# 2 34.7021 123.5374 39.9937 0.0000 0.0000 0.0000
# 3 57.5948 39.9937 101.8288 0.0000 0.0000 0.0000
# 4 0.0000 0.0000 0.0000 27.2479 0.0000 0.0000
# 5 0.0000 0.0000 0.0000 0.0000 24.7529 0.0000
# 6 0.0000 0.0000 0.0000 0.0000 0.0000 34.3946
#
#
#
# Elastic Compliance Matrix: (Units=1/GPa)
#
#
# Indices 1 2 3 4 5 6 
#
# 1 0.019040 -0.002133 -0.009931 0.000000 0.000000 0.000000
# 2 -0.002133 0.009513 -0.002530 0.000000 0.000000 0.000000
# 3 -0.009931 -0.002530 0.016431 0.000000 0.000000 0.000000
# 4 0.000000 0.000000 0.000000 0.036700 0.000000 0.000000
# 5 0.000000 0.000000 0.000000 0.000000 0.040399 0.000000
# 6 0.000000 0.000000 0.000000 0.000000 0.000000 0.029074
#
#
# Mechanical properties :
#
#
# Convention : Reuss Voigt Hill
#
# Bulk Modulus (GPa) = 63.30866 64.04424 63.67645
# Shear Modulus (GPa) = 26.93806 29.24750 28.09278
#
# Velocity S-wave (km/s) = 3.66586 3.81977 3.74361
# Velocity P-wave (km/s) = 7.03567 7.16964 7.10297
#
# Compressibility (1/GPa) = 0.01579563
#
# Stress axis : x y z
#
# Youngs Moduli (GPa) = 52.52140 105.12043 60.86043
#
# Poissons Ratio (x) = 0.22425 0.60441
# Poissons Ratio (y) = 0.11204 0.15395
# Poissons Ratio (z) = 0.52160 0.26592
#
# Static dielectric constant tensor:
#      x y z
#    x 3.621190 0.000000 0.000000 
#    y 0.000000 3.531480 0.000000 
#    z 0.000000 0.000000 3.789240 
# 
# 
# High freq. dielectric constant tensor:
#      x y z
#    x 1.771480 0.000000 0.000000 
#    y 0.000000 1.789570 0.000000 
#    z 0.000000 0.000000 1.787550 
# 
# From -- ./inp_files/18842.got.cif
#   From: 2010.03.12/outbox.cif.g09.slc.cpg/sg44_10_cif.got.tgz:18842.got - 2010.04.14 02:36:11.
