data_PCOD8190647
_publ_section_title
;
Structure prediction by ZEFSAII (Michael W. Deem and Ramdas Pophale) SiO2 
 PCOD8190647
Probable space group: I B A 2
;
_chemical_formula_sum "Si O2"
_cell_formula_units_Z 48
_cell_length_a 30.381294
_cell_length_b 9.004444
_cell_length_c 8.527218
_cell_angle_alpha 90.000000
_cell_angle_beta 90.000000
_cell_angle_gamma 90.000000
_cell_volume 2332.762551
_symmetry_space_group_name_H-M "I B A 2"
_symmetry_group_IT_number 45
_symmetry_cell_setting 'orthorhombic'
loop_
_space_group_symop_operation_xyz
x,y,z
-x,-y,z
-x,y,1/2+z
x,-y,1/2+z
1/2+x,1/2+y,1/2+z
1/2-x,1/2-y,1/2+z
1/2-x,1/2+y,z
1/2+x,1/2-y,z
loop_
_atom_site_type_symbol
_atom_site_label
_atom_site_fract_x
_atom_site_fract_y
_atom_site_fract_z
Si Si1 0.625886 0.349586 0.051950
Si Si2 0.549643 0.854726 0.930643
Si Si3 0.704956 0.179440 0.927172
Si Si4 0.864694 0.824856 0.420073
Si Si5 0.784402 0.355287 0.059306
Si Si6 0.458496 0.825685 0.064775
O O1 0.637848 0.335788 0.233771
O O2 0.575161 0.305551 0.019980
O O3 0.655514 0.236958 0.951841
O O4 0.634171 0.515020 0.996978
O O5 0.592556 0.763233 0.979349
O O6 0.541285 0.854809 0.747645
O O7 0.507580 0.779047 0.014052
O O8 0.556564 0.024082 0.980273
O O9 0.713781 0.159611 0.744893
O O10 0.737256 0.301915 0.999106
O O11 0.710688 0.026659 0.018456
O O12 0.821617 0.741100 0.476785
#
# Coordination Sequence:
#
# PCOD8190647 Si02
#       6
#     8   8   8   8   8   8
#     4  11  24  41  61  89 122 160 202 248 300 356
#     4  10  21  37  60  87 118 155 199 247 299 356
#     4  12  25  43  66  92 123 159 199 246 297 355
#     4  11  24  41  61  89 122 160 202 248 300 356
#     4  12  25  43  66  92 123 159 199 246 297 355
#     4  10  21  37  60  87 118 155 199 247 299 356
#
# _framework density 20.576461999999999
#
# number of rings (size 3 to 8) (size 9 to 14) (size 15 to 20)
#    0.000    1.000    0.000    8.000    0.000    8.667 
#    0.000    3.333    0.000    0.000    0.000    0.000 
#    0.000    0.000    0.000    0.000    0.000    0.000 
#
# Total GULP energy -297754.012159 kJ/mol
# GULP energy per Si atom -12406.417173 kJ/mol
# Density = 2.052963 g / cm^3
# Si number density = 20.576462 Si / 1000 Ang^3
#
#
#
# Elastic Constant Matrix: (Units=GPa)
#
#
# Indices 1 2 3 4 5 6 
#
# 1 84.1745 15.7447 14.9288 0.0000 0.0000 0.0000
# 2 15.7447 76.6914 -10.8521 0.0000 0.0000 0.0000
# 3 14.9288 -10.8521 81.4022 0.0000 0.0000 0.0000
# 4 0.0000 0.0000 0.0000 48.8333 0.0000 0.0000
# 5 0.0000 0.0000 0.0000 0.0000 30.0882 0.0000
# 6 0.0000 0.0000 0.0000 0.0000 0.0000 37.5518
#
#
#
# Elastic Compliance Matrix: (Units=1/GPa)
#
#
# Indices 1 2 3 4 5 6 
#
# 1 0.012944 -0.003051 -0.002781 0.000000 0.000000 0.000000
# 2 -0.003051 0.014009 0.002427 0.000000 0.000000 0.000000
# 3 -0.002781 0.002427 0.013118 0.000000 0.000000 0.000000
# 4 0.000000 0.000000 0.000000 0.020478 0.000000 0.000000
# 5 0.000000 0.000000 0.000000 0.000000 0.033236 0.000000
# 6 0.000000 0.000000 0.000000 0.000000 0.000000 0.026630
#
#
# Mechanical properties :
#
#
# Convention : Reuss Voigt Hill
#
# Bulk Modulus (GPa) = 30.06383 31.32344 30.69363
# Shear Modulus (GPa) = 36.15053 38.12444 37.13749
#
# Velocity S-wave (km/s) = 4.19607 4.30911 4.25297
# Velocity P-wave (km/s) = 6.17402 6.32565 6.25030
#
# Compressibility (1/GPa) = 0.03326256
#
# Stress axis : x y z
#
# Youngs Moduli (GPa) = 77.25656 71.38242 76.22999
#
# Poissons Ratio (x) = 0.21778 0.21196
# Poissons Ratio (y) = 0.23570 -0.18502
# Poissons Ratio (z) = 0.21482 -0.17325
#
# Static dielectric constant tensor:
#      x y z
#    x 4.172110 0.000000 0.000000 
#    y 0.000000 3.782760 0.000000 
#    z 0.000000 0.000000 3.904880 
# 
# 
# High freq. dielectric constant tensor:
#      x y z
#    x 1.823130 0.000000 0.000000 
#    y 0.000000 1.808830 0.000000 
#    z 0.000000 0.000000 1.823490 
# 
# From -- ./inp_files/1077.got.cif
#   From: 2010.03.12/outbox.cif.g09.slc.cpg/sg45_1_cif.got.tgz:1077.got - 2010.04.14 02:50:11.
