data_PCOD8190620
_publ_section_title
;
Structure prediction by ZEFSAII (Michael W. Deem and Ramdas Pophale) SiO2 
 PCOD8190620
Probable space group: I B A 2
;
_chemical_formula_sum "Si O2"
_cell_formula_units_Z 60
_cell_length_a 26.278939
_cell_length_b 12.653691
_cell_length_c 9.018945
_cell_angle_alpha 90.000000
_cell_angle_beta 90.000000
_cell_angle_gamma 90.000000
_cell_volume 2999.029862
_symmetry_space_group_name_H-M "I B A 2"
_symmetry_group_IT_number 45
_symmetry_cell_setting 'orthorhombic'
loop_
_space_group_symop_operation_xyz
x,y,z
-x,-y,z
-x,y,1/2+z
x,-y,1/2+z
1/2+x,1/2+y,1/2+z
1/2-x,1/2-y,1/2+z
1/2-x,1/2+y,z
1/2+x,1/2-y,z
loop_
_atom_site_type_symbol
_atom_site_label
_atom_site_fract_x
_atom_site_fract_y
_atom_site_fract_z
Si Si1 0.232538 0.052764 0.982570
Si Si2 0.500000 0.500000 0.331306
Si Si3 0.863749 0.770978 0.700774
Si Si4 0.238108 0.866346 0.173556
Si Si5 0.128889 0.837370 0.530535
Si Si6 0.070206 0.053761 0.579117
Si Si7 0.651955 0.075944 0.525641
Si Si8 0.852892 0.636805 0.192338
O O1 0.230620 0.048952 0.805448
O O2 0.187549 0.126505 0.045181
O O3 0.287316 0.094507 0.039161
O O4 0.225693 0.930440 0.024564
O O5 0.536611 0.569302 0.227098
O O6 0.465315 0.575396 0.436032
O O7 0.802281 0.773095 0.693066
O O8 0.883124 0.791685 0.866674
O O9 0.885446 0.859886 0.588206
O O10 0.877605 0.655470 0.637420
O O11 0.294905 0.822342 0.178403
O O12 0.115922 0.741613 0.644533
O O13 0.092268 0.934966 0.568601
O O14 0.633221 0.097707 0.357468
O O15 0.637094 0.957678 0.575229
#
# Coordination Sequence:
#
# PCOD8190620 Si02
#       8
#     8   4   8   8   8   8   8   8
#     4   9  18  31  48  76 114 154 194 236 273 319
#     4  10  24  42  60  86 122 138 176 238 312 364
#     4  11  21  34  56  84 113 149 195 234 280 343
#     4   9  18  31  48  76 114 154 194 236 273 319
#     4  11  21  34  56  84 113 149 195 234 280 343
#     4  11  22  40  62  90 116 146 180 234 300 357
#     4  10  21  35  52  77 116 160 198 235 273 316
#     4  10  21  35  52  77 116 160 198 235 273 316
#
# _framework density 20.006471000000001
#
# number of rings (size 3 to 8) (size 9 to 14) (size 15 to 20)
#    0.000    1.867    2.667    1.600    1.867    2.133 
#    0.000    0.000    0.000    0.000    0.000    5.600 
#    0.000    0.000    0.000    0.000    0.000    0.000 
#
# Total GULP energy -371806.835791 kJ/mol
# GULP energy per Si atom -12393.561193 kJ/mol
# Density = 1.996094 g / cm^3
# Si number density = 20.006471 Si / 1000 Ang^3
#
#
#
# Elastic Constant Matrix: (Units=GPa)
#
#
# Indices 1 2 3 4 5 6 
#
# 1 41.5353 28.1678 21.6939 0.0000 0.0000 0.0000
# 2 28.1678 90.0358 31.6773 0.0000 0.0000 0.0000
# 3 21.6939 31.6773 86.9342 0.0000 0.0000 0.0000
# 4 0.0000 0.0000 0.0000 33.3409 0.0000 0.0000
# 5 0.0000 0.0000 0.0000 0.0000 23.4122 0.0000
# 6 0.0000 0.0000 0.0000 0.0000 0.0000 8.7970
#
#
#
# Elastic Compliance Matrix: (Units=1/GPa)
#
#
# Indices 1 2 3 4 5 6 
#
# 1 0.032372 -0.008357 -0.005033 0.000000 0.000000 0.000000
# 2 -0.008357 0.014897 -0.003343 0.000000 0.000000 0.000000
# 3 -0.005033 -0.003343 0.013977 0.000000 0.000000 0.000000
# 4 0.000000 0.000000 0.000000 0.029993 0.000000 0.000000
# 5 0.000000 0.000000 0.000000 0.000000 0.042713 0.000000
# 6 0.000000 0.000000 0.000000 0.000000 0.000000 0.113675
#
#
# Mechanical properties :
#
#
# Convention : Reuss Voigt Hill
#
# Bulk Modulus (GPa) = 35.99639 42.39813 39.19726
# Shear Modulus (GPa) = 17.22038 22.24110 19.73074
#
# Velocity S-wave (km/s) = 2.93702 3.33783 3.14382
# Velocity P-wave (km/s) = 5.43442 6.00775 5.72826
#
# Compressibility (1/GPa) = 0.02778056
#
# Stress axis : x y z
#
# Youngs Moduli (GPa) = 30.89088 67.12644 71.54582
#
# Poissons Ratio (x) = 0.56096 0.36010
# Poissons Ratio (y) = 0.25815 0.23917
# Poissons Ratio (z) = 0.15548 0.22440
#
# Static dielectric constant tensor:
#      x y z
#    x 3.399990 0.000000 0.000000 
#    y 0.000000 3.332820 0.000000 
#    z 0.000000 0.000000 3.775350 
# 
# 
# High freq. dielectric constant tensor:
#      x y z
#    x 1.737940 0.000000 0.000000 
#    y 0.000000 1.762980 0.000000 
#    z 0.000000 0.000000 1.793950 
# 
# From -- ./inp_files/1438.got.cif
#   From: 2010.03.12/outbox.cif.g09.slc.cpg/sg45_1_cif.got.tgz:1438.got - 2010.04.14 02:50:11.
