data_PCOD8190155
_publ_section_title
;
Structure prediction by ZEFSAII (Michael W. Deem and Ramdas Pophale) SiO2 
 PCOD8190155
Probable space group: I M M 2
;
_chemical_formula_sum "Si O2"
_cell_formula_units_Z 40
_cell_length_a 10.140020
_cell_length_b 14.524337
_cell_length_c 12.969747
_cell_angle_alpha 90.000000
_cell_angle_beta 90.000000
_cell_angle_gamma 90.000000
_cell_volume 1910.146307
_symmetry_space_group_name_H-M "I M M 2"
_symmetry_group_IT_number 44
_symmetry_cell_setting 'orthorhombic'
loop_
_space_group_symop_operation_xyz
x,y,z
-x,-y,z
-x,y,z
x,-y,z
1/2+x,1/2+y,1/2+z
1/2-x,1/2-y,1/2+z
1/2-x,1/2+y,1/2+z
1/2+x,1/2-y,1/2+z
loop_
_atom_site_type_symbol
_atom_site_label
_atom_site_fract_x
_atom_site_fract_y
_atom_site_fract_z
Si Si1 0.840528 0.500000 0.357201
Si Si2 0.153764 0.500000 0.599143
Si Si3 0.852272 0.895170 0.423215
Si Si4 0.352933 0.658202 0.322701
Si Si5 0.235734 0.179076 0.211541
Si Si6 0.642832 0.226903 0.518921
O O1 0.806854 0.500000 0.478767
O O2 0.767718 0.412892 0.303337
O O3 0.000000 0.500000 0.336126
O O4 0.203034 0.409208 0.656559
O O5 0.000000 0.500000 0.609537
O O6 0.847999 0.849658 0.310895
O O7 0.756377 0.848789 0.506181
O O8 0.000000 0.885218 0.466730
O O9 0.808045 0.000000 0.412532
O O10 0.500000 0.614473 0.307565
O O11 0.345370 0.747028 0.247747
O O12 0.334524 0.689881 0.440206
O O13 0.140512 0.230664 0.132464
O O14 0.500000 0.180221 0.498993
#
# Coordination Sequence:
#
# PCOD8190155 Si02
#       6
#     4   4   8   8   8   8
#     4  11  23  41  65  92 125 164 207 261 316 366
#     4  11  22  37  63  98 127 160 207 259 314 366
#     4  10  22  40  63  91 123 162 209 260 313 368
#     4  10  22  40  63  93 128 166 207 255 311 370
#     4  11  21  41  64  95 124 165 207 261 306 372
#     4  10  22  39  62  91 126 166 205 255 313 368
#
# _framework density 20.940802000000001
#
# number of rings (size 3 to 8) (size 9 to 14) (size 15 to 20)
#    0.000    1.600    3.000    1.500    0.000    6.800 
#    1.800    0.000    0.000    0.000    0.000    0.000 
#    0.000    0.000    0.000    0.000    0.000    0.000 
#
# Total GULP energy -247899.030894 kJ/mol
# GULP energy per Si atom -12394.951545 kJ/mol
# Density = 2.089314 g / cm^3
# Si number density = 20.940802 Si / 1000 Ang^3
#
#
#
# Elastic Constant Matrix: (Units=GPa)
#
#
# Indices 1 2 3 4 5 6 
#
# 1 136.2140 76.8503 21.7282 0.0000 0.0000 0.0000
# 2 76.8503 129.7331 46.0015 0.0000 0.0000 0.0000
# 3 21.7282 46.0015 60.0629 0.0000 0.0000 0.0000
# 4 0.0000 0.0000 0.0000 31.0548 0.0000 0.0000
# 5 0.0000 0.0000 0.0000 0.0000 16.3246 0.0000
# 6 0.0000 0.0000 0.0000 0.0000 0.0000 33.6058
#
#
#
# Elastic Compliance Matrix: (Units=1/GPa)
#
#
# Indices 1 2 3 4 5 6 
#
# 1 0.011112 -0.007080 0.001402 0.000000 0.000000 0.000000
# 2 -0.007080 0.015093 -0.008998 0.000000 0.000000 0.000000
# 3 0.001402 -0.008998 0.023033 0.000000 0.000000 0.000000
# 4 0.000000 0.000000 0.000000 0.032201 0.000000 0.000000
# 5 0.000000 0.000000 0.000000 0.000000 0.061257 0.000000
# 6 0.000000 0.000000 0.000000 0.000000 0.000000 0.029757
#
#
# Mechanical properties :
#
#
# Convention : Reuss Voigt Hill
#
# Bulk Modulus (GPa) = 50.28354 68.35221 59.31788
# Shear Modulus (GPa) = 23.98854 28.29237 26.14046
#
# Velocity S-wave (km/s) = 3.38826 3.67967 3.53697
# Velocity P-wave (km/s) = 6.27466 7.12495 6.71328
#
# Compressibility (1/GPa) = 0.01988722
#
# Stress axis : x y z
#
# Youngs Moduli (GPa) = 89.99311 66.25788 43.41517
#
# Poissons Ratio (x) = 0.46909 -0.06089
# Poissons Ratio (y) = 0.63712 0.39065
# Poissons Ratio (z) = -0.12621 0.59619
#
# Static dielectric constant tensor:
#      x y z
#    x 3.715480 0.000000 0.000000 
#    y 0.000000 3.745070 0.000000 
#    z 0.000000 0.000000 3.772710 
# 
# 
# High freq. dielectric constant tensor:
#      x y z
#    x 1.823110 0.000000 0.000000 
#    y 0.000000 1.818320 0.000000 
#    z 0.000000 0.000000 1.815220 
# 
# From -- ./inp_files/15803.got.cif
#   From: 2010.03.12/outbox.cif.g09.slc.cpg/sg44_8_cif.got.tgz:15803.got - 2010.04.14 02:36:11.
