data_PCOD8190075
_publ_section_title
;
Structure prediction by ZEFSAII (Michael W. Deem and Ramdas Pophale) SiO2 
 PCOD8190075
Probable space group: I M M 2
;
_chemical_formula_sum "Si O2"
_cell_formula_units_Z 56
_cell_length_a 14.510117
_cell_length_b 19.347992
_cell_length_c 10.065466
_cell_angle_alpha 90.000000
_cell_angle_beta 90.000000
_cell_angle_gamma 90.000000
_cell_volume 2825.795308
_symmetry_space_group_name_H-M "I M M 2"
_symmetry_group_IT_number 44
_symmetry_cell_setting 'orthorhombic'
loop_
_space_group_symop_operation_xyz
x,y,z
-x,-y,z
-x,y,z
x,-y,z
1/2+x,1/2+y,1/2+z
1/2-x,1/2-y,1/2+z
1/2-x,1/2+y,1/2+z
1/2+x,1/2-y,1/2+z
loop_
_atom_site_type_symbol
_atom_site_label
_atom_site_fract_x
_atom_site_fract_y
_atom_site_fract_z
Si Si1 0.395599 0.283890 0.686920
Si Si2 0.393734 0.711286 0.379735
Si Si3 0.604685 0.128511 0.776601
Si Si4 0.286087 0.162259 0.288335
Si Si5 0.104635 0.077924 0.720819
Si Si6 0.771388 0.577544 0.046252
Si Si7 0.892972 0.580998 0.564468
O O1 0.500000 0.312759 0.703979
O O2 0.367973 0.279520 0.532989
O O3 0.385851 0.209518 0.752864
O O4 0.323189 0.334176 0.758983
O O5 0.500000 0.731057 0.354743
O O6 0.331408 0.761662 0.289664
O O7 0.372745 0.632304 0.337663
O O8 0.500000 0.103136 0.760369
O O9 0.663322 0.084911 0.673092
O O10 0.640353 0.112339 0.924392
O O11 0.302519 0.129169 0.431889
O O12 0.333916 0.115782 0.178747
O O13 0.167051 0.093321 0.592354
O O14 0.000000 0.086607 0.671852
O O15 0.122826 0.000000 0.775587
O O16 0.779720 0.500000 0.990615
O O17 0.873311 0.500000 0.565520
O O18 0.000000 0.597577 0.589962
#
# Coordination Sequence:
#
# PCOD8190075 Si02
#       7
#     8   8   8   8   8   8   8
#     4  10  23  40  60  89 125 159 203 255 303 361
#     4  10  21  39  62  90 122 158 201 254 308 359
#     4  10  21  40  63  88 119 158 202 250 305 361
#     4  12  24  37  63  90 126 162 203 245 310 361
#     4   9  20  39  63  89 118 153 199 252 301 355
#     4  11  23  38  59  90 122 158 202 244 297 363
#     4  10  23  42  63  91 125 161 205 256 308 366
#
# _framework density 19.817430000000002
#
# number of rings (size 3 to 8) (size 9 to 14) (size 15 to 20)
#    0.000    1.714    1.429    2.143    4.000    2.000 
#    0.000    3.571    0.000    2.143    0.000    0.000 
#    0.000    0.000    0.000    0.000    0.000    0.000 
#
# Total GULP energy -347300.666073 kJ/mol
# GULP energy per Si atom -12403.595217 kJ/mol
# Density = 1.977232 g / cm^3
# Si number density = 19.817430 Si / 1000 Ang^3
#
#
#
# Elastic Constant Matrix: (Units=GPa)
#
#
# Indices 1 2 3 4 5 6 
#
# 1 95.0175 45.3630 55.5334 0.0000 0.0000 0.0000
# 2 45.3630 99.5238 62.0362 0.0000 0.0000 0.0000
# 3 55.5334 62.0362 124.9295 0.0000 0.0000 0.0000
# 4 0.0000 0.0000 0.0000 29.5789 0.0000 0.0000
# 5 0.0000 0.0000 0.0000 0.0000 31.7468 0.0000
# 6 0.0000 0.0000 0.0000 0.0000 0.0000 27.9232
#
#
#
# Elastic Compliance Matrix: (Units=1/GPa)
#
#
# Indices 1 2 3 4 5 6 
#
# 1 0.015214 -0.003938 -0.004808 0.000000 0.000000 0.000000
# 2 -0.003938 0.015571 -0.005982 0.000000 0.000000 0.000000
# 3 -0.004808 -0.005982 0.013112 0.000000 0.000000 0.000000
# 4 0.000000 0.000000 0.000000 0.033808 0.000000 0.000000
# 5 0.000000 0.000000 0.000000 0.000000 0.031499 0.000000
# 6 0.000000 0.000000 0.000000 0.000000 0.000000 0.035812
#
#
# Mechanical properties :
#
#
# Convention : Reuss Voigt Hill
#
# Bulk Modulus (GPa) = 69.23775 71.70398 70.47086
# Shear Modulus (GPa) = 27.88841 28.28568 28.08705
#
# Velocity S-wave (km/s) = 3.75543 3.78208 3.76878
# Velocity P-wave (km/s) = 7.33607 7.43861 7.38752
#
# Compressibility (1/GPa) = 0.01444299
#
# Stress axis : x y z
#
# Youngs Moduli (GPa) = 65.72807 64.22024 76.26651
#
# Poissons Ratio (x) = 0.25290 0.36665
# Poissons Ratio (y) = 0.25884 0.45621
# Poissons Ratio (z) = 0.31599 0.38415
#
# Static dielectric constant tensor:
#      x y z
#    x 3.804240 0.000000 0.000000 
#    y 0.000000 3.588750 0.000000 
#    z 0.000000 0.000000 3.467120 
# 
# 
# High freq. dielectric constant tensor:
#      x y z
#    x 1.785000 0.000000 0.000000 
#    y 0.000000 1.774240 0.000000 
#    z 0.000000 0.000000 1.765330 
# 
# From -- ./inp_files/7382.got.cif
#   From: 2010.03.12/outbox.cif.g09.slc.cpg/sg44_4_cif.got.tgz:7382.got - 2010.04.14 02:36:11.
