data_PCOD8190695
_publ_section_title
;
Structure prediction by ZEFSAII (Michael W. Deem and Ramdas Pophale) SiO2 
 PCOD8190695
Probable space group: I B A 2
;
_chemical_formula_sum "Si O2"
_cell_formula_units_Z 64
_cell_length_a 9.556258
_cell_length_b 22.758372
_cell_length_c 14.404545
_cell_angle_alpha 90.000000
_cell_angle_beta 90.000000
_cell_angle_gamma 90.000000
_cell_volume 3132.770661
_symmetry_space_group_name_H-M "I B A 2"
_symmetry_group_IT_number 45
_symmetry_cell_setting 'orthorhombic'
loop_
_space_group_symop_operation_xyz
x,y,z
-x,-y,z
-x,y,1/2+z
x,-y,1/2+z
1/2+x,1/2+y,1/2+z
1/2-x,1/2-y,1/2+z
1/2-x,1/2+y,z
1/2+x,1/2-y,z
loop_
_atom_site_type_symbol
_atom_site_label
_atom_site_fract_x
_atom_site_fract_y
_atom_site_fract_z
Si Si1 0.098573 0.360754 0.399570
Si Si2 0.199328 0.253731 0.113638
Si Si3 0.695842 0.125727 0.204590
Si Si4 0.520595 0.432317 0.771151
Si Si5 0.801670 0.121327 0.644777
Si Si6 0.949382 0.243884 0.986616
Si Si7 0.480848 0.069129 0.072739
Si Si8 0.586960 0.372264 0.950593
O O1 0.090701 0.380937 0.292581
O O2 0.026561 0.297574 0.415221
O O3 0.029551 0.409729 0.465973
O O4 0.259390 0.351245 0.424594
O O5 0.228230 0.305312 0.187654
O O6 0.232494 0.190226 0.158228
O O7 0.290667 0.261589 0.020883
O O8 0.039126 0.255338 0.079987
O O9 0.841533 0.092177 0.220280
O O10 0.618981 0.098287 0.116127
O O11 0.500000 0.500000 0.748334
O O12 0.380823 0.399892 0.736553
O O13 0.532972 0.423521 0.882513
O O14 0.656584 0.086722 0.631024
O O15 0.907253 0.107845 0.558119
O O16 0.987615 0.183719 0.935184
O O17 0.500000 0.000000 0.073826
#
# Coordination Sequence:
#
# PCOD8190695 Si02
#       8
#     8   8   8   8   8   8   8   8
#     4  10  21  40  58  90 129 162 205 263 317 365
#     4  11  20  37  65  90 127 157 206 256 320 377
#     4  11  23  39  64  95 124 170 210 265 321 379
#     4  11  24  42  62  90 125 166 216 255 304 377
#     4  10  21  42  62  93 126 162 203 269 310 368
#     4  11  18  39  61  88 125 158 203 253 314 378
#     4  11  22  42  64  87 127 172 210 257 319 380
#     4   9  21  39  62  85 123 165 201 256 313 360
#
# _framework density 20.429200000000002
#
# number of rings (size 3 to 8) (size 9 to 14) (size 15 to 20)
#    0.000    1.500    5.000    2.250    1.750    1.000 
#    4.500    6.250    0.000    0.000    0.000    0.000 
#    0.000    0.000    0.000    0.000    0.000    0.000 
#
# Total GULP energy -396799.238150 kJ/mol
# GULP energy per Si atom -12399.976192 kJ/mol
# Density = 2.038270 g / cm^3
# Si number density = 20.429200 Si / 1000 Ang^3
#
#
#
# Elastic Constant Matrix: (Units=GPa)
#
#
# Indices 1 2 3 4 5 6 
#
# 1 60.9405 51.4877 22.8421 0.0000 0.0000 0.0000
# 2 51.4877 150.0280 46.6769 0.0000 0.0000 0.0000
# 3 22.8421 46.6769 74.2320 -0.0001 0.0000 0.0000
# 4 0.0000 0.0000 -0.0001 28.5211 0.0000 0.0000
# 5 0.0000 0.0000 0.0000 0.0000 23.4366 0.0000
# 6 0.0000 0.0000 0.0000 0.0000 0.0000 33.1504
#
#
#
# Elastic Compliance Matrix: (Units=1/GPa)
#
#
# Indices 1 2 3 4 5 6 
#
# 1 0.023534 -0.007240 -0.002689 0.000000 0.000000 0.000000
# 2 -0.007240 0.010514 -0.004383 0.000000 0.000000 0.000000
# 3 -0.002689 -0.004383 0.017055 0.000000 0.000000 0.000000
# 4 0.000000 0.000000 0.000000 0.035062 0.000000 0.000000
# 5 0.000000 0.000000 0.000000 0.000000 0.042668 0.000000
# 6 0.000000 0.000000 0.000000 0.000000 0.000000 0.030166
#
#
# Mechanical properties :
#
#
# Convention : Reuss Voigt Hill
#
# Bulk Modulus (GPa) = 44.48778 58.57933 51.53355
# Shear Modulus (GPa) = 25.62570 27.96789 26.79680
#
# Velocity S-wave (km/s) = 3.54555 3.70403 3.62566
# Velocity P-wave (km/s) = 6.21169 6.85782 6.54273
#
# Compressibility (1/GPa) = 0.02247809
#
# Stress axis : x y z
#
# Youngs Moduli (GPa) = 42.49090 95.11299 58.63395
#
# Poissons Ratio (x) = 0.68862 0.15769
# Poissons Ratio (y) = 0.30763 0.25700
# Poissons Ratio (z) = 0.11427 0.41690
#
# Static dielectric constant tensor:
#      x y z
#    x 3.651520 0.000000 0.000000 
#    y 0.000000 3.638680 0.000000 
#    z 0.000000 0.000000 3.876940 
# 
# 
# High freq. dielectric constant tensor:
#      x y z
#    x 1.798610 0.000000 0.000000 
#    y 0.000000 1.798630 0.000000 
#    z 0.000000 0.000000 1.785640 
# 
# From -- ./inp_files/5838.got.cif
#   From: 2010.03.12/outbox.cif.g09.slc.cpg/sg45_3_cif.got.tgz:5838.got - 2010.04.14 02:50:11.
