data_PCOD8190824
_publ_section_title
;
Structure prediction by ZEFSAII (Michael W. Deem and Ramdas Pophale) SiO2 
 PCOD8190824
Probable space group: I B A 2
;
_chemical_formula_sum "Si O2"
_cell_formula_units_Z 36
_cell_length_a 5.579362
_cell_length_b 17.962824
_cell_length_c 12.701028
_cell_angle_alpha 90.000000
_cell_angle_beta 90.000000
_cell_angle_gamma 90.000000
_cell_volume 1272.910967
_symmetry_space_group_name_H-M "I B A 2"
_symmetry_group_IT_number 45
_symmetry_cell_setting 'orthorhombic'
loop_
_space_group_symop_operation_xyz
x,y,z
-x,-y,z
-x,y,1/2+z
x,-y,1/2+z
1/2+x,1/2+y,1/2+z
1/2-x,1/2-y,1/2+z
1/2-x,1/2+y,z
1/2+x,1/2-y,z
loop_
_atom_site_type_symbol
_atom_site_label
_atom_site_fract_x
_atom_site_fract_y
_atom_site_fract_z
Si Si1 0.900610 0.924604 0.009580
Si Si2 0.611881 0.921284 0.194369
Si Si3 0.881164 0.772383 0.521311
Si Si4 0.500000 0.500000 0.815220
Si Si5 0.614851 0.216923 0.284626
O O1 0.679953 0.890466 0.077424
O O2 0.104882 0.860988 0.001636
O O3 0.000000 0.000000 0.069202
O O4 0.821587 0.951999 0.892701
O O5 0.861522 0.934471 0.255170
O O6 0.427682 0.869168 0.256121
O O7 0.500000 0.000000 0.176487
O O8 0.125858 0.743410 0.581477
O O9 0.863356 0.727239 0.410552
O O10 0.876863 0.240237 0.237478
#
# Coordination Sequence:
#
# PCOD8190824 Si02
#       5
#     8   8   8   4   8
#     4  10  25  45  73 109 148 195 255 319 376 458
#     4  12  27  44  77 114 152 196 262 324 385 457
#     4  10  22  43  69 106 145 198 249 301 381 455
#     4  10  22  48  70 102 148 200 252 304 392 454
#     4  10  24  44  71 107 147 201 252 304 382 459
#
# _framework density 28.281632999999999
#
# number of rings (size 3 to 8) (size 9 to 14) (size 15 to 20)
#    0.667    0.889    1.111    2.667    9.333    4.444 
#    0.000    0.000    0.000    0.000    0.000    0.000 
#    0.000    0.000    0.000    0.000    0.000    0.000 
#
# Total GULP energy -223034.078151 kJ/mol
# GULP energy per Si atom -12390.782119 kJ/mol
# Density = 2.821726 g / cm^3
# Si number density = 28.281633 Si / 1000 Ang^3
#
#
#
# Elastic Constant Matrix: (Units=GPa)
#
#
# Indices 1 2 3 4 5 6 
#
# 1 195.4747 48.7900 60.2695 0.0000 0.0000 0.0000
# 2 48.7900 56.5315 28.5647 0.0000 0.0000 0.0000
# 3 60.2695 28.5647 71.3674 0.0002 0.0001 0.0000
# 4 0.0000 0.0000 0.0002 7.3760 0.0000 0.0000
# 5 0.0000 0.0000 0.0001 0.0000 41.0328 0.0000
# 6 0.0000 0.0000 0.0000 0.0000 0.0000 53.0084
#
#
#
# Elastic Compliance Matrix: (Units=1/GPa)
#
#
# Indices 1 2 3 4 5 6 
#
# 1 0.007629 -0.004173 -0.004772 0.000000 0.000000 0.000000
# 2 -0.004173 0.024456 -0.006265 0.000000 0.000000 0.000000
# 3 -0.004772 -0.006265 0.020550 -0.000001 0.000000 0.000000
# 4 0.000000 0.000000 -0.000001 0.135574 0.000000 0.000000
# 5 0.000000 0.000000 0.000000 0.000000 0.024371 0.000000
# 6 0.000000 0.000000 0.000000 0.000000 0.000000 0.018865
#
#
# Mechanical properties :
#
#
# Convention : Reuss Voigt Hill
#
# Bulk Modulus (GPa) = 45.01459 66.51352 55.76406
# Shear Modulus (GPa) = 18.56884 32.66674 25.61779
#
# Velocity S-wave (km/s) = 2.56514 3.40229 3.01293
# Velocity P-wave (km/s) = 4.97236 6.24527 5.64481
#
# Compressibility (1/GPa) = 0.02221502
#
# Stress axis : x y z
#
# Youngs Moduli (GPa) = 131.08531 40.88991 48.66277
#
# Poissons Ratio (x) = 0.17062 0.23223
# Poissons Ratio (y) = 0.54696 0.30486
# Poissons Ratio (z) = 0.62557 0.25616
#
# Static dielectric constant tensor:
#      x y z
#    x 3.733930 0.000000 0.000000 
#    y 0.000000 5.035040 0.000000 
#    z 0.000000 0.000000 5.156260 
# 
# 
# High freq. dielectric constant tensor:
#      x y z
#    x 2.136830 0.000000 0.000000 
#    y 0.000000 2.152210 0.000000 
#    z 0.000000 0.000000 2.164340 
# 
# From -- ./inp_files/5077.got.cif
#   From: 2010.03.12/outbox.cif.g09.slc.cpg/sg45_3_cif.got.tgz:5077.got - 2010.04.14 02:50:11.
