data_PCOD8190693
_publ_section_title
;
Structure prediction by ZEFSAII (Michael W. Deem and Ramdas Pophale) SiO2 
 PCOD8190693
Probable space group: I B A 2
;
_chemical_formula_sum "Si O2"
_cell_formula_units_Z 64
_cell_length_a 9.230143
_cell_length_b 14.259119
_cell_length_c 21.141266
_cell_angle_alpha 90.000000
_cell_angle_beta 90.000000
_cell_angle_gamma 90.000000
_cell_volume 2782.480398
_symmetry_space_group_name_H-M "I B A 2"
_symmetry_group_IT_number 45
_symmetry_cell_setting 'orthorhombic'
loop_
_space_group_symop_operation_xyz
x,y,z
-x,-y,z
-x,y,1/2+z
x,-y,1/2+z
1/2+x,1/2+y,1/2+z
1/2-x,1/2-y,1/2+z
1/2-x,1/2+y,z
1/2+x,1/2-y,z
loop_
_atom_site_type_symbol
_atom_site_label
_atom_site_fract_x
_atom_site_fract_y
_atom_site_fract_z
Si Si1 0.918745 0.363658 0.116950
Si Si2 0.152531 0.869863 0.224002
Si Si3 0.099378 0.748355 0.439981
Si Si4 0.543213 0.796394 0.739145
Si Si5 0.228310 0.445252 0.100909
Si Si6 0.939166 0.598321 0.369434
Si Si7 0.381414 0.578072 0.860848
Si Si8 0.640778 0.297227 0.523447
O O1 0.936471 0.356974 0.193268
O O2 0.809551 0.445714 0.096039
O O3 0.852526 0.269686 0.085642
O O4 0.082265 0.383864 0.094729
O O5 0.288582 0.798955 0.220282
O O6 0.004089 0.811263 0.228938
O O7 0.170429 0.935675 0.163222
O O8 0.151132 0.934808 0.286366
O O9 0.070872 0.816214 0.379408
O O10 0.264949 0.736221 0.462413
O O11 0.028932 0.646319 0.426302
O O12 0.023279 0.796364 0.500035
O O13 0.537091 0.832452 0.810459
O O14 0.321537 0.404070 0.042735
O O15 0.776740 0.573466 0.393763
O O16 0.000000 0.500000 0.347757
O O17 0.500000 0.500000 0.883090
#
# Coordination Sequence:
#
# PCOD8190693 Si02
#       8
#     8   8   8   8   8   8   8   8
#     4  10  22  41  67 100 135 173 222 283 340 408
#     4  10  21  41  67  98 130 170 213 275 346 399
#     4  12  26  45  67  96 135 184 238 279 334 404
#     4  10  21  39  69  95 131 167 218 273 342 406
#     4  10  22  42  68  99 133 174 224 279 343 407
#     4  11  26  43  69 103 135 179 227 281 350 410
#     4  11  26  45  67 103 140 175 224 289 344 408
#     4  12  24  43  69  95 132 186 234 279 333 401
#
# _framework density 23.001059999999999
#
# number of rings (size 3 to 8) (size 9 to 14) (size 15 to 20)
#    0.000    1.250    5.000    0.000    7.000    3.000 
#    0.000    0.000    0.000    0.000    0.000    0.000 
#    0.000    0.000    0.000    0.000    0.000    0.000 
#
# Total GULP energy -396481.738581 kJ/mol
# GULP energy per Si atom -12390.054331 kJ/mol
# Density = 2.294871 g / cm^3
# Si number density = 23.001060 Si / 1000 Ang^3
#
#
#
# Elastic Constant Matrix: (Units=GPa)
#
#
# Indices 1 2 3 4 5 6 
#
# 1 72.0912 20.6789 12.0544 0.0000 0.0000 0.0000
# 2 20.6789 59.8976 2.2440 0.0000 0.0000 0.0000
# 3 12.0544 2.2440 68.8959 0.0000 0.0000 0.0000
# 4 0.0000 0.0000 0.0000 29.2318 0.0000 0.0000
# 5 0.0000 0.0000 0.0000 0.0000 35.8851 0.0000
# 6 0.0000 0.0000 0.0000 0.0000 0.0000 35.2815
#
#
#
# Elastic Compliance Matrix: (Units=1/GPa)
#
#
# Indices 1 2 3 4 5 6 
#
# 1 0.015847 -0.005374 -0.002598 0.000000 0.000000 0.000000
# 2 -0.005374 0.018538 0.000336 0.000000 0.000000 0.000000
# 3 -0.002598 0.000336 0.014958 0.000000 0.000000 0.000000
# 4 0.000000 0.000000 0.000000 0.034209 0.000000 0.000000
# 5 0.000000 0.000000 0.000000 0.000000 0.027867 0.000000
# 6 0.000000 0.000000 0.000000 0.000000 0.000000 0.028343
#
#
# Mechanical properties :
#
#
# Convention : Reuss Voigt Hill
#
# Bulk Modulus (GPa) = 29.34862 30.09326 29.72094
# Shear Modulus (GPa) = 30.04987 31.14017 30.59502
#
# Velocity S-wave (km/s) = 3.61841 3.68347 3.65109
# Velocity P-wave (km/s) = 5.49951 5.58592 5.54288
#
# Compressibility (1/GPa) = 0.03407315
#
# Stress axis : x y z
#
# Youngs Moduli (GPa) = 63.10313 53.94400 66.85301
#
# Poissons Ratio (x) = 0.28988 0.17366
# Poissons Ratio (y) = 0.33910 -0.02249
# Poissons Ratio (z) = 0.16392 -0.01815
#
# Static dielectric constant tensor:
#      x y z
#    x 4.200270 0.000000 0.000000 
#    y 0.000000 3.809900 0.000000 
#    z 0.000000 0.000000 4.007660 
# 
# 
# High freq. dielectric constant tensor:
#      x y z
#    x 1.909620 0.000000 0.000000 
#    y 0.000000 1.889620 0.000000 
#    z 0.000000 0.000000 1.906230 
# 
# From -- ./inp_files/9623.got.cif
#   From: 2010.03.12/outbox.cif.g09.slc.cpg/sg45_5_cif.got.tgz:9623.got - 2010.04.14 02:50:11.
