data_PCOD8190025
_publ_section_title
;
Structure prediction by ZEFSAII (Michael W. Deem and Ramdas Pophale) SiO2 
 PCOD8190025
Probable space group: I M M 2
;
_chemical_formula_sum "Si O2"
_cell_formula_units_Z 64
_cell_length_a 22.606956
_cell_length_b 9.441073
_cell_length_c 15.334627
_cell_angle_alpha 90.000000
_cell_angle_beta 90.000000
_cell_angle_gamma 90.000000
_cell_volume 3272.929582
_symmetry_space_group_name_H-M "I M M 2"
_symmetry_group_IT_number 44
_symmetry_cell_setting 'orthorhombic'
loop_
_space_group_symop_operation_xyz
x,y,z
-x,-y,z
-x,y,z
x,-y,z
1/2+x,1/2+y,1/2+z
1/2-x,1/2-y,1/2+z
1/2-x,1/2+y,1/2+z
1/2+x,1/2-y,1/2+z
loop_
_atom_site_type_symbol
_atom_site_label
_atom_site_fract_x
_atom_site_fract_y
_atom_site_fract_z
Si Si1 0.569904 0.340121 0.420570
Si Si2 0.317417 0.162486 0.860209
Si Si3 0.929962 0.155074 0.113317
Si Si4 0.933935 0.665045 0.273356
Si Si5 0.312806 0.661877 0.024949
Si Si6 0.885873 0.668759 0.765233
Si Si7 0.774008 0.836857 0.712925
Si Si8 0.434443 0.663368 0.111730
O O1 0.500000 0.328868 0.416790
O O2 0.589411 0.500000 0.392954
O O3 0.594367 0.306165 0.517560
O O4 0.597167 0.218370 0.361363
O O5 0.387017 0.201190 0.849224
O O6 0.285656 0.193741 0.767237
O O7 0.308973 0.000000 0.885876
O O8 0.290916 0.249473 0.941367
O O9 0.909020 0.266870 0.184748
O O10 0.000000 0.152846 0.107795
O O11 0.906568 0.000000 0.141440
O O12 0.935506 0.500000 0.254578
O O13 0.000000 0.720319 0.299223
O O14 0.309840 0.500000 0.995934
O O15 0.269459 0.690153 0.108097
O O16 0.381037 0.705130 0.046894
O O17 0.888245 0.500000 0.757916
O O18 0.820489 0.725217 0.748843
O O19 0.931400 0.738023 0.696848
O O20 0.794986 0.000000 0.726858
O O21 0.500000 0.685704 0.069236
O O22 0.426165 0.500000 0.140895
#
# Coordination Sequence:
#
# PCOD8190025 Si02
#       8
#     8   8   8   8   8   8   8   8
#     4   9  17  30  48  70 103 147 187 222 269 332
#     4  10  21  38  60  83 109 146 185 222 274 338
#     4   8  15  29  48  70  99 137 179 219 257 305
#     4   9  18  33  53  79 112 144 172 210 269 335
#     4   9  19  36  58  82 109 142 183 234 278 317
#     4  11  21  31  48  77 108 138 181 239 286 322
#     4   9  20  41  60  73 103 150 189 225 274 334
#     4   9  18  34  55  78 110 153 189 216 265 336
#
# _framework density 19.554345999999999
#
# number of rings (size 3 to 8) (size 9 to 14) (size 15 to 20)
#    0.000    2.750    0.000    3.000    0.000    6.000 
#    2.250    1.250    0.000    0.000    0.000    0.000 
#    0.000    0.000    0.000    0.000    0.000    0.000 
#
# Total GULP energy -396542.165186 kJ/mol
# GULP energy per Si atom -12391.942662 kJ/mol
# Density = 1.950984 g / cm^3
# Si number density = 19.554346 Si / 1000 Ang^3
#
#
#
# Elastic Constant Matrix: (Units=GPa)
#
#
# Indices 1 2 3 4 5 6 
#
# 1 62.0799 25.7512 36.4424 0.0000 0.0000 0.0000
# 2 25.7512 81.9908 52.8058 0.0000 0.0000 0.0000
# 3 36.4424 52.8058 120.4626 0.0000 0.0000 0.0000
# 4 0.0000 0.0000 0.0000 35.7011 0.0000 0.0000
# 5 0.0000 0.0000 0.0000 0.0000 21.4448 0.0000
# 6 0.0000 0.0000 0.0000 0.0000 0.0000 17.8616
#
#
#
# Elastic Compliance Matrix: (Units=1/GPa)
#
#
# Indices 1 2 3 4 5 6 
#
# 1 0.020230 -0.003361 -0.004647 0.000000 0.000000 0.000000
# 2 -0.003361 0.017553 -0.006678 0.000000 0.000000 0.000000
# 3 -0.004647 -0.006678 0.012634 0.000000 0.000000 0.000000
# 4 0.000000 0.000000 0.000000 0.028010 0.000000 0.000000
# 5 0.000000 0.000000 0.000000 0.000000 0.046631 0.000000
# 6 0.000000 0.000000 0.000000 0.000000 0.000000 0.055986
#
#
# Mechanical properties :
#
#
# Convention : Reuss Voigt Hill
#
# Bulk Modulus (GPa) = 47.51399 54.94802 51.23100
# Shear Modulus (GPa) = 22.99578 24.97043 23.98311
#
# Velocity S-wave (km/s) = 3.43300 3.57736 3.50592
# Velocity P-wave (km/s) = 6.32970 6.72491 6.53030
#
# Compressibility (1/GPa) = 0.02104643
#
# Stress axis : x y z
#
# Youngs Moduli (GPa) = 49.43109 56.97096 79.14992
#
# Poissons Ratio (x) = 0.19148 0.36779
# Poissons Ratio (y) = 0.16614 0.52853
# Poissons Ratio (z) = 0.22969 0.38043
#
# Static dielectric constant tensor:
#      x y z
#    x 3.488580 0.000000 0.000000 
#    y 0.000000 3.505460 0.000000 
#    z 0.000000 0.000000 3.618820 
# 
# 
# High freq. dielectric constant tensor:
#      x y z
#    x 1.742740 0.000000 0.000000 
#    y 0.000000 1.752050 0.000000 
#    z 0.000000 0.000000 1.755290 
# 
# From -- ./inp_files/19471.got.cif
#   From: 2010.03.12/outbox.cif.g09.slc.cpg/sg44_10_cif.got.tgz:19471.got - 2010.04.14 02:36:11.
