data_PCOD8190973
_publ_section_title
;
Structure prediction by ZEFSAII (Michael W. Deem and Ramdas Pophale) SiO2 
 PCOD8190973
Probable space group: I B A 2
;
_chemical_formula_sum "Si O2"
_cell_formula_units_Z 40
_cell_length_a 17.461610
_cell_length_b 10.720017
_cell_length_c 8.719890
_cell_angle_alpha 90.000000
_cell_angle_beta 90.000000
_cell_angle_gamma 90.000000
_cell_volume 1632.265362
_symmetry_space_group_name_H-M "I B A 2"
_symmetry_group_IT_number 45
_symmetry_cell_setting 'orthorhombic'
loop_
_space_group_symop_operation_xyz
x,y,z
-x,-y,z
-x,y,1/2+z
x,-y,1/2+z
1/2+x,1/2+y,1/2+z
1/2-x,1/2-y,1/2+z
1/2-x,1/2+y,z
1/2+x,1/2-y,z
loop_
_atom_site_type_symbol
_atom_site_label
_atom_site_fract_x
_atom_site_fract_y
_atom_site_fract_z
Si Si1 0.098592 0.507047 0.069430
Si Si2 0.806378 0.629452 0.318589
Si Si3 0.106923 0.152385 0.385684
Si Si4 0.461732 0.822536 0.822843
Si Si5 0.366997 0.599612 0.738081
O O1 0.134373 0.416073 0.192704
O O2 0.043936 0.608989 0.156483
O O3 0.169340 0.574575 0.983983
O O4 0.048635 0.426617 0.951546
O O5 0.813561 0.780573 0.333070
O O6 0.722332 0.587132 0.272102
O O7 0.110831 0.116867 0.562699
O O8 0.043210 0.256997 0.348866
O O9 0.091546 0.027672 0.289938
O O10 0.397008 0.716175 0.836740
#
# Coordination Sequence:
#
# PCOD8190973 Si02
#       5
#     8   8   8   8   8
#     4  10  25  49  80 116 149 204 267 333 393 465
#     4  11  26  47  81 112 155 200 270 327 395 472
#     4  12  30  50  77 114 161 211 263 323 400 474
#     4  11  27  50  78 114 162 201 269 324 398 474
#     4  12  29  50  77 116 161 209 263 323 405 471
#
# _framework density 24.505818000000001
#
# number of rings (size 3 to 8) (size 9 to 14) (size 15 to 20)
#    0.000    0.800    2.000    1.800   14.000    6.400 
#    0.000    0.000    0.000    0.000    0.000    0.000 
#    0.000    0.000    0.000    0.000    0.000    0.000 
#
# Total GULP energy -248020.658411 kJ/mol
# GULP energy per Si atom -12401.032921 kJ/mol
# Density = 2.445004 g / cm^3
# Si number density = 24.505818 Si / 1000 Ang^3
#
#
#
# Elastic Constant Matrix: (Units=GPa)
#
#
# Indices 1 2 3 4 5 6 
#
# 1 114.2789 52.0647 58.0081 0.0000 0.0000 0.0000
# 2 52.0647 187.0711 73.3127 0.0000 0.0000 0.0000
# 3 58.0081 73.3127 151.0626 0.0000 0.0000 0.0000
# 4 0.0000 0.0000 0.0000 45.9510 0.0000 0.0000
# 5 0.0000 0.0000 0.0000 0.0000 35.2052 0.0000
# 6 0.0000 0.0000 0.0000 0.0000 0.0000 40.7642
#
#
#
# Elastic Compliance Matrix: (Units=1/GPa)
#
#
# Indices 1 2 3 4 5 6 
#
# 1 0.011334 -0.001789 -0.003484 0.000000 0.000000 0.000000
# 2 -0.001789 0.006883 -0.002654 0.000000 0.000000 0.000000
# 3 -0.003484 -0.002654 0.009245 0.000000 0.000000 0.000000
# 4 0.000000 0.000000 0.000000 0.021762 0.000000 0.000000
# 5 0.000000 0.000000 0.000000 0.000000 0.028405 0.000000
# 6 0.000000 0.000000 0.000000 0.000000 0.000000 0.024531
#
#
# Mechanical properties :
#
#
# Convention : Reuss Voigt Hill
#
# Bulk Modulus (GPa) = 86.13588 91.02040 88.57814
# Shear Modulus (GPa) = 41.02232 42.31923 41.67078
#
# Velocity S-wave (km/s) = 4.09587 4.16011 4.12812
# Velocity P-wave (km/s) = 7.58905 7.76520 7.67763
#
# Compressibility (1/GPa) = 0.01160956
#
# Stress axis : x y z
#
# Youngs Moduli (GPa) = 88.22924 145.27637 108.16090
#
# Poissons Ratio (x) = 0.25991 0.37684
# Poissons Ratio (y) = 0.15785 0.28702
# Poissons Ratio (z) = 0.30740 0.38551
#
# Static dielectric constant tensor:
#      x y z
#    x 4.381060 0.000000 0.000000 
#    y 0.000000 4.903710 0.000000 
#    z 0.000000 0.000000 4.674360 
# 
# 
# High freq. dielectric constant tensor:
#      x y z
#    x 1.975470 0.000000 0.000000 
#    y 0.000000 1.999940 0.000000 
#    z 0.000000 0.000000 1.990280 
# 
# From -- ./inp_files/2032.got.cif
#   From: 2010.03.12/outbox.cif.g09.slc.cpg/sg45_2_cif.got.tgz:2032.got - 2010.04.14 02:50:11.
