data_PCOD8190733
_publ_section_title
;
Structure prediction by ZEFSAII (Michael W. Deem and Ramdas Pophale) SiO2 
 PCOD8190733
Probable space group: I B A 2
;
_chemical_formula_sum "Si O2"
_cell_formula_units_Z 60
_cell_length_a 14.886547
_cell_length_b 15.289944
_cell_length_c 12.479554
_cell_angle_alpha 90.000000
_cell_angle_beta 90.000000
_cell_angle_gamma 90.000000
_cell_volume 2840.527069
_symmetry_space_group_name_H-M "I B A 2"
_symmetry_group_IT_number 45
_symmetry_cell_setting 'orthorhombic'
loop_
_space_group_symop_operation_xyz
x,y,z
-x,-y,z
-x,y,1/2+z
x,-y,1/2+z
1/2+x,1/2+y,1/2+z
1/2-x,1/2-y,1/2+z
1/2-x,1/2+y,z
1/2+x,1/2-y,z
loop_
_atom_site_type_symbol
_atom_site_label
_atom_site_fract_x
_atom_site_fract_y
_atom_site_fract_z
Si Si1 0.097472 0.871155 0.274620
Si Si2 0.723447 0.711313 0.012668
Si Si3 0.000000 0.000000 0.407835
Si Si4 0.213073 0.364671 0.367169
Si Si5 0.918286 0.297888 0.160003
Si Si6 0.350169 0.459866 0.063756
Si Si7 0.881016 0.648095 0.145573
Si Si8 0.828067 0.539433 0.582941
O O1 0.011252 0.912209 0.336139
O O2 0.191632 0.902064 0.326538
O O3 0.088294 0.765030 0.265485
O O4 0.093862 0.912713 0.156404
O O5 0.633702 0.749776 0.065497
O O6 0.705225 0.609567 0.990507
O O7 0.809890 0.715290 0.091818
O O8 0.738423 0.766288 0.905327
O O9 0.914074 0.007529 0.482150
O O10 0.141859 0.362292 0.271001
O O11 0.168974 0.422869 0.461402
O O12 0.871463 0.393618 0.170199
O O13 0.021977 0.309721 0.129124
O O14 0.277223 0.527202 0.113272
O O15 0.880729 0.552487 0.089826
#
# Coordination Sequence:
#
# PCOD8190733 Si02
#       8
#     8   8   4   8   8   8   8   8
#     4  11  23  44  63 102 135 173 226 278 340 413
#     4   9  22  42  63  96 132 173 220 278 336 408
#     4  12  24  38  68 102 132 176 232 274 340 414
#     4  11  21  42  67  94 131 177 224 279 342 408
#     4  10  22  43  66  96 134 175 223 279 338 399
#     4  10  21  43  64  91 136 171 221 285 337 398
#     4  11  22  45  68  95 139 176 227 281 341 407
#     4  10  21  44  68  91 133 178 225 284 338 402
#
# _framework density 21.12284
#
# number of rings (size 3 to 8) (size 9 to 14) (size 15 to 20)
#    0.000    1.600    5.333    0.800    1.867    2.133 
#   14.400    2.667    0.000    0.000    0.000    0.000 
#    0.000    0.000    0.000    0.000    0.000    0.000 
#
# Total GULP energy -371716.410865 kJ/mol
# GULP energy per Si atom -12390.547029 kJ/mol
# Density = 2.107476 g / cm^3
# Si number density = 21.122840 Si / 1000 Ang^3
#
#
#
# Elastic Constant Matrix: (Units=GPa)
#
#
# Indices 1 2 3 4 5 6 
#
# 1 138.1696 53.0253 33.5440 0.0000 0.0000 0.0000
# 2 53.0253 100.1481 47.5524 0.0000 0.0000 0.0000
# 3 33.5440 47.5524 80.5393 0.0000 0.0000 0.0000
# 4 0.0000 0.0000 0.0000 36.9806 0.0000 0.0000
# 5 0.0000 0.0000 0.0000 0.0000 19.6519 0.0000
# 6 0.0000 0.0000 0.0000 0.0000 0.0000 36.1747
#
#
#
# Elastic Compliance Matrix: (Units=1/GPa)
#
#
# Indices 1 2 3 4 5 6 
#
# 1 0.009184 -0.004233 -0.001326 0.000000 0.000000 0.000000
# 2 -0.004233 0.015826 -0.007581 0.000000 0.000000 0.000000
# 3 -0.001326 -0.007581 0.017444 0.000000 0.000000 0.000000
# 4 0.000000 0.000000 0.000000 0.027041 0.000000 0.000000
# 5 0.000000 0.000000 0.000000 0.000000 0.050886 0.000000
# 6 0.000000 0.000000 0.000000 0.000000 0.000000 0.027644
#
#
# Mechanical properties :
#
#
# Convention : Reuss Voigt Hill
#
# Bulk Modulus (GPa) = 61.82475 65.23339 63.52907
# Shear Modulus (GPa) = 27.82469 30.87711 29.35090
#
# Velocity S-wave (km/s) = 3.63337 3.82748 3.73169
# Velocity P-wave (km/s) = 6.85088 7.10512 6.97916
#
# Compressibility (1/GPa) = 0.01617475
#
# Stress axis : x y z
#
# Youngs Moduli (GPa) = 108.88664 63.18639 57.32466
#
# Poissons Ratio (x) = 0.26748 0.07599
# Poissons Ratio (y) = 0.46093 0.43458
# Poissons Ratio (z) = 0.14435 0.47902
#
# Static dielectric constant tensor:
#      x y z
#    x 3.824120 0.000000 0.000000 
#    y 0.000000 4.274960 0.000000 
#    z 0.000000 0.000000 3.726150 
# 
# 
# High freq. dielectric constant tensor:
#      x y z
#    x 1.825960 0.000000 0.000000 
#    y 0.000000 1.832600 0.000000 
#    z 0.000000 0.000000 1.807860 
# 
# From -- ./inp_files/6604.got.cif
#   From: 2010.03.12/outbox.cif.g09.slc.cpg/sg45_4_cif.got.tgz:6604.got - 2010.04.14 02:50:11.
