data_PCOD8190512
_publ_section_title
;
Structure prediction by ZEFSAII (Michael W. Deem and Ramdas Pophale) SiO2 
 PCOD8190512
Probable space group: I B A 2
;
_chemical_formula_sum "Si O2"
_cell_formula_units_Z 48
_cell_length_a 18.707167
_cell_length_b 8.357027
_cell_length_c 16.075154
_cell_angle_alpha 90.000000
_cell_angle_beta 90.000000
_cell_angle_gamma 90.000000
_cell_volume 2513.130094
_symmetry_space_group_name_H-M "I B A 2"
_symmetry_group_IT_number 45
_symmetry_cell_setting 'orthorhombic'
loop_
_space_group_symop_operation_xyz
x,y,z
-x,-y,z
-x,y,1/2+z
x,-y,1/2+z
1/2+x,1/2+y,1/2+z
1/2-x,1/2-y,1/2+z
1/2-x,1/2+y,z
1/2+x,1/2-y,z
loop_
_atom_site_type_symbol
_atom_site_label
_atom_site_fract_x
_atom_site_fract_y
_atom_site_fract_z
Si Si1 0.304043 0.393828 0.875000
Si Si2 0.081973 0.314043 0.808584
Si Si3 0.172327 0.209323 0.141331
Si Si4 0.196167 0.893837 0.218151
Si Si5 0.581764 0.813632 0.784372
Si Si6 0.172444 0.209590 0.951761
O O1 0.278099 0.499861 0.796573
O O2 0.372147 0.286583 0.850755
O O3 0.241178 0.279339 0.904513
O O4 0.324746 0.516282 0.948821
O O5 0.128125 0.213670 0.742329
O O6 0.095731 0.500192 0.796290
O O7 0.102469 0.270661 0.903426
O O8 0.000118 0.265700 0.796561
O O9 0.240786 0.279645 0.188890
O O10 0.102156 0.269565 0.189578
O O11 0.175484 0.016027 0.144196
O O12 0.168893 0.268569 0.046568
#
# Coordination Sequence:
#
# PCOD8190512 Si02
#       6
#     8   8   8   8   8   8
#     4  10  20  35  57  82 110 146 182 217 267 328
#     4  10  21  39  59  78 107 149 186 218 267 331
#     4  11  21  35  56  85 112 140 180 230 271 312
#     4  10  20  35  57  82 110 146 182 217 267 328
#     4  10  21  39  59  78 107 149 186 218 267 331
#     4  11  21  35  56  85 112 140 180 230 271 312
#
# _framework density 19.099686999999999
#
# number of rings (size 3 to 8) (size 9 to 14) (size 15 to 20)
#    0.000    1.667    0.000    8.000    0.000    6.000 
#    0.000   10.000    0.000    0.000    0.000    0.000 
#    0.000    0.000    0.000    0.000    0.000    0.000 
#
# Total GULP energy -297607.968487 kJ/mol
# GULP energy per Si atom -12400.332020 kJ/mol
# Density = 1.905622 g / cm^3
# Si number density = 19.099687 Si / 1000 Ang^3
#
#
#
# Elastic Constant Matrix: (Units=GPa)
#
#
# Indices 1 2 3 4 5 6 
#
# 1 155.3266 70.2391 74.1726 0.0000 0.0000 0.0000
# 2 70.2391 120.0380 42.5286 0.0000 0.0000 0.0000
# 3 74.1726 42.5286 112.0280 0.0000 0.0000 0.0000
# 4 0.0000 0.0000 0.0000 20.9066 0.0000 0.0000
# 5 0.0000 0.0000 0.0000 0.0000 7.3519 0.0000
# 6 0.0000 0.0000 0.0000 0.0000 0.0000 34.2326
#
#
#
# Elastic Compliance Matrix: (Units=1/GPa)
#
#
# Indices 1 2 3 4 5 6 
#
# 1 0.011214 -0.004542 -0.005700 0.000000 0.000000 0.000000
# 2 -0.004542 0.011465 -0.001345 0.000000 0.000000 0.000000
# 3 -0.005700 -0.001345 0.013211 0.000000 0.000000 0.000000
# 4 0.000000 0.000000 0.000000 0.047832 0.000000 0.000000
# 5 0.000000 0.000000 0.000000 0.000000 0.136019 0.000000
# 6 0.000000 0.000000 0.000000 0.000000 0.000000 0.029212
#
#
# Mechanical properties :
#
#
# Convention : Reuss Voigt Hill
#
# Bulk Modulus (GPa) = 78.64765 84.58590 81.61678
# Shear Modulus (GPa) = 18.09191 25.86171 21.97681
#
# Velocity S-wave (km/s) = 3.08106 3.68372 3.39578
# Velocity P-wave (km/s) = 7.34330 7.90416 7.62889
#
# Compressibility (1/GPa) = 0.01271494
#
# Stress axis : x y z
#
# Youngs Moduli (GPa) = 89.17285 87.22128 75.69357
#
# Poissons Ratio (x) = 0.39618 0.43149
# Poissons Ratio (y) = 0.40504 0.10181
# Poissons Ratio (z) = 0.50832 0.11732
#
# Static dielectric constant tensor:
#      x y z
#    x 3.396790 0.000000 0.000000 
#    y 0.000000 3.856150 0.000000 
#    z 0.000000 0.000000 8.003130 
# 
# 
# High freq. dielectric constant tensor:
#      x y z
#    x 1.734800 0.000000 0.000000 
#    y 0.000000 1.766670 0.000000 
#    z 0.000000 0.000000 1.728000 
# 
# From -- ./inp_files/5624.got.cif
#   From: 2010.03.12/outbox.cif.g09.slc.cpg/sg45_3_cif.got.tgz:5624.got - 2010.04.14 02:50:11.
