data_PCOD8190139
_publ_section_title
;
Structure prediction by ZEFSAII (Michael W. Deem and Ramdas Pophale) SiO2 
 PCOD8190139
Probable space group: I M M 2
;
_chemical_formula_sum "Si O2"
_cell_formula_units_Z 48
_cell_length_a 8.817380
_cell_length_b 18.142455
_cell_length_c 14.968259
_cell_angle_alpha 90.000000
_cell_angle_beta 90.000000
_cell_angle_gamma 90.000000
_cell_volume 2394.456225
_symmetry_space_group_name_H-M "I M M 2"
_symmetry_group_IT_number 44
_symmetry_cell_setting 'orthorhombic'
loop_
_space_group_symop_operation_xyz
x,y,z
-x,-y,z
-x,y,z
x,-y,z
1/2+x,1/2+y,1/2+z
1/2-x,1/2-y,1/2+z
1/2-x,1/2+y,1/2+z
1/2+x,1/2-y,1/2+z
loop_
_atom_site_type_symbol
_atom_site_label
_atom_site_fract_x
_atom_site_fract_y
_atom_site_fract_z
Si Si1 0.177452 0.274125 0.359080
Si Si2 0.326121 0.152002 0.231258
Si Si3 0.826014 0.918742 0.788941
Si Si4 0.827075 0.746449 0.563581
Si Si5 0.828288 0.500000 0.960425
Si Si6 0.323317 0.500000 0.777360
Si Si7 0.673420 0.110112 0.613493
O O1 0.259052 0.212069 0.300020
O O2 0.220730 0.356943 0.332101
O O3 0.224090 0.269523 0.462755
O O4 0.000000 0.262966 0.344750
O O5 0.500000 0.141976 0.259528
O O6 0.311236 0.175744 0.127696
O O7 0.245232 0.073528 0.234947
O O8 0.782557 0.927336 0.685318
O O9 0.000000 0.893494 0.797608
O O10 0.802272 0.000000 0.833364
O O11 0.712014 0.804529 0.605535
O O12 0.000000 0.776225 0.565666
O O13 0.706403 0.500000 0.882665
O O14 0.000000 0.500000 0.922138
O O15 0.798681 0.427263 0.018184
O O16 0.500000 0.500000 0.758198
O O17 0.500000 0.099997 0.644525
#
# Coordination Sequence:
#
# PCOD8190139 Si02
#       7
#     8   8   8   8   4   4   8
#     4  11  23  41  66  96 125 161 209 260 310 370
#     4  11  23  43  67  90 125 169 207 255 314 376
#     4  11  23  39  60  88 126 168 204 248 310 370
#     4  10  23  41  62  90 123 162 206 251 310 375
#     4  10  22  38  58  91 126 161 202 251 316 380
#     4  12  26  42  62  91 124 163 210 265 312 362
#     4  11  21  35  60  91 123 157 201 254 307 365
#
# _framework density 20.046303999999999
#
# number of rings (size 3 to 8) (size 9 to 14) (size 15 to 20)
#    0.000    1.167    2.500    3.750    0.000    7.000 
#    1.500    0.000    0.000    0.000    0.000    0.000 
#    0.000    0.000    0.000    0.000    0.000    0.000 
#
# Total GULP energy -297611.272279 kJ/mol
# GULP energy per Si atom -12400.469678 kJ/mol
# Density = 2.000068 g / cm^3
# Si number density = 20.046304 Si / 1000 Ang^3
#
#
#
# Elastic Constant Matrix: (Units=GPa)
#
#
# Indices 1 2 3 4 5 6 
#
# 1 98.1446 50.8654 33.7298 0.0000 0.0000 0.0000
# 2 50.8654 138.2316 40.0704 0.0000 0.0000 0.0000
# 3 33.7298 40.0704 97.5737 0.0000 0.0000 0.0000
# 4 0.0000 0.0000 0.0000 26.9293 0.0000 0.0000
# 5 0.0000 0.0000 0.0000 0.0000 30.2715 0.0000
# 6 0.0000 0.0000 0.0000 0.0000 0.0000 31.2760
#
#
#
# Elastic Compliance Matrix: (Units=1/GPa)
#
#
# Indices 1 2 3 4 5 6 
#
# 1 0.013292 -0.004040 -0.002936 0.000000 0.000000 0.000000
# 2 -0.004040 0.009440 -0.002480 0.000000 0.000000 0.000000
# 3 -0.002936 -0.002480 0.012282 0.000000 0.000000 0.000000
# 4 0.000000 0.000000 0.000000 0.037134 0.000000 0.000000
# 5 0.000000 0.000000 0.000000 0.000000 0.033034 0.000000
# 6 0.000000 0.000000 0.000000 0.000000 0.000000 0.031973
#
#
# Mechanical properties :
#
#
# Convention : Reuss Voigt Hill
#
# Bulk Modulus (GPa) = 62.10389 64.80901 63.45645
# Shear Modulus (GPa) = 30.97232 31.64762 31.30997
#
# Velocity S-wave (km/s) = 3.93496 3.97763 3.95635
# Velocity P-wave (km/s) = 7.18976 7.31404 7.25217
#
# Compressibility (1/GPa) = 0.01610205
#
# Stress axis : x y z
#
# Youngs Moduli (GPa) = 75.23443 105.93484 81.42028
#
# Poissons Ratio (x) = 0.42798 0.23902
# Poissons Ratio (y) = 0.30395 0.20192
# Poissons Ratio (z) = 0.22086 0.26272
#
# Static dielectric constant tensor:
#      x y z
#    x 3.705600 0.000000 0.000000 
#    y 0.000000 3.732500 0.000000 
#    z 0.000000 0.000000 3.677420 
# 
# 
# High freq. dielectric constant tensor:
#      x y z
#    x 1.790860 0.000000 0.000000 
#    y 0.000000 1.791400 0.000000 
#    z 0.000000 0.000000 1.776990 
# 
# From -- ./inp_files/16107.got.cif
#   From: 2010.03.12/outbox.cif.g09.slc.cpg/sg44_9_cif.got.tgz:16107.got - 2010.04.14 02:36:11.
