data_PCOD8190947
_publ_section_title
;
Structure prediction by ZEFSAII (Michael W. Deem and Ramdas Pophale) SiO2 
 PCOD8190947
Probable space group: I B A 2
;
_chemical_formula_sum "Si O2"
_cell_formula_units_Z 60
_cell_length_a 20.506536
_cell_length_b 8.180194
_cell_length_c 16.317802
_cell_angle_alpha 90.000000
_cell_angle_beta 90.000000
_cell_angle_gamma 90.000000
_cell_volume 2737.269557
_symmetry_space_group_name_H-M "I B A 2"
_symmetry_group_IT_number 45
_symmetry_cell_setting 'orthorhombic'
loop_
_space_group_symop_operation_xyz
x,y,z
-x,-y,z
-x,y,1/2+z
x,-y,1/2+z
1/2+x,1/2+y,1/2+z
1/2-x,1/2-y,1/2+z
1/2-x,1/2+y,z
1/2+x,1/2-y,z
loop_
_atom_site_type_symbol
_atom_site_label
_atom_site_fract_x
_atom_site_fract_y
_atom_site_fract_z
Si Si1 0.225453 0.209043 0.870720
Si Si2 0.105313 0.398930 0.937680
Si Si3 0.000000 0.500000 0.316635
Si Si4 0.537335 0.670290 0.735844
Si Si5 0.314743 0.447041 0.101108
Si Si6 0.941665 0.880422 0.048804
Si Si7 0.822125 0.091397 0.779790
Si Si8 0.695135 0.117327 0.526814
O O1 0.169735 0.338636 0.891112
O O2 0.190436 0.037462 0.852643
O O3 0.267814 0.267186 0.791455
O O4 0.275542 0.199753 0.945726
O O5 0.063889 0.498780 0.872300
O O6 0.061623 0.259291 0.979991
O O7 0.128070 0.523346 0.008353
O O8 0.998663 0.332369 0.263878
O O9 0.500000 0.500000 0.755395
O O10 0.545568 0.692456 0.638662
O O11 0.605624 0.666490 0.784685
O O12 0.371992 0.529853 0.048396
O O13 0.316446 0.498813 0.194478
O O14 0.322694 0.252375 0.094791
O O15 0.245141 0.489013 0.064074
O O16 0.000000 0.000000 0.022083
#
# Coordination Sequence:
#
# PCOD8190947 Si02
#       8
#     8   8   4   8   8   8   8   8
#     4  12  22  41  65  98 141 179 224 291 354 416
#     4  12  26  43  66 106 133 180 235 283 360 425
#     4  12  28  46  72 104 142 186 236 292 358 432
#     4  10  24  51  72 100 143 187 237 296 352 416
#     4  11  22  42  66  97 133 183 232 287 345 418
#     4  10  24  46  72  98 136 183 236 288 351 416
#     4  11  24  40  68 101 136 185 233 286 358 414
#     4  12  22  42  66  96 140 176 226 292 346 413
#
# _framework density 21.919654000000001
#
# number of rings (size 3 to 8) (size 9 to 14) (size 15 to 20)
#    0.000    0.800    4.000    2.400    1.867    3.200 
#    7.200    0.000    0.000    0.000    0.000    0.000 
#    0.000    0.000    0.000    0.000    0.000    0.000 
#
# Total GULP energy -372124.425148 kJ/mol
# GULP energy per Si atom -12404.147505 kJ/mol
# Density = 2.186976 g / cm^3
# Si number density = 21.919654 Si / 1000 Ang^3
#
#
#
# Elastic Constant Matrix: (Units=GPa)
#
#
# Indices 1 2 3 4 5 6 
#
# 1 92.9719 34.5597 29.0916 0.0000 0.0000 0.0000
# 2 34.5597 112.5769 24.0255 0.0000 0.0000 0.0000
# 3 29.0916 24.0255 53.2769 0.0000 0.0000 0.0000
# 4 0.0000 0.0000 0.0000 43.3893 0.0000 0.0000
# 5 0.0000 0.0000 0.0000 0.0000 37.3154 0.0000
# 6 0.0000 0.0000 0.0000 0.0000 0.0000 41.2439
#
#
#
# Elastic Compliance Matrix: (Units=1/GPa)
#
#
# Indices 1 2 3 4 5 6 
#
# 1 0.013780 -0.002904 -0.006215 0.000000 0.000000 0.000000
# 2 -0.002904 0.010441 -0.003123 0.000000 0.000000 0.000000
# 3 -0.006215 -0.003123 0.023572 0.000000 0.000000 0.000000
# 4 0.000000 0.000000 0.000000 0.023047 0.000000 0.000000
# 5 0.000000 0.000000 0.000000 0.000000 0.026799 0.000000
# 6 0.000000 0.000000 0.000000 0.000000 0.000000 0.024246
#
#
# Mechanical properties :
#
#
# Convention : Reuss Voigt Hill
#
# Bulk Modulus (GPa) = 42.90117 48.24213 45.57165
# Shear Modulus (GPa) = 32.43864 35.79965 34.11915
#
# Velocity S-wave (km/s) = 3.85110 4.04570 3.94960
# Velocity P-wave (km/s) = 6.27608 6.62420 6.45249
#
# Compressibility (1/GPa) = 0.02330939
#
# Stress axis : x y z
#
# Youngs Moduli (GPa) = 72.56832 95.77897 42.42376
#
# Poissons Ratio (x) = 0.27814 0.26366
# Poissons Ratio (y) = 0.21073 0.13247
# Poissons Ratio (z) = 0.45101 0.29908
#
# Static dielectric constant tensor:
#      x y z
#    x 4.128170 0.000000 0.000000 
#    y 0.000000 4.027360 0.000000 
#    z 0.000000 0.000000 3.851810 
# 
# 
# High freq. dielectric constant tensor:
#      x y z
#    x 1.867800 0.000000 0.000000 
#    y 0.000000 1.869370 0.000000 
#    z 0.000000 0.000000 1.858970 
# 
# From -- ./inp_files/8346.got.cif
#   From: 2010.03.12/outbox.cif.g09.slc.cpg/sg45_5_cif.got.tgz:8346.got - 2010.04.14 02:50:11.
