data_PCOD8190619
_publ_section_title
;
Structure prediction by ZEFSAII (Michael W. Deem and Ramdas Pophale) SiO2 
 PCOD8190619
Probable space group: I B A 2
;
_chemical_formula_sum "Si O2"
_cell_formula_units_Z 56
_cell_length_a 28.451463
_cell_length_b 17.049020
_cell_length_c 5.124982
_cell_angle_alpha 90.000000
_cell_angle_beta 90.000000
_cell_angle_gamma 90.000000
_cell_volume 2485.972773
_symmetry_space_group_name_H-M "I B A 2"
_symmetry_group_IT_number 45
_symmetry_cell_setting 'orthorhombic'
loop_
_space_group_symop_operation_xyz
x,y,z
-x,-y,z
-x,y,1/2+z
x,-y,1/2+z
1/2+x,1/2+y,1/2+z
1/2-x,1/2-y,1/2+z
1/2-x,1/2+y,z
1/2+x,1/2-y,z
loop_
_atom_site_type_symbol
_atom_site_label
_atom_site_fract_x
_atom_site_fract_y
_atom_site_fract_z
Si Si1 0.193659 0.199524 0.147090
Si Si2 0.931600 0.536107 0.362295
Si Si3 0.673157 0.034805 0.490711
Si Si4 0.970696 0.691414 0.198211
Si Si5 0.531023 0.631195 0.722290
Si Si6 0.696891 0.202651 0.644863
Si Si7 0.370838 0.550285 0.178402
O O1 0.248535 0.179386 0.125468
O O2 0.182027 0.234353 0.429001
O O3 0.163718 0.121460 0.111537
O O4 0.181215 0.263019 0.923481
O O5 0.957015 0.482401 0.139027
O O6 0.878935 0.504605 0.415184
O O7 0.931650 0.627435 0.277433
O O8 0.669103 0.123461 0.587149
O O9 0.699150 0.019255 0.212333
O O10 0.950133 0.779109 0.222993
O O11 0.013901 0.679431 0.399088
O O12 0.491794 0.613932 0.503384
O O13 0.575024 0.576194 0.665672
O O14 0.360641 0.516459 0.464641
#
# Coordination Sequence:
#
# PCOD8190619 Si02
#       7
#     8   8   8   8   8   8   8
#     4  10  23  41  63  96 124 161 213 255 310 380
#     4  10  21  35  51  82 118 151 197 246 293 353
#     4  10  21  36  56  88 119 157 202 239 294 355
#     4  10  21  37  56  81 112 154 202 246 300 362
#     4  10  23  43  63  90 124 163 213 260 318 388
#     4  10  21  41  65  90 128 169 206 251 309 373
#     4  12  26  43  66  99 129 164 213 268 334 385
#
# _framework density 22.526391
#
# number of rings (size 3 to 8) (size 9 to 14) (size 15 to 20)
#    0.000    1.714    0.000    3.429    2.000    4.571 
#    5.143    0.000    0.000    0.000    0.000    0.000 
#    0.000    0.000    0.000    0.000    0.000    0.000 
#
# Total GULP energy -347121.714837 kJ/mol
# GULP energy per Si atom -12397.204101 kJ/mol
# Density = 2.247512 g / cm^3
# Si number density = 22.526391 Si / 1000 Ang^3
#
#
#
# Elastic Constant Matrix: (Units=GPa)
#
#
# Indices 1 2 3 4 5 6 
#
# 1 45.5822 33.4971 20.6075 0.0000 0.0000 0.0000
# 2 33.4971 96.2632 26.7560 0.0000 0.0000 0.0000
# 3 20.6075 26.7560 143.0386 0.0001 0.0001 0.0000
# 4 0.0000 0.0000 0.0001 38.6331 0.0000 0.0000
# 5 0.0000 0.0000 0.0001 0.0000 20.3216 0.0000
# 6 0.0000 0.0000 0.0000 0.0000 0.0000 30.0338
#
#
#
# Elastic Compliance Matrix: (Units=1/GPa)
#
#
# Indices 1 2 3 4 5 6 
#
# 1 0.030317 -0.009847 -0.002526 0.000000 0.000000 0.000000
# 2 -0.009847 0.014157 -0.001229 0.000000 0.000000 0.000000
# 3 -0.002526 -0.001229 0.007585 0.000000 0.000000 0.000000
# 4 0.000000 0.000000 0.000000 0.025885 0.000000 0.000000
# 5 0.000000 0.000000 0.000000 0.000000 0.049209 0.000000
# 6 0.000000 0.000000 0.000000 0.000000 0.000000 0.033296
#
#
# Mechanical properties :
#
#
# Convention : Reuss Voigt Hill
#
# Bulk Modulus (GPa) = 40.23604 49.62280 44.92942
# Shear Modulus (GPa) = 25.51841 31.39926 28.45884
#
# Velocity S-wave (km/s) = 3.36939 3.73753 3.55823
# Velocity P-wave (km/s) = 5.74783 6.37982 6.07205
#
# Compressibility (1/GPa) = 0.02485334
#
# Stress axis : x y z
#
# Youngs Moduli (GPa) = 32.98486 70.63870 131.84000
#
# Poissons Ratio (x) = 0.69561 0.33299
# Poissons Ratio (y) = 0.32482 0.16207
# Poissons Ratio (z) = 0.08331 0.08684
#
# Static dielectric constant tensor:
#      x y z
#    x 3.642660 0.000000 0.000000 
#    y 0.000000 3.967550 0.000000 
#    z 0.000000 0.000000 4.692870 
# 
# 
# High freq. dielectric constant tensor:
#      x y z
#    x 1.855390 0.000000 0.000000 
#    y 0.000000 1.890390 0.000000 
#    z 0.000000 0.000000 1.919630 
# 
# From -- ./inp_files/679.got.cif
#   From: 2010.03.12/outbox.cif.g09.slc.cpg/sg45_1_cif.got.tgz:679.got - 2010.04.14 02:50:11.
