data_PCOD8190463
_publ_section_title
;
Structure prediction by ZEFSAII (Michael W. Deem and Ramdas Pophale) SiO2 
 PCOD8190463
Probable space group: I B A 2
;
_chemical_formula_sum "Si O2"
_cell_formula_units_Z 64
_cell_length_a 28.124020
_cell_length_b 5.874286
_cell_length_c 18.218886
_cell_angle_alpha 90.000000
_cell_angle_beta 90.000000
_cell_angle_gamma 90.000000
_cell_volume 3009.915501
_symmetry_space_group_name_H-M "I B A 2"
_symmetry_group_IT_number 45
_symmetry_cell_setting 'orthorhombic'
loop_
_space_group_symop_operation_xyz
x,y,z
-x,-y,z
-x,y,1/2+z
x,-y,1/2+z
1/2+x,1/2+y,1/2+z
1/2-x,1/2-y,1/2+z
1/2-x,1/2+y,z
1/2+x,1/2-y,z
loop_
_atom_site_type_symbol
_atom_site_label
_atom_site_fract_x
_atom_site_fract_y
_atom_site_fract_z
Si Si1 0.894287 0.865485 0.497990
Si Si2 0.141072 0.755867 0.762075
Si Si3 0.445833 0.050931 0.266138
Si Si4 0.884658 0.141991 0.365872
Si Si5 0.447001 0.929973 0.601907
Si Si6 0.228198 0.439624 0.332510
Si Si7 0.674758 0.974760 0.462207
Si Si8 0.858567 0.756512 0.094794
O O1 0.938121 0.769583 0.544101
O O2 0.862767 0.675967 0.459031
O O3 0.913809 0.008065 0.429109
O O4 0.861797 0.000197 0.556237
O O5 0.086069 0.677163 0.765235
O O6 0.175142 0.562631 0.797035
O O7 0.158335 0.789783 0.678011
O O8 0.144530 0.989946 0.807174
O O9 0.425568 0.219528 0.326143
O O10 0.442942 0.163978 0.185181
O O11 0.500000 0.000000 0.287653
O O12 0.843873 0.275478 0.408937
O O13 0.500000 0.000000 0.584683
O O14 0.409949 0.134751 0.589091
O O15 0.249612 0.187808 0.307700
O O16 0.223526 0.442300 0.422276
O O17 0.680093 0.890013 0.546836
#
# Coordination Sequence:
#
# PCOD8190463 Si02
#       8
#     8   8   8   8   8   8   8   8
#     4  10  19  36  60  87 114 175 217 266 345 400
#     4  11  22  42  65  96 132 176 222 284 342 404
#     4  10  21  37  61  92 130 175 223 273 335 401
#     4  11  19  36  64  86 133 171 223 280 339 403
#     4   9  19  36  54  85 127 167 218 272 325 403
#     4  12  26  44  73 104 133 178 228 280 354 422
#     4  10  21  42  62  92 127 169 216 273 340 412
#     4   9  21  37  65  89 121 176 221 268 342 402
#
# _framework density 21.263057
#
# number of rings (size 3 to 8) (size 9 to 14) (size 15 to 20)
#    0.000    1.750    2.500    1.500    1.750    1.000 
#    0.000   20.000    0.000    0.000    0.000    0.000 
#    0.000    0.000    0.000    0.000    0.000    0.000 
#
# Total GULP energy -396466.284707 kJ/mol
# GULP energy per Si atom -12389.571397 kJ/mol
# Density = 2.121466 g / cm^3
# Si number density = 21.263057 Si / 1000 Ang^3
#
#
#
# Elastic Constant Matrix: (Units=GPa)
#
#
# Indices 1 2 3 4 5 6 
#
# 1 43.5667 10.0540 9.8726 0.0000 0.0000 0.0000
# 2 10.0540 95.3278 49.5977 0.0000 0.0000 0.0000
# 3 9.8726 49.5977 133.1489 0.0000 0.0000 0.0000
# 4 0.0000 0.0000 0.0000 39.1530 0.0000 0.0000
# 5 0.0000 0.0000 0.0000 0.0000 29.8618 0.0000
# 6 0.0000 0.0000 0.0000 0.0000 0.0000 18.0381
#
#
#
# Elastic Compliance Matrix: (Units=1/GPa)
#
#
# Indices 1 2 3 4 5 6 
#
# 1 0.023638 -0.001961 -0.001022 0.000000 0.000000 0.000000
# 2 -0.001961 0.013175 -0.004762 0.000000 0.000000 0.000000
# 3 -0.001022 -0.004762 0.009360 0.000000 0.000000 0.000000
# 4 0.000000 0.000000 0.000000 0.025541 0.000000 0.000000
# 5 0.000000 0.000000 0.000000 0.000000 0.033488 0.000000
# 6 0.000000 0.000000 0.000000 0.000000 0.000000 0.055438
#
#
# Mechanical properties :
#
#
# Convention : Reuss Voigt Hill
#
# Bulk Modulus (GPa) = 32.59307 45.67688 39.13497
# Shear Modulus (GPa) = 26.83023 30.91184 28.87104
#
# Velocity S-wave (km/s) = 3.55607 3.81699 3.68884
# Velocity P-wave (km/s) = 5.67650 6.39955 6.04884
#
# Compressibility (1/GPa) = 0.03068137
#
# Stress axis : x y z
#
# Youngs Moduli (GPa) = 42.30562 75.90360 106.83713
#
# Poissons Ratio (x) = 0.14886 0.10920
# Poissons Ratio (y) = 0.08297 0.50877
# Poissons Ratio (z) = 0.04324 0.36146
#
# Static dielectric constant tensor:
#      x y z
#    x 3.600540 0.000000 0.000000 
#    y 0.000000 4.003540 0.000000 
#    z 0.000000 0.000000 4.212680 
# 
# 
# High freq. dielectric constant tensor:
#      x y z
#    x 1.800570 0.000000 0.000000 
#    y 0.000000 1.838730 0.000000 
#    z 0.000000 0.000000 1.851250 
# 
# From -- ./inp_files/8562.got.cif
#   From: 2010.03.12/outbox.cif.g09.slc.cpg/sg45_5_cif.got.tgz:8562.got - 2010.04.14 02:50:11.
