data_PCOD8190419
_publ_section_title
;
Structure prediction by ZEFSAII (Michael W. Deem and Ramdas Pophale) SiO2 
 PCOD8190419
Probable space group: I B A 2
;
_chemical_formula_sum "Si O2"
_cell_formula_units_Z 64
_cell_length_a 20.666267
_cell_length_b 9.595924
_cell_length_c 13.647069
_cell_angle_alpha 90.000000
_cell_angle_beta 90.000000
_cell_angle_gamma 90.000000
_cell_volume 2706.376558
_symmetry_space_group_name_H-M "I B A 2"
_symmetry_group_IT_number 45
_symmetry_cell_setting 'orthorhombic'
loop_
_space_group_symop_operation_xyz
x,y,z
-x,-y,z
-x,y,1/2+z
x,-y,1/2+z
1/2+x,1/2+y,1/2+z
1/2-x,1/2-y,1/2+z
1/2-x,1/2+y,z
1/2+x,1/2-y,z
loop_
_atom_site_type_symbol
_atom_site_label
_atom_site_fract_x
_atom_site_fract_y
_atom_site_fract_z
Si Si1 0.679921 0.461181 0.540070
Si Si2 0.093033 0.100875 0.271949
Si Si3 0.040343 0.642208 0.453934
Si Si4 0.268518 0.641620 0.350410
Si Si5 0.459673 0.362363 0.060963
Si Si6 0.747023 0.888470 0.726621
Si Si7 0.454518 0.698627 0.773333
Si Si8 0.856559 0.246523 0.592206
O O1 0.734527 0.394429 0.466635
O O2 0.608758 0.405489 0.512975
O O3 0.694080 0.413796 0.651582
O O4 0.684416 0.631014 0.530004
O O5 0.155214 0.156573 0.328763
O O6 0.097034 0.145533 0.156940
O O7 0.027042 0.165635 0.311342
O O8 0.092262 0.934189 0.287342
O O9 0.066108 0.670510 0.342388
O O10 0.103088 0.645849 0.524773
O O11 0.000000 0.500000 0.462630
O O12 0.995623 0.773007 0.479716
O O13 0.233751 0.782703 0.314575
O O14 0.231726 0.530007 0.283137
O O15 0.500000 0.500000 0.091069
O O16 0.452115 0.264815 0.157909
O O17 0.685731 0.841068 0.663790
#
# Coordination Sequence:
#
# PCOD8190419 Si02
#       8
#     8   8   8   8   8   8   8   8
#     4  12  23  45  79 103 139 191 254 308 358 441
#     4  10  18  40  68  98 131 174 240 301 335 418
#     4  12  27  41  63 109 153 190 229 293 380 447
#     4  11  25  42  68 104 139 185 244 301 368 427
#     4  12  22  44  78 108 134 188 245 300 360 437
#     4  11  25  45  70 102 142 189 241 309 365 422
#     4  11  19  37  70 101 132 178 237 286 360 425
#     4  11  22  46  70  96 148 189 240 304 360 435
#
# _framework density 23.647856000000001
#
# number of rings (size 3 to 8) (size 9 to 14) (size 15 to 20)
#    0.000    0.750    7.500    1.500    3.500    1.500 
#    0.000    2.500    0.000    0.000    0.000    0.000 
#    0.000    0.000    0.000    0.000    0.000    0.000 
#
# Total GULP energy -396604.477724 kJ/mol
# GULP energy per Si atom -12393.889929 kJ/mol
# Density = 2.359403 g / cm^3
# Si number density = 23.647856 Si / 1000 Ang^3
#
#
#
# Elastic Constant Matrix: (Units=GPa)
#
#
# Indices 1 2 3 4 5 6 
#
# 1 47.1223 23.7559 7.0123 0.0000 0.0000 0.0000
# 2 23.7559 71.7553 30.9038 0.0000 0.0000 0.0000
# 3 7.0123 30.9038 119.2960 0.0000 0.0000 0.0000
# 4 0.0000 0.0000 0.0000 31.2042 0.0000 0.0000
# 5 0.0000 0.0000 0.0000 0.0000 28.7843 0.0000
# 6 0.0000 0.0000 0.0000 0.0000 0.0000 35.8431
#
#
#
# Elastic Compliance Matrix: (Units=1/GPa)
#
#
# Indices 1 2 3 4 5 6 
#
# 1 0.025536 -0.008788 0.000776 0.000000 0.000000 0.000000
# 2 -0.008788 0.018711 -0.004330 0.000000 0.000000 0.000000
# 3 0.000776 -0.004330 0.009459 0.000000 0.000000 0.000000
# 4 0.000000 0.000000 0.000000 0.032047 0.000000 0.000000
# 5 0.000000 0.000000 0.000000 0.000000 0.034741 0.000000
# 6 0.000000 0.000000 0.000000 0.000000 0.000000 0.027899
#
#
# Mechanical properties :
#
#
# Convention : Reuss Voigt Hill
#
# Bulk Modulus (GPa) = 34.45953 40.16864 37.31408
# Shear Modulus (GPa) = 27.35929 30.93309 29.14619
#
# Velocity S-wave (km/s) = 3.40508 3.62065 3.51452
# Velocity P-wave (km/s) = 5.48298 5.87383 5.68176
#
# Compressibility (1/GPa) = 0.02901955
#
# Stress axis : x y z
#
# Youngs Moduli (GPa) = 39.15969 53.44487 105.72226
#
# Poissons Ratio (x) = 0.46969 -0.08200
# Poissons Ratio (y) = 0.34415 0.45783
# Poissons Ratio (z) = -0.03037 0.23144
#
# Static dielectric constant tensor:
#      x y z
#    x 4.084950 0.000000 0.000000 
#    y 0.000000 3.975270 0.000000 
#    z 0.000000 0.000000 4.472770 
# 
# 
# High freq. dielectric constant tensor:
#      x y z
#    x 1.927360 0.000000 0.000000 
#    y 0.000000 1.903900 0.000000 
#    z 0.000000 0.000000 1.957150 
# 
# From -- ./inp_files/7065.got.cif
#   From: 2010.03.12/outbox.cif.g09.slc.cpg/sg45_4_cif.got.tgz:7065.got - 2010.04.14 02:50:11.
