data_PCOD8190520
_publ_section_title
;
Structure prediction by ZEFSAII (Michael W. Deem and Ramdas Pophale) SiO2 
 PCOD8190520
Probable space group: I B A 2
;
_chemical_formula_sum "Si O2"
_cell_formula_units_Z 64
_cell_length_a 23.197898
_cell_length_b 8.376308
_cell_length_c 16.859871
_cell_angle_alpha 90.000000
_cell_angle_beta 90.000000
_cell_angle_gamma 90.000000
_cell_volume 3276.087706
_symmetry_space_group_name_H-M "I B A 2"
_symmetry_group_IT_number 45
_symmetry_cell_setting 'orthorhombic'
loop_
_space_group_symop_operation_xyz
x,y,z
-x,-y,z
-x,y,1/2+z
x,-y,1/2+z
1/2+x,1/2+y,1/2+z
1/2-x,1/2-y,1/2+z
1/2-x,1/2+y,z
1/2+x,1/2-y,z
loop_
_atom_site_type_symbol
_atom_site_label
_atom_site_fract_x
_atom_site_fract_y
_atom_site_fract_z
Si Si1 0.807288 0.313046 0.083810
Si Si2 0.602288 0.385617 0.493159
Si Si3 0.874004 0.191501 0.406871
Si Si4 0.995469 0.682916 0.715203
Si Si5 0.871344 0.822764 0.726571
Si Si6 0.183024 0.679899 0.553743
Si Si7 0.003410 0.815772 0.880592
Si Si8 0.589904 0.390909 0.136680
O O1 0.852238 0.245412 0.020208
O O2 0.820250 0.241661 0.170841
O O3 0.812016 0.502004 0.085110
O O4 0.743684 0.267701 0.057949
O O5 0.635117 0.509168 0.435436
O O6 0.550957 0.292323 0.448555
O O7 0.575584 0.483434 0.566890
O O8 0.851591 0.204240 0.316918
O O9 0.838280 0.312607 0.462293
O O10 0.941536 0.237097 0.414773
O O11 0.019054 0.707985 0.804678
O O12 0.031998 0.795429 0.656892
O O13 0.000000 0.500000 0.689176
O O14 0.928873 0.725253 0.707167
O O15 0.884997 0.010055 0.711684
O O16 0.138682 0.767687 0.611142
O O17 0.000000 0.000000 0.852107
#
# Coordination Sequence:
#
# PCOD8190520 Si02
#       8
#     8   8   8   8   8   8   8   8
#     4  11  23  41  60  83 113 149 192 239 286 336
#     4   9  19  34  59  85 112 151 192 229 279 337
#     4   9  19  37  59  85 115 150 188 229 278 339
#     4  11  21  33  54  87 122 150 183 231 283 338
#     4  10  21  39  61  84 115 152 190 232 284 340
#     4  11  23  41  60  82 114 149 192 240 285 336
#     4   9  18  35  56  83 117 151 186 225 280 341
#     4  10  20  36  58  83 115 152 192 233 280 335
#
# _framework density 19.535498
#
# number of rings (size 3 to 8) (size 9 to 14) (size 15 to 20)
#    0.000    2.000    0.000    5.625    0.000   11.000 
#    0.000    8.750    0.000    0.750    0.000    0.000 
#    0.000    0.000    0.000    0.000    0.000    0.000 
#
# Total GULP energy -396861.048464 kJ/mol
# GULP energy per Si atom -12401.907765 kJ/mol
# Density = 1.949103 g / cm^3
# Si number density = 19.535498 Si / 1000 Ang^3
#
#
#
# Elastic Constant Matrix: (Units=GPa)
#
#
# Indices 1 2 3 4 5 6 
#
# 1 75.4963 10.1895 37.7637 0.0000 0.0000 0.0000
# 2 10.1895 79.0846 14.4134 0.0000 0.0000 0.0000
# 3 37.7637 14.4134 82.9735 0.0000 0.0000 0.0000
# 4 0.0000 0.0000 0.0000 27.2426 0.0000 0.0000
# 5 0.0000 0.0000 0.0000 0.0000 15.7266 0.0000
# 6 0.0000 0.0000 0.0000 0.0000 0.0000 30.8889
#
#
#
# Elastic Compliance Matrix: (Units=1/GPa)
#
#
# Indices 1 2 3 4 5 6 
#
# 1 0.017201 -0.000815 -0.007687 0.000000 0.000000 0.000000
# 2 -0.000815 0.013097 -0.001904 0.000000 0.000000 0.000000
# 3 -0.007687 -0.001904 0.015881 0.000000 0.000000 0.000000
# 4 0.000000 0.000000 0.000000 0.036707 0.000000 0.000000
# 5 0.000000 0.000000 0.000000 0.000000 0.063587 0.000000
# 6 0.000000 0.000000 0.000000 0.000000 0.000000 0.032374
#
#
# Mechanical properties :
#
#
# Convention : Reuss Voigt Hill
#
# Bulk Modulus (GPa) = 39.42215 40.25418 39.83816
# Shear Modulus (GPa) = 24.02521 26.45080 25.23801
#
# Velocity S-wave (km/s) = 3.51069 3.68365 3.59821
# Velocity P-wave (km/s) = 6.05449 6.22437 6.14001
#
# Compressibility (1/GPa) = 0.02536645
#
# Stress axis : x y z
#
# Youngs Moduli (GPa) = 58.13697 76.35495 62.96698
#
# Poissons Ratio (x) = 0.06225 0.48402
# Poissons Ratio (y) = 0.04739 0.11989
# Poissons Ratio (z) = 0.44690 0.14538
#
# Static dielectric constant tensor:
#      x y z
#    x 3.493590 0.000000 0.000000 
#    y 0.000000 3.490090 0.000000 
#    z 0.000000 0.000000 3.727320 
# 
# 
# High freq. dielectric constant tensor:
#      x y z
#    x 1.753210 0.000000 0.000000 
#    y 0.000000 1.753960 0.000000 
#    z 0.000000 0.000000 1.764960 
# 
# From -- ./inp_files/8445.got.cif
#   From: 2010.03.12/outbox.cif.g09.slc.cpg/sg45_5_cif.got.tgz:8445.got - 2010.04.14 02:50:11.
