data_PCOD8190514
_publ_section_title
;
Structure prediction by ZEFSAII (Michael W. Deem and Ramdas Pophale) SiO2 
 PCOD8190514
Probable space group: I B A 2
;
_chemical_formula_sum "Si O2"
_cell_formula_units_Z 64
_cell_length_a 23.327968
_cell_length_b 8.358539
_cell_length_c 16.434136
_cell_angle_alpha 90.000000
_cell_angle_beta 90.000000
_cell_angle_gamma 90.000000
_cell_volume 3204.454878
_symmetry_space_group_name_H-M "I B A 2"
_symmetry_group_IT_number 45
_symmetry_cell_setting 'orthorhombic'
loop_
_space_group_symop_operation_xyz
x,y,z
-x,-y,z
-x,y,1/2+z
x,-y,1/2+z
1/2+x,1/2+y,1/2+z
1/2-x,1/2-y,1/2+z
1/2-x,1/2+y,z
1/2+x,1/2-y,z
loop_
_atom_site_type_symbol
_atom_site_label
_atom_site_fract_x
_atom_site_fract_y
_atom_site_fract_z
Si Si1 0.698359 0.692033 0.129520
Si Si2 0.409091 0.107750 0.690760
Si Si3 0.616147 0.201101 0.952367
Si Si4 0.894651 0.608404 0.537813
Si Si5 0.626902 0.193642 0.766983
Si Si6 0.001348 0.820823 0.011581
Si Si7 0.178371 0.823449 0.601672
Si Si8 0.491066 0.323873 0.202184
O O1 0.658938 0.788270 0.067000
O O2 0.684498 0.748812 0.221541
O O3 0.763857 0.722297 0.107930
O O4 0.687105 0.505285 0.124391
O O5 0.366661 0.249286 0.664809
O O6 0.465029 0.187190 0.733839
O O7 0.423148 0.993531 0.612454
O O8 0.379675 0.998277 0.759928
O O9 0.631459 0.245288 0.860177
O O10 0.548801 0.224434 0.967680
O O11 0.654171 0.314857 0.009876
O O12 0.629669 0.015339 0.971131
O O13 0.939803 0.726522 0.494584
O O14 0.573688 0.275350 0.719991
O O15 0.992452 0.831755 0.107640
O O16 0.000000 0.000000 0.974531
O O17 0.500000 0.500000 0.241340
#
# Coordination Sequence:
#
# PCOD8190514 Si02
#       8
#     8   8   8   8   8   8   8   8
#     4  11  22  42  68  91 114 163 210 244 297 373
#     4  10  20  35  59  87 121 163 205 237 295 367
#     4  11  24  39  61  94 127 155 200 261 307 346
#     4  10  20  35  59  87 121 163 205 237 295 367
#     4  11  24  39  61  94 127 155 200 261 307 346
#     4  11  20  34  59  90 125 166 205 242 295 370
#     4  11  22  42  68  91 114 163 210 244 297 373
#     4  11  20  34  59  90 125 166 205 242 295 370
#
# _framework density 19.972197000000001
#
# number of rings (size 3 to 8) (size 9 to 14) (size 15 to 20)
#    0.000    1.250    5.000    4.500    0.000    2.500 
#    0.000    8.750    0.000    0.000    0.000    0.000 
#    0.000    0.000    0.000    0.000    0.000    0.000 
#
# Total GULP energy -396793.537376 kJ/mol
# GULP energy per Si atom -12399.798043 kJ/mol
# Density = 1.992674 g / cm^3
# Si number density = 19.972197 Si / 1000 Ang^3
#
#
#
# Elastic Constant Matrix: (Units=GPa)
#
#
# Indices 1 2 3 4 5 6 
#
# 1 70.1064 -1.3816 8.3915 0.0000 0.0000 0.0000
# 2 -1.3816 105.2237 -1.5599 0.0000 0.0000 0.0000
# 3 8.3915 -1.5599 73.4453 0.0000 0.0000 0.0000
# 4 0.0000 0.0000 0.0000 12.6796 0.0000 0.0000
# 5 0.0000 0.0000 0.0000 0.0000 15.4381 0.0000
# 6 0.0000 0.0000 0.0000 0.0000 0.0000 36.8150
#
#
#
# Elastic Compliance Matrix: (Units=1/GPa)
#
#
# Indices 1 2 3 4 5 6 
#
# 1 0.014465 0.000165 -0.001649 0.000000 0.000000 0.000000
# 2 0.000165 0.009508 0.000183 0.000000 0.000000 0.000000
# 3 -0.001649 0.000183 0.013808 0.000000 0.000000 0.000000
# 4 0.000000 0.000000 0.000000 0.078867 0.000000 0.000000
# 5 0.000000 0.000000 0.000000 0.000000 0.064775 0.000000
# 6 0.000000 0.000000 0.000000 0.000000 0.000000 0.027163
#
#
# Mechanical properties :
#
#
# Convention : Reuss Voigt Hill
#
# Bulk Modulus (GPa) = 28.42544 28.85283 28.63913
# Shear Modulus (GPa) = 22.43027 29.20825 25.81926
#
# Velocity S-wave (km/s) = 3.35487 3.82834 3.59940
# Velocity P-wave (km/s) = 5.41020 5.83262 5.62538
#
# Compressibility (1/GPa) = 0.03517976
#
# Stress axis : x y z
#
# Youngs Moduli (GPa) = 69.13383 105.16967 72.42239
#
# Poissons Ratio (x) = -0.01740 0.11944
# Poissons Ratio (y) = -0.01144 -0.01326
# Poissons Ratio (z) = 0.11401 -0.01925
#
# Static dielectric constant tensor:
#      x y z
#    x 3.638800 0.000000 0.000000 
#    y 0.000000 4.070620 0.000000 
#    z 0.000000 0.000000 3.348340 
# 
# 
# High freq. dielectric constant tensor:
#      x y z
#    x 1.773250 0.000000 0.000000 
#    y 0.000000 1.802210 0.000000 
#    z 0.000000 0.000000 1.738190 
# 
# From -- ./inp_files/8459.got.cif
#   From: 2010.03.12/outbox.cif.g09.slc.cpg/sg45_5_cif.got.tgz:8459.got - 2010.04.14 02:50:11.
