data_PCOD8190655
_publ_section_title
;
Structure prediction by ZEFSAII (Michael W. Deem and Ramdas Pophale) SiO2 
 PCOD8190655
Probable space group: I B A 2
;
_chemical_formula_sum "Si O2"
_cell_formula_units_Z 52
_cell_length_a 22.825807
_cell_length_b 5.135054
_cell_length_c 20.912288
_cell_angle_alpha 90.000000
_cell_angle_beta 90.000000
_cell_angle_gamma 90.000000
_cell_volume 2451.165905
_symmetry_space_group_name_H-M "I B A 2"
_symmetry_group_IT_number 45
_symmetry_cell_setting 'orthorhombic'
loop_
_space_group_symop_operation_xyz
x,y,z
-x,-y,z
-x,y,1/2+z
x,-y,1/2+z
1/2+x,1/2+y,1/2+z
1/2-x,1/2-y,1/2+z
1/2-x,1/2+y,z
1/2+x,1/2-y,z
loop_
_atom_site_type_symbol
_atom_site_label
_atom_site_fract_x
_atom_site_fract_y
_atom_site_fract_z
Si Si1 0.565335 0.895764 0.193970
Si Si2 0.721158 0.485908 0.088541
Si Si3 0.000000 0.000000 0.515548
Si Si4 0.565335 0.895765 0.337125
Si Si5 0.778842 0.014092 0.942554
Si Si6 0.589785 0.618579 0.617617
Si Si7 0.910215 0.881421 0.413478
O O1 0.591324 0.873375 0.265548
O O2 0.565438 0.610413 0.162895
O O3 0.500000 0.000000 0.196075
O O4 0.601756 0.110365 0.154246
O O5 0.746740 0.743121 0.123141
O O6 0.651366 0.476002 0.090471
O O7 0.742539 0.500000 0.015548
O O8 0.042973 0.173204 0.470668
O O9 0.957027 0.173205 0.560428
O O10 0.565438 0.610414 0.368200
O O11 0.500000 0.000000 0.335020
O O12 0.601756 0.110366 0.376849
O O13 0.746740 0.256879 0.907954
O O14 0.848634 0.023998 0.940624
#
# Coordination Sequence:
#
# PCOD8190655 Si02
#       7
#     8   8   4   8   8   8   8
#     4  11  23  40  61  88 122 167 204 237 296 365
#     4  10  21  38  59  86 119 163 201 236 295 364
#     4  12  24  38  58 106 124 158 180 250 332 354
#     4  11  23  40  61  88 122 167 204 237 296 365
#     4  10  21  38  59  86 119 163 201 236 295 364
#     4  12  23  40  63  91 131 151 196 259 296 366
#     4  12  23  40  63  91 131 151 196 259 296 366
#
# _framework density 21.214396000000001
#
# number of rings (size 3 to 8) (size 9 to 14) (size 15 to 20)
#    0.000    0.923    4.615    2.769    0.000    4.923 
#    0.000    0.000    0.000   18.462    0.000    0.000 
#    0.000    0.000    0.000    0.000    0.000    0.000 
#
# Total GULP energy -322321.715368 kJ/mol
# GULP energy per Si atom -12396.989053 kJ/mol
# Density = 2.116611 g / cm^3
# Si number density = 21.214396 Si / 1000 Ang^3
#
#
#
# Elastic Constant Matrix: (Units=GPa)
#
#
# Indices 1 2 3 4 5 6 
#
# 1 115.1978 27.6898 20.4892 0.0000 0.0000 0.0000
# 2 27.6898 140.2940 46.3921 0.0000 0.0000 0.0000
# 3 20.4892 46.3921 97.4635 0.0000 0.0000 0.0000
# 4 0.0000 0.0000 0.0000 16.5197 0.0000 0.0000
# 5 0.0000 0.0000 0.0000 0.0000 14.0239 0.0000
# 6 0.0000 0.0000 0.0000 0.0000 0.0000 36.4278
#
#
#
# Elastic Compliance Matrix: (Units=1/GPa)
#
#
# Indices 1 2 3 4 5 6 
#
# 1 0.009245 -0.001403 -0.001276 0.000000 0.000000 0.000000
# 2 -0.001403 0.008672 -0.003833 0.000000 0.000000 0.000000
# 3 -0.001276 -0.003833 0.012353 0.000000 0.000000 0.000000
# 4 0.000000 0.000000 0.000000 0.060534 0.000000 0.000000
# 5 0.000000 0.000000 0.000000 0.000000 0.071307 0.000000
# 6 0.000000 0.000000 0.000000 0.000000 0.000000 0.027452
#
#
# Mechanical properties :
#
#
# Convention : Reuss Voigt Hill
#
# Bulk Modulus (GPa) = 57.98164 60.23304 59.10734
# Shear Modulus (GPa) = 23.99990 30.61989 27.30990
#
# Velocity S-wave (km/s) = 3.36713 3.80327 3.59183
# Velocity P-wave (km/s) = 6.51977 6.90946 6.71744
#
# Compressibility (1/GPa) = 0.01724684
#
# Stress axis : x y z
#
# Youngs Moduli (GPa) = 108.16876 115.31016 80.95221
#
# Poissons Ratio (x) = 0.16175 0.10328
# Poissons Ratio (y) = 0.15174 0.31029
# Poissons Ratio (z) = 0.13800 0.44199
#
# Static dielectric constant tensor:
#      x y z
#    x 3.605000 0.000000 0.000000 
#    y 0.000000 4.248660 0.000000 
#    z 0.000000 0.000000 3.917670 
# 
# 
# High freq. dielectric constant tensor:
#      x y z
#    x 1.825790 0.000000 0.000000 
#    y 0.000000 1.844070 0.000000 
#    z 0.000000 0.000000 1.805800 
# 
# From -- ./inp_files/8678.got.cif
#   From: 2010.03.12/outbox.cif.g09.slc.cpg/sg45_5_cif.got.tgz:8678.got - 2010.04.14 02:50:11.
