data_PCOD8190352
_publ_section_title
;
Structure prediction by ZEFSAII (Michael W. Deem and Ramdas Pophale) SiO2 
 PCOD8190352
Probable space group: I M M 2
;
_chemical_formula_sum "Si O2"
_cell_formula_units_Z 48
_cell_length_a 13.543624
_cell_length_b 10.456028
_cell_length_c 18.073265
_cell_angle_alpha 90.000000
_cell_angle_beta 90.000000
_cell_angle_gamma 90.000000
_cell_volume 2559.400452
_symmetry_space_group_name_H-M "I M M 2"
_symmetry_group_IT_number 44
_symmetry_cell_setting 'orthorhombic'
loop_
_space_group_symop_operation_xyz
x,y,z
-x,-y,z
-x,y,z
x,-y,z
1/2+x,1/2+y,1/2+z
1/2-x,1/2-y,1/2+z
1/2-x,1/2+y,1/2+z
1/2+x,1/2-y,1/2+z
loop_
_atom_site_type_symbol
_atom_site_label
_atom_site_fract_x
_atom_site_fract_y
_atom_site_fract_z
Si Si1 0.753000 0.146236 0.569570
Si Si2 0.390052 0.856115 0.328971
Si Si3 0.194369 0.144981 0.410723
Si Si4 0.889821 0.722942 0.273897
Si Si5 0.814101 0.862421 0.728892
Si Si6 0.112312 0.858497 0.125486
O O1 0.817466 0.182563 0.496932
O O2 0.823682 0.155266 0.640699
O O3 0.665695 0.248619 0.578425
O O4 0.711189 0.000000 0.561144
O O5 0.500000 0.835598 0.361571
O O6 0.310549 0.833055 0.393101
O O7 0.372222 0.755266 0.263642
O O8 0.379052 0.000000 0.296335
O O9 0.124943 0.228465 0.357824
O O10 0.162088 0.000000 0.397058
O O11 0.801541 0.626771 0.253161
O O12 0.880288 0.837315 0.214166
O O13 0.000000 0.660253 0.268889
O O14 0.861001 0.000000 0.751594
O O15 0.000000 0.853594 0.099011
O O16 0.156965 0.000000 0.109312
#
# Coordination Sequence:
#
# PCOD8190352 Si02
#       6
#     8   8   8   8   8   8
#     4   9  18  31  46  67  97 128 156 190 237 289
#     4   9  18  33  53  74  94 122 163 205 240 277
#     4   9  17  30  48  71  98 125 156 197 241 283
#     4   9  17  30  50  73  96 124 159 199 241 282
#     4   9  18  32  50  73  99 127 159 195 237 285
#     4   9  17  29  47  71  94 118 155 200 241 283
#
# _framework density 18.754391999999999
#
# number of rings (size 3 to 8) (size 9 to 14) (size 15 to 20)
#    0.000    3.000    0.000    0.500    0.000    6.667 
#    0.000    9.167    0.000    3.000    0.000    0.000 
#    0.000    0.000    0.000    0.000    0.000    0.000 
#
# Total GULP energy -297336.433834 kJ/mol
# GULP energy per Si atom -12389.018076 kJ/mol
# Density = 1.871171 g / cm^3
# Si number density = 18.754392 Si / 1000 Ang^3
#
#
#
# Elastic Constant Matrix: (Units=GPa)
#
#
# Indices 1 2 3 4 5 6 
#
# 1 45.4975 0.5601 -2.1879 0.0000 0.0000 0.0000
# 2 0.5601 84.4121 19.1881 0.0000 0.0000 0.0000
# 3 -2.1879 19.1881 98.8061 0.0000 0.0000 0.0000
# 4 0.0000 0.0000 0.0000 21.1645 0.0000 0.0000
# 5 0.0000 0.0000 0.0000 0.0000 17.7894 0.0000
# 6 0.0000 0.0000 0.0000 0.0000 0.0000 19.2847
#
#
#
# Elastic Compliance Matrix: (Units=1/GPa)
#
#
# Indices 1 2 3 4 5 6 
#
# 1 0.022008 -0.000269 0.000540 0.000000 0.000000 0.000000
# 2 -0.000269 0.012397 -0.002413 0.000000 0.000000 0.000000
# 3 0.000540 -0.002413 0.010601 0.000000 0.000000 0.000000
# 4 0.000000 0.000000 0.000000 0.047249 0.000000 0.000000
# 5 0.000000 0.000000 0.000000 0.000000 0.056213 0.000000
# 6 0.000000 0.000000 0.000000 0.000000 0.000000 0.051855
#
#
# Mechanical properties :
#
#
# Convention : Reuss Voigt Hill
#
# Bulk Modulus (GPa) = 24.55688 29.31514 26.93601
# Shear Modulus (GPa) = 22.91657 25.72476 24.32066
#
# Velocity S-wave (km/s) = 3.49941 3.70762 3.60502
# Velocity P-wave (km/s) = 5.42680 5.83040 5.63222
#
# Compressibility (1/GPa) = 0.04072179
#
# Stress axis : x y z
#
# Youngs Moduli (GPa) = 45.43701 80.66444 94.32655
#
# Poissons Ratio (x) = 0.02167 -0.05089
# Poissons Ratio (y) = 0.01221 0.22765
# Poissons Ratio (z) = -0.02451 0.19468
#
# Static dielectric constant tensor:
#      x y z
#    x 3.265550 0.000000 0.000000 
#    y 0.000000 3.424430 0.000000 
#    z 0.000000 0.000000 3.373950 
# 
# 
# High freq. dielectric constant tensor:
#      x y z
#    x 1.703150 0.000000 0.000000 
#    y 0.000000 1.722820 0.000000 
#    z 0.000000 0.000000 1.716140 
# 
# From -- ./inp_files/18370.got.cif
#   From: 2010.03.12/outbox.cif.g09.slc.cpg/sg44_10_cif.got.tgz:18370.got - 2010.04.14 02:36:11.
