data_PCOD8190840
_publ_section_title
;
Structure prediction by ZEFSAII (Michael W. Deem and Ramdas Pophale) SiO2 
 PCOD8190840
Probable space group: I B A 2
;
_chemical_formula_sum "Si O2"
_cell_formula_units_Z 64
_cell_length_a 12.222035
_cell_length_b 26.202155
_cell_length_c 9.580342
_cell_angle_alpha 90.000000
_cell_angle_beta 90.000000
_cell_angle_gamma 90.000000
_cell_volume 3068.043743
_symmetry_space_group_name_H-M "I B A 2"
_symmetry_group_IT_number 45
_symmetry_cell_setting 'orthorhombic'
loop_
_space_group_symop_operation_xyz
x,y,z
-x,-y,z
-x,y,1/2+z
x,-y,1/2+z
1/2+x,1/2+y,1/2+z
1/2-x,1/2-y,1/2+z
1/2-x,1/2+y,z
1/2+x,1/2-y,z
loop_
_atom_site_type_symbol
_atom_site_label
_atom_site_fract_x
_atom_site_fract_y
_atom_site_fract_z
Si Si1 0.773763 0.286809 0.366550
Si Si2 0.693159 0.951796 0.417394
Si Si3 0.984838 0.672323 0.754728
Si Si4 0.125662 0.127047 0.447721
Si Si5 0.267291 0.950321 0.592620
Si Si6 0.871342 0.758466 0.140060
Si Si7 0.428187 0.376515 0.644645
Si Si8 0.979201 0.604798 0.500032
O O1 0.853922 0.325577 0.282644
O O2 0.668312 0.314730 0.434512
O O3 0.843350 0.259092 0.484544
O O4 0.727587 0.247852 0.249380
O O5 0.763964 0.904140 0.466981
O O6 0.704588 0.963067 0.253051
O O7 0.567063 0.937546 0.449867
O O8 0.743829 0.997631 0.507063
O O9 0.039708 0.652812 0.897089
O O10 0.025342 0.727636 0.701940
O O11 0.016585 0.628496 0.646102
O O12 0.059957 0.110928 0.308393
O O13 0.047144 0.117264 0.577740
O O14 0.158000 0.916121 0.577556
O O15 0.363649 0.921409 0.515071
O O16 0.890639 0.818444 0.125817
#
# Coordination Sequence:
#
# PCOD8190840 Si02
#       8
#     8   8   8   8   8   8   8   8
#     4  11  25  43  63  98 138 177 228 285 335 421
#     4  11  24  45  69  99 135 179 224 285 346 414
#     4  12  24  42  66  99 137 181 223 281 351 408
#     4  10  22  46  65  93 133 168 225 281 336 399
#     4  11  26  45  68  99 138 176 229 283 349 413
#     4  11  26  39  67  96 134 184 228 275 348 410
#     4  10  25  44  65  95 132 178 220 289 329 404
#     4  12  23  44  68  98 142 176 226 285 349 415
#
# _framework density 20.860198
#
# number of rings (size 3 to 8) (size 9 to 14) (size 15 to 20)
#    0.000    1.000    3.750    1.875   10.500    2.500 
#    0.000    2.500    0.000    0.000    0.000    0.000 
#    0.000    0.000    0.000    0.000    0.000    0.000 
#
# Total GULP energy -396750.295553 kJ/mol
# GULP energy per Si atom -12398.446736 kJ/mol
# Density = 2.081272 g / cm^3
# Si number density = 20.860198 Si / 1000 Ang^3
#
#
#
# Elastic Constant Matrix: (Units=GPa)
#
#
# Indices 1 2 3 4 5 6 
#
# 1 58.2447 6.0867 31.0214 -0.0017 0.0000 0.0001
# 2 6.0867 67.5836 10.7093 -0.0002 0.0003 0.0004
# 3 31.0214 10.7093 64.2230 -0.0002 0.0010 0.0009
# 4 -0.0017 -0.0002 -0.0002 35.9841 0.0001 0.0002
# 5 0.0000 0.0003 0.0010 0.0001 40.3837 0.0002
# 6 0.0001 0.0004 0.0009 0.0002 0.0002 31.0298
#
#
#
# Elastic Compliance Matrix: (Units=1/GPa)
#
#
# Indices 1 2 3 4 5 6 
#
# 1 0.023123 -0.000321 -0.011115 0.000001 0.000000 0.000000
# 2 -0.000321 0.015203 -0.002380 0.000000 0.000000 0.000000
# 3 -0.011115 -0.002380 0.021337 0.000000 -0.000001 -0.000001
# 4 0.000001 0.000000 0.000000 0.027790 0.000000 0.000000
# 5 0.000000 0.000000 -0.000001 0.000000 0.024762 0.000000
# 6 0.000000 0.000000 -0.000001 0.000000 0.000000 0.032227
#
#
# Mechanical properties :
#
#
# Convention : Reuss Voigt Hill
#
# Bulk Modulus (GPa) = 31.22170 31.74289 31.48229
# Shear Modulus (GPa) = 27.35975 30.96179 29.16077
#
# Velocity S-wave (km/s) = 3.62550 3.85678 3.74293
# Velocity P-wave (km/s) = 5.70309 5.92309 5.81413
#
# Compressibility (1/GPa) = 0.03202901
#
# Stress axis : x y z
#
# Youngs Moduli (GPa) = 43.24783 65.77852 46.86785
#
# Poissons Ratio (x) = 0.02112 0.52095
# Poissons Ratio (y) = 0.01389 0.11154
# Poissons Ratio (z) = 0.48071 0.15655
#
# Static dielectric constant tensor:
#      x y z
#    x 3.733350 0.000000 0.000000 
#    y 0.000000 3.925020 0.000000 
#    z 0.000000 0.000000 4.049380 
# 
# 
# High freq. dielectric constant tensor:
#      x y z
#    x 1.813190 0.000000 0.000000 
#    y 0.000000 1.812720 0.000000 
#    z 0.000000 0.000000 1.830050 
# 
# From -- ./inp_files/1495.got.cif
#   From: 2010.03.12/outbox.cif.g09.slc.cpg/sg45_1_cif.got.tgz:1495.got - 2010.04.14 02:50:11.
