data_PCOD8190477
_publ_section_title
;
Structure prediction by ZEFSAII (Michael W. Deem and Ramdas Pophale) SiO2 
 PCOD8190477
Probable space group: I B A 2
;
_chemical_formula_sum "Si O2"
_cell_formula_units_Z 60
_cell_length_a 8.261330
_cell_length_b 14.823432
_cell_length_c 24.800512
_cell_angle_alpha 90.000000
_cell_angle_beta 90.000000
_cell_angle_gamma 90.000000
_cell_volume 3037.102035
_symmetry_space_group_name_H-M "I B A 2"
_symmetry_group_IT_number 45
_symmetry_cell_setting 'orthorhombic'
loop_
_space_group_symop_operation_xyz
x,y,z
-x,-y,z
-x,y,1/2+z
x,-y,1/2+z
1/2+x,1/2+y,1/2+z
1/2-x,1/2-y,1/2+z
1/2-x,1/2+y,z
1/2+x,1/2-y,z
loop_
_atom_site_type_symbol
_atom_site_label
_atom_site_fract_x
_atom_site_fract_y
_atom_site_fract_z
Si Si1 0.388290 0.168002 0.713190
Si Si2 0.709152 0.155698 0.536057
Si Si3 0.500000 0.000000 0.491413
Si Si4 0.914723 0.409393 0.304957
Si Si5 0.222187 0.335045 0.659068
Si Si6 0.318556 0.506499 0.219268
Si Si7 0.690231 0.860118 0.420052
Si Si8 0.503046 0.296333 0.471717
O O1 0.460069 0.159485 0.774510
O O2 0.299482 0.261834 0.700317
O O3 0.531568 0.154522 0.670437
O O4 0.255498 0.090149 0.705164
O O5 0.605634 0.063996 0.530501
O O6 0.745045 0.187650 0.596704
O O7 0.613522 0.239772 0.512036
O O8 0.880200 0.140999 0.505631
O O9 0.384728 0.056719 0.452406
O O10 0.779053 0.437291 0.263033
O O11 0.830202 0.364940 0.355968
O O12 0.000000 0.500000 0.325708
O O13 0.312703 0.430891 0.666174
O O14 0.500000 0.500000 0.240826
O O15 0.602329 0.767401 0.433862
O O16 0.880943 0.857350 0.434280
#
# Coordination Sequence:
#
# PCOD8190477 Si02
#       8
#     8   8   4   8   8   8   8   8
#     4  10  22  37  61  90 121 158 205 255 300 382
#     4  10  21  39  58  88 119 164 200 257 307 368
#     4  10  22  36  60  84 120 160 216 250 306 372
#     4   9  19  38  62  85 120 160 198 254 316 365
#     4  11  21  38  63  86 122 162 203 248 318 359
#     4  10  22  40  55  90 124 152 207 255 298 381
#     4  10  19  39  60  84 119 163 200 260 313 362
#     4   9  21  38  57  86 125 150 210 256 298 377
#
# _framework density 19.755675
#
# number of rings (size 3 to 8) (size 9 to 14) (size 15 to 20)
#    0.000    2.133    0.667    2.800    1.867    2.667 
#    4.800    1.333    0.000    0.000    0.000    0.000 
#    0.000    0.000    0.000    0.000    0.000    0.000 
#
# Total GULP energy -371927.272565 kJ/mol
# GULP energy per Si atom -12397.575752 kJ/mol
# Density = 1.971071 g / cm^3
# Si number density = 19.755675 Si / 1000 Ang^3
#
#
#
# Elastic Constant Matrix: (Units=GPa)
#
#
# Indices 1 2 3 4 5 6 
#
# 1 130.8260 42.5159 35.3978 0.0000 0.0000 0.0000
# 2 42.5159 83.7212 28.3315 0.0000 0.0000 0.0000
# 3 35.3978 28.3315 106.1795 0.0000 0.0000 0.0000
# 4 0.0000 0.0000 0.0000 14.7943 0.0000 0.0000
# 5 0.0000 0.0000 0.0000 0.0000 19.2786 0.0000
# 6 0.0000 0.0000 0.0000 0.0000 0.0000 29.2713
#
#
#
# Elastic Compliance Matrix: (Units=1/GPa)
#
#
# Indices 1 2 3 4 5 6 
#
# 1 0.009554 -0.004149 -0.002078 0.000000 0.000000 0.000000
# 2 -0.004149 0.014931 -0.002601 0.000000 0.000000 0.000000
# 3 -0.002078 -0.002601 0.010805 0.000000 0.000000 0.000000
# 4 0.000000 0.000000 0.000000 0.067594 0.000000 0.000000
# 5 0.000000 0.000000 0.000000 0.000000 0.051871 0.000000
# 6 0.000000 0.000000 0.000000 0.000000 0.000000 0.034163
#
#
# Mechanical properties :
#
#
# Convention : Reuss Voigt Hill
#
# Bulk Modulus (GPa) = 56.70617 59.24635 57.97626
# Shear Modulus (GPa) = 23.53468 26.96760 25.25114
#
# Velocity S-wave (km/s) = 3.45525 3.69867 3.57903
# Velocity P-wave (km/s) = 6.68464 6.94945 6.81833
#
# Compressibility (1/GPa) = 0.01763476
#
# Stress axis : x y z
#
# Youngs Moduli (GPa) = 104.66514 66.97294 92.55090
#
# Poissons Ratio (x) = 0.27785 0.19234
# Poissons Ratio (y) = 0.43422 0.24073
# Poissons Ratio (z) = 0.21752 0.17420
#
# Static dielectric constant tensor:
#      x y z
#    x 3.822660 0.000000 0.000000 
#    y 0.000000 3.672370 0.000000 
#    z 0.000000 0.000000 3.452360 
# 
# 
# High freq. dielectric constant tensor:
#      x y z
#    x 1.780700 0.000000 0.000000 
#    y 0.000000 1.765980 0.000000 
#    z 0.000000 0.000000 1.762890 
# 
# From -- ./inp_files/9582.got.cif
#   From: 2010.03.12/outbox.cif.g09.slc.cpg/sg45_5_cif.got.tgz:9582.got - 2010.04.14 02:50:11.
