data_PCOD8190462
_publ_section_title
;
Structure prediction by ZEFSAII (Michael W. Deem and Ramdas Pophale) SiO2 
 PCOD8190462
Probable space group: I B A 2
;
_chemical_formula_sum "Si O2"
_cell_formula_units_Z 64
_cell_length_a 24.659704
_cell_length_b 24.641553
_cell_length_c 5.300716
_cell_angle_alpha 90.000000
_cell_angle_beta 90.000000
_cell_angle_gamma 90.000000
_cell_volume 3220.998116
_symmetry_space_group_name_H-M "I B A 2"
_symmetry_group_IT_number 45
_symmetry_cell_setting 'orthorhombic'
loop_
_space_group_symop_operation_xyz
x,y,z
-x,-y,z
-x,y,1/2+z
x,-y,1/2+z
1/2+x,1/2+y,1/2+z
1/2-x,1/2-y,1/2+z
1/2-x,1/2+y,z
1/2+x,1/2-y,z
loop_
_atom_site_type_symbol
_atom_site_label
_atom_site_fract_x
_atom_site_fract_y
_atom_site_fract_z
Si Si1 0.667499 0.024895 0.916620
Si Si2 0.711495 0.479171 0.918060
Si Si3 0.190982 0.144436 0.925806
Si Si4 0.020784 0.342236 0.920872
Si Si5 0.301898 0.200088 0.904724
Si Si6 0.147708 0.651428 0.404914
Si Si7 0.647474 0.688019 0.926453
Si Si8 0.974999 0.221417 0.918832
O O1 0.660682 0.088660 0.937060
O O2 0.639280 0.002556 0.661363
O O3 0.730562 0.009113 0.908359
O O4 0.679770 0.498942 0.666060
O O5 0.718147 0.414701 0.923610
O O6 0.238377 0.188563 0.926929
O O7 0.153916 0.151649 0.677463
O O8 0.155000 0.151207 0.177568
O O9 0.084717 0.334938 0.928486
O O10 0.000944 0.374102 0.669221
O O11 0.990006 0.284630 0.915242
O O12 0.322545 0.182612 0.629429
O O13 0.307973 0.264519 0.931907
O O14 0.333262 0.169906 0.129716
O O15 0.589226 0.715950 0.922644
O O16 0.999393 0.193141 0.667530
#
# Coordination Sequence:
#
# PCOD8190462 Si02
#       8
#     8   8   8   8   8   8   8   8
#     4  10  20  35  56  84 111 146 200 252 294 341
#     4  10  19  36  57  80 111 153 198 243 287 337
#     4  12  24  38  56  86 127 163 199 242 295 360
#     4  10  20  35  56  84 111 146 200 252 294 341
#     4  12  22  37  56  84 126 166 194 232 292 366
#     4  12  22  37  64  91 116 157 212 249 296 363
#     4  12  24  38  56  86 127 163 199 242 295 360
#     4  10  19  36  57  80 111 153 198 243 287 337
#
# _framework density 19.869619
#
# number of rings (size 3 to 8) (size 9 to 14) (size 15 to 20)
#    0.000    1.000    0.000   11.250    0.000    0.000 
#    0.000    0.000    0.000    2.250    0.000    0.000 
#    0.000   35.000    0.000    0.000    0.000    0.000 
#
# Total GULP energy -396734.781648 kJ/mol
# GULP energy per Si atom -12397.961926 kJ/mol
# Density = 1.982439 g / cm^3
# Si number density = 19.869619 Si / 1000 Ang^3
#
#
#
# Elastic Constant Matrix: (Units=GPa)
#
#
# Indices 1 2 3 4 5 6 
#
# 1 56.9821 26.5040 23.2904 0.0000 0.0000 0.0000
# 2 26.5040 66.9959 26.3556 0.0000 0.0000 0.0000
# 3 23.2904 26.3556 191.6411 0.0000 0.0000 0.0000
# 4 0.0000 0.0000 0.0000 24.6365 0.0000 0.0000
# 5 0.0000 0.0000 0.0000 0.0000 26.0626 0.0000
# 6 0.0000 0.0000 0.0000 0.0000 0.0000 28.1450
#
#
#
# Elastic Compliance Matrix: (Units=1/GPa)
#
#
# Indices 1 2 3 4 5 6 
#
# 1 0.021937 -0.008066 -0.001557 0.000000 0.000000 0.000000
# 2 -0.008066 0.018746 -0.001598 0.000000 0.000000 0.000000
# 3 -0.001557 -0.001598 0.005627 0.000000 0.000000 0.000000
# 4 0.000000 0.000000 0.000000 0.040590 0.000000 0.000000
# 5 0.000000 0.000000 0.000000 0.000000 0.038369 0.000000
# 6 0.000000 0.000000 0.000000 0.000000 0.000000 0.035530
#
#
# Mechanical properties :
#
#
# Convention : Reuss Voigt Hill
#
# Bulk Modulus (GPa) = 41.89545 51.99100 46.94322
# Shear Modulus (GPa) = 26.15098 31.73346 28.94222
#
# Velocity S-wave (km/s) = 3.63178 4.00069 3.82069
# Velocity P-wave (km/s) = 6.22233 6.89663 6.56814
#
# Compressibility (1/GPa) = 0.02386894
#
# Stress axis : x y z
#
# Youngs Moduli (GPa) = 45.58415 53.34519 177.71409
#
# Poissons Ratio (x) = 0.43029 0.27666
# Poissons Ratio (y) = 0.36769 0.28394
# Poissons Ratio (z) = 0.07096 0.08523
#
# Static dielectric constant tensor:
#      x y z
#    x 3.308630 0.000000 0.000000 
#    y 0.000000 3.332110 0.000000 
#    z 0.000000 0.000000 6.386990 
# 
# 
# High freq. dielectric constant tensor:
#      x y z
#    x 1.740430 0.000000 0.000000 
#    y 0.000000 1.742180 0.000000 
#    z 0.000000 0.000000 1.824190 
# 
# From -- ./inp_files/557.got.cif
#   From: 2010.03.12/outbox.cif.g09.slc.cpg/sg45_1_cif.got.tgz:557.got - 2010.04.14 02:50:11.
