data_PCOD8190804
_publ_section_title
;
Structure prediction by ZEFSAII (Michael W. Deem and Ramdas Pophale) SiO2 
 PCOD8190804
Probable space group: I B A 2
;
_chemical_formula_sum "Si O2"
_cell_formula_units_Z 56
_cell_length_a 4.995187
_cell_length_b 32.707420
_cell_length_c 14.594105
_cell_angle_alpha 90.000000
_cell_angle_beta 90.000000
_cell_angle_gamma 90.000000
_cell_volume 2384.380193
_symmetry_space_group_name_H-M "I B A 2"
_symmetry_group_IT_number 45
_symmetry_cell_setting 'orthorhombic'
loop_
_space_group_symop_operation_xyz
x,y,z
-x,-y,z
-x,y,1/2+z
x,-y,1/2+z
1/2+x,1/2+y,1/2+z
1/2-x,1/2-y,1/2+z
1/2-x,1/2+y,z
1/2+x,1/2-y,z
loop_
_atom_site_type_symbol
_atom_site_label
_atom_site_fract_x
_atom_site_fract_y
_atom_site_fract_z
Si Si1 0.521332 0.634419 0.582970
Si Si2 0.874236 0.724277 0.270321
Si Si3 0.768215 0.344970 0.260796
Si Si4 0.262613 0.972901 0.203930
Si Si5 0.376943 0.673891 0.906990
Si Si6 0.475151 0.918349 0.045200
Si Si7 0.891964 0.591010 0.346973
O O1 0.533181 0.651520 0.685908
O O2 0.584137 0.672983 0.516030
O O3 0.225702 0.619625 0.557976
O O4 0.732337 0.596833 0.577120
O O5 0.076595 0.760901 0.244865
O O6 0.983995 0.682870 0.221337
O O7 0.836405 0.709069 0.377606
O O8 0.652116 0.320285 0.349088
O O9 0.866793 0.390469 0.286185
O O10 0.364571 0.955598 0.106081
O O11 0.500000 0.000000 0.245470
O O12 0.784933 0.061763 0.281225
O O13 0.000000 0.000000 0.187887
O O14 0.291066 0.627887 0.880903
O O15 0.490361 0.931683 0.937876
#
# Coordination Sequence:
#
# PCOD8190804 Si02
#       7
#     8   8   8   8   8   8   8
#     4  11  23  38  70 100 130 166 232 291 329 396
#     4  11  23  41  65  92 139 181 214 274 340 400
#     4  11  21  41  71 100 131 178 235 280 339 400
#     4  12  27  44  67  99 140 184 224 283 359 419
#     4  10  22  41  69 102 126 179 233 275 335 401
#     4  11  23  43  66  96 134 172 226 289 340 401
#     4  10  23  42  70  99 132 180 232 286 336 411
#
# _framework density 23.486187999999999
#
# number of rings (size 3 to 8) (size 9 to 14) (size 15 to 20)
#    0.000    1.143    4.286    1.714    4.000    0.571 
#    0.000    2.857    0.000    0.000    0.000    0.000 
#    0.000    0.000    0.000    0.000    0.000    0.000 
#
# Total GULP energy -346888.422473 kJ/mol
# GULP energy per Si atom -12388.872231 kJ/mol
# Density = 2.343273 g / cm^3
# Si number density = 23.486188 Si / 1000 Ang^3
#
#
#
# Elastic Constant Matrix: (Units=GPa)
#
#
# Indices 1 2 3 4 5 6 
#
# 1 75.3729 19.3499 -9.9066 0.0000 0.0000 0.0000
# 2 19.3499 56.1390 21.0590 0.0000 0.0000 0.0000
# 3 -9.9066 21.0590 84.9205 0.0000 0.0000 0.0000
# 4 0.0000 0.0000 0.0000 18.4384 0.0000 0.0000
# 5 0.0000 0.0000 0.0000 0.0000 25.2433 0.0000
# 6 0.0000 0.0000 0.0000 0.0000 0.0000 47.9795
#
#
#
# Elastic Compliance Matrix: (Units=1/GPa)
#
#
# Indices 1 2 3 4 5 6 
#
# 1 0.015414 -0.006601 0.003435 0.000000 0.000000 0.000000
# 2 -0.006601 0.022467 -0.006342 0.000000 0.000000 0.000000
# 3 0.003435 -0.006342 0.013749 0.000000 0.000000 0.000000
# 4 0.000000 0.000000 0.000000 0.054235 0.000000 0.000000
# 5 0.000000 0.000000 0.000000 0.000000 0.039615 0.000000
# 6 0.000000 0.000000 0.000000 0.000000 0.000000 0.020842
#
#
# Mechanical properties :
#
#
# Convention : Reuss Voigt Hill
#
# Bulk Modulus (GPa) = 30.66147 30.82631 30.74389
# Shear Modulus (GPa) = 25.48314 30.72756 28.10535
#
# Velocity S-wave (km/s) = 3.29755 3.62100 3.46305
# Velocity P-wave (km/s) = 5.25185 5.53498 5.39527
#
# Compressibility (1/GPa) = 0.03261422
#
# Stress axis : x y z
#
# Youngs Moduli (GPa) = 64.87790 44.50948 72.73222
#
# Poissons Ratio (x) = 0.29382 -0.24984
# Poissons Ratio (y) = 0.42828 0.46124
# Poissons Ratio (z) = -0.22286 0.28226
#
# Static dielectric constant tensor:
#      x y z
#    x 4.313750 0.000000 0.000000 
#    y 0.000000 4.173480 0.000000 
#    z 0.000000 0.000000 4.273510 
# 
# 
# High freq. dielectric constant tensor:
#      x y z
#    x 1.942960 0.000000 0.000000 
#    y 0.000000 1.909960 0.000000 
#    z 0.000000 0.000000 1.913420 
# 
# From -- ./inp_files/5263.got.cif
#   From: 2010.03.12/outbox.cif.g09.slc.cpg/sg45_3_cif.got.tgz:5263.got - 2010.04.14 02:50:11.
