data_PCOD8190016
_publ_section_title
;
Structure prediction by ZEFSAII (Michael W. Deem and Ramdas Pophale) SiO2 
 PCOD8190016
Probable space group: I M M 2
;
_chemical_formula_sum "Si O2"
_cell_formula_units_Z 48
_cell_length_a 17.098753
_cell_length_b 8.856618
_cell_length_c 16.729849
_cell_angle_alpha 90.000000
_cell_angle_beta 90.000000
_cell_angle_gamma 90.000000
_cell_volume 2533.520211
_symmetry_space_group_name_H-M "I M M 2"
_symmetry_group_IT_number 44
_symmetry_cell_setting 'orthorhombic'
loop_
_space_group_symop_operation_xyz
x,y,z
-x,-y,z
-x,y,z
x,-y,z
1/2+x,1/2+y,1/2+z
1/2-x,1/2-y,1/2+z
1/2-x,1/2+y,1/2+z
1/2+x,1/2-y,1/2+z
loop_
_atom_site_type_symbol
_atom_site_label
_atom_site_fract_x
_atom_site_fract_y
_atom_site_fract_z
Si Si1 0.693232 0.177193 0.090320
Si Si2 0.646970 0.822126 0.618672
Si Si3 0.500000 0.320974 0.532869
Si Si4 0.500000 0.820588 0.358774
Si Si5 0.686262 0.177510 0.797175
Si Si6 0.654971 0.176223 0.268805
Si Si7 0.912878 0.320461 0.445035
O O1 0.772929 0.269406 0.077265
O O2 0.653251 0.216419 0.174912
O O3 0.712197 0.000000 0.082947
O O4 0.633592 0.234032 0.023003
O O5 0.575891 0.735164 0.579222
O O6 0.649844 0.776394 0.711979
O O7 0.635577 0.000000 0.606320
O O8 0.500000 0.500000 0.529768
O O9 0.500000 0.257320 0.444000
O O10 0.424508 0.765195 0.309229
O O11 0.500000 0.000000 0.370201
O O12 0.771819 0.245567 0.811339
O O13 0.629290 0.241564 0.865550
O O14 0.695739 0.000000 0.803946
O O15 0.664709 0.000000 0.282404
O O16 0.916760 0.500000 0.442818
O O17 0.000000 0.251908 0.448274
#
# Coordination Sequence:
#
# PCOD8190016 Si02
#       7
#     8   8   4   4   8   8   8
#     4   9  18  34  57  85 114 147 187 228 271 324
#     4  10  21  38  59  81 111 149 186 227 281 338
#     4  12  26  40  58  83 110 142 188 241 286 336
#     4  10  22  38  56  83 114 150 188 229 282 338
#     4   9  19  35  57  82 110 146 186 225 272 328
#     4   9  19  35  56  80 112 148 184 226 274 326
#     4   9  18  31  54  85 112 141 182 228 269 318
#
# _framework density 18.945972000000001
#
# number of rings (size 3 to 8) (size 9 to 14) (size 15 to 20)
#    0.000    2.500    0.000    1.250    4.667    1.333 
#    0.000    0.000    0.000    1.500    0.000    0.000 
#    0.000    0.000    0.000    0.000    0.000    0.000 
#
# Total GULP energy -297640.410484 kJ/mol
# GULP energy per Si atom -12401.683770 kJ/mol
# Density = 1.890285 g / cm^3
# Si number density = 18.945972 Si / 1000 Ang^3
#
#
#
# Elastic Constant Matrix: (Units=GPa)
#
#
# Indices 1 2 3 4 5 6 
#
# 1 189.4787 40.5892 109.4176 0.0000 0.0000 0.0000
# 2 40.5892 34.4810 32.1988 0.0000 0.0000 0.0000
# 3 109.4176 32.1988 134.2632 0.0000 0.0000 0.0000
# 4 0.0000 0.0000 0.0000 21.1023 0.0000 0.0000
# 5 0.0000 0.0000 0.0000 0.0000 36.6554 0.0000
# 6 0.0000 0.0000 0.0000 0.0000 0.0000 1.5174
#
#
#
# Elastic Compliance Matrix: (Units=1/GPa)
#
#
# Indices 1 2 3 4 5 6 
#
# 1 0.010797 -0.005790 -0.007411 0.000000 0.000000 0.000000
# 2 -0.005790 0.040475 -0.004988 0.000000 0.000000 0.000000
# 3 -0.007411 -0.004988 0.014684 0.000000 0.000000 0.000000
# 4 0.000000 0.000000 0.000000 0.047388 0.000000 0.000000
# 5 0.000000 0.000000 0.000000 0.000000 0.027281 0.000000
# 6 0.000000 0.000000 0.000000 0.000000 0.000000 0.659007
#
#
# Mechanical properties :
#
#
# Convention : Reuss Voigt Hill
#
# Bulk Modulus (GPa) = 33.80846 80.29268 57.05057
# Shear Modulus (GPa) = 5.91108 23.58952 14.75030
#
# Velocity S-wave (km/s) = 1.76826 3.53242 2.79327
# Velocity P-wave (km/s) = 4.69600 7.68825 6.37030
#
# Compressibility (1/GPa) = 0.02957839
#
# Stress axis : x y z
#
# Youngs Moduli (GPa) = 92.61474 24.70663 68.10236
#
# Poissons Ratio (x) = 0.14305 0.50470
# Poissons Ratio (y) = 0.53622 0.33971
# Poissons Ratio (z) = 0.68635 0.12324
#
# Static dielectric constant tensor:
#      x y z
#    x 3.753420 0.000000 0.000000 
#    y 0.000000 3.242120 0.000000 
#    z 0.000000 0.000000 3.691980 
# 
# 
# High freq. dielectric constant tensor:
#      x y z
#    x 1.747230 0.000000 0.000000 
#    y 0.000000 1.712180 0.000000 
#    z 0.000000 0.000000 1.745970 
# 
# From -- ./inp_files/16181.got.cif
#   From: 2010.03.12/outbox.cif.g09.slc.cpg/sg44_9_cif.got.tgz:16181.got - 2010.04.14 02:36:11.
