data_PCOD8190107
_publ_section_title
;
Structure prediction by ZEFSAII (Michael W. Deem and Ramdas Pophale) SiO2 
 PCOD8190107
Probable space group: I M M 2
;
_chemical_formula_sum "Si O2"
_cell_formula_units_Z 48
_cell_length_a 7.539373
_cell_length_b 9.053762
_cell_length_c 34.590975
_cell_angle_alpha 90.000000
_cell_angle_beta 90.000000
_cell_angle_gamma 90.000000
_cell_volume 2361.169188
_symmetry_space_group_name_H-M "I M M 2"
_symmetry_group_IT_number 44
_symmetry_cell_setting 'orthorhombic'
loop_
_space_group_symop_operation_xyz
x,y,z
-x,-y,z
-x,y,z
x,-y,z
1/2+x,1/2+y,1/2+z
1/2-x,1/2-y,1/2+z
1/2-x,1/2+y,1/2+z
1/2+x,1/2-y,1/2+z
loop_
_atom_site_type_symbol
_atom_site_label
_atom_site_fract_x
_atom_site_fract_y
_atom_site_fract_z
Si Si1 0.292959 0.326518 0.349070
Si Si2 0.500000 0.172642 0.717889
Si Si3 0.205673 0.835852 0.999457
Si Si4 0.500000 0.324055 0.798759
Si Si5 0.710139 0.164476 0.426628
Si Si6 0.791266 0.664487 0.582673
Si Si7 0.201089 0.827973 0.657665
O O1 0.500000 0.293874 0.340885
O O2 0.252247 0.500000 0.347469
O O3 0.178207 0.242677 0.317150
O O4 0.233110 0.266380 0.390798
O O5 0.500000 0.279342 0.754225
O O6 0.675975 0.212716 0.693775
O O7 0.500000 0.000000 0.730037
O O8 0.236826 0.762197 0.041620
O O9 0.000000 0.850110 0.990401
O O10 0.293019 0.000000 0.998681
O O11 0.291438 0.735064 0.965855
O O12 0.500000 0.500000 0.803265
O O13 0.500000 0.154960 0.429463
O O14 0.789767 0.000000 0.421294
O O15 0.709569 0.500000 0.584422
O O16 0.716712 0.754710 0.619065
O O17 0.000000 0.661363 0.585951
O O18 0.000000 0.774095 0.666735
O O19 0.204887 0.000000 0.649275
#
# Coordination Sequence:
#
# PCOD8190107 Si02
#       7
#     8   4   8   4   8   8   8
#     4  10  21  40  66  90 117 159 202 242 294 357
#     4  10  22  40  60  84 114 148 190 236 286 354
#     4   9  17  29  46  70 102 143 188 233 279 336
#     4  12  26  42  62  94 128 154 192 248 302 360
#     4   9  17  31  52  79 111 147 189 238 290 343
#     4   9  18  32  49  72 104 141 183 230 281 337
#     4   9  19  36  57  80 108 144 184 230 284 341
#
# _framework density 20.328913
#
# number of rings (size 3 to 8) (size 9 to 14) (size 15 to 20)
#    0.000    2.500    0.000    1.750    1.167    5.000 
#    1.500    1.667    0.000    0.000    0.000    0.000 
#    0.000    0.000    0.000    0.000    0.000    0.000 
#
# Total GULP energy -297542.400405 kJ/mol
# GULP energy per Si atom -12397.600017 kJ/mol
# Density = 2.028264 g / cm^3
# Si number density = 20.328913 Si / 1000 Ang^3
#
#
#
# Elastic Constant Matrix: (Units=GPa)
#
#
# Indices 1 2 3 4 5 6 
#
# 1 69.3628 38.9842 48.8384 0.0000 0.0000 0.0000
# 2 38.9842 120.7181 82.7249 0.0000 0.0000 0.0000
# 3 48.8384 82.7249 174.5804 0.0000 0.0000 0.0000
# 4 0.0000 0.0000 0.0000 38.4886 0.0000 0.0000
# 5 0.0000 0.0000 0.0000 0.0000 51.5202 0.0000
# 6 0.0000 0.0000 0.0000 0.0000 0.0000 17.8662
#
#
#
# Elastic Compliance Matrix: (Units=1/GPa)
#
#
# Indices 1 2 3 4 5 6 
#
# 1 0.019004 -0.003693 -0.003566 0.000000 0.000000 0.000000
# 2 -0.003693 0.012985 -0.005120 0.000000 0.000000 0.000000
# 3 -0.003566 -0.005120 0.009152 0.000000 0.000000 0.000000
# 4 0.000000 0.000000 0.000000 0.025982 0.000000 0.000000
# 5 0.000000 0.000000 0.000000 0.000000 0.019410 0.000000
# 6 0.000000 0.000000 0.000000 0.000000 0.000000 0.055972
#
#
# Mechanical properties :
#
#
# Convention : Reuss Voigt Hill
#
# Bulk Modulus (GPa) = 61.04283 78.41737 69.73010
# Shear Modulus (GPa) = 28.94827 34.51592 31.73209
#
# Velocity S-wave (km/s) = 3.77768 4.12500 3.95515
# Velocity P-wave (km/s) = 7.00861 7.83234 7.43189
#
# Compressibility (1/GPa) = 0.01638194
#
# Stress axis : x y z
#
# Youngs Moduli (GPa) = 52.62172 77.01321 109.27011
#
# Poissons Ratio (x) = 0.28442 0.38968
# Poissons Ratio (y) = 0.19434 0.55943
# Poissons Ratio (z) = 0.18766 0.39429
#
# Static dielectric constant tensor:
#      x y z
#    x 3.684400 0.000000 0.000000 
#    y 0.000000 3.847810 0.000000 
#    z 0.000000 0.000000 3.747750 
# 
# 
# High freq. dielectric constant tensor:
#      x y z
#    x 1.786160 0.000000 0.000000 
#    y 0.000000 1.786270 0.000000 
#    z 0.000000 0.000000 1.796970 
# 
# From -- ./inp_files/26906.got.cif
#   From: 2010.03.12/outbox.cif.g09.slc.cpg/sg44_14_cif.got.tgz:26906.got - 2010.04.14 02:36:11.
