data_PCOD8190621
_publ_section_title
;
Structure prediction by ZEFSAII (Michael W. Deem and Ramdas Pophale) SiO2 
 PCOD8190621
Probable space group: I B A 2
;
_chemical_formula_sum "Si O2"
_cell_formula_units_Z 48
_cell_length_a 24.496984
_cell_length_b 16.049543
_cell_length_c 5.127408
_cell_angle_alpha 90.000000
_cell_angle_beta 90.000000
_cell_angle_gamma 90.000000
_cell_volume 2015.919407
_symmetry_space_group_name_H-M "I B A 2"
_symmetry_group_IT_number 45
_symmetry_cell_setting 'orthorhombic'
loop_
_space_group_symop_operation_xyz
x,y,z
-x,-y,z
-x,y,1/2+z
x,-y,1/2+z
1/2+x,1/2+y,1/2+z
1/2-x,1/2-y,1/2+z
1/2-x,1/2+y,z
1/2+x,1/2-y,z
loop_
_atom_site_type_symbol
_atom_site_label
_atom_site_fract_x
_atom_site_fract_y
_atom_site_fract_z
Si Si1 0.036319 0.109112 0.876380
Si Si2 0.033038 0.298788 0.905279
Si Si3 0.241761 0.802775 0.474414
Si Si4 0.342259 0.447593 0.413994
Si Si5 0.792018 0.540627 0.679126
Si Si6 0.083340 0.459834 0.749116
O O1 0.054362 0.205454 0.871813
O O2 0.004546 0.086152 0.611427
O O3 0.092267 0.059351 0.901431
O O4 0.080479 0.362589 0.824140
O O5 0.983007 0.314473 0.705321
O O6 0.265866 0.767192 0.201056
O O7 0.186570 0.856145 0.419267
O O8 0.287391 0.862906 0.601827
O O9 0.323606 0.504294 0.172933
O O10 0.763253 0.484713 0.451707
O O11 0.854283 0.513766 0.715173
O O12 0.054674 0.483658 0.474932
#
# Coordination Sequence:
#
# PCOD8190621 Si02
#       6
#     8   8   8   8   8   8
#     4  10  23  43  66  99 136 178 226 278 346 408
#     4  10  21  37  56  85 125 167 207 270 327 386
#     4  12  26  44  68 104 132 176 224 276 337 404
#     4  12  26  46  73 104 140 181 229 287 345 410
#     4  10  21  41  63  87 127 168 207 264 324 389
#     4  10  21  35  56  87 116 165 215 258 321 386
#
# _framework density 23.810475
#
# number of rings (size 3 to 8) (size 9 to 14) (size 15 to 20)
#    0.000    1.333    0.000    5.000    2.333    4.000 
#    6.000    0.000    0.000    0.000    0.000    0.000 
#    0.000    0.000    0.000    0.000    0.000    0.000 
#
# Total GULP energy -297515.870739 kJ/mol
# GULP energy per Si atom -12396.494614 kJ/mol
# Density = 2.375628 g / cm^3
# Si number density = 23.810475 Si / 1000 Ang^3
#
#
#
# Elastic Constant Matrix: (Units=GPa)
#
#
# Indices 1 2 3 4 5 6 
#
# 1 67.7971 26.3426 37.8591 0.0000 0.0000 0.0000
# 2 26.3426 103.7304 40.2853 0.0000 0.0000 0.0000
# 3 37.8591 40.2853 165.9587 0.0000 0.0000 0.0000
# 4 0.0000 0.0000 0.0000 -14.6124 0.0000 0.0000
# 5 0.0000 0.0000 0.0000 0.0000 26.0281 0.0000
# 6 0.0000 0.0000 0.0000 0.0000 0.0000 41.1392
#
#
#
# Elastic Compliance Matrix: (Units=1/GPa)
#
#
# Indices 1 2 3 4 5 6 
#
# 1 0.017848 -0.003258 -0.003281 0.000000 0.000000 0.000000
# 2 -0.003258 0.011239 -0.001985 0.000000 0.000000 0.000000
# 3 -0.003281 -0.001985 0.007256 0.000000 0.000000 0.000000
# 4 0.000000 0.000000 0.000000 -0.068435 0.000000 0.000000
# 5 0.000000 0.000000 0.000000 0.000000 0.038420 0.000000
# 6 0.000000 0.000000 0.000000 0.000000 0.000000 0.024308
#
#
# Mechanical properties :
#
#
# Convention : Reuss Voigt Hill
#
# Bulk Modulus (GPa) = 51.82760 60.71781 56.27270
# Shear Modulus (GPa) = 92.39687 26.04426 59.22056
#
# Velocity S-wave (km/s) = 6.23613 3.31088 4.99256
# Velocity P-wave (km/s) = 8.58292 6.33811 7.54447
#
# Compressibility (1/GPa) = 0.01929474
#
# Stress axis : x y z
#
# Youngs Moduli (GPa) = 56.02900 88.97835 137.82161
#
# Poissons Ratio (x) = 0.28993 0.45213
# Poissons Ratio (y) = 0.18257 0.27355
# Poissons Ratio (z) = 0.18381 0.17660
#
# Static dielectric constant tensor:
#      x y z
#    x 3.929840 0.000000 0.000000 
#    y 0.000000 4.379180 0.000000 
#    z 0.000000 0.000000 4.977530 
# 
# 
# High freq. dielectric constant tensor:
#      x y z
#    x 1.934250 0.000000 0.000000 
#    y 0.000000 1.946360 0.000000 
#    z 0.000000 0.000000 1.973820 
# 
# From -- ./inp_files/603.got.cif
#   From: 2010.03.12/outbox.cif.g09.slc.cpg/sg45_1_cif.got.tgz:603.got - 2010.04.14 02:50:11.
