data_PCOD8190214
_publ_section_title
;
Structure prediction by ZEFSAII (Michael W. Deem and Ramdas Pophale) SiO2 
 PCOD8190214
Probable space group: I M M 2
;
_chemical_formula_sum "Si O2"
_cell_formula_units_Z 40
_cell_length_a 25.654628
_cell_length_b 8.587908
_cell_length_c 8.900497
_cell_angle_alpha 90.000000
_cell_angle_beta 90.000000
_cell_angle_gamma 90.000000
_cell_volume 1960.953806
_symmetry_space_group_name_H-M "I M M 2"
_symmetry_group_IT_number 44
_symmetry_cell_setting 'orthorhombic'
loop_
_space_group_symop_operation_xyz
x,y,z
-x,-y,z
-x,y,z
x,-y,z
1/2+x,1/2+y,1/2+z
1/2-x,1/2-y,1/2+z
1/2-x,1/2+y,1/2+z
1/2+x,1/2-y,1/2+z
loop_
_atom_site_type_symbol
_atom_site_label
_atom_site_fract_x
_atom_site_fract_y
_atom_site_fract_z
Si Si1 0.295254 0.680923 0.728430
Si Si2 0.196423 0.820603 0.577631
Si Si3 0.500000 0.182314 0.727787
Si Si4 0.401133 0.318820 0.567038
Si Si5 0.100982 0.681857 0.742059
Si Si6 0.000000 0.315173 0.563049
O O1 0.283093 0.500000 0.696866
O O2 0.250703 0.786988 0.658242
O O3 0.349321 0.732858 0.653911
O O4 0.297896 0.718390 0.903430
O O5 0.152040 0.709809 0.643295
O O6 0.180980 0.000000 0.603790
O O7 0.449331 0.228549 0.636109
O O8 0.500000 0.000000 0.746200
O O9 0.500000 0.257532 0.894994
O O10 0.411940 0.500000 0.587072
O O11 0.394453 0.279103 0.393428
O O12 0.095964 0.500000 0.780646
O O13 0.051015 0.744044 0.650566
O O14 0.000000 0.500000 0.554681
#
# Coordination Sequence:
#
# PCOD8190214 Si02
#       6
#     8   8   4   8   8   4
#     4  10  23  41  60  85 118 156 198 244 295 352
#     4  11  23  39  60  87 118 153 195 243 296 352
#     4  11  22  39  62  88 118 155 198 241 294 354
#     4  11  23  40  61  88 121 156 197 245 296 348
#     4  11  22  39  62  88 119 155 197 243 293 351
#     4   9  21  39  60  86 116 153 196 241 288 346
#
# _framework density 20.398239
#
# number of rings (size 3 to 8) (size 9 to 14) (size 15 to 20)
#    0.000    1.400    0.000    5.100    0.000    7.200 
#    0.000    4.500    0.000    0.000    0.000    0.000 
#    0.000    0.000    0.000    0.000    0.000    0.000 
#
# Total GULP energy -248143.038002 kJ/mol
# GULP energy per Si atom -12407.151900 kJ/mol
# Density = 2.035181 g / cm^3
# Si number density = 20.398239 Si / 1000 Ang^3
#
#
#
# Elastic Constant Matrix: (Units=GPa)
#
#
# Indices 1 2 3 4 5 6 
#
# 1 149.3826 25.3852 62.7653 0.0000 0.0000 0.0000
# 2 25.3852 36.6048 18.9146 0.0000 0.0000 0.0000
# 3 62.7653 18.9146 140.4066 0.0000 0.0000 0.0000
# 4 0.0000 0.0000 0.0000 25.8407 0.0000 0.0000
# 5 0.0000 0.0000 0.0000 0.0000 39.4781 0.0000
# 6 0.0000 0.0000 0.0000 0.0000 0.0000 -4.2722
#
#
#
# Elastic Compliance Matrix: (Units=1/GPa)
#
#
# Indices 1 2 3 4 5 6 
#
# 1 0.008857 -0.004403 -0.003366 0.000000 0.000000 0.000000
# 2 -0.004403 0.031551 -0.002282 0.000000 0.000000 0.000000
# 3 -0.003366 -0.002282 0.008934 0.000000 0.000000 0.000000
# 4 0.000000 0.000000 0.000000 0.038699 0.000000 0.000000
# 5 0.000000 0.000000 0.000000 0.000000 0.025331 0.000000
# 6 0.000000 0.000000 0.000000 0.000000 0.000000 -0.234070
#
#
# Mechanical properties :
#
#
# Convention : Reuss Voigt Hill
#
# Bulk Modulus (GPa) = 34.19932 60.05825 47.12879
# Shear Modulus (GPa) = -55.03625 26.83123 -14.10251
#
# Velocity S-wave (km/s) = -5.19995 3.63074 -2.63222
# Velocity P-wave (km/s) = 4.38753 6.86171 3.73046
#
# Compressibility (1/GPa) = 0.02924035
#
# Stress axis : x y z
#
# Youngs Moduli (GPa) = 112.90892 31.69427 111.92779
#
# Poissons Ratio (x) = 0.13954 0.37676
# Poissons Ratio (y) = 0.49711 0.25545
# Poissons Ratio (z) = 0.38006 0.07233
#
# Static dielectric constant tensor:
#      x y z
#    x 3.805260 0.000000 0.000000 
#    y 0.000000 3.548040 0.000000 
#    z 0.000000 0.000000 3.883630 
# 
# 
# High freq. dielectric constant tensor:
#      x y z
#    x 1.813620 0.000000 0.000000 
#    y 0.000000 1.790890 0.000000 
#    z 0.000000 0.000000 1.817020 
# 
# From -- ./inp_files/9616.got.cif
#   From: 2010.03.12/outbox.cif.g09.slc.cpg/sg44_5_cif.got.tgz:9616.got - 2010.04.14 02:36:11.
