data_PCOD8190554
_publ_section_title
;
Structure prediction by ZEFSAII (Michael W. Deem and Ramdas Pophale) SiO2 
 PCOD8190554
Probable space group: I B A 2
;
_chemical_formula_sum "Si O2"
_cell_formula_units_Z 60
_cell_length_a 5.288179
_cell_length_b 22.789988
_cell_length_c 23.577778
_cell_angle_alpha 90.000000
_cell_angle_beta 90.000000
_cell_angle_gamma 90.000000
_cell_volume 2841.535708
_symmetry_space_group_name_H-M "I B A 2"
_symmetry_group_IT_number 45
_symmetry_cell_setting 'orthorhombic'
loop_
_space_group_symop_operation_xyz
x,y,z
-x,-y,z
-x,y,1/2+z
x,-y,1/2+z
1/2+x,1/2+y,1/2+z
1/2-x,1/2-y,1/2+z
1/2-x,1/2+y,z
1/2+x,1/2-y,z
loop_
_atom_site_type_symbol
_atom_site_label
_atom_site_fract_x
_atom_site_fract_y
_atom_site_fract_z
Si Si1 0.947748 0.931942 0.649140
Si Si2 0.204953 0.904266 0.934806
Si Si3 0.500000 0.000000 0.503897
Si Si4 0.266823 0.224201 0.055382
Si Si5 0.555848 0.932662 0.202682
Si Si6 0.858182 0.095321 0.537394
Si Si7 0.247569 0.464295 0.820714
Si Si8 0.793949 0.726547 0.929722
O O1 0.714847 0.903684 0.685119
O O2 0.217038 0.902508 0.667190
O O3 0.911783 0.916354 0.582080
O O4 0.000000 0.000000 0.662478
O O5 0.144037 0.923184 0.870633
O O6 0.350824 0.842628 0.933069
O O7 0.369240 0.953937 0.963181
O O8 0.951770 0.898019 0.972561
O O9 0.686300 0.037085 0.544050
O O10 0.511998 0.252485 0.086439
O O11 0.291036 0.153988 0.054585
O O12 0.265651 0.248323 0.991654
O O13 0.635900 0.926337 0.268540
O O14 0.500000 0.000000 0.186507
O O15 0.500000 0.500000 0.800346
O O16 0.000000 0.500000 0.842798
O O17 0.528421 0.741443 0.897653
#
# Coordination Sequence:
#
# PCOD8190554 Si02
#       8
#     8   8   4   8   8   8   8   8
#     4  10  21  36  55  84 114 159 201 241 300 358
#     4  12  24  37  58  89 133 165 201 256 315 383
#     4  12  24  36  50  90 136 170 186 236 332 400
#     4  10  20  39  58  79 113 159 219 251 286 357
#     4   9  19  37  58  75 111 158 208 248 277 355
#     4  12  25  36  59  88 133 166 198 260 313 385
#     4  11  22  39  59  87 121 163 209 248 307 371
#     4  10  20  38  58  79 114 158 219 252 285 357
#
# _framework density 21.115341000000001
#
# number of rings (size 3 to 8) (size 9 to 14) (size 15 to 20)
#    0.000    1.333    3.333    5.600    4.667    0.000 
#    0.000    0.000    0.000    0.000    0.000    5.600 
#    0.000    0.000    0.000    0.000    0.000    0.000 
#
# Total GULP energy -371653.667956 kJ/mol
# GULP energy per Si atom -12388.455599 kJ/mol
# Density = 2.106728 g / cm^3
# Si number density = 21.115341 Si / 1000 Ang^3
#
#
#
# Elastic Constant Matrix: (Units=GPa)
#
#
# Indices 1 2 3 4 5 6 
#
# 1 167.2386 38.2869 40.1767 0.0000 0.0000 0.0000
# 2 38.2869 117.2679 16.9168 0.0000 0.0000 0.0000
# 3 40.1767 16.9168 106.7592 0.0000 0.0000 0.0000
# 4 0.0000 0.0000 0.0000 5.3022 0.0000 0.0000
# 5 0.0000 0.0000 0.0000 0.0000 24.4880 0.0000
# 6 0.0000 0.0000 0.0000 0.0000 0.0000 44.7650
#
#
#
# Elastic Compliance Matrix: (Units=1/GPa)
#
#
# Indices 1 2 3 4 5 6 
#
# 1 0.006982 -0.001945 -0.002319 0.000000 0.000000 0.000000
# 2 -0.001945 0.009269 -0.000737 0.000000 0.000000 0.000000
# 3 -0.002319 -0.000737 0.010356 0.000000 0.000000 0.000000
# 4 0.000000 0.000000 0.000000 0.188601 0.000000 0.000000
# 5 0.000000 0.000000 0.000000 0.000000 0.040836 0.000000
# 6 0.000000 0.000000 0.000000 0.000000 0.000000 0.022339
#
#
# Mechanical properties :
#
#
# Convention : Reuss Voigt Hill
#
# Bulk Modulus (GPa) = 60.22253 64.66962 62.44607
# Shear Modulus (GPa) = 17.01139 34.63672 25.82406
#
# Velocity S-wave (km/s) = 2.84146 4.05453 3.50094
# Velocity P-wave (km/s) = 6.27279 7.25343 6.78086
#
# Compressibility (1/GPa) = 0.01660508
#
# Stress axis : x y z
#
# Youngs Moduli (GPa) = 143.22676 107.88910 96.55816
#
# Poissons Ratio (x) = 0.20984 0.22395
# Poissons Ratio (y) = 0.27857 0.07114
# Poissons Ratio (z) = 0.33219 0.07949
#
# Static dielectric constant tensor:
#      x y z
#    x 4.179280 0.000000 0.000000 
#    y 0.000000 3.654020 0.000000 
#    z 0.000000 0.000000 3.514220 
# 
# 
# High freq. dielectric constant tensor:
#      x y z
#    x 1.853490 0.000000 0.000000 
#    y 0.000000 1.789620 0.000000 
#    z 0.000000 0.000000 1.786040 
# 
# From -- ./inp_files/9450.got.cif
#   From: 2010.03.12/outbox.cif.g09.slc.cpg/sg45_5_cif.got.tgz:9450.got - 2010.04.14 02:50:11.
