data_PCOD8190011
_publ_section_title
;
Structure prediction by ZEFSAII (Michael W. Deem and Ramdas Pophale) SiO2 
 PCOD8190011
Probable space group: I M M 2
;
_chemical_formula_sum "Si O2"
_cell_formula_units_Z 64
_cell_length_a 14.205173
_cell_length_b 18.235778
_cell_length_c 11.572108
_cell_angle_alpha 90.000000
_cell_angle_beta 90.000000
_cell_angle_gamma 90.000000
_cell_volume 2997.666413
_symmetry_space_group_name_H-M "I M M 2"
_symmetry_group_IT_number 44
_symmetry_cell_setting 'orthorhombic'
loop_
_space_group_symop_operation_xyz
x,y,z
-x,-y,z
-x,y,z
x,-y,z
1/2+x,1/2+y,1/2+z
1/2-x,1/2-y,1/2+z
1/2-x,1/2+y,1/2+z
1/2+x,1/2-y,1/2+z
loop_
_atom_site_type_symbol
_atom_site_label
_atom_site_fract_x
_atom_site_fract_y
_atom_site_fract_z
Si Si1 0.388549 0.793131 0.388060
Si Si2 0.110702 0.211150 0.665265
Si Si3 0.387286 0.082946 0.800478
Si Si4 0.108318 0.918836 0.522634
Si Si5 0.606709 0.359931 0.769646
Si Si6 0.201915 0.580407 0.749670
Si Si7 0.388898 0.854422 0.040644
Si Si8 0.390921 0.210841 0.645470
O O1 0.500000 0.810438 0.382023
O O2 0.364391 0.726462 0.299647
O O3 0.330872 0.864594 0.349862
O O4 0.352325 0.772132 0.516510
O O5 0.152917 0.132570 0.624160
O O6 0.153430 0.276288 0.584697
O O7 0.000000 0.209957 0.645127
O O8 0.500000 0.081905 0.804098
O O9 0.348766 0.135131 0.697207
O O10 0.348674 0.000000 0.784337
O O11 0.347478 0.118927 0.918583
O O12 0.118314 0.871832 0.406010
O O13 0.000000 0.932760 0.550043
O O14 0.157223 0.000000 0.516263
O O15 0.500000 0.382170 0.729494
O O16 0.688356 0.408255 0.711048
O O17 0.628993 0.275959 0.735872
O O18 0.190196 0.500000 0.802794
O O19 0.138070 0.585606 0.636154
O O20 0.500000 0.848474 0.032214
O O21 0.500000 0.198456 0.630755
#
# Coordination Sequence:
#
# PCOD8190011 Si02
#       8
#     8   8   8   8   8   8   8   8
#     4   9  19  36  56  82 116 150 184 225 281 356
#     4   8  14  27  49  77 108 140 174 216 271 336
#     4   9  16  27  49  82 114 144 181 227 281 338
#     4   9  16  28  51  80 106 135 178 236 291 327
#     4  10  21  38  57  77 107 150 196 242 285 328
#     4  11  22  35  54  83 113 145 188 236 290 347
#     4   9  17  31  52  81 117 150 181 225 283 348
#     4   9  18  35  56  78 109 152 195 230 272 337
#
# _framework density 21.349941000000001
#
# number of rings (size 3 to 8) (size 9 to 14) (size 15 to 20)
#    0.000    2.750    0.000    2.625    0.000    5.750 
#    6.750    1.250    0.000    1.500    0.000    8.750 
#    0.000    0.000    0.000    0.000    0.000    0.000 
#
# Total GULP energy -396438.304759 kJ/mol
# GULP energy per Si atom -12388.697024 kJ/mol
# Density = 2.130135 g / cm^3
# Si number density = 21.349941 Si / 1000 Ang^3
#
#
#
# Elastic Constant Matrix: (Units=GPa)
#
#
# Indices 1 2 3 4 5 6 
#
# 1 27.3376 11.4762 6.7548 0.0000 0.0000 0.0000
# 2 11.4762 175.2393 101.8528 0.0000 0.0000 0.0000
# 3 6.7548 101.8528 155.6638 0.0000 0.0000 0.0000
# 4 0.0000 0.0000 0.0000 17.8017 0.0000 0.0000
# 5 0.0000 0.0000 0.0000 0.0000 4.1375 0.0000
# 6 0.0000 0.0000 0.0000 0.0000 0.0000 13.1881
#
#
#
# Elastic Compliance Matrix: (Units=1/GPa)
#
#
# Indices 1 2 3 4 5 6 
#
# 1 0.037614 -0.002444 -0.000033 0.000000 0.000000 0.000000
# 2 -0.002444 0.009367 -0.006023 0.000000 0.000000 0.000000
# 3 -0.000033 -0.006023 0.010367 0.000000 0.000000 0.000000
# 4 0.000000 0.000000 0.000000 0.056174 0.000000 0.000000
# 5 0.000000 0.000000 0.000000 0.000000 0.241691 0.000000
# 6 0.000000 0.000000 0.000000 0.000000 0.000000 0.075826
#
#
# Mechanical properties :
#
#
# Convention : Reuss Voigt Hill
#
# Bulk Modulus (GPa) = 24.78479 66.48981 45.63730
# Shear Modulus (GPa) = 10.83450 22.90259 16.86855
#
# Velocity S-wave (km/s) = 2.25516 3.27880 2.81392
# Velocity P-wave (km/s) = 4.29127 6.74867 5.65506
#
# Compressibility (1/GPa) = 0.04034733
#
# Stress axis : x y z
#
# Youngs Moduli (GPa) = 26.58592 106.75462 96.46456
#
# Poissons Ratio (x) = 0.26092 0.00318
# Poissons Ratio (y) = 0.06498 0.58101
# Poissons Ratio (z) = 0.00088 0.64299
#
# Static dielectric constant tensor:
#      x y z
#    x 3.678650 0.000000 0.000000 
#    y 0.000000 4.116140 0.000000 
#    z 0.000000 0.000000 3.976500 
# 
# 
# High freq. dielectric constant tensor:
#      x y z
#    x 1.814570 0.000000 0.000000 
#    y 0.000000 1.831840 0.000000 
#    z 0.000000 0.000000 1.827020 
# 
# From -- ./inp_files/13457.got.cif
#   From: 2010.03.12/outbox.cif.g09.slc.cpg/sg44_7_cif.got.tgz:13457.got - 2010.04.14 02:36:11.
