data_PCOD8190131
_publ_section_title
;
Structure prediction by ZEFSAII (Michael W. Deem and Ramdas Pophale) SiO2 
 PCOD8190131
Probable space group: I M M 2
;
_chemical_formula_sum "Si O2"
_cell_formula_units_Z 64
_cell_length_a 29.162268
_cell_length_b 8.741226
_cell_length_c 12.598467
_cell_angle_alpha 90.000000
_cell_angle_beta 90.000000
_cell_angle_gamma 90.000000
_cell_volume 3211.525305
_symmetry_space_group_name_H-M "I M M 2"
_symmetry_group_IT_number 44
_symmetry_cell_setting 'orthorhombic'
loop_
_space_group_symop_operation_xyz
x,y,z
-x,-y,z
-x,y,z
x,-y,z
1/2+x,1/2+y,1/2+z
1/2-x,1/2-y,1/2+z
1/2-x,1/2+y,1/2+z
1/2+x,1/2-y,1/2+z
loop_
_atom_site_type_symbol
_atom_site_label
_atom_site_fract_x
_atom_site_fract_y
_atom_site_fract_z
Si Si1 0.053504 0.323437 0.786690
Si Si2 0.053857 0.675596 0.546328
Si Si3 0.785053 0.324009 0.432306
Si Si4 0.622066 0.680003 0.888355
Si Si5 0.794786 0.672018 0.831693
Si Si6 0.738230 0.670785 0.649802
Si Si7 0.377201 0.678050 0.446002
Si Si8 0.643299 0.178955 0.669348
O O1 0.067136 0.500000 0.802350
O O2 0.066793 0.272822 0.666807
O O3 0.079997 0.225173 0.873907
O O4 0.000000 0.297670 0.806849
O O5 0.068766 0.500000 0.529640
O O6 0.077789 0.781009 0.458840
O O7 0.000000 0.694456 0.529651
O O8 0.789514 0.500000 0.395828
O O9 0.835242 0.256033 0.449879
O O10 0.758680 0.218306 0.348553
O O11 0.750264 0.304230 0.528678
O O12 0.628375 0.500000 0.882400
O O13 0.617049 0.744885 0.768880
O O14 0.806347 0.500000 0.870974
O O15 0.789348 0.685481 0.704333
O O16 0.830967 0.787230 0.880716
O O17 0.718331 0.500000 0.669221
O O18 0.697720 0.789217 0.678964
O O19 0.379162 0.500000 0.469183
O O20 0.377992 0.761248 0.559134
O O21 0.634520 0.000000 0.675001
#
# Coordination Sequence:
#
# PCOD8190131 Si02
#       8
#     8   8   8   8   8   8   8   8
#     4   9  20  42  70  96 123 156 197 247 302 360
#     4   9  20  42  70  96 123 156 197 247 302 360
#     4  11  22  37  57  84 118 160 206 251 298 354
#     4  12  25  40  60  90 127 162 202 251 304 365
#     4  11  22  37  57  84 118 160 206 251 298 354
#     4  10  22  38  56  79 116 159 202 254 304 351
#     4  12  25  40  60  90 127 162 202 251 304 365
#     4  12  24  40  63  85 116 163 211 255 302 359
#
# _framework density 19.928224
#
# number of rings (size 3 to 8) (size 9 to 14) (size 15 to 20)
#    0.000    1.250    2.500    4.875    1.750    2.000 
#    0.000    1.875    0.000    3.750    0.000    0.000 
#    0.000    0.000    0.000    0.000    0.000    0.000 
#
# Total GULP energy -396661.881743 kJ/mol
# GULP energy per Si atom -12395.683804 kJ/mol
# Density = 1.988287 g / cm^3
# Si number density = 19.928224 Si / 1000 Ang^3
#
#
#
# Elastic Constant Matrix: (Units=GPa)
#
#
# Indices 1 2 3 4 5 6 
#
# 1 70.0071 30.0864 40.5945 0.0000 0.0000 0.0000
# 2 30.0864 118.3128 41.1123 0.0000 0.0000 0.0000
# 3 40.5945 41.1123 94.7997 0.0000 0.0000 0.0000
# 4 0.0000 0.0000 0.0000 29.1392 0.0000 0.0000
# 5 0.0000 0.0000 0.0000 0.0000 31.9108 0.0000
# 6 0.0000 0.0000 0.0000 0.0000 0.0000 34.0108
#
#
#
# Elastic Compliance Matrix: (Units=1/GPa)
#
#
# Indices 1 2 3 4 5 6 
#
# 1 0.019580 -0.002432 -0.007329 0.000000 0.000000 0.000000
# 2 -0.002432 0.010254 -0.003405 0.000000 0.000000 0.000000
# 3 -0.007329 -0.003405 0.015164 0.000000 0.000000 0.000000
# 4 0.000000 0.000000 0.000000 0.034318 0.000000 0.000000
# 5 0.000000 0.000000 0.000000 0.000000 0.031337 0.000000
# 6 0.000000 0.000000 0.000000 0.000000 0.000000 0.029402
#
#
# Mechanical properties :
#
#
# Convention : Reuss Voigt Hill
#
# Bulk Modulus (GPa) = 53.58051 56.30068 54.94060
# Shear Modulus (GPa) = 28.96695 30.43395 29.70045
#
# Velocity S-wave (km/s) = 3.81670 3.91215 3.86472
# Velocity P-wave (km/s) = 6.80941 6.97995 6.89520
#
# Compressibility (1/GPa) = 0.01866350
#
# Stress axis : x y z
#
# Youngs Moduli (GPa) = 51.07362 97.52298 65.94567
#
# Poissons Ratio (x) = 0.23718 0.48335
# Poissons Ratio (y) = 0.12422 0.22457
# Poissons Ratio (z) = 0.37434 0.33211
#
# Static dielectric constant tensor:
#      x y z
#    x 3.398760 0.000000 0.000000 
#    y 0.000000 3.604920 0.000000 
#    z 0.000000 0.000000 3.858370 
# 
# 
# High freq. dielectric constant tensor:
#      x y z
#    x 1.760450 0.000000 0.000000 
#    y 0.000000 1.780120 0.000000 
#    z 0.000000 0.000000 1.795950 
# 
# From -- ./inp_files/15118.got.cif
#   From: 2010.03.12/outbox.cif.g09.slc.cpg/sg44_8_cif.got.tgz:15118.got - 2010.04.14 02:36:11.
