data_PCOD8190652
_publ_section_title
;
Structure prediction by ZEFSAII (Michael W. Deem and Ramdas Pophale) SiO2 
 PCOD8190652
Probable space group: I B A 2
;
_chemical_formula_sum "Si O2"
_cell_formula_units_Z 56
_cell_length_a 20.112988
_cell_length_b 8.675552
_cell_length_c 14.085521
_cell_angle_alpha 90.000000
_cell_angle_beta 90.000000
_cell_angle_gamma 90.000000
_cell_volume 2457.800494
_symmetry_space_group_name_H-M "I B A 2"
_symmetry_group_IT_number 45
_symmetry_cell_setting 'orthorhombic'
loop_
_space_group_symop_operation_xyz
x,y,z
-x,-y,z
-x,y,1/2+z
x,-y,1/2+z
1/2+x,1/2+y,1/2+z
1/2-x,1/2-y,1/2+z
1/2-x,1/2+y,z
1/2+x,1/2-y,z
loop_
_atom_site_type_symbol
_atom_site_label
_atom_site_fract_x
_atom_site_fract_y
_atom_site_fract_z
Si Si1 0.676345 0.056019 0.117220
Si Si2 0.249349 0.183342 0.230566
Si Si3 0.843134 0.942018 0.475761
Si Si4 0.960545 0.360816 0.697457
Si Si5 0.392325 0.576337 0.283763
Si Si6 0.219547 0.267239 0.940770
Si Si7 0.051715 0.116522 0.625022
O O1 0.720650 0.161261 0.186667
O O2 0.597867 0.071048 0.132439
O O3 0.702121 0.887585 0.149520
O O4 0.686797 0.097758 0.005875
O O5 0.185564 0.075854 0.253914
O O6 0.293735 0.215147 0.326914
O O7 0.898171 0.963780 0.394443
O O8 0.798460 0.793369 0.450674
O O9 0.878476 0.893330 0.572059
O O10 0.801743 0.102025 0.484276
O O11 0.928443 0.240928 0.770131
O O12 0.000000 0.500000 0.750197
O O13 0.016374 0.281987 0.629593
O O14 0.432178 0.442762 0.230857
O O15 0.000000 0.000000 0.575027
#
# Coordination Sequence:
#
# PCOD8190652 Si02
#       7
#     8   8   8   8   8   8   8
#     4  11  22  40  62  90 128 163 200 260 322 368
#     4  10  21  37  62  93 123 158 204 257 319 385
#     4  11  23  39  64  95 126 161 206 260 315 377
#     4  10  23  41  61  87 122 165 214 261 307 369
#     4   9  20  40  62  87 120 161 205 253 311 373
#     4  11  22  38  63  98 129 163 209 264 328 387
#     4  10  21  41  63  86 121 169 214 247 298 379
#
# _framework density 22.784600000000001
#
# number of rings (size 3 to 8) (size 9 to 14) (size 15 to 20)
#    0.000    1.714    0.000    6.000    0.000    6.286 
#    0.000    2.143    0.000    0.000    0.000    0.000 
#    0.000    0.000    0.000    0.000    0.000    0.000 
#
# Total GULP energy -346955.089115 kJ/mol
# GULP energy per Si atom -12391.253183 kJ/mol
# Density = 2.273274 g / cm^3
# Si number density = 22.784600 Si / 1000 Ang^3
#
#
#
# Elastic Constant Matrix: (Units=GPa)
#
#
# Indices 1 2 3 4 5 6 
#
# 1 108.3810 58.6220 41.1970 0.0000 0.0000 0.0000
# 2 58.6220 81.5737 23.1285 0.0000 0.0000 0.0000
# 3 41.1970 23.1285 95.1168 0.0000 0.0000 0.0000
# 4 0.0000 0.0000 0.0000 21.5872 0.0000 0.0000
# 5 0.0000 0.0000 0.0000 0.0000 32.9627 0.0000
# 6 0.0000 0.0000 0.0000 0.0000 0.0000 40.8626
#
#
#
# Elastic Compliance Matrix: (Units=1/GPa)
#
#
# Indices 1 2 3 4 5 6 
#
# 1 0.016826 -0.010768 -0.004669 0.000000 0.000000 0.000000
# 2 -0.010768 0.020057 -0.000213 0.000000 0.000000 0.000000
# 3 -0.004669 -0.000213 0.012588 0.000000 0.000000 0.000000
# 4 0.000000 0.000000 0.000000 0.046324 0.000000 0.000000
# 5 0.000000 0.000000 0.000000 0.000000 0.030337 0.000000
# 6 0.000000 0.000000 0.000000 0.000000 0.000000 0.024472
#
#
# Mechanical properties :
#
#
# Convention : Reuss Voigt Hill
#
# Bulk Modulus (GPa) = 55.03595 58.99627 57.01611
# Shear Modulus (GPa) = 26.60116 29.89076 28.24596
#
# Velocity S-wave (km/s) = 3.42059 3.62592 3.52475
# Velocity P-wave (km/s) = 6.30935 6.59386 6.45317
#
# Compressibility (1/GPa) = 0.01816994
#
# Stress axis : x y z
#
# Youngs Moduli (GPa) = 59.43290 49.85674 79.44298
#
# Poissons Ratio (x) = 0.53684 0.37094
# Poissons Ratio (y) = 0.63996 0.01696
# Poissons Ratio (z) = 0.27751 0.01064
#
# Static dielectric constant tensor:
#      x y z
#    x 4.199960 0.000000 0.000000 
#    y 0.000000 3.978340 0.000000 
#    z 0.000000 0.000000 4.040130 
# 
# 
# High freq. dielectric constant tensor:
#      x y z
#    x 1.902110 0.000000 0.000000 
#    y 0.000000 1.895370 0.000000 
#    z 0.000000 0.000000 1.881930 
# 
# From -- ./inp_files/6959.got.cif
#   From: 2010.03.12/outbox.cif.g09.slc.cpg/sg45_4_cif.got.tgz:6959.got - 2010.04.14 02:50:11.
