data_PCOD8190494
_publ_section_title
;
Structure prediction by ZEFSAII (Michael W. Deem and Ramdas Pophale) SiO2 
 PCOD8190494
Probable space group: I B A 2
;
_chemical_formula_sum "Si O2"
_cell_formula_units_Z 52
_cell_length_a 28.986408
_cell_length_b 5.309972
_cell_length_c 17.058667
_cell_angle_alpha 90.000000
_cell_angle_beta 90.000000
_cell_angle_gamma 90.000000
_cell_volume 2625.619102
_symmetry_space_group_name_H-M "I B A 2"
_symmetry_group_IT_number 45
_symmetry_cell_setting 'orthorhombic'
loop_
_space_group_symop_operation_xyz
x,y,z
-x,-y,z
-x,y,1/2+z
x,-y,1/2+z
1/2+x,1/2+y,1/2+z
1/2-x,1/2-y,1/2+z
1/2-x,1/2+y,z
1/2+x,1/2-y,z
loop_
_atom_site_type_symbol
_atom_site_label
_atom_site_fract_x
_atom_site_fract_y
_atom_site_fract_z
Si Si1 0.777906 0.702512 0.852110
Si Si2 0.377599 0.773504 0.919215
Si Si3 0.122401 0.273502 0.602158
Si Si4 0.584262 0.274021 0.089809
Si Si5 0.722094 0.202512 0.669265
Si Si6 0.500000 0.500000 0.510688
Si Si7 0.084262 0.225978 0.431565
O O1 0.747974 0.459204 0.875309
O O2 0.824439 0.686422 0.901081
O O3 0.790362 0.699236 0.760688
O O4 0.397164 0.513211 0.880972
O O5 0.407953 0.010706 0.885552
O O6 0.384229 0.750070 0.012272
O O7 0.092048 0.510704 0.635822
O O8 0.175561 0.313576 0.620294
O O9 0.115772 0.250082 0.509102
O O10 0.102836 0.013211 0.640402
O O11 0.531103 0.318783 0.065290
O O12 0.747974 0.459203 0.646067
O O13 0.468896 0.681215 0.456087
#
# Coordination Sequence:
#
# PCOD8190494 Si02
#       7
#     8   8   8   8   8   4   8
#     4  10  20  33  49  66  88 123 163 194 220 262
#     4   9  17  31  44  68  95 116 151 188 227 270
#     4   9  17  31  44  68  95 116 151 188 227 270
#     4   9  18  29  48  70  94 119 145 184 230 275
#     4  10  20  33  49  66  88 123 163 194 220 262
#     4   8  16  30  48  74  94 118 152 178 220 284
#     4   9  18  29  48  70  94 119 145 184 230 275
#
# _framework density 19.804853000000001
#
# number of rings (size 3 to 8) (size 9 to 14) (size 15 to 20)
#    0.000    3.077    0.000    1.846    0.000    9.846 
#    0.000   18.462    0.000    0.000    0.000   35.538 
#    0.000    0.000    0.000    0.000    0.000    0.000 
#
# Total GULP energy -322115.260405 kJ/mol
# GULP energy per Si atom -12389.048477 kJ/mol
# Density = 1.975978 g / cm^3
# Si number density = 19.804853 Si / 1000 Ang^3
#
#
#
# Elastic Constant Matrix: (Units=GPa)
#
#
# Indices 1 2 3 4 5 6 
#
# 1 170.6267 72.4278 32.9620 0.0000 0.0000 0.0000
# 2 72.4278 227.1545 10.1437 0.0000 0.0000 0.0000
# 3 32.9620 10.1437 19.3015 0.0000 0.0000 0.0000
# 4 0.0000 0.0000 0.0000 6.7722 0.0000 0.0000
# 5 0.0000 0.0000 0.0000 0.0000 -2.4180 0.0000
# 6 0.0000 0.0000 0.0000 0.0000 0.0000 13.4235
#
#
#
# Elastic Compliance Matrix: (Units=1/GPa)
#
#
# Indices 1 2 3 4 5 6 
#
# 1 0.009936 -0.002468 -0.015670 0.000000 0.000000 0.000000
# 2 -0.002468 0.005121 0.001524 0.000000 0.000000 0.000000
# 3 -0.015670 0.001524 0.077770 0.000000 0.000000 0.000000
# 4 0.000000 0.000000 0.000000 0.147663 0.000000 0.000000
# 5 0.000000 0.000000 0.000000 0.000000 -0.413559 0.000000
# 6 0.000000 0.000000 0.000000 0.000000 0.000000 0.074496
#
#
# Mechanical properties :
#
#
# Convention : Reuss Voigt Hill
#
# Bulk Modulus (GPa) = 16.77947 72.01663 44.39805
# Shear Modulus (GPa) = -109.94396 23.65882 -43.14257
#
# Velocity S-wave (km/s) = -7.45883 3.46004 -4.67238
# Velocity P-wave (km/s) = 8.10482 7.23910 2.57716
#
# Compressibility (1/GPa) = 0.05959663
#
# Stress axis : x y z
#
# Youngs Moduli (GPa) = 100.64716 195.26543 12.85848
#
# Poissons Ratio (x) = 0.48196 0.20150
# Poissons Ratio (y) = 0.24842 -0.01959
# Poissons Ratio (z) = 1.57719 -0.29752
#
# Static dielectric constant tensor:
#      x y z
#    x 3.459530 0.000000 0.000000 
#    y 0.000000 6.320980 0.000000 
#    z 0.000000 0.000000 2.922680 
# 
# 
# High freq. dielectric constant tensor:
#      x y z
#    x 1.771340 0.000000 0.000000 
#    y 0.000000 1.817140 0.000000 
#    z 0.000000 0.000000 1.691210 
# 
# From -- ./inp_files/8526.got.cif
#   From: 2010.03.12/outbox.cif.g09.slc.cpg/sg45_5_cif.got.tgz:8526.got - 2010.04.14 02:50:11.
