data_PCOD8190391
_publ_section_title
;
Structure prediction by ZEFSAII (Michael W. Deem and Ramdas Pophale) SiO2 
 PCOD8190391
Probable space group: I B A 2
;
_chemical_formula_sum "Si O2"
_cell_formula_units_Z 64
_cell_length_a 30.209120
_cell_length_b 20.151621
_cell_length_c 5.301076
_cell_angle_alpha 90.000000
_cell_angle_beta 90.000000
_cell_angle_gamma 90.000000
_cell_volume 3227.097535
_symmetry_space_group_name_H-M "I B A 2"
_symmetry_group_IT_number 45
_symmetry_cell_setting 'orthorhombic'
loop_
_space_group_symop_operation_xyz
x,y,z
-x,-y,z
-x,y,1/2+z
x,-y,1/2+z
1/2+x,1/2+y,1/2+z
1/2-x,1/2-y,1/2+z
1/2-x,1/2+y,z
1/2+x,1/2-y,z
loop_
_atom_site_type_symbol
_atom_site_label
_atom_site_fract_x
_atom_site_fract_y
_atom_site_fract_z
Si Si1 0.945268 0.961000 0.332770
Si Si2 0.305444 0.576829 0.809505
Si Si3 0.194747 0.720404 0.343168
Si Si4 0.657555 0.567227 0.809898
Si Si5 0.903853 0.771272 0.855923
Si Si6 0.769698 0.668609 0.342693
Si Si7 0.514331 0.808947 0.353772
Si Si8 0.052759 0.815046 0.855918
O O1 0.892530 0.954296 0.340019
O O2 0.968207 0.888565 0.341418
O O3 0.960755 0.002286 0.577804
O O4 0.311203 0.497907 0.788943
O O5 0.326336 0.609401 0.553431
O O6 0.253805 0.596412 0.834261
O O7 0.333149 0.606844 0.049205
O O8 0.146622 0.751746 0.337337
O O9 0.199589 0.676686 0.596575
O O10 0.230125 0.778732 0.341125
O O11 0.201072 0.674558 0.095560
O O12 0.917695 0.812972 0.609256
O O13 0.933528 0.703952 0.855143
O O14 0.913946 0.808980 0.117743
O O15 0.499764 0.849522 0.603336
O O16 0.486835 0.738479 0.352100
#
# Coordination Sequence:
#
# PCOD8190391 Si02
#       8
#     8   8   8   8   8   8   8   8
#     4  12  21  33  44  68  97 113 150 210 239 290
#     4  10  18  32  47  60  88 121 146 204 233 271
#     4  10  21  33  44  71  89 120 156 178 233 303
#     4  10  19  30  45  69  83 113 171 191 224 294
#     4  10  19  34  54  67  88 117 156 194 222 300
#     4  10  21  33  45  63  99 118 143 195 238 276
#     4   8  16  32  49  69  87 108 149 193 227 274
#     4  10  21  31  52  73  89 120 149 199 249 280
#
# _framework density 19.832060999999999
#
# number of rings (size 3 to 8) (size 9 to 14) (size 15 to 20)
#    0.000    2.000    2.500    2.250    3.500    0.000 
#    0.000    0.000    0.000   20.250    0.000    0.000 
#    0.000    0.000    0.000    0.000    0.000    0.000 
#
# Total GULP energy -396578.371619 kJ/mol
# GULP energy per Si atom -12393.074113 kJ/mol
# Density = 1.978692 g / cm^3
# Si number density = 19.832061 Si / 1000 Ang^3
#
#
#
# Elastic Constant Matrix: (Units=GPa)
#
#
# Indices 1 2 3 4 5 6 
#
# 1 63.0752 8.8271 13.2040 0.0000 0.0000 0.0000
# 2 8.8271 17.5297 -7.9724 0.0000 0.0000 0.0000
# 3 13.2040 -7.9724 181.1936 0.0000 0.0000 0.0000
# 4 0.0000 0.0000 0.0000 15.7610 0.0000 0.0000
# 5 0.0000 0.0000 0.0000 0.0000 47.2690 0.0000
# 6 0.0000 0.0000 0.0000 0.0000 0.0000 18.7635
#
#
#
# Elastic Compliance Matrix: (Units=1/GPa)
#
#
# Indices 1 2 3 4 5 6 
#
# 1 0.017556 -0.009615 -0.001702 0.000000 0.000000 0.000000
# 2 -0.009615 0.063476 0.003494 0.000000 0.000000 0.000000
# 3 -0.001702 0.003494 0.005797 0.000000 0.000000 0.000000
# 4 0.000000 0.000000 0.000000 0.063448 0.000000 0.000000
# 5 0.000000 0.000000 0.000000 0.000000 0.021156 0.000000
# 6 0.000000 0.000000 0.000000 0.000000 0.000000 0.053295
#
#
# Mechanical properties :
#
#
# Convention : Reuss Voigt Hill
#
# Bulk Modulus (GPa) = 14.04847 32.21287 23.13067
# Shear Modulus (GPa) = 18.93213 32.87469 25.90341
#
# Velocity S-wave (km/s) = 3.09305 4.07585 3.61797
# Velocity P-wave (km/s) = 4.45590 6.19904 5.39829
#
# Compressibility (1/GPa) = 0.07118213
#
# Stress axis : x y z
#
# Youngs Moduli (GPa) = 56.96056 15.75392 172.51109
#
# Poissons Ratio (x) = 0.15147 0.29368
# Poissons Ratio (y) = 0.54765 -0.60268
# Poissons Ratio (z) = 0.09697 -0.05504
#
# Static dielectric constant tensor:
#      x y z
#    x 3.473410 0.000000 0.000000 
#    y 0.000000 3.016350 0.000000 
#    z 0.000000 0.000000 5.512260 
# 
# 
# High freq. dielectric constant tensor:
#      x y z
#    x 1.763270 0.000000 0.000000 
#    y 0.000000 1.687930 0.000000 
#    z 0.000000 0.000000 1.821140 
# 
# From -- ./inp_files/643.got.cif
#   From: 2010.03.12/outbox.cif.g09.slc.cpg/sg45_1_cif.got.tgz:643.got - 2010.04.14 02:50:11.
