data_PCOD8190307
_publ_section_title
;
Structure prediction by ZEFSAII (Michael W. Deem and Ramdas Pophale) SiO2 
 PCOD8190307
Probable space group: I M M 2
;
_chemical_formula_sum "Si O2"
_cell_formula_units_Z 40
_cell_length_a 23.555272
_cell_length_b 10.872929
_cell_length_c 7.578252
_cell_angle_alpha 90.000000
_cell_angle_beta 90.000000
_cell_angle_gamma 90.000000
_cell_volume 1940.902496
_symmetry_space_group_name_H-M "I M M 2"
_symmetry_group_IT_number 44
_symmetry_cell_setting 'orthorhombic'
loop_
_space_group_symop_operation_xyz
x,y,z
-x,-y,z
-x,y,z
x,-y,z
1/2+x,1/2+y,1/2+z
1/2-x,1/2-y,1/2+z
1/2-x,1/2+y,1/2+z
1/2+x,1/2-y,1/2+z
loop_
_atom_site_type_symbol
_atom_site_label
_atom_site_fract_x
_atom_site_fract_y
_atom_site_fract_z
Si Si1 0.721148 0.362367 0.685450
Si Si2 0.937162 0.357336 0.989072
Si Si3 0.673358 0.251265 0.336063
Si Si4 0.433818 0.861758 0.896675
Si Si5 0.361402 0.638103 0.003521
O O1 0.709581 0.500000 0.625645
O O2 0.703689 0.281346 0.518983
O O3 0.787167 0.348225 0.736781
O O4 0.683916 0.326726 0.854605
O O5 0.938100 0.500000 0.945173
O O6 0.921838 0.334200 0.192218
O O7 0.000000 0.301981 0.947430
O O8 0.890164 0.296134 0.867174
O O9 0.667808 0.364184 0.197542
O O10 0.500000 0.860337 0.939017
O O11 0.406753 0.749503 0.006245
O O12 0.410316 0.000000 0.944736
O O13 0.386772 0.500000 0.970228
#
# Coordination Sequence:
#
# PCOD8190307 Si02
#       5
#     8   8   8   8   8
#     4  11  24  41  60  89 128 167 212 264 321 380
#     4   9  19  37  64  97 130 164 211 268 322 381
#     4  12  22  42  64  92 124 174 213 265 318 383
#     4   9  19  39  66  95 128 169 216 265 319 382
#     4  11  24  41  62  92 129 167 212 266 321 381
#
# _framework density 20.608968999999998
#
# number of rings (size 3 to 8) (size 9 to 14) (size 15 to 20)
#    0.000    1.600    4.000    2.400    0.000    2.800 
#    0.000    2.000    0.000    1.800    0.000    0.000 
#    0.000    0.000    0.000    0.000    0.000    0.000 
#
# Total GULP energy -247837.146311 kJ/mol
# GULP energy per Si atom -12391.857316 kJ/mol
# Density = 2.056206 g / cm^3
# Si number density = 20.608969 Si / 1000 Ang^3
#
#
#
# Elastic Constant Matrix: (Units=GPa)
#
#
# Indices 1 2 3 4 5 6 
#
# 1 103.7120 45.9353 45.5410 0.0000 0.0000 0.0000
# 2 45.9353 98.1250 39.8909 0.0000 0.0000 0.0000
# 3 45.5410 39.8909 119.0102 0.0000 0.0000 0.0000
# 4 0.0000 0.0000 0.0000 23.7778 0.0000 0.0000
# 5 0.0000 0.0000 0.0000 0.0000 32.6522 0.0000
# 6 0.0000 0.0000 0.0000 0.0000 0.0000 29.1531
#
#
#
# Elastic Compliance Matrix: (Units=1/GPa)
#
#
# Indices 1 2 3 4 5 6 
#
# 1 0.013300 -0.004813 -0.003476 0.000000 0.000000 0.000000
# 2 -0.004813 0.013541 -0.002697 0.000000 0.000000 0.000000
# 3 -0.003476 -0.002697 0.010637 0.000000 0.000000 0.000000
# 4 0.000000 0.000000 0.000000 0.042056 0.000000 0.000000
# 5 0.000000 0.000000 0.000000 0.000000 0.030626 0.000000
# 6 0.000000 0.000000 0.000000 0.000000 0.000000 0.034302
#
#
# Mechanical properties :
#
#
# Convention : Reuss Voigt Hill
#
# Bulk Modulus (GPa) = 64.49390 64.84239 64.66814
# Shear Modulus (GPa) = 29.13716 29.74862 29.44289
#
# Velocity S-wave (km/s) = 3.76415 3.80344 3.78384
# Velocity P-wave (km/s) = 7.08899 7.12879 7.10892
#
# Compressibility (1/GPa) = 0.01550534
#
# Stress axis : x y z
#
# Youngs Moduli (GPa) = 75.18616 73.85204 94.01288
#
# Poissons Ratio (x) = 0.35546 0.32681
# Poissons Ratio (y) = 0.36188 0.25354
# Poissons Ratio (z) = 0.26137 0.19917
#
# Static dielectric constant tensor:
#      x y z
#    x 3.740270 0.000000 0.000000 
#    y 0.000000 3.499750 0.000000 
#    z 0.000000 0.000000 3.830220 
# 
# 
# High freq. dielectric constant tensor:
#      x y z
#    x 1.801600 0.000000 0.000000 
#    y 0.000000 1.788560 0.000000 
#    z 0.000000 0.000000 1.821870 
# 
# From -- ./inp_files/5837.got.cif
#   From: 2010.03.12/outbox.cif.g09.slc.cpg/sg44_3_cif.got.tgz:5837.got - 2010.04.14 02:36:11.
