data_PCOD8190637
_publ_section_title
;
Structure prediction by ZEFSAII (Michael W. Deem and Ramdas Pophale) SiO2 
 PCOD8190637
Probable space group: I B A 2
;
_chemical_formula_sum "Si O2"
_cell_formula_units_Z 56
_cell_length_a 4.944450
_cell_length_b 29.889142
_cell_length_c 17.392730
_cell_angle_alpha 90.000000
_cell_angle_beta 90.000000
_cell_angle_gamma 90.000000
_cell_volume 2570.391006
_symmetry_space_group_name_H-M "I B A 2"
_symmetry_group_IT_number 45
_symmetry_cell_setting 'orthorhombic'
loop_
_space_group_symop_operation_xyz
x,y,z
-x,-y,z
-x,y,1/2+z
x,-y,1/2+z
1/2+x,1/2+y,1/2+z
1/2-x,1/2-y,1/2+z
1/2-x,1/2+y,z
1/2+x,1/2-y,z
loop_
_atom_site_type_symbol
_atom_site_label
_atom_site_fract_x
_atom_site_fract_y
_atom_site_fract_z
Si Si1 0.500000 0.500000 0.879730
Si Si2 0.240277 0.222320 0.929853
Si Si3 0.100845 0.592701 0.552905
Si Si4 0.973911 0.092476 0.810859
Si Si5 0.608791 0.622971 0.642485
Si Si6 0.500000 0.000000 0.983001
Si Si7 0.767458 0.778581 0.109830
Si Si8 0.471090 0.868880 0.389978
O O1 0.607263 0.540971 0.827405
O O2 0.250546 0.516847 0.931838
O O3 0.433982 0.264383 0.908943
O O4 0.346669 0.180569 0.880888
O O5 0.242905 0.210543 0.019703
O O6 0.395745 0.610953 0.575671
O O7 0.896524 0.601416 0.622506
O O8 0.111010 0.540029 0.535930
O O9 0.001939 0.620067 0.479274
O O10 0.994778 0.101086 0.720702
O O11 0.761845 0.126634 0.849520
O O12 0.268441 0.097951 0.847421
O O13 0.648723 0.676176 0.653411
O O14 0.472578 0.761010 0.133725
#
# Coordination Sequence:
#
# PCOD8190637 Si02
#       8
#     4   8   8   8   8   4   8   8
#     4  12  22  44  66  98 132 174 224 260 336 408
#     4  10  21  36  63  98 128 164 221 281 319 374
#     4  12  24  42  71  96 132 166 229 281 314 387
#     4  12  26  43  68  95 140 180 212 270 340 404
#     4  12  26  44  65 104 135 174 219 275 338 389
#     4  12  24  42  70 104 126 168 230 276 322 378
#     4  10  21  38  64  94 129 172 218 270 326 390
#     4  12  23  44  67  98 127 179 224 269 328 395
#
# _framework density 21.786566000000001
#
# number of rings (size 3 to 8) (size 9 to 14) (size 15 to 20)
#    0.000    0.571    4.286    4.286    4.000    1.143 
#    0.000    4.286    0.000    0.000    0.000    0.000 
#    0.000    0.000    0.000    0.000    0.000    0.000 
#
# Total GULP energy -347335.486997 kJ/mol
# GULP energy per Si atom -12404.838821 kJ/mol
# Density = 2.173698 g / cm^3
# Si number density = 21.786566 Si / 1000 Ang^3
#
#
#
# Elastic Constant Matrix: (Units=GPa)
#
#
# Indices 1 2 3 4 5 6 
#
# 1 97.2673 9.8526 17.4042 0.0000 0.0000 0.0000
# 2 9.8526 120.9783 30.5640 0.0000 0.0000 0.0000
# 3 17.4042 30.5640 75.1122 0.0000 0.0000 0.0000
# 4 0.0000 0.0000 0.0000 20.4766 0.0000 0.0000
# 5 0.0000 0.0000 0.0000 0.0000 22.8930 0.0000
# 6 0.0000 0.0000 0.0000 0.0000 0.0000 36.8177
#
#
#
# Elastic Compliance Matrix: (Units=1/GPa)
#
#
# Indices 1 2 3 4 5 6 
#
# 1 0.010734 -0.000274 -0.002376 0.000000 0.000000 0.000000
# 2 -0.000274 0.009220 -0.003688 0.000000 0.000000 0.000000
# 3 -0.002376 -0.003688 0.015365 0.000000 0.000000 0.000000
# 4 0.000000 0.000000 0.000000 0.048836 0.000000 0.000000
# 5 0.000000 0.000000 0.000000 0.000000 0.043681 0.000000
# 6 0.000000 0.000000 0.000000 0.000000 0.000000 0.027161
#
#
# Mechanical properties :
#
#
# Convention : Reuss Voigt Hill
#
# Bulk Modulus (GPa) = 44.16426 45.44439 44.80432
# Shear Modulus (GPa) = 28.53548 31.73992 30.13770
#
# Velocity S-wave (km/s) = 3.62301 3.82102 3.72333
# Velocity P-wave (km/s) = 6.14954 6.35383 6.25252
#
# Compressibility (1/GPa) = 0.02264274
#
# Stress axis : x y z
#
# Youngs Moduli (GPa) = 93.16381 108.45911 65.08434
#
# Poissons Ratio (x) = 0.02972 0.15462
# Poissons Ratio (y) = 0.02553 0.24005
# Poissons Ratio (z) = 0.22132 0.40003
#
# Static dielectric constant tensor:
#      x y z
#    x 4.075060 0.000000 0.000000 
#    y 0.000000 3.868060 0.000000 
#    z 0.000000 0.000000 3.587700 
# 
# 
# High freq. dielectric constant tensor:
#      x y z
#    x 1.875280 0.000000 0.000000 
#    y 0.000000 1.864630 0.000000 
#    z 0.000000 0.000000 1.824440 
# 
# From -- ./inp_files/5312.got.cif
#   From: 2010.03.12/outbox.cif.g09.slc.cpg/sg45_3_cif.got.tgz:5312.got - 2010.04.14 02:50:11.
