data_PCOD8190761
_publ_section_title
;
Structure prediction by ZEFSAII (Michael W. Deem and Ramdas Pophale) SiO2 
 PCOD8190761
Probable space group: I B A 2
;
_chemical_formula_sum "Si O2"
_cell_formula_units_Z 40
_cell_length_a 9.629121
_cell_length_b 20.490169
_cell_length_c 8.596301
_cell_angle_alpha 90.000000
_cell_angle_beta 90.000000
_cell_angle_gamma 90.000000
_cell_volume 1696.070102
_symmetry_space_group_name_H-M "I B A 2"
_symmetry_group_IT_number 45
_symmetry_cell_setting 'orthorhombic'
loop_
_space_group_symop_operation_xyz
x,y,z
-x,-y,z
-x,y,1/2+z
x,-y,1/2+z
1/2+x,1/2+y,1/2+z
1/2-x,1/2-y,1/2+z
1/2-x,1/2+y,z
1/2+x,1/2-y,z
loop_
_atom_site_type_symbol
_atom_site_label
_atom_site_fract_x
_atom_site_fract_y
_atom_site_fract_z
Si Si1 0.500000 0.000000 0.576401
Si Si2 0.500000 0.500000 0.517679
Si Si3 0.885147 0.911324 0.258131
Si Si4 0.108086 0.785009 0.597876
Si Si5 0.612182 0.207915 0.402701
Si Si6 0.909550 0.409161 0.337710
O O1 0.560037 0.059221 0.672322
O O2 0.386075 0.032865 0.462553
O O3 0.379474 0.471191 0.632609
O O4 0.545021 0.438239 0.414623
O O5 0.960052 0.849387 0.178726
O O6 0.739883 0.877357 0.309625
O O7 0.246354 0.802294 0.498995
O O8 0.147141 0.731582 0.728557
O O9 0.987915 0.759359 0.485960
O O10 0.529808 0.139756 0.389767
#
# Coordination Sequence:
#
# PCOD8190761 Si02
#       6
#     4   4   8   8   8   8
#     4  10  22  38  64  94 124 160 212 270 340 404
#     4  10  24  40  64  96 132 180 228 278 338 412
#     4  11  22  41  63  92 131 173 225 278 337 404
#     4  12  25  44  68  99 135 180 229 285 344 411
#     4  12  26  45  70 100 137 180 231 286 346 411
#     4  11  22  41  65  95 129 171 219 279 340 404
#
# _framework density 23.583929999999999
#
# number of rings (size 3 to 8) (size 9 to 14) (size 15 to 20)
#    0.000    0.800    0.000    8.400    0.000    1.600 
#    0.000    8.000    0.000    0.000    0.000    0.000 
#    0.000    0.000    0.000    0.000    0.000    0.000 
#
# Total GULP energy -247828.569078 kJ/mol
# GULP energy per Si atom -12391.428454 kJ/mol
# Density = 2.353025 g / cm^3
# Si number density = 23.583930 Si / 1000 Ang^3
#
#
#
# Elastic Constant Matrix: (Units=GPa)
#
#
# Indices 1 2 3 4 5 6 
#
# 1 83.9865 14.0619 28.1708 0.0012 0.0000 0.0000
# 2 14.0619 86.2925 23.4725 -0.0008 -0.0001 0.0000
# 3 28.1708 23.4725 121.2055 -0.0024 0.0007 0.0001
# 4 0.0012 -0.0008 -0.0024 101.7675 -0.0001 0.0000
# 5 0.0000 -0.0001 0.0007 -0.0001 26.7435 0.0000
# 6 0.0000 0.0000 0.0001 0.0000 0.0000 36.5711
#
#
#
# Elastic Compliance Matrix: (Units=1/GPa)
#
#
# Indices 1 2 3 4 5 6 
#
# 1 0.013066 -0.001376 -0.002770 0.000000 0.000000 0.000000
# 2 -0.001376 0.012378 -0.002077 0.000000 0.000000 0.000000
# 3 -0.002770 -0.002077 0.009297 0.000000 0.000000 0.000000
# 4 0.000000 0.000000 0.000000 0.009826 0.000000 0.000000
# 5 0.000000 0.000000 0.000000 0.000000 0.037392 0.000000
# 6 0.000000 0.000000 0.000000 0.000000 0.000000 0.027344
#
#
# Mechanical properties :
#
#
# Convention : Reuss Voigt Hill
#
# Bulk Modulus (GPa) = 44.85555 46.98831 45.92193
# Shear Modulus (GPa) = 38.70525 48.06837 43.38681
#
# Velocity S-wave (km/s) = 4.05553 4.51952 4.29380
# Velocity P-wave (km/s) = 6.40239 6.87036 6.64050
#
# Compressibility (1/GPa) = 0.02229378
#
# Stress axis : x y z
#
# Youngs Moduli (GPa) = 76.53293 80.79034 107.56543
#
# Poissons Ratio (x) = 0.11114 0.29801
# Poissons Ratio (y) = 0.10528 0.22345
# Poissons Ratio (z) = 0.21203 0.16783
#
# Static dielectric constant tensor:
#      x y z
#    x 3.978450 0.000000 0.000000 
#    y 0.000000 3.668290 -0.000010 
#    z 0.000000 -0.000010 4.611790 
# 
# 
# High freq. dielectric constant tensor:
#      x y z
#    x 1.905750 0.000000 0.000000 
#    y 0.000000 1.943340 0.000000 
#    z 0.000000 0.000000 1.967380 
# 
# From -- ./inp_files/978.got.cif
#   From: 2010.03.12/outbox.cif.g09.slc.cpg/sg45_1_cif.got.tgz:978.got - 2010.04.14 02:50:11.
