data_PCOD8190536
_publ_section_title
;
Structure prediction by ZEFSAII (Michael W. Deem and Ramdas Pophale) SiO2 
 PCOD8190536
Probable space group: I B A 2
;
_chemical_formula_sum "Si O2"
_cell_formula_units_Z 56
_cell_length_a 13.761525
_cell_length_b 11.737125
_cell_length_c 16.028902
_cell_angle_alpha 90.000000
_cell_angle_beta 90.000000
_cell_angle_gamma 90.000000
_cell_volume 2589.000098
_symmetry_space_group_name_H-M "I B A 2"
_symmetry_group_IT_number 45
_symmetry_cell_setting 'orthorhombic'
loop_
_space_group_symop_operation_xyz
x,y,z
-x,-y,z
-x,y,1/2+z
x,-y,1/2+z
1/2+x,1/2+y,1/2+z
1/2-x,1/2-y,1/2+z
1/2-x,1/2+y,z
1/2+x,1/2-y,z
loop_
_atom_site_type_symbol
_atom_site_label
_atom_site_fract_x
_atom_site_fract_y
_atom_site_fract_z
Si Si1 0.151314 0.601568 0.245180
Si Si2 0.151121 0.606489 0.620457
Si Si3 0.500000 0.500000 0.779548
Si Si4 0.519444 0.719430 0.164611
Si Si5 0.311331 0.433341 0.873032
Si Si6 0.844916 0.555927 0.476804
Si Si7 0.000000 0.500000 0.860863
Si Si8 0.836975 0.203893 0.036201
O O1 0.164637 0.487088 0.192019
O O2 0.116154 0.710875 0.193456
O O3 0.250570 0.624183 0.296786
O O4 0.062922 0.587195 0.308565
O O5 0.115818 0.547320 0.535041
O O6 0.256019 0.656337 0.598904
O O7 0.075326 0.701667 0.652254
O O8 0.503884 0.614279 0.724372
O O9 0.405538 0.497672 0.837930
O O10 0.556877 0.672940 0.074891
O O11 0.249002 0.527351 0.921614
O O12 0.337537 0.337565 0.940747
O O13 0.933002 0.584294 0.415150
O O14 0.818276 0.661101 0.535007
#
# Coordination Sequence:
#
# PCOD8190536 Si02
#       8
#     8   8   4   8   8   8   4   8
#     4  11  22  44  71 103 131 180 241 297 343 404
#     4  11  23  44  71 104 132 183 239 296 343 415
#     4  12  30  46  66 108 150 194 228 286 364 432
#     4  12  26  43  73 100 141 187 237 293 353 421
#     4  10  27  45  66  99 145 187 231 284 354 426
#     4  10  22  42  68 103 137 180 237 289 350 417
#     4  10  20  36  68  98 134 164 236 296 342 394
#     4  11  25  42  72 101 140 187 225 294 350 425
#
# _framework density 21.629971999999999
#
# number of rings (size 3 to 8) (size 9 to 14) (size 15 to 20)
#    0.000    1.143    2.857    1.714    6.000    4.000 
#    0.000    0.000    0.000    0.000    0.000    0.000 
#    0.000    0.000    0.000    0.000    0.000    0.000 
#
# Total GULP energy -347104.416046 kJ/mol
# GULP energy per Si atom -12396.586287 kJ/mol
# Density = 2.158074 g / cm^3
# Si number density = 21.629972 Si / 1000 Ang^3
#
#
#
# Elastic Constant Matrix: (Units=GPa)
#
#
# Indices 1 2 3 4 5 6 
#
# 1 97.5479 46.7084 65.4523 0.0000 0.0000 0.0000
# 2 46.7084 114.7839 53.1549 0.0000 0.0000 0.0000
# 3 65.4523 53.1549 120.9634 0.0000 0.0000 0.0000
# 4 0.0000 0.0000 0.0000 33.6929 0.0000 0.0000
# 5 0.0000 0.0000 0.0000 0.0000 25.7179 0.0000
# 6 0.0000 0.0000 0.0000 0.0000 0.0000 24.5637
#
#
#
# Elastic Compliance Matrix: (Units=1/GPa)
#
#
# Indices 1 2 3 4 5 6 
#
# 1 0.017062 -0.003349 -0.007760 0.000000 0.000000 0.000000
# 2 -0.003349 0.011595 -0.003283 0.000000 0.000000 0.000000
# 3 -0.007760 -0.003283 0.013909 0.000000 0.000000 0.000000
# 4 0.000000 0.000000 0.000000 0.029680 0.000000 0.000000
# 5 0.000000 0.000000 0.000000 0.000000 0.038883 0.000000
# 6 0.000000 0.000000 0.000000 0.000000 0.000000 0.040710
#
#
# Mechanical properties :
#
#
# Convention : Reuss Voigt Hill
#
# Bulk Modulus (GPa) = 72.56535 73.76959 73.16747
# Shear Modulus (GPa) = 26.99509 27.99354 27.49432
#
# Velocity S-wave (km/s) = 3.53660 3.60140 3.56915
# Velocity P-wave (km/s) = 7.09211 7.17445 7.13340
#
# Compressibility (1/GPa) = 0.01378068
#
# Stress axis : x y z
#
# Youngs Moduli (GPa) = 58.60930 86.24223 71.89737
#
# Poissons Ratio (x) = 0.28885 0.55795
# Poissons Ratio (y) = 0.19630 0.23604
# Poissons Ratio (z) = 0.45483 0.28314
#
# Static dielectric constant tensor:
#      x y z
#    x 3.977190 0.000000 0.000000 
#    y 0.000000 3.745470 0.000000 
#    z 0.000000 0.000000 4.239230 
# 
# 
# High freq. dielectric constant tensor:
#      x y z
#    x 1.854740 0.000000 0.000000 
#    y 0.000000 1.834560 0.000000 
#    z 0.000000 0.000000 1.874580 
# 
# From -- ./inp_files/6201.got.cif
#   From: 2010.03.12/outbox.cif.g09.slc.cpg/sg45_4_cif.got.tgz:6201.got - 2010.04.14 02:50:11.
