data_PCOD8190954
_publ_section_title
;
Structure prediction by ZEFSAII (Michael W. Deem and Ramdas Pophale) SiO2 
 PCOD8190954
Probable space group: I B A 2
;
_chemical_formula_sum "Si O2"
_cell_formula_units_Z 32
_cell_length_a 9.164219
_cell_length_b 12.345466
_cell_length_c 12.882614
_cell_angle_alpha 90.000000
_cell_angle_beta 90.000000
_cell_angle_gamma 90.000000
_cell_volume 1457.494556
_symmetry_space_group_name_H-M "I B A 2"
_symmetry_group_IT_number 45
_symmetry_cell_setting 'orthorhombic'
loop_
_space_group_symop_operation_xyz
x,y,z
-x,-y,z
-x,y,1/2+z
x,-y,1/2+z
1/2+x,1/2+y,1/2+z
1/2-x,1/2-y,1/2+z
1/2-x,1/2+y,z
1/2+x,1/2-y,z
loop_
_atom_site_type_symbol
_atom_site_label
_atom_site_fract_x
_atom_site_fract_y
_atom_site_fract_z
Si Si1 0.115687 0.590230 0.648270
Si Si2 0.255547 0.867324 0.934059
Si Si3 0.145659 0.047669 0.800326
Si Si4 0.005092 0.265227 0.326046
O O1 0.215478 0.639673 0.556790
O O2 0.221748 0.524428 0.723960
O O3 0.048494 0.692079 0.711638
O O4 0.000000 0.500000 0.608575
O O5 0.144220 0.773487 0.894019
O O6 0.417540 0.860240 0.884182
O O7 0.183469 0.983423 0.906570
O O8 0.119123 0.173407 0.819776
O O9 0.000000 0.000000 0.748028
#
# Coordination Sequence:
#
# PCOD8190954 Si02
#       4
#     8   8   8   8
#     4  12  26  43  75 105 142 190 239 297 366 428
#     4  11  26  44  72 101 141 190 230 298 359 427
#     4  10  24  48  67  99 144 184 234 300 353 433
#     4  11  24  47  70 102 144 179 244 295 351 431
#
# _framework density 21.955484999999999
#
# number of rings (size 3 to 8) (size 9 to 14) (size 15 to 20)
#    0.000    1.000    5.000    0.000    7.000    3.000 
#    4.500    0.000    0.000    0.000    0.000    0.000 
#    0.000    0.000    0.000    0.000    0.000    0.000 
#
# Total GULP energy -198297.810409 kJ/mol
# GULP energy per Si atom -12393.613151 kJ/mol
# Density = 2.190551 g / cm^3
# Si number density = 21.955485 Si / 1000 Ang^3
#
#
#
# Elastic Constant Matrix: (Units=GPa)
#
#
# Indices 1 2 3 4 5 6 
#
# 1 120.4986 47.6804 41.9266 0.0000 0.0000 0.0000
# 2 47.6804 105.1546 41.9461 0.0000 0.0000 0.0000
# 3 41.9266 41.9461 104.0296 0.0000 0.0000 0.0000
# 4 0.0000 0.0000 0.0000 31.0470 0.0000 0.0000
# 5 0.0000 0.0000 0.0000 0.0000 26.2454 0.0000
# 6 0.0000 0.0000 0.0000 0.0000 0.0000 40.0303
#
#
#
# Elastic Compliance Matrix: (Units=1/GPa)
#
#
# Indices 1 2 3 4 5 6 
#
# 1 0.010768 -0.003755 -0.002826 0.000000 0.000000 0.000000
# 2 -0.003755 0.012642 -0.003584 0.000000 0.000000 0.000000
# 3 -0.002826 -0.003584 0.012197 0.000000 0.000000 0.000000
# 4 0.000000 0.000000 0.000000 0.032209 0.000000 0.000000
# 5 0.000000 0.000000 0.000000 0.000000 0.038102 0.000000
# 6 0.000000 0.000000 0.000000 0.000000 0.000000 0.024981
#
#
# Mechanical properties :
#
#
# Convention : Reuss Voigt Hill
#
# Bulk Modulus (GPa) = 65.45847 65.86544 65.66195
# Shear Modulus (GPa) = 31.98540 32.67317 32.32929
#
# Velocity S-wave (km/s) = 3.82098 3.86185 3.84147
# Velocity P-wave (km/s) = 7.02463 7.06752 7.04611
#
# Compressibility (1/GPa) = 0.01527686
#
# Stress axis : x y z
#
# Youngs Moduli (GPa) = 92.86799 79.09954 81.99053
#
# Poissons Ratio (x) = 0.29705 0.23167
# Poissons Ratio (y) = 0.34876 0.29385
# Poissons Ratio (z) = 0.26240 0.28349
#
# Static dielectric constant tensor:
#      x y z
#    x 4.242140 0.000000 0.000000 
#    y 0.000000 3.884310 0.000000 
#    z 0.000000 0.000000 3.611400 
# 
# 
# High freq. dielectric constant tensor:
#      x y z
#    x 1.894410 0.000000 0.000000 
#    y 0.000000 1.862030 0.000000 
#    z 0.000000 0.000000 1.836190 
# 
# From -- ./inp_files/3039.got.cif
#   From: 2010.03.12/outbox.cif.g09.slc.cpg/sg45_2_cif.got.tgz:3039.got - 2010.04.14 02:50:11.
