data_PCOD8190061
_publ_section_title
;
Structure prediction by ZEFSAII (Michael W. Deem and Ramdas Pophale) SiO2 
 PCOD8190061
Probable space group: I M M 2
;
_chemical_formula_sum "Si O2"
_cell_formula_units_Z 64
_cell_length_a 32.917395
_cell_length_b 8.682494
_cell_length_c 11.608611
_cell_angle_alpha 90.000000
_cell_angle_beta 90.000000
_cell_angle_gamma 90.000000
_cell_volume 3317.800049
_symmetry_space_group_name_H-M "I M M 2"
_symmetry_group_IT_number 44
_symmetry_cell_setting 'orthorhombic'
loop_
_space_group_symop_operation_xyz
x,y,z
-x,-y,z
-x,y,z
x,-y,z
1/2+x,1/2+y,1/2+z
1/2-x,1/2-y,1/2+z
1/2-x,1/2+y,1/2+z
1/2+x,1/2-y,1/2+z
loop_
_atom_site_type_symbol
_atom_site_label
_atom_site_fract_x
_atom_site_fract_y
_atom_site_fract_z
Si Si1 0.044206 0.819472 0.886930
Si Si2 0.152642 0.681931 0.504779
Si Si3 0.691202 0.678830 0.588666
Si Si4 0.815574 0.670379 0.854190
Si Si5 0.276054 0.319904 0.140754
Si Si6 0.124009 0.318682 0.250451
Si Si7 0.397028 0.831267 0.217401
Si Si8 0.547269 0.681371 0.642919
O O1 0.071285 0.780013 0.777562
O O2 0.000000 0.746370 0.864096
O O3 0.040433 0.000000 0.895751
O O4 0.059510 0.763291 0.013064
O O5 0.159535 0.500000 0.518354
O O6 0.195425 0.762485 0.535498
O O7 0.137648 0.728973 0.378746
O O8 0.117821 0.737098 0.594821
O O9 0.701237 0.500000 0.609061
O O10 0.680581 0.707249 0.456096
O O11 0.729480 0.785558 0.615129
O O12 0.652689 0.726760 0.663983
O O13 0.800694 0.500000 0.895346
O O14 0.784729 0.733266 0.759401
O O15 0.859500 0.653774 0.801462
O O16 0.283003 0.500000 0.157854
O O17 0.129029 0.500000 0.230640
O O18 0.077078 0.270612 0.230604
O O19 0.416856 0.000000 0.199786
O O20 0.500000 0.723243 0.668828
O O21 0.554185 0.500000 0.658761
#
# Coordination Sequence:
#
# PCOD8190061 Si02
#       8
#     8   8   8   8   8   8   8   8
#     4   9  18  32  52  80 113 146 180 226 283 343
#     4   9  21  41  59  78 113 155 194 239 291 348
#     4  12  25  39  58  84 117 152 190 240 293 346
#     4  10  21  39  59  82 111 143 185 232 283 341
#     4  11  23  39  60  85 113 149 192 237 292 349
#     4  11  23  39  60  86 116 153 201 249 296 356
#     4   9  18  34  56  79 105 140 180 227 278 332
#     4   9  19  37  59  84 118 156 193 239 300 362
#
# _framework density 19.289891999999998
#
# number of rings (size 3 to 8) (size 9 to 14) (size 15 to 20)
#    0.000    2.000    0.000    5.250    1.750    6.500 
#    0.000    1.875    0.000    3.750    0.000    0.000 
#    0.000    0.000    0.000    0.000    0.000    0.000 
#
# Total GULP energy -396740.247326 kJ/mol
# GULP energy per Si atom -12398.132729 kJ/mol
# Density = 1.924599 g / cm^3
# Si number density = 19.289892 Si / 1000 Ang^3
#
#
#
# Elastic Constant Matrix: (Units=GPa)
#
#
# Indices 1 2 3 4 5 6 
#
# 1 82.1617 29.1903 60.5155 0.0000 0.0000 0.0000
# 2 29.1903 64.7537 14.6579 0.0000 0.0000 0.0000
# 3 60.5155 14.6579 84.8720 0.0000 0.0000 0.0000
# 4 0.0000 0.0000 0.0000 10.7004 0.0000 0.0000
# 5 0.0000 0.0000 0.0000 0.0000 13.1114 0.0000
# 6 0.0000 0.0000 0.0000 0.0000 0.0000 41.2981
#
#
#
# Elastic Compliance Matrix: (Units=1/GPa)
#
#
# Indices 1 2 3 4 5 6 
#
# 1 0.029968 -0.009025 -0.019809 0.000000 0.000000 0.000000
# 2 -0.009025 0.018789 0.003190 0.000000 0.000000 0.000000
# 3 -0.019809 0.003190 0.025356 0.000000 0.000000 0.000000
# 4 0.000000 0.000000 0.000000 0.093455 0.000000 0.000000
# 5 0.000000 0.000000 0.000000 0.000000 0.076270 0.000000
# 6 0.000000 0.000000 0.000000 0.000000 0.000000 0.024214
#
#
# Mechanical properties :
#
#
# Convention : Reuss Voigt Hill
#
# Bulk Modulus (GPa) = 43.81184 48.94608 46.37896
# Shear Modulus (GPa) = 15.29300 21.51688 18.40494
#
# Velocity S-wave (km/s) = 2.81872 3.34346 3.09224
# Velocity P-wave (km/s) = 5.77540 6.35090 6.06998
#
# Compressibility (1/GPa) = 0.02282488
#
# Stress axis : x y z
#
# Youngs Moduli (GPa) = 33.36948 53.22136 39.43909
#
# Poissons Ratio (x) = 0.48033 0.78124
# Poissons Ratio (y) = 0.30116 -0.12581
# Poissons Ratio (z) = 0.66101 -0.16978
#
# Static dielectric constant tensor:
#      x y z
#    x 3.548680 0.000000 0.000000 
#    y 0.000000 3.572380 0.000000 
#    z 0.000000 0.000000 3.808250 
# 
# 
# High freq. dielectric constant tensor:
#      x y z
#    x 1.748390 0.000000 0.000000 
#    y 0.000000 1.749850 0.000000 
#    z 0.000000 0.000000 1.749590 
# 
# From -- ./inp_files/15090.got.cif
#   From: 2010.03.12/outbox.cif.g09.slc.cpg/sg44_8_cif.got.tgz:15090.got - 2010.04.14 02:36:11.
