data_PCOD8190478
_publ_section_title
;
Structure prediction by ZEFSAII (Michael W. Deem and Ramdas Pophale) SiO2 
 PCOD8190478
Probable space group: I B A 2
;
_chemical_formula_sum "Si O2"
_cell_formula_units_Z 64
_cell_length_a 9.303357
_cell_length_b 15.933278
_cell_length_c 18.684052
_cell_angle_alpha 90.000000
_cell_angle_beta 90.000000
_cell_angle_gamma 90.000000
_cell_volume 2769.592583
_symmetry_space_group_name_H-M "I B A 2"
_symmetry_group_IT_number 45
_symmetry_cell_setting 'orthorhombic'
loop_
_space_group_symop_operation_xyz
x,y,z
-x,-y,z
-x,y,1/2+z
x,-y,1/2+z
1/2+x,1/2+y,1/2+z
1/2-x,1/2-y,1/2+z
1/2-x,1/2+y,z
1/2+x,1/2-y,z
loop_
_atom_site_type_symbol
_atom_site_label
_atom_site_fract_x
_atom_site_fract_y
_atom_site_fract_z
Si Si1 0.550333 0.166816 0.278460
Si Si2 0.166218 0.861183 0.912196
Si Si3 0.053802 0.279916 0.579264
Si Si4 0.338350 0.480436 0.046314
Si Si5 0.217649 0.838064 0.758631
Si Si6 0.663475 0.647859 0.603748
Si Si7 0.394393 0.924070 0.150832
Si Si8 0.526286 0.790976 0.427323
O O1 0.386413 0.178702 0.253324
O O2 0.639105 0.249436 0.260983
O O3 0.624735 0.086354 0.237594
O O4 0.547474 0.153411 0.364576
O O5 0.176262 0.892993 0.829594
O O6 0.300572 0.798183 0.925463
O O7 0.020199 0.807441 0.921707
O O8 0.169712 0.939625 0.967391
O O9 0.223438 0.275041 0.595774
O O10 0.028048 0.324923 0.503024
O O11 0.993050 0.184047 0.581171
O O12 0.972678 0.335748 0.637015
O O13 0.500000 0.500000 0.073374
O O14 0.277749 0.575822 0.049649
O O15 0.252800 0.427183 0.106000
O O16 0.166348 0.885828 0.686138
O O17 0.500000 0.000000 0.130767
#
# Coordination Sequence:
#
# PCOD8190478 Si02
#       8
#     8   8   8   8   8   8   8   8
#     4  10  21  38  66  97 135 175 226 281 353 413
#     4  10  22  41  66  97 139 174 232 291 352 422
#     4  12  23  39  70 102 135 177 235 285 344 431
#     4  12  27  44  63 100 142 187 230 300 359 417
#     4  10  19  39  65 100 129 177 229 284 340 430
#     4  12  24  41  69 101 135 177 233 285 356 421
#     4  12  23  44  65  98 141 177 229 296 351 426
#     4  10  21  39  66  99 131 181 227 284 342 436
#
# _framework density 23.108093
#
# number of rings (size 3 to 8) (size 9 to 14) (size 15 to 20)
#    0.000    1.000    5.000    1.500    1.750    1.000 
#    0.000    5.000    0.000    0.000    0.000    0.000 
#    0.000    0.000    0.000    0.000    0.000    0.000 
#
# Total GULP energy -396475.423294 kJ/mol
# GULP energy per Si atom -12389.856978 kJ/mol
# Density = 2.305550 g / cm^3
# Si number density = 23.108093 Si / 1000 Ang^3
#
#
#
# Elastic Constant Matrix: (Units=GPa)
#
#
# Indices 1 2 3 4 5 6 
#
# 1 89.9120 25.5537 47.7306 0.0000 0.0000 0.0000
# 2 25.5537 78.4940 49.9010 0.0000 0.0000 0.0000
# 3 47.7306 49.9010 177.7990 0.0000 0.0000 0.0000
# 4 0.0000 0.0000 0.0000 36.0625 0.0000 0.0000
# 5 0.0000 0.0000 0.0000 0.0000 28.3141 0.0000
# 6 0.0000 0.0000 0.0000 0.0000 0.0000 19.8390
#
#
#
# Elastic Compliance Matrix: (Units=1/GPa)
#
#
# Indices 1 2 3 4 5 6 
#
# 1 0.013368 -0.002520 -0.002881 0.000000 0.000000 0.000000
# 2 -0.002520 0.015982 -0.003809 0.000000 0.000000 0.000000
# 3 -0.002881 -0.003809 0.007467 0.000000 0.000000 0.000000
# 4 0.000000 0.000000 0.000000 0.027730 0.000000 0.000000
# 5 0.000000 0.000000 0.000000 0.000000 0.035318 0.000000
# 6 0.000000 0.000000 0.000000 0.000000 0.000000 0.050406
#
#
# Mechanical properties :
#
#
# Convention : Reuss Voigt Hill
#
# Bulk Modulus (GPa) = 54.36073 65.84173 60.10123
# Shear Modulus (GPa) = 28.60043 31.71108 30.15576
#
# Velocity S-wave (km/s) = 3.52188 3.70847 3.61638
# Velocity P-wave (km/s) = 6.33355 6.84776 6.59566
#
# Compressibility (1/GPa) = 0.01839563
#
# Stress axis : x y z
#
# Youngs Moduli (GPa) = 74.80654 62.57163 133.92576
#
# Poissons Ratio (x) = 0.15769 0.38588
# Poissons Ratio (y) = 0.18852 0.51011
# Poissons Ratio (z) = 0.21554 0.23833
#
# Static dielectric constant tensor:
#      x y z
#    x 4.236050 0.000000 0.000000 
#    y 0.000000 3.942810 0.000000 
#    z 0.000000 0.000000 4.756260 
# 
# 
# High freq. dielectric constant tensor:
#      x y z
#    x 1.917670 0.000000 0.000000 
#    y 0.000000 1.873690 0.000000 
#    z 0.000000 0.000000 1.936510 
# 
# From -- ./inp_files/8948.got.cif
#   From: 2010.03.12/outbox.cif.g09.slc.cpg/sg45_5_cif.got.tgz:8948.got - 2010.04.14 02:50:11.
