data_PCOD8190786
_publ_section_title
;
Structure prediction by ZEFSAII (Michael W. Deem and Ramdas Pophale) SiO2 
 PCOD8190786
Probable space group: I B A 2
;
_chemical_formula_sum "Si O2"
_cell_formula_units_Z 52
_cell_length_a 15.726576
_cell_length_b 9.521284
_cell_length_c 16.734172
_cell_angle_alpha 90.000000
_cell_angle_beta 90.000000
_cell_angle_gamma 90.000000
_cell_volume 2505.728000
_symmetry_space_group_name_H-M "I B A 2"
_symmetry_group_IT_number 45
_symmetry_cell_setting 'orthorhombic'
loop_
_space_group_symop_operation_xyz
x,y,z
-x,-y,z
-x,y,1/2+z
x,-y,1/2+z
1/2+x,1/2+y,1/2+z
1/2-x,1/2-y,1/2+z
1/2-x,1/2+y,z
1/2+x,1/2-y,z
loop_
_atom_site_type_symbol
_atom_site_label
_atom_site_fract_x
_atom_site_fract_y
_atom_site_fract_z
Si Si1 0.107648 0.274386 0.140650
Si Si2 0.251972 0.215088 0.262070
Si Si3 0.682320 0.473462 0.858673
Si Si4 0.646780 0.922735 0.123976
Si Si5 0.050627 0.173328 0.558957
Si Si6 0.000000 0.000000 0.416303
Si Si7 0.187457 0.061491 0.040673
O O1 0.160180 0.235898 0.220039
O O2 0.087516 0.441256 0.139131
O O3 0.165099 0.221064 0.066098
O O4 0.016713 0.193999 0.131938
O O5 0.289127 0.359400 0.294626
O O6 0.326735 0.155255 0.205562
O O7 0.232176 0.114640 0.336285
O O8 0.580370 0.491034 0.857793
O O9 0.709175 0.436738 0.947992
O O10 0.605732 0.816407 0.059096
O O11 0.730456 0.993053 0.086786
O O12 0.004431 0.141051 0.473369
O O13 0.111050 0.038928 0.570883
#
# Coordination Sequence:
#
# PCOD8190786 Si02
#       7
#     8   8   8   8   8   4   8
#     4  11  21  42  62  98 129 172 227 278 336 394
#     4  11  25  42  64  98 140 183 217 276 345 414
#     4  11  24  43  65  97 139 177 229 271 347 412
#     4  11  24  39  65  98 130 174 226 276 339 392
#     4  11  21  41  69  95 128 167 235 283 322 391
#     4  10  24  44  68 104 128 184 230 280 344 404
#     4  10  22  40  68  91 127 175 230 274 328 408
#
# _framework density 20.752452999999999
#
# number of rings (size 3 to 8) (size 9 to 14) (size 15 to 20)
#    0.000    1.231    4.615    2.308    8.615    1.231 
#    0.000    0.000    0.000    0.000    0.000    0.000 
#    0.000    0.000    0.000    0.000    0.000    0.000 
#
# Total GULP energy -322168.637127 kJ/mol
# GULP energy per Si atom -12391.101428 kJ/mol
# Density = 2.070522 g / cm^3
# Si number density = 20.752453 Si / 1000 Ang^3
#
#
#
# Elastic Constant Matrix: (Units=GPa)
#
#
# Indices 1 2 3 4 5 6 
#
# 1 81.4554 26.2567 33.7796 0.0000 0.0000 0.0000
# 2 26.2567 115.6631 31.5729 0.0000 0.0000 0.0000
# 3 33.7796 31.5729 83.3632 0.0000 0.0000 0.0000
# 4 0.0000 0.0000 0.0000 25.7267 0.0000 0.0000
# 5 0.0000 0.0000 0.0000 0.0000 39.4430 0.0000
# 6 0.0000 0.0000 0.0000 0.0000 0.0000 38.1957
#
#
#
# Elastic Compliance Matrix: (Units=1/GPa)
#
#
# Indices 1 2 3 4 5 6 
#
# 1 0.015147 -0.001966 -0.005393 0.000000 0.000000 0.000000
# 2 -0.001966 0.009898 -0.002952 0.000000 0.000000 0.000000
# 3 -0.005393 -0.002952 0.015299 0.000000 0.000000 0.000000
# 4 0.000000 0.000000 0.000000 0.038870 0.000000 0.000000
# 5 0.000000 0.000000 0.000000 0.000000 0.025353 0.000000
# 6 0.000000 0.000000 0.000000 0.000000 0.000000 0.026181
#
#
# Mechanical properties :
#
#
# Convention : Reuss Voigt Hill
#
# Bulk Modulus (GPa) = 50.70641 51.52223 51.11432
# Shear Modulus (GPa) = 31.65667 33.26456 32.46061
#
# Velocity S-wave (km/s) = 3.90993 4.00799 3.95926
# Velocity P-wave (km/s) = 6.69853 6.80438 6.75167
#
# Compressibility (1/GPa) = 0.01972137
#
# Stress axis : x y z
#
# Youngs Moduli (GPa) = 66.01978 101.03052 65.36370
#
# Poissons Ratio (x) = 0.19866 0.35250
# Poissons Ratio (y) = 0.12982 0.19295
# Poissons Ratio (z) = 0.35604 0.29824
#
# Static dielectric constant tensor:
#      x y z
#    x 4.012180 0.000000 0.000000 
#    y 0.000000 3.839900 0.000000 
#    z 0.000000 0.000000 3.528690 
# 
# 
# High freq. dielectric constant tensor:
#      x y z
#    x 1.823280 0.000000 0.000000 
#    y 0.000000 1.816580 0.000000 
#    z 0.000000 0.000000 1.789340 
# 
# From -- ./inp_files/8328.got.cif
#   From: 2010.03.12/outbox.cif.g09.slc.cpg/sg45_5_cif.got.tgz:8328.got - 2010.04.14 02:50:11.
