data_PCOD8190781
_publ_section_title
;
Structure prediction by ZEFSAII (Michael W. Deem and Ramdas Pophale) SiO2 
 PCOD8190781
Probable space group: I B A 2
;
_chemical_formula_sum "Si O2"
_cell_formula_units_Z 32
_cell_length_a 9.015235
_cell_length_b 15.764114
_cell_length_c 8.854978
_cell_angle_alpha 90.000000
_cell_angle_beta 90.000000
_cell_angle_gamma 90.000000
_cell_volume 1258.444611
_symmetry_space_group_name_H-M "I B A 2"
_symmetry_group_IT_number 45
_symmetry_cell_setting 'orthorhombic'
loop_
_space_group_symop_operation_xyz
x,y,z
-x,-y,z
-x,y,1/2+z
x,-y,1/2+z
1/2+x,1/2+y,1/2+z
1/2-x,1/2-y,1/2+z
1/2-x,1/2+y,z
1/2+x,1/2-y,z
loop_
_atom_site_type_symbol
_atom_site_label
_atom_site_fract_x
_atom_site_fract_y
_atom_site_fract_z
Si Si1 0.843580 0.757850 0.561470
Si Si2 0.500000 0.500000 0.446332
Si Si3 0.114435 0.821724 0.391049
Si Si4 0.500000 0.000000 0.760681
Si Si5 0.199132 0.574086 0.514091
O O1 0.850530 0.768900 0.740663
O O2 0.764000 0.671494 0.497505
O O3 0.735212 0.828438 0.491480
O O4 0.004515 0.765365 0.490980
O O5 0.451031 0.415631 0.350738
O O6 0.354802 0.523753 0.545387
O O7 0.411258 0.066015 0.655895
O O8 0.622384 0.046848 0.859381
#
# Coordination Sequence:
#
# PCOD8190781 Si02
#       5
#     8   4   8   4   8
#     4  11  25  44  69 101 139 187 242 304 373 451
#     4  10  24  46  72 102 144 196 252 308 378 460
#     4  11  25  45  71 105 144 190 246 307 377 452
#     4  10  22  40  64  98 138 182 238 304 376 446
#     4  10  23  41  66  97 136 185 241 305 373 449
#
# _framework density 25.428214000000001
#
# number of rings (size 3 to 8) (size 9 to 14) (size 15 to 20)
#    0.000    1.500    0.000    3.000    0.000   23.000 
#    0.000    0.000    0.000    1.500    0.000    0.000 
#    0.000    0.000    0.000    0.000    0.000    0.000 
#
# Total GULP energy -198276.397192 kJ/mol
# GULP energy per Si atom -12392.274825 kJ/mol
# Density = 2.537034 g / cm^3
# Si number density = 25.428214 Si / 1000 Ang^3
#
#
#
# Elastic Constant Matrix: (Units=GPa)
#
#
# Indices 1 2 3 4 5 6 
#
# 1 138.9468 20.6683 49.2697 0.0001 0.0000 0.0000
# 2 20.6683 47.0019 18.3964 -0.0003 0.0001 0.0000
# 3 49.2697 18.3964 157.6532 -0.0002 0.0001 -0.0001
# 4 0.0001 -0.0003 -0.0002 22.4970 0.0001 0.0000
# 5 0.0000 0.0001 0.0001 0.0001 37.8507 0.0000
# 6 0.0000 0.0000 -0.0001 0.0000 0.0000 53.2122
#
#
#
# Elastic Compliance Matrix: (Units=1/GPa)
#
#
# Indices 1 2 3 4 5 6 
#
# 1 0.008433 -0.002805 -0.002308 0.000000 0.000000 0.000000
# 2 -0.002805 0.023227 -0.001834 0.000000 0.000000 0.000000
# 3 -0.002308 -0.001834 0.007278 0.000000 0.000000 0.000000
# 4 0.000000 0.000000 0.000000 0.044450 0.000000 0.000000
# 5 0.000000 0.000000 0.000000 0.000000 0.026420 0.000000
# 6 0.000000 0.000000 0.000000 0.000000 0.000000 0.018793
#
#
# Mechanical properties :
#
#
# Convention : Reuss Voigt Hill
#
# Bulk Modulus (GPa) = 39.92880 57.80788 48.86834
# Shear Modulus (GPa) = 33.14731 39.72982 36.43856
#
# Velocity S-wave (km/s) = 3.61441 3.95705 3.78960
# Velocity P-wave (km/s) = 5.75806 6.60763 6.19742
#
# Compressibility (1/GPa) = 0.02504458
#
# Stress axis : x y z
#
# Youngs Moduli (GPa) = 118.58688 43.05371 137.39403
#
# Poissons Ratio (x) = 0.12075 0.31712
# Poissons Ratio (y) = 0.33261 0.25195
# Poissons Ratio (z) = 0.27371 0.07895
#
# Static dielectric constant tensor:
#      x y z
#    x 5.212670 0.000000 0.000000 
#    y 0.000000 4.584790 0.000000 
#    z 0.000000 0.000000 4.269520 
# 
# 
# High freq. dielectric constant tensor:
#      x y z
#    x 2.047470 0.000000 0.000000 
#    y 0.000000 2.005630 0.000000 
#    z 0.000000 0.000000 2.003730 
# 
# From -- ./inp_files/885.got.cif
#   From: 2010.03.12/outbox.cif.g09.slc.cpg/sg45_1_cif.got.tgz:885.got - 2010.04.14 02:50:11.
