data_PCOD8190850
_publ_section_title
;
Structure prediction by ZEFSAII (Michael W. Deem and Ramdas Pophale) SiO2 
 PCOD8190850
Probable space group: I B A 2
;
_chemical_formula_sum "Si O2"
_cell_formula_units_Z 48
_cell_length_a 8.459394
_cell_length_b 29.232837
_cell_length_c 8.781942
_cell_angle_alpha 90.000000
_cell_angle_beta 90.000000
_cell_angle_gamma 90.000000
_cell_volume 2171.704756
_symmetry_space_group_name_H-M "I B A 2"
_symmetry_group_IT_number 45
_symmetry_cell_setting 'orthorhombic'
loop_
_space_group_symop_operation_xyz
x,y,z
-x,-y,z
-x,y,1/2+z
x,-y,1/2+z
1/2+x,1/2+y,1/2+z
1/2-x,1/2-y,1/2+z
1/2-x,1/2+y,z
1/2+x,1/2-y,z
loop_
_atom_site_type_symbol
_atom_site_label
_atom_site_fract_x
_atom_site_fract_y
_atom_site_fract_z
Si Si1 0.436335 0.129342 0.548320
Si Si2 0.666204 0.524536 0.286420
Si Si3 0.223059 0.621487 0.864061
Si Si4 0.720937 0.714852 0.974362
Si Si5 0.356255 0.030294 0.500207
Si Si6 0.091335 0.790425 0.307682
O O1 0.623965 0.136312 0.514916
O O2 0.405305 0.122992 0.727152
O O3 0.330814 0.170101 0.480593
O O4 0.401909 0.082008 0.461399
O O5 0.500000 0.500000 0.313033
O O6 0.685731 0.572918 0.376054
O O7 0.702036 0.531254 0.109031
O O8 0.804241 0.491396 0.342090
O O9 0.359676 0.657705 0.837001
O O10 0.632507 0.724208 0.134983
O O11 0.828651 0.757772 0.932249
O O12 0.595933 0.710460 0.836660
O O13 0.500000 0.000000 0.568518
#
# Coordination Sequence:
#
# PCOD8190850 Si02
#       6
#     8   8   8   8   8   8
#     4  10  23  40  63  93 126 165 213 267 316 391
#     4  11  24  40  62  93 130 168 215 272 326 388
#     4  10  23  42  62  94 128 166 217 264 326 387
#     4  11  24  43  67  96 131 169 219 267 332 392
#     4  11  22  41  64  92 125 171 220 263 325 389
#     4  11  24  43  66  96 130 172 214 271 327 396
#
# _framework density 22.102450999999999
#
# number of rings (size 3 to 8) (size 9 to 14) (size 15 to 20)
#    0.000    1.333    1.667    3.000    4.667    5.333 
#    3.000    0.000    0.000    0.000    0.000    0.000 
#    0.000    0.000    0.000    0.000    0.000    0.000 
#
# Total GULP energy -297555.249264 kJ/mol
# GULP energy per Si atom -12398.135386 kJ/mol
# Density = 2.205214 g / cm^3
# Si number density = 22.102451 Si / 1000 Ang^3
#
#
#
# Elastic Constant Matrix: (Units=GPa)
#
#
# Indices 1 2 3 4 5 6 
#
# 1 102.7702 22.5826 20.1589 0.0032 0.0009 0.0004
# 2 22.5826 84.8605 23.6234 0.0085 0.0026 0.0012
# 3 20.1589 23.6234 47.0931 0.0068 0.0047 0.0015
# 4 0.0032 0.0085 0.0068 28.0418 0.0010 0.0004
# 5 0.0009 0.0026 0.0047 0.0010 36.0214 0.0012
# 6 0.0004 0.0012 0.0015 0.0004 0.0012 39.0276
#
#
#
# Elastic Compliance Matrix: (Units=1/GPa)
#
#
# Indices 1 2 3 4 5 6 
#
# 1 0.010868 -0.001856 -0.003721 0.000000 0.000000 0.000000
# 2 -0.001856 0.014014 -0.006235 -0.000003 0.000000 0.000000
# 3 -0.003721 -0.006235 0.025955 -0.000004 -0.000003 -0.000001
# 4 0.000000 -0.000003 -0.000004 0.035661 -0.000001 0.000000
# 5 0.000000 0.000000 -0.000003 -0.000001 0.027761 -0.000001
# 6 0.000000 0.000000 -0.000001 0.000000 -0.000001 0.025623
#
#
# Mechanical properties :
#
#
# Convention : Reuss Voigt Hill
#
# Bulk Modulus (GPa) = 36.74843 40.82816 38.78830
# Shear Modulus (GPa) = 28.97236 31.84208 30.40722
#
# Velocity S-wave (km/s) = 3.62445 3.79972 3.71312
# Velocity P-wave (km/s) = 5.84620 6.14515 5.99754
#
# Compressibility (1/GPa) = 0.02721205
#
# Stress axis : x y z
#
# Youngs Moduli (GPa) = 92.01099 71.35838 38.52802
#
# Poissons Ratio (x) = 0.13246 0.14337
# Poissons Ratio (y) = 0.17080 0.24023
# Poissons Ratio (z) = 0.34238 0.44493
#
# Static dielectric constant tensor:
#      x y z
#    x 4.012880 0.000000 0.000000 
#    y 0.000000 4.112560 0.000000 
#    z 0.000000 0.000000 3.849170 
# 
# 
# High freq. dielectric constant tensor:
#      x y z
#    x 1.867600 0.000000 0.000000 
#    y 0.000000 1.884500 0.000000 
#    z 0.000000 0.000000 1.863150 
# 
# From -- ./inp_files/1054.got.cif
#   From: 2010.03.12/outbox.cif.g09.slc.cpg/sg45_1_cif.got.tgz:1054.got - 2010.04.14 02:50:11.
