data_PCOD8190050
_publ_section_title
;
Structure prediction by ZEFSAII (Michael W. Deem and Ramdas Pophale) SiO2 
 PCOD8190050
Probable space group: I M M 2
;
_chemical_formula_sum "Si O2"
_cell_formula_units_Z 56
_cell_length_a 14.564110
_cell_length_b 20.943327
_cell_length_c 8.744063
_cell_angle_alpha 90.000000
_cell_angle_beta 90.000000
_cell_angle_gamma 90.000000
_cell_volume 2667.122125
_symmetry_space_group_name_H-M "I M M 2"
_symmetry_group_IT_number 44
_symmetry_cell_setting 'orthorhombic'
loop_
_space_group_symop_operation_xyz
x,y,z
-x,-y,z
-x,y,z
x,-y,z
1/2+x,1/2+y,1/2+z
1/2-x,1/2-y,1/2+z
1/2-x,1/2+y,1/2+z
1/2+x,1/2-y,1/2+z
loop_
_atom_site_type_symbol
_atom_site_label
_atom_site_fract_x
_atom_site_fract_y
_atom_site_fract_z
Si Si1 0.661774 0.728470 0.116850
Si Si2 0.100022 0.689950 0.347875
Si Si3 0.101469 0.870454 0.840068
Si Si4 0.105452 0.428766 0.973120
Si Si5 0.895884 0.813630 0.167477
Si Si6 0.766789 0.329174 0.853338
Si Si7 0.788811 0.429725 0.289615
O O1 0.597181 0.676322 0.195298
O O2 0.704825 0.769305 0.252015
O O3 0.600150 0.769444 0.002860
O O4 0.744936 0.694058 0.025212
O O5 0.120346 0.737753 0.205108
O O6 0.170195 0.631688 0.375427
O O7 0.000000 0.658982 0.325794
O O8 0.178422 0.923932 0.804313
O O9 0.000000 0.902200 0.857293
O O10 0.125580 0.828580 0.990848
O O11 0.105544 0.500000 0.903926
O O12 0.151763 0.381360 0.850573
O O13 0.000000 0.407754 0.009333
O O14 0.170663 0.425966 0.119932
O O15 0.827150 0.855821 0.273822
O O16 0.000000 0.832669 0.210224
O O17 0.815102 0.500000 0.357695
#
# Coordination Sequence:
#
# PCOD8190050 Si02
#       7
#     8   8   8   8   8   8   8
#     4  11  22  35  60  93 127 160 191 246 306 368
#     4  10  21  38  61  93 125 159 199 247 301 362
#     4  11  22  39  63  93 122 158 202 250 304 362
#     4  10  23  42  63  87 116 158 209 253 297 357
#     4   9  20  37  62  94 129 159 192 241 306 365
#     4  11  21  38  60  89 128 160 200 243 303 358
#     4  11  23  40  60  85 118 163 208 249 298 353
#
# _framework density 20.996414000000001
#
# number of rings (size 3 to 8) (size 9 to 14) (size 15 to 20)
#    0.000    1.571    1.429    4.286    2.000    2.857 
#    0.000    2.857    0.000    1.286    0.000    0.000 
#    0.000    0.000    0.000    0.000    0.000    0.000 
#
# Total GULP energy -346925.341425 kJ/mol
# GULP energy per Si atom -12390.190765 kJ/mol
# Density = 2.094862 g / cm^3
# Si number density = 20.996414 Si / 1000 Ang^3
#
#
#
# Elastic Constant Matrix: (Units=GPa)
#
#
# Indices 1 2 3 4 5 6 
#
# 1 152.8388 57.2182 35.4805 0.0000 0.0000 0.0000
# 2 57.2182 101.9763 33.4478 0.0000 0.0000 0.0000
# 3 35.4805 33.4478 80.4459 0.0000 0.0001 0.0000
# 4 0.0000 0.0000 0.0000 8.9295 0.0000 0.0000
# 5 0.0000 0.0000 0.0001 0.0000 32.2603 0.0000
# 6 0.0000 0.0000 0.0000 0.0000 0.0000 25.6783
#
#
#
# Elastic Compliance Matrix: (Units=1/GPa)
#
#
# Indices 1 2 3 4 5 6 
#
# 1 0.008568 -0.004131 -0.002061 0.000000 0.000000 0.000000
# 2 -0.004131 0.013347 -0.003727 0.000000 0.000000 0.000000
# 3 -0.002061 -0.003727 0.014889 0.000000 0.000000 0.000000
# 4 0.000000 0.000000 0.000000 0.111988 0.000000 0.000000
# 5 0.000000 0.000000 0.000000 0.000000 0.030998 0.000000
# 6 0.000000 0.000000 0.000000 0.000000 0.000000 0.038943
#
#
# Mechanical properties :
#
#
# Convention : Reuss Voigt Hill
#
# Bulk Modulus (GPa) = 58.94557 65.28378 62.11468
# Shear Modulus (GPa) = 20.47268 27.31460 23.89364
#
# Velocity S-wave (km/s) = 3.12598 3.61074 3.37707
# Velocity P-wave (km/s) = 6.41592 6.96732 6.69730
#
# Compressibility (1/GPa) = 0.01696480
#
# Stress axis : x y z
#
# Youngs Moduli (GPa) = 116.71346 74.92437 67.16163
#
# Poissons Ratio (x) = 0.30954 0.13843
# Poissons Ratio (y) = 0.48219 0.25032
# Poissons Ratio (z) = 0.24056 0.27926
#
# Static dielectric constant tensor:
#      x y z
#    x 4.157690 0.000000 0.000000 
#    y 0.000000 3.739060 0.000000 
#    z 0.000000 0.000000 3.719690 
# 
# 
# High freq. dielectric constant tensor:
#      x y z
#    x 1.843400 0.000000 0.000000 
#    y 0.000000 1.791960 0.000000 
#    z 0.000000 0.000000 1.810940 
# 
# From -- ./inp_files/7402.got.cif
#   From: 2010.03.12/outbox.cif.g09.slc.cpg/sg44_4_cif.got.tgz:7402.got - 2010.04.14 02:36:11.
