data_PCOD8190207
_publ_section_title
;
Structure prediction by ZEFSAII (Michael W. Deem and Ramdas Pophale) SiO2 
 PCOD8190207
Probable space group: I M M 2
;
_chemical_formula_sum "Si O2"
_cell_formula_units_Z 64
_cell_length_a 8.962117
_cell_length_b 22.025502
_cell_length_c 15.412950
_cell_angle_alpha 90.000000
_cell_angle_beta 90.000000
_cell_angle_gamma 90.000000
_cell_volume 3042.441206
_symmetry_space_group_name_H-M "I M M 2"
_symmetry_group_IT_number 44
_symmetry_cell_setting 'orthorhombic'
loop_
_space_group_symop_operation_xyz
x,y,z
-x,-y,z
-x,y,z
x,-y,z
1/2+x,1/2+y,1/2+z
1/2-x,1/2-y,1/2+z
1/2-x,1/2+y,1/2+z
1/2+x,1/2-y,1/2+z
loop_
_atom_site_type_symbol
_atom_site_label
_atom_site_fract_x
_atom_site_fract_y
_atom_site_fract_z
Si Si1 0.675111 0.431861 0.441980
Si Si2 0.174848 0.809632 0.709190
Si Si3 0.835741 0.427874 0.967646
Si Si4 0.171501 0.066659 0.635727
Si Si5 0.831793 0.243158 0.051977
Si Si6 0.337536 0.389811 0.624708
Si Si7 0.823894 0.432877 0.782348
Si Si8 0.678222 0.809096 0.886654
O O1 0.500000 0.416644 0.427534
O O2 0.712467 0.500000 0.406302
O O3 0.713428 0.432020 0.544615
O O4 0.771150 0.379485 0.396111
O O5 0.197253 0.883268 0.710031
O O6 0.241135 0.784737 0.619163
O O7 0.262256 0.784820 0.793435
O O8 0.000000 0.792480 0.715099
O O9 0.843812 0.500000 0.963897
O O10 0.767107 0.406008 0.875000
O O11 0.000000 0.400184 0.982107
O O12 0.736757 0.405526 0.046970
O O13 0.000000 0.057127 0.617018
O O14 0.241061 0.000000 0.660736
O O15 0.844917 0.178028 0.093301
O O16 0.000000 0.268918 0.036142
O O17 0.745516 0.235658 0.960161
O O18 0.500000 0.411129 0.658096
O O19 0.222483 0.390397 0.703553
O O20 0.757271 0.500000 0.765232
O O21 0.000000 0.436256 0.788149
O O22 0.500000 0.805692 0.889744
#
# Coordination Sequence:
#
# PCOD8190207 Si02
#       8
#     8   8   8   8   8   8   8   8
#     4   9  18  34  56  83 119 161 201 244 300 362
#     4  11  23  41  65  92 120 156 200 246 300 363
#     4   8  15  29  47  69 103 145 185 227 276 331
#     4   9  19  36  58  85 116 149 186 232 288 350
#     4  10  22  43  64  84 115 156 201 252 305 356
#     4   9  18  32  51  76 107 146 192 242 292 346
#     4   9  17  28  44  71 108 148 190 236 286 342
#     4  11  23  40  63  91 123 158 200 253 305 362
#
# _framework density 21.035740000000001
#
# number of rings (size 3 to 8) (size 9 to 14) (size 15 to 20)
#    0.000    2.500    0.000    3.750    0.000    5.500 
#    2.250    2.500    0.000    0.000    0.000    0.000 
#    0.000    0.000    0.000    0.000    0.000    0.000 
#
# Total GULP energy -396520.431969 kJ/mol
# GULP energy per Si atom -12391.263499 kJ/mol
# Density = 2.098786 g / cm^3
# Si number density = 21.035740 Si / 1000 Ang^3
#
#
#
# Elastic Constant Matrix: (Units=GPa)
#
#
# Indices 1 2 3 4 5 6 
#
# 1 104.0284 27.1610 57.6682 0.0000 0.0000 0.0000
# 2 27.1610 46.0053 29.1340 0.0001 0.0000 0.0000
# 3 57.6682 29.1340 124.9221 0.0003 -0.0001 0.0000
# 4 0.0000 0.0001 0.0003 19.7585 0.0000 0.0000
# 5 0.0000 0.0000 -0.0001 0.0000 37.2590 0.0000
# 6 0.0000 0.0000 0.0000 0.0000 0.0000 23.6991
#
#
#
# Elastic Compliance Matrix: (Units=1/GPa)
#
#
# Indices 1 2 3 4 5 6 
#
# 1 0.013772 -0.004816 -0.005234 0.000000 0.000000 0.000000
# 2 -0.004816 0.027187 -0.004117 0.000000 0.000000 0.000000
# 3 -0.005234 -0.004117 0.011382 0.000000 0.000000 0.000000
# 4 0.000000 0.000000 0.000000 0.050611 0.000000 0.000000
# 5 0.000000 0.000000 0.000000 0.000000 0.026839 0.000000
# 6 0.000000 0.000000 0.000000 0.000000 0.000000 0.042196
#
#
# Mechanical properties :
#
#
# Convention : Reuss Voigt Hill
#
# Bulk Modulus (GPa) = 41.65727 55.87578 48.76653
# Shear Modulus (GPa) = 24.00110 26.87617 25.43864
#
# Velocity S-wave (km/s) = 3.38149 3.57829 3.48128
# Velocity P-wave (km/s) = 5.92385 6.61001 6.27631
#
# Compressibility (1/GPa) = 0.02400541
#
# Stress axis : x y z
#
# Youngs Moduli (GPa) = 72.61194 36.78186 87.86116
#
# Poissons Ratio (x) = 0.17714 0.45990
# Poissons Ratio (y) = 0.34969 0.36176
# Poissons Ratio (z) = 0.38008 0.15144
#
# Static dielectric constant tensor:
#      x y z
#    x 3.813150 0.000000 0.000000 
#    y 0.000000 3.834080 0.000000 
#    z 0.000000 0.000000 3.948050 
# 
# 
# High freq. dielectric constant tensor:
#      x y z
#    x 1.810390 0.000000 0.000000 
#    y 0.000000 1.811430 0.000000 
#    z 0.000000 0.000000 1.828920 
# 
# From -- ./inp_files/16860.got.cif
#   From: 2010.03.12/outbox.cif.g09.slc.cpg/sg44_9_cif.got.tgz:16860.got - 2010.04.14 02:36:11.
