data_PCOD8190730
_publ_section_title
;
Structure prediction by ZEFSAII (Michael W. Deem and Ramdas Pophale) SiO2 
 PCOD8190730
Probable space group: I B A 2
;
_chemical_formula_sum "Si O2"
_cell_formula_units_Z 36
_cell_length_a 12.740582
_cell_length_b 5.135762
_cell_length_c 23.065998
_cell_angle_alpha 90.000000
_cell_angle_beta 90.000000
_cell_angle_gamma 90.000000
_cell_volume 1509.268149
_symmetry_space_group_name_H-M "I B A 2"
_symmetry_group_IT_number 45
_symmetry_cell_setting 'orthorhombic'
loop_
_space_group_symop_operation_xyz
x,y,z
-x,-y,z
-x,y,1/2+z
x,-y,1/2+z
1/2+x,1/2+y,1/2+z
1/2-x,1/2-y,1/2+z
1/2-x,1/2+y,z
1/2+x,1/2-y,z
loop_
_atom_site_type_symbol
_atom_site_label
_atom_site_fract_x
_atom_site_fract_y
_atom_site_fract_z
Si Si1 0.184730 0.152250 0.731250
Si Si2 0.319456 0.341226 0.363427
Si Si3 0.933972 0.243691 0.119212
Si Si4 0.815566 0.781227 0.509393
Si Si5 0.000000 0.000000 0.441159
O O1 0.277898 0.358059 0.719641
O O2 0.143285 0.180424 0.796657
O O3 0.091807 0.217153 0.687065
O O4 0.262233 0.613235 0.377782
O O5 0.424707 0.320893 0.401324
O O6 0.829847 0.243653 0.079069
O O7 0.000000 0.500000 0.107607
O O8 0.000000 0.000000 0.097463
O O9 0.753933 0.526111 0.488731
O O10 0.930575 0.803652 0.480299
#
# Coordination Sequence:
#
# PCOD8190730 Si02
#       5
#     8   8   8   8   4
#     4  10  21  42  67  96 136 176 220 277 348 413
#     4  10  24  45  68 101 137 180 230 284 348 412
#     4  12  24  42  69 104 136 177 230 284 349 420
#     4  12  27  46  71 101 140 184 233 290 350 413
#     4  12  26  46  72 102 138 190 238 294 340 416
#
# _framework density 23.852619000000001
#
# number of rings (size 3 to 8) (size 9 to 14) (size 15 to 20)
#    0.000    0.889    1.111    5.333    1.556    2.667 
#    0.000    0.000    0.000    0.000    0.000    0.000 
#    0.000    0.000    0.000    0.000    0.000    0.000 
#
# Total GULP energy -223302.768870 kJ/mol
# GULP energy per Si atom -12405.709382 kJ/mol
# Density = 2.379833 g / cm^3
# Si number density = 23.852619 Si / 1000 Ang^3
#
#
#
# Elastic Constant Matrix: (Units=GPa)
#
#
# Indices 1 2 3 4 5 6 
#
# 1 111.8816 39.6139 63.1468 0.0000 0.0000 0.0000
# 2 39.6139 144.8554 33.2995 0.0000 0.0000 0.0000
# 3 63.1468 33.2995 112.6124 0.0000 0.0000 0.0000
# 4 0.0000 0.0000 0.0000 31.6689 0.0000 0.0000
# 5 0.0000 0.0000 0.0000 0.0000 60.6858 0.0000
# 6 0.0000 0.0000 0.0000 0.0000 0.0000 35.6831
#
#
#
# Elastic Compliance Matrix: (Units=1/GPa)
#
#
# Indices 1 2 3 4 5 6 
#
# 1 0.013657 -0.002118 -0.007032 0.000000 0.000000 0.000000
# 2 -0.002118 0.007736 -0.001100 0.000000 0.000000 0.000000
# 3 -0.007032 -0.001100 0.013148 0.000000 0.000000 0.000000
# 4 0.000000 0.000000 0.000000 0.031577 0.000000 0.000000
# 5 0.000000 0.000000 0.000000 0.000000 0.016478 0.000000
# 6 0.000000 0.000000 0.000000 0.000000 0.000000 0.028024
#
#
# Mechanical properties :
#
#
# Convention : Reuss Voigt Hill
#
# Bulk Modulus (GPa) = 71.21776 71.27444 71.24610
# Shear Modulus (GPa) = 36.81911 41.16018 38.98965
#
# Velocity S-wave (km/s) = 3.93314 4.15855 4.04741
# Velocity P-wave (km/s) = 7.10974 7.28039 7.19557
#
# Compressibility (1/GPa) = 0.01404144
#
# Stress axis : x y z
#
# Youngs Moduli (GPa) = 73.22410 129.27403 76.05684
#
# Poissons Ratio (x) = 0.27384 0.53480
# Poissons Ratio (y) = 0.15511 0.08363
# Poissons Ratio (z) = 0.51488 0.14214
#
# Static dielectric constant tensor:
#      x y z
#    x 4.026930 0.000000 0.000000 
#    y 0.000000 4.263330 0.000000 
#    z 0.000000 0.000000 4.627850 
# 
# 
# High freq. dielectric constant tensor:
#      x y z
#    x 1.929150 0.000000 0.000000 
#    y 0.000000 1.949950 0.000000 
#    z 0.000000 0.000000 1.977490 
# 
# From -- ./inp_files/9385.got.cif
#   From: 2010.03.12/outbox.cif.g09.slc.cpg/sg45_5_cif.got.tgz:9385.got - 2010.04.14 02:50:11.
