data_PCOD8190124
_publ_section_title
;
Structure prediction by ZEFSAII (Michael W. Deem and Ramdas Pophale) SiO2 
 PCOD8190124
Probable space group: I M M 2
;
_chemical_formula_sum "Si O2"
_cell_formula_units_Z 64
_cell_length_a 25.084806
_cell_length_b 13.623634
_cell_length_c 8.880497
_cell_angle_alpha 90.000000
_cell_angle_beta 90.000000
_cell_angle_gamma 90.000000
_cell_volume 3034.876245
_symmetry_space_group_name_H-M "I M M 2"
_symmetry_group_IT_number 44
_symmetry_cell_setting 'orthorhombic'
loop_
_space_group_symop_operation_xyz
x,y,z
-x,-y,z
-x,y,z
x,-y,z
1/2+x,1/2+y,1/2+z
1/2-x,1/2-y,1/2+z
1/2-x,1/2+y,1/2+z
1/2+x,1/2-y,1/2+z
loop_
_atom_site_type_symbol
_atom_site_label
_atom_site_fract_x
_atom_site_fract_y
_atom_site_fract_z
Si Si1 0.439285 0.214530 0.822340
Si Si2 0.609482 0.609042 0.314393
Si Si3 0.765614 0.112355 0.856091
Si Si4 0.136095 0.751092 0.578464
Si Si5 0.337843 0.115101 0.340517
Si Si6 0.058847 0.614702 0.016955
Si Si7 0.562186 0.392087 0.621674
Si Si8 0.248800 0.793609 0.544163
O O1 0.500000 0.208937 0.880988
O O2 0.429193 0.135999 0.691686
O O3 0.424741 0.323092 0.762012
O O4 0.398880 0.192413 0.957241
O O5 0.585350 0.500000 0.289289
O O6 0.672552 0.605218 0.322918
O O7 0.595723 0.678155 0.172002
O O8 0.586649 0.654081 0.469368
O O9 0.738147 0.171964 0.716195
O O10 0.742817 0.000000 0.873617
O O11 0.758456 0.177022 0.008474
O O12 0.165429 0.670677 0.682655
O O13 0.185751 0.812487 0.507497
O O14 0.392470 0.155351 0.417474
O O15 0.285850 0.140684 0.437402
O O16 0.339601 0.000000 0.312338
O O17 0.055907 0.500000 0.993761
O O18 0.000000 0.660522 0.974618
O O19 0.500000 0.398414 0.594481
O O20 0.586635 0.500000 0.653811
#
# Coordination Sequence:
#
# PCOD8190124 Si02
#       8
#     8   8   8   8   8   8   8   8
#     4  10  22  37  58  87 122 156 190 240 300 359
#     4   9  18  36  58  81 111 151 195 240 288 347
#     4  10  22  39  61  87 120 160 201 250 308 366
#     4  11  24  38  58  86 124 152 195 245 302 365
#     4  11  23  41  63  87 118 157 204 254 303 363
#     4   9  20  39  63  88 114 153 201 247 299 360
#     4   9  18  34  57  85 115 150 195 239 282 344
#     4  11  22  42  60  87 122 160 202 260 301 368
#
# _framework density 21.088173000000001
#
# number of rings (size 3 to 8) (size 9 to 14) (size 15 to 20)
#    0.000    2.000    2.500    1.125    1.750    3.000 
#    0.000    0.000    0.000    0.000    0.000    0.000 
#    0.000    0.000    0.000    0.000    0.000    0.000 
#
# Total GULP energy -396552.014847 kJ/mol
# GULP energy per Si atom -12392.250464 kJ/mol
# Density = 2.104018 g / cm^3
# Si number density = 21.088173 Si / 1000 Ang^3
#
#
#
# Elastic Constant Matrix: (Units=GPa)
#
#
# Indices 1 2 3 4 5 6 
#
# 1 83.4419 3.8901 42.4222 0.0000 0.0000 0.0000
# 2 3.8901 81.2800 23.1695 0.0000 0.0000 0.0000
# 3 42.4222 23.1695 76.7247 0.0000 0.0000 0.0000
# 4 0.0000 0.0000 0.0000 22.0699 0.0000 0.0000
# 5 0.0000 0.0000 0.0000 0.0000 38.8159 0.0000
# 6 0.0000 0.0000 0.0000 0.0000 0.0000 19.8829
#
#
#
# Elastic Compliance Matrix: (Units=1/GPa)
#
#
# Indices 1 2 3 4 5 6 
#
# 1 0.016974 0.002038 -0.010001 0.000000 0.000000 0.000000
# 2 0.002038 0.013707 -0.005266 0.000000 0.000000 0.000000
# 3 -0.010001 -0.005266 0.020153 0.000000 0.000000 0.000000
# 4 0.000000 0.000000 0.000000 0.045311 0.000000 0.000000
# 5 0.000000 0.000000 0.000000 0.000000 0.025763 0.000000
# 6 0.000000 0.000000 0.000000 0.000000 0.000000 0.050294
#
#
# Mechanical properties :
#
#
# Convention : Reuss Voigt Hill
#
# Bulk Modulus (GPa) = 41.02233 42.26781 41.64507
# Shear Modulus (GPa) = 24.17983 27.61807 25.89895
#
# Velocity S-wave (km/s) = 3.38983 3.62283 3.50827
# Velocity P-wave (km/s) = 5.90053 6.13080 6.01677
#
# Compressibility (1/GPa) = 0.02437697
#
# Stress axis : x y z
#
# Youngs Moduli (GPa) = 58.91475 72.95660 49.61949
#
# Poissons Ratio (x) = -0.14871 0.49622
# Poissons Ratio (y) = -0.12009 0.26131
# Poissons Ratio (z) = 0.58918 0.38421
#
# Static dielectric constant tensor:
#      x y z
#    x 3.914890 0.000000 0.000000 
#    y 0.000000 4.226790 0.000000 
#    z 0.000000 0.000000 3.710300 
# 
# 
# High freq. dielectric constant tensor:
#      x y z
#    x 1.822460 0.000000 0.000000 
#    y 0.000000 1.832140 0.000000 
#    z 0.000000 0.000000 1.808710 
# 
# From -- ./inp_files/9457.got.cif
#   From: 2010.03.12/outbox.cif.g09.slc.cpg/sg44_5_cif.got.tgz:9457.got - 2010.04.14 02:36:11.
