data_PCOD8190920
_publ_section_title
;
Structure prediction by ZEFSAII (Michael W. Deem and Ramdas Pophale) SiO2 
 PCOD8190920
Probable space group: I B A 2
;
_chemical_formula_sum "Si O2"
_cell_formula_units_Z 64
_cell_length_a 8.844245
_cell_length_b 15.941221
_cell_length_c 20.871350
_cell_angle_alpha 90.000000
_cell_angle_beta 90.000000
_cell_angle_gamma 90.000000
_cell_volume 2942.611232
_symmetry_space_group_name_H-M "I B A 2"
_symmetry_group_IT_number 45
_symmetry_cell_setting 'orthorhombic'
loop_
_space_group_symop_operation_xyz
x,y,z
-x,-y,z
-x,y,1/2+z
x,-y,1/2+z
1/2+x,1/2+y,1/2+z
1/2-x,1/2-y,1/2+z
1/2-x,1/2+y,z
1/2+x,1/2-y,z
loop_
_atom_site_type_symbol
_atom_site_label
_atom_site_fract_x
_atom_site_fract_y
_atom_site_fract_z
Si Si1 0.346757 0.079514 0.282770
Si Si2 0.594903 0.683804 0.587436
Si Si3 0.325831 0.478820 0.656308
Si Si4 0.787266 0.784388 0.365140
Si Si5 0.659919 0.151298 0.271936
Si Si6 0.728121 0.334234 0.636541
Si Si7 0.841936 0.039251 0.350093
Si Si8 0.070184 0.831292 0.439717
O O1 0.255783 0.044017 0.222259
O O2 0.294428 0.171260 0.304988
O O3 0.525461 0.081603 0.266551
O O4 0.300532 0.024173 0.345451
O O5 0.692807 0.601976 0.609344
O O6 0.448040 0.689903 0.632627
O O7 0.684647 0.772243 0.587734
O O8 0.542928 0.669576 0.514899
O O9 0.500000 0.500000 0.669742
O O10 0.250434 0.564506 0.626014
O O11 0.887647 0.714907 0.328128
O O12 0.665864 0.748457 0.415833
O O13 0.906393 0.839038 0.405535
O O14 0.699541 0.193105 0.204341
O O15 0.816267 0.108881 0.294829
O O16 0.843050 0.082704 0.420166
O O17 0.000000 0.000000 0.331090
#
# Coordination Sequence:
#
# PCOD8190920 Si02
#       8
#     8   8   8   8   8   8   8   8
#     4  12  22  42  66 101 142 165 220 287 353 407
#     4  11  26  47  68  97 138 187 236 286 329 417
#     4  10  24  43  70 103 136 177 229 285 347 420
#     4  11  23  40  69  97 129 180 220 283 344 405
#     4  11  25  40  65 103 136 168 220 280 354 413
#     4  11  25  44  70  97 135 182 228 285 354 401
#     4  11  23  38  68  99 133 171 214 273 342 403
#     4  11  24  45  64  97 134 177 239 266 337 414
#
# _framework density 21.749389999999998
#
# number of rings (size 3 to 8) (size 9 to 14) (size 15 to 20)
#    0.000    1.000    3.750    2.250    5.250    1.500 
#    2.250    0.000    0.000    0.000    0.000    0.000 
#    0.000    0.000    0.000    0.000    0.000    0.000 
#
# Total GULP energy -396527.343836 kJ/mol
# GULP energy per Si atom -12391.479495 kJ/mol
# Density = 2.169989 g / cm^3
# Si number density = 21.749390 Si / 1000 Ang^3
#
#
#
# Elastic Constant Matrix: (Units=GPa)
#
#
# Indices 1 2 3 4 5 6 
#
# 1 90.2487 45.3084 44.8760 0.0000 0.0000 0.0000
# 2 45.3084 113.1120 43.4435 0.0000 0.0000 0.0000
# 3 44.8760 43.4435 99.3199 0.0000 0.0000 0.0000
# 4 0.0000 0.0000 0.0000 31.0170 0.0000 0.0000
# 5 0.0000 0.0000 0.0000 0.0000 24.6303 0.0000
# 6 0.0000 0.0000 0.0000 0.0000 0.0000 33.5241
#
#
#
# Elastic Compliance Matrix: (Units=1/GPa)
#
#
# Indices 1 2 3 4 5 6 
#
# 1 0.015882 -0.004334 -0.005280 0.000000 0.000000 0.000000
# 2 -0.004334 0.011808 -0.003207 0.000000 0.000000 0.000000
# 3 -0.005280 -0.003207 0.013857 0.000000 0.000000 0.000000
# 4 0.000000 0.000000 0.000000 0.032240 0.000000 0.000000
# 5 0.000000 0.000000 0.000000 0.000000 0.040600 0.000000
# 6 0.000000 0.000000 0.000000 0.000000 0.000000 0.029829
#
#
# Mechanical properties :
#
#
# Convention : Reuss Voigt Hill
#
# Bulk Modulus (GPa) = 62.87212 63.32626 63.09919
# Shear Modulus (GPa) = 28.54513 29.10445 28.82479
#
# Velocity S-wave (km/s) = 3.62671 3.66207 3.64444
# Velocity P-wave (km/s) = 6.81966 6.86007 6.83989
#
# Compressibility (1/GPa) = 0.01590530
#
# Stress axis : x y z
#
# Youngs Moduli (GPa) = 62.96522 84.68532 72.16513
#
# Poissons Ratio (x) = 0.36699 0.38106
# Poissons Ratio (y) = 0.27287 0.23144
# Poissons Ratio (z) = 0.33248 0.27159
#
# Static dielectric constant tensor:
#      x y z
#    x 3.866160 0.000000 0.000000 
#    y 0.000000 4.482820 0.000000 
#    z 0.000000 0.000000 3.645400 
# 
# 
# High freq. dielectric constant tensor:
#      x y z
#    x 1.850740 0.000000 0.000000 
#    y 0.000000 1.874930 0.000000 
#    z 0.000000 0.000000 1.829210 
# 
# From -- ./inp_files/8976.got.cif
#   From: 2010.03.12/outbox.cif.g09.slc.cpg/sg45_5_cif.got.tgz:8976.got - 2010.04.14 02:50:11.
