data_PCOD8190513
_publ_section_title
;
Structure prediction by ZEFSAII (Michael W. Deem and Ramdas Pophale) SiO2 
 PCOD8190513
Probable space group: I B A 2
;
_chemical_formula_sum "Si O2"
_cell_formula_units_Z 64
_cell_length_a 19.886213
_cell_length_b 9.751515
_cell_length_c 16.615212
_cell_angle_alpha 90.000000
_cell_angle_beta 90.000000
_cell_angle_gamma 90.000000
_cell_volume 3222.033614
_symmetry_space_group_name_H-M "I B A 2"
_symmetry_group_IT_number 45
_symmetry_cell_setting 'orthorhombic'
loop_
_space_group_symop_operation_xyz
x,y,z
-x,-y,z
-x,y,1/2+z
x,-y,1/2+z
1/2+x,1/2+y,1/2+z
1/2-x,1/2-y,1/2+z
1/2-x,1/2+y,z
1/2+x,1/2-y,z
loop_
_atom_site_type_symbol
_atom_site_label
_atom_site_fract_x
_atom_site_fract_y
_atom_site_fract_z
Si Si1 0.851179 0.571990 0.326880
Si Si2 0.384289 0.762414 0.638365
Si Si3 0.015076 0.345829 0.388422
Si Si4 0.649238 0.076894 0.139495
Si Si5 0.484547 0.154247 0.573774
Si Si6 0.224059 0.880980 0.036071
Si Si7 0.613682 0.758899 0.321882
Si Si8 0.724667 0.641525 0.428233
O O1 0.905536 0.673651 0.370294
O O2 0.852611 0.607883 0.233411
O O3 0.866884 0.413999 0.343712
O O4 0.777993 0.597231 0.361511
O O5 0.464596 0.747496 0.622988
O O6 0.345748 0.663580 0.576881
O O7 0.368658 0.721103 0.730114
O O8 0.362125 0.917641 0.618813
O O9 0.000000 0.500000 0.360246
O O10 0.997489 0.320079 0.480579
O O11 0.966899 0.244094 0.337098
O O12 0.593577 0.175935 0.096933
O O13 0.721277 0.119134 0.106575
O O14 0.500000 0.000000 0.600689
O O15 0.248376 0.781264 0.966026
O O16 0.214022 0.030438 0.998017
O O17 0.654177 0.660242 0.381871
#
# Coordination Sequence:
#
# PCOD8190513 Si02
#       8
#     8   8   8   8   8   8   8   8
#     4  10  20  35  57  88 119 156 200 251 307 359
#     4  10  20  36  57  87 121 155 198 253 306 359
#     4   9  17  30  56  86 120 151 197 251 299 347
#     4  10  20  35  57  88 119 156 200 251 307 359
#     4   9  17  30  56  86 120 151 197 251 299 347
#     4  12  23  38  59  86 121 161 203 248 302 362
#     4  10  20  36  57  87 121 155 198 253 306 359
#     4  12  23  38  59  86 121 161 203 248 302 362
#
# _framework density 19.863232
#
# number of rings (size 3 to 8) (size 9 to 14) (size 15 to 20)
#    0.000    1.750    2.500    3.000    3.500    3.000 
#    0.000    0.000    0.000    6.750    0.000    8.750 
#    0.000    0.000    0.000    0.000    0.000    0.000 
#
# Total GULP energy -396777.815551 kJ/mol
# GULP energy per Si atom -12399.306736 kJ/mol
# Density = 1.981802 g / cm^3
# Si number density = 19.863232 Si / 1000 Ang^3
#
#
#
# Elastic Constant Matrix: (Units=GPa)
#
#
# Indices 1 2 3 4 5 6 
#
# 1 123.1943 24.7338 54.0485 0.0000 0.0000 0.0000
# 2 24.7338 31.5199 25.0058 0.0000 0.0000 0.0000
# 3 54.0485 25.0058 103.0039 0.0000 0.0000 0.0000
# 4 0.0000 0.0000 0.0000 21.8163 0.0000 0.0000
# 5 0.0000 0.0000 0.0000 0.0000 40.4259 0.0000
# 6 0.0000 0.0000 0.0000 0.0000 0.0000 26.2137
#
#
#
# Elastic Compliance Matrix: (Units=1/GPa)
#
#
# Indices 1 2 3 4 5 6 
#
# 1 0.011169 -0.005096 -0.004623 0.000000 0.000000 0.000000
# 2 -0.005096 0.041619 -0.007430 0.000000 0.000000 0.000000
# 3 -0.004623 -0.007430 0.013938 0.000000 0.000000 0.000000
# 4 0.000000 0.000000 0.000000 0.045837 0.000000 0.000000
# 5 0.000000 0.000000 0.000000 0.000000 0.024737 0.000000
# 6 0.000000 0.000000 0.000000 0.000000 0.000000 0.038148
#
#
# Mechanical properties :
#
#
# Convention : Reuss Voigt Hill
#
# Bulk Modulus (GPa) = 30.83794 51.69938 41.26866
# Shear Modulus (GPa) = 22.67002 27.95319 25.31160
#
# Velocity S-wave (km/s) = 3.38199 3.75545 3.57360
# Velocity P-wave (km/s) = 5.55061 6.69990 6.15215
#
# Compressibility (1/GPa) = 0.03242759
#
# Stress axis : x y z
#
# Youngs Moduli (GPa) = 89.53478 24.02731 71.74652
#
# Poissons Ratio (x) = 0.12245 0.33171
# Poissons Ratio (y) = 0.45631 0.53304
# Poissons Ratio (z) = 0.41395 0.17851
#
# Static dielectric constant tensor:
#      x y z
#    x 3.919710 0.000000 0.000000 
#    y 0.000000 3.220970 0.000000 
#    z 0.000000 0.000000 3.568420 
# 
# 
# High freq. dielectric constant tensor:
#      x y z
#    x 1.787570 0.000000 0.000000 
#    y 0.000000 1.720140 0.000000 
#    z 0.000000 0.000000 1.788840 
# 
# From -- ./inp_files/6828.got.cif
#   From: 2010.03.12/outbox.cif.g09.slc.cpg/sg45_4_cif.got.tgz:6828.got - 2010.04.14 02:50:11.
