data_PCOD8190772
_publ_section_title
;
Structure prediction by ZEFSAII (Michael W. Deem and Ramdas Pophale) SiO2 
 PCOD8190772
Probable space group: I B A 2
;
_chemical_formula_sum "Si O2"
_cell_formula_units_Z 60
_cell_length_a 17.839222
_cell_length_b 16.183251
_cell_length_c 8.780197
_cell_angle_alpha 90.000000
_cell_angle_beta 90.000000
_cell_angle_gamma 90.000000
_cell_volume 2534.813085
_symmetry_space_group_name_H-M "I B A 2"
_symmetry_group_IT_number 45
_symmetry_cell_setting 'orthorhombic'
loop_
_space_group_symop_operation_xyz
x,y,z
-x,-y,z
-x,y,1/2+z
x,-y,1/2+z
1/2+x,1/2+y,1/2+z
1/2-x,1/2-y,1/2+z
1/2-x,1/2+y,z
1/2+x,1/2-y,z
loop_
_atom_site_type_symbol
_atom_site_label
_atom_site_fract_x
_atom_site_fract_y
_atom_site_fract_z
Si Si1 0.730649 0.603907 0.318840
Si Si2 0.624241 0.180702 0.237101
Si Si3 0.537735 0.612593 0.554051
Si Si4 0.000000 0.500000 0.529154
Si Si5 0.042792 0.614252 0.271693
Si Si6 0.339920 0.482979 0.029924
Si Si7 0.598634 0.654339 0.874429
Si Si8 0.866019 0.245873 0.408075
O O1 0.819297 0.607234 0.284411
O O2 0.685288 0.554525 0.189909
O O3 0.716018 0.556725 0.478811
O O4 0.705761 0.700545 0.333889
O O5 0.540449 0.146873 0.236154
O O6 0.629117 0.252423 0.367405
O O7 0.650810 0.212817 0.071557
O O8 0.574370 0.521121 0.537432
O O9 0.550196 0.641631 0.724619
O O10 0.449736 0.627189 0.523273
O O11 0.573877 0.673751 0.430521
O O12 0.952661 0.435891 0.429130
O O13 0.940044 0.551206 0.632997
O O14 0.102341 0.688181 0.284778
O O15 0.334114 0.411807 0.897484
#
# Coordination Sequence:
#
# PCOD8190772 Si02
#       8
#     8   8   8   4   8   8   8   8
#     4  11  27  47  70 103 150 197 240 294 362 442
#     4  11  25  45  72 104 138 189 245 292 363 434
#     4  10  22  39  67 103 142 179 231 296 363 428
#     4  10  24  38  70 104 134 172 230 292 364 406
#     4  11  21  46  70 103 136 177 234 302 353 427
#     4  11  24  45  67 101 149 192 236 293 369 438
#     4  11  23  39  69 106 139 181 234 301 360 432
#     4  10  23  45  71 102 140 183 240 297 353 430
#
# _framework density 23.670385
#
# number of rings (size 3 to 8) (size 9 to 14) (size 15 to 20)
#    0.000    1.333    4.000    0.400    5.600    3.200 
#    0.000    0.000    0.000    0.000    0.000    0.000 
#    0.000    0.000    0.000    0.000    0.000    0.000 
#
# Total GULP energy -371819.924660 kJ/mol
# GULP energy per Si atom -12393.997489 kJ/mol
# Density = 2.361651 g / cm^3
# Si number density = 23.670385 Si / 1000 Ang^3
#
#
#
# Elastic Constant Matrix: (Units=GPa)
#
#
# Indices 1 2 3 4 5 6 
#
# 1 61.6664 17.7207 13.6671 0.0000 0.0000 0.0000
# 2 17.7207 106.6252 37.3754 0.0000 0.0000 0.0000
# 3 13.6671 37.3754 98.8155 0.0000 0.0000 0.0000
# 4 0.0000 0.0000 0.0000 44.2035 0.0000 0.0000
# 5 0.0000 0.0000 0.0000 0.0000 22.3804 0.0000
# 6 0.0000 0.0000 0.0000 0.0000 0.0000 30.3605
#
#
#
# Elastic Compliance Matrix: (Units=1/GPa)
#
#
# Indices 1 2 3 4 5 6 
#
# 1 0.017220 -0.002337 -0.001498 0.000000 0.000000 0.000000
# 2 -0.002337 0.011129 -0.003886 0.000000 0.000000 0.000000
# 3 -0.001498 -0.003886 0.011797 0.000000 0.000000 0.000000
# 4 0.000000 0.000000 0.000000 0.022623 0.000000 0.000000
# 5 0.000000 0.000000 0.000000 0.000000 0.044682 0.000000
# 6 0.000000 0.000000 0.000000 0.000000 0.000000 0.032938
#
#
# Mechanical properties :
#
#
# Convention : Reuss Voigt Hill
#
# Bulk Modulus (GPa) = 40.47891 44.95927 42.71909
# Shear Modulus (GPa) = 30.47580 32.61181 31.54380
#
# Velocity S-wave (km/s) = 3.59208 3.71583 3.65448
# Velocity P-wave (km/s) = 5.86022 6.11923 5.99113
#
# Compressibility (1/GPa) = 0.02470422
#
# Stress axis : x y z
#
# Youngs Moduli (GPa) = 58.07280 89.85316 84.76772
#
# Poissons Ratio (x) = 0.20997 0.12696
# Poissons Ratio (y) = 0.13571 0.32943
# Poissons Ratio (z) = 0.08698 0.34919
#
# Static dielectric constant tensor:
#      x y z
#    x 3.787650 0.000000 0.000000 
#    y 0.000000 4.723580 0.000000 
#    z 0.000000 0.000000 4.169430 
# 
# 
# High freq. dielectric constant tensor:
#      x y z
#    x 1.896820 0.000000 0.000000 
#    y 0.000000 1.960340 0.000000 
#    z 0.000000 0.000000 1.936390 
# 
# From -- ./inp_files/2145.got.cif
#   From: 2010.03.12/outbox.cif.g09.slc.cpg/sg45_2_cif.got.tgz:2145.got - 2010.04.14 02:50:11.
