data_PCOD8190903
_publ_section_title
;
Structure prediction by ZEFSAII (Michael W. Deem and Ramdas Pophale) SiO2 
 PCOD8190903
Probable space group: I B A 2
;
_chemical_formula_sum "Si O2"
_cell_formula_units_Z 64
_cell_length_a 27.522970
_cell_length_b 8.711584
_cell_length_c 12.377604
_cell_angle_alpha 90.000000
_cell_angle_beta 90.000000
_cell_angle_gamma 90.000000
_cell_volume 2967.761588
_symmetry_space_group_name_H-M "I B A 2"
_symmetry_group_IT_number 45
_symmetry_cell_setting 'orthorhombic'
loop_
_space_group_symop_operation_xyz
x,y,z
-x,-y,z
-x,y,1/2+z
x,-y,1/2+z
1/2+x,1/2+y,1/2+z
1/2-x,1/2-y,1/2+z
1/2-x,1/2+y,z
1/2+x,1/2-y,z
loop_
_atom_site_type_symbol
_atom_site_label
_atom_site_fract_x
_atom_site_fract_y
_atom_site_fract_z
Si Si1 0.247579 0.963954 0.250000
Si Si2 0.694254 0.207634 0.873984
Si Si3 0.584803 0.176668 0.831069
Si Si4 0.444473 0.064809 0.124796
Si Si5 0.029813 0.847867 0.486671
Si Si6 0.087146 0.244999 0.185175
Si Si7 0.052917 0.647745 0.901645
Si Si8 0.693647 0.283759 0.126026
O O1 0.206241 0.859210 0.304675
O O2 0.289569 0.861084 0.196927
O O3 0.268923 0.070715 0.344952
O O4 0.225264 0.066538 0.153834
O O5 0.641729 0.144566 0.838447
O O6 0.698022 0.245022 0.000198
O O7 0.564374 0.204625 0.709801
O O8 0.576329 0.326168 0.907890
O O9 0.552873 0.023781 0.856248
O O10 0.500000 0.000000 0.119383
O O11 0.409483 0.923253 0.153193
O O12 0.419944 0.136745 0.016855
O O13 0.045412 0.836960 0.612077
O O14 0.999675 0.701831 0.444264
O O15 0.000000 0.000000 0.464833
O O16 0.074142 0.231892 0.313354
O O17 0.138905 0.170980 0.160245
#
# Coordination Sequence:
#
# PCOD8190903 Si02
#       8
#     8   8   8   8   8   8   8   8
#     4  10  24  41  70 104 128 181 216 279 356 418
#     4  11  22  44  69 101 135 172 225 278 348 412
#     4  11  22  40  67  95 128 170 229 274 321 401
#     4  11  19  38  66  92 122 171 233 280 316 366
#     4  12  25  42  61  92 133 177 213 274 341 383
#     4  11  23  41  65  96 129 173 217 278 324 393
#     4  11  22  41  66  91 127 178 229 269 319 384
#     4  11  22  45  69  95 142 168 223 282 344 409
#
# _framework density 21.565073999999999
#
# number of rings (size 3 to 8) (size 9 to 14) (size 15 to 20)
#    0.000    1.000    3.750    4.125    0.000    2.000 
#    2.250    5.000    0.000    0.000    0.000    0.000 
#    0.000    0.000    0.000    0.000    0.000    0.000 
#
# Total GULP energy -396419.385884 kJ/mol
# GULP energy per Si atom -12388.105809 kJ/mol
# Density = 2.151599 g / cm^3
# Si number density = 21.565074 Si / 1000 Ang^3
#
#
#
# Elastic Constant Matrix: (Units=GPa)
#
#
# Indices 1 2 3 4 5 6 
#
# 1 95.9920 34.1303 30.4737 0.0000 0.0000 0.0000
# 2 34.1303 82.0248 25.9490 0.0000 0.0000 0.0000
# 3 30.4737 25.9490 159.3843 0.0000 0.0000 0.0000
# 4 0.0000 0.0000 0.0000 21.6088 0.0000 0.0000
# 5 0.0000 0.0000 0.0000 0.0000 28.5580 0.0000
# 6 0.0000 0.0000 0.0000 0.0000 0.0000 20.1910
#
#
#
# Elastic Compliance Matrix: (Units=1/GPa)
#
#
# Indices 1 2 3 4 5 6 
#
# 1 0.012622 -0.004732 -0.001643 0.000000 0.000000 0.000000
# 2 -0.004732 0.014628 -0.001477 0.000000 0.000000 0.000000
# 3 -0.001643 -0.001477 0.006829 0.000000 0.000000 0.000000
# 4 0.000000 0.000000 0.000000 0.046277 0.000000 0.000000
# 5 0.000000 0.000000 0.000000 0.000000 0.035016 0.000000
# 6 0.000000 0.000000 0.000000 0.000000 0.000000 0.049527
#
#
# Mechanical properties :
#
#
# Convention : Reuss Voigt Hill
#
# Bulk Modulus (GPa) = 54.42283 57.61189 56.01736
# Shear Modulus (GPa) = 26.77711 30.52812 28.65261
#
# Velocity S-wave (km/s) = 3.52758 3.76656 3.64903
# Velocity P-wave (km/s) = 6.47172 6.75939 6.61712
#
# Compressibility (1/GPa) = 0.01837464
#
# Stress axis : x y z
#
# Youngs Moduli (GPa) = 79.22955 68.36386 146.44158
#
# Poissons Ratio (x) = 0.32350 0.24057
# Poissons Ratio (y) = 0.37492 0.21626
# Poissons Ratio (z) = 0.13016 0.10096
#
# Static dielectric constant tensor:
#      x y z
#    x 3.883400 0.000000 0.000000 
#    y 0.000000 3.650510 0.000000 
#    z 0.000000 0.000000 4.549380 
# 
# 
# High freq. dielectric constant tensor:
#      x y z
#    x 1.834660 0.000000 0.000000 
#    y 0.000000 1.823780 0.000000 
#    z 0.000000 0.000000 1.870020 
# 
# From -- ./inp_files/4982.got.cif
#   From: 2010.03.12/outbox.cif.g09.slc.cpg/sg45_3_cif.got.tgz:4982.got - 2010.04.14 02:50:11.
