data_PCOD8190409
_publ_section_title
;
Structure prediction by ZEFSAII (Michael W. Deem and Ramdas Pophale) SiO2 
 PCOD8190409
Probable space group: I B A 2
;
_chemical_formula_sum "Si O2"
_cell_formula_units_Z 52
_cell_length_a 10.623423
_cell_length_b 15.138463
_cell_length_c 15.098870
_cell_angle_alpha 90.000000
_cell_angle_beta 90.000000
_cell_angle_gamma 90.000000
_cell_volume 2428.234941
_symmetry_space_group_name_H-M "I B A 2"
_symmetry_group_IT_number 45
_symmetry_cell_setting 'orthorhombic'
loop_
_space_group_symop_operation_xyz
x,y,z
-x,-y,z
-x,y,1/2+z
x,-y,1/2+z
1/2+x,1/2+y,1/2+z
1/2-x,1/2-y,1/2+z
1/2-x,1/2+y,z
1/2+x,1/2-y,z
loop_
_atom_site_type_symbol
_atom_site_label
_atom_site_fract_x
_atom_site_fract_y
_atom_site_fract_z
Si Si1 0.888061 0.161536 0.045990
Si Si2 0.323552 0.139664 0.057401
Si Si3 0.790774 0.179962 0.734349
Si Si4 0.176447 0.639665 0.411296
Si Si5 0.000000 0.500000 0.984348
Si Si6 0.079598 0.171608 0.734349
Si Si7 0.388063 0.338464 0.422707
O O1 0.897735 0.267403 0.061119
O O2 0.902198 0.115703 0.143303
O O3 0.757110 0.135523 0.001605
O O4 0.999999 0.127680 0.984348
O O5 0.236466 0.124956 0.144311
O O6 0.420986 0.060053 0.051830
O O7 0.242887 0.135522 0.967093
O O8 0.763534 0.124957 0.824387
O O9 0.693717 0.259781 0.734348
O O10 0.936703 0.211819 0.734349
O O11 0.102265 0.732598 0.407578
O O12 0.079013 0.560054 0.416867
O O13 0.097802 0.115702 0.825394
#
# Coordination Sequence:
#
# PCOD8190409 Si02
#       7
#     8   8   8   8   4   8   8
#     4  10  18  36  61  89 118 158 201 254 293 363
#     4  10  22  36  61  88 125 156 205 250 314 351
#     4  10  20  35  59  95 122 165 200 259 300 373
#     4  10  22  36  61  88 125 156 205 250 314 351
#     4  12  24  42  58  92 120 168 200 256 308 380
#     4  10  20  32  61  98 126 150 214 254 310 344
#     4  10  18  36  61  89 118 158 201 254 293 363
#
# _framework density 21.414731
#
# number of rings (size 3 to 8) (size 9 to 14) (size 15 to 20)
#    0.000    1.846    4.615    0.000    0.000    0.615 
#    0.000    2.308    0.000    1.846    0.000    0.000 
#    0.000    0.000    0.000    0.000    0.000    0.000 
#
# Total GULP energy -322189.944229 kJ/mol
# GULP energy per Si atom -12391.920932 kJ/mol
# Density = 2.136599 g / cm^3
# Si number density = 21.414731 Si / 1000 Ang^3
#
#
#
# Elastic Constant Matrix: (Units=GPa)
#
#
# Indices 1 2 3 4 5 6 
#
# 1 97.1112 6.9879 40.3357 0.0000 0.0000 0.0000
# 2 6.9879 39.8136 5.6789 0.0000 0.0000 0.0000
# 3 40.3357 5.6789 211.3279 0.0000 0.0000 0.0000
# 4 0.0000 0.0000 0.0000 4.0139 0.0000 0.0000
# 5 0.0000 0.0000 0.0000 0.0000 41.8553 0.0000
# 6 0.0000 0.0000 0.0000 0.0000 0.0000 28.7332
#
#
#
# Elastic Compliance Matrix: (Units=1/GPa)
#
#
# Indices 1 2 3 4 5 6 
#
# 1 0.011295 -0.001681 -0.002111 0.000000 0.000000 0.000000
# 2 -0.001681 0.025464 -0.000363 0.000000 0.000000 0.000000
# 3 -0.002111 -0.000363 0.005145 0.000000 0.000000 0.000000
# 4 0.000000 0.000000 0.000000 0.249136 0.000000 0.000000
# 5 0.000000 0.000000 0.000000 0.000000 0.023892 0.000000
# 6 0.000000 0.000000 0.000000 0.000000 0.000000 0.034803
#
#
# Mechanical properties :
#
#
# Convention : Reuss Voigt Hill
#
# Bulk Modulus (GPa) = 29.76825 50.47308 40.12066
# Shear Modulus (GPa) = 13.54123 34.60382 24.07253
#
# Velocity S-wave (km/s) = 2.51735 4.02417 3.35641
# Velocity P-wave (km/s) = 4.73079 6.72402 5.81347
#
# Compressibility (1/GPa) = 0.03359284
#
# Stress axis : x y z
#
# Youngs Moduli (GPa) = 88.53355 39.27113 194.37808
#
# Poissons Ratio (x) = 0.06603 0.41027
# Poissons Ratio (y) = 0.14886 0.07063
# Poissons Ratio (z) = 0.18687 0.01427
#
# Static dielectric constant tensor:
#      x y z
#    x 3.848580 0.000000 0.000000 
#    y 0.000000 3.213560 0.000000 
#    z 0.000000 0.000000 4.941480 
# 
# 
# High freq. dielectric constant tensor:
#      x y z
#    x 1.852260 0.000000 0.000000 
#    y 0.000000 1.767720 0.000000 
#    z 0.000000 0.000000 1.869680 
# 
# From -- ./inp_files/6226.got.cif
#   From: 2010.03.12/outbox.cif.g09.slc.cpg/sg45_4_cif.got.tgz:6226.got - 2010.04.14 02:50:11.
