data_PCOD8190209
_publ_section_title
;
Structure prediction by ZEFSAII (Michael W. Deem and Ramdas Pophale) SiO2 
 PCOD8190209
Probable space group: I M M 2
;
_chemical_formula_sum "Si O2"
_cell_formula_units_Z 48
_cell_length_a 16.693048
_cell_length_b 8.520140
_cell_length_c 16.616011
_cell_angle_alpha 90.000000
_cell_angle_beta 90.000000
_cell_angle_gamma 90.000000
_cell_volume 2363.247158
_symmetry_space_group_name_H-M "I M M 2"
_symmetry_group_IT_number 44
_symmetry_cell_setting 'orthorhombic'
loop_
_space_group_symop_operation_xyz
x,y,z
-x,-y,z
-x,y,z
x,-y,z
1/2+x,1/2+y,1/2+z
1/2-x,1/2-y,1/2+z
1/2-x,1/2+y,1/2+z
1/2+x,1/2-y,1/2+z
loop_
_atom_site_type_symbol
_atom_site_label
_atom_site_fract_x
_atom_site_fract_y
_atom_site_fract_z
Si Si1 0.407764 0.680889 0.569610
Si Si2 0.189160 0.318936 0.212325
Si Si3 0.500000 0.817449 0.971151
Si Si4 0.357895 0.180310 0.237990
Si Si5 0.174869 0.679981 0.920270
Si Si6 0.500000 0.679505 0.142492
Si Si7 0.147053 0.816907 0.376078
O O1 0.500000 0.731154 0.564668
O O2 0.398177 0.500000 0.594266
O O3 0.365506 0.788928 0.635300
O O4 0.368120 0.706762 0.482856
O O5 0.213706 0.500000 0.215651
O O6 0.269373 0.216285 0.205302
O O7 0.139176 0.274340 0.291897
O O8 0.421684 0.736797 0.935686
O O9 0.500000 0.000000 0.950080
O O10 0.500000 0.793945 0.066444
O O11 0.362861 0.212752 0.333041
O O12 0.421472 0.291235 0.195313
O O13 0.377945 0.000000 0.218508
O O14 0.161394 0.500000 0.945987
O O15 0.268954 0.720922 0.919125
O O16 0.500000 0.500000 0.113046
O O17 0.139523 0.000000 0.356479
#
# Coordination Sequence:
#
# PCOD8190209 Si02
#       7
#     8   8   4   8   8   4   8
#     4  11  25  41  61  91 127 167 209 256 313 370
#     4  11  23  41  66  94 125 164 211 260 315 374
#     4  12  26  42  64  95 128 167 212 258 312 373
#     4  10  22  43  67  93 126 166 209 257 316 376
#     4   9  21  41  66  92 122 162 206 255 314 370
#     4  12  26  42  64  95 130 167 210 260 314 371
#     4  10  22  43  67  92 126 165 207 258 317 374
#
# _framework density 20.311038
#
# number of rings (size 3 to 8) (size 9 to 14) (size 15 to 20)
#    0.000    1.500    0.000    5.500    4.667    5.333 
#    0.000    0.000    0.000    0.000    0.000    0.000 
#    0.000    0.000    0.000    0.000    0.000    0.000 
#
# Total GULP energy -297777.236815 kJ/mol
# GULP energy per Si atom -12407.384867 kJ/mol
# Density = 2.026481 g / cm^3
# Si number density = 20.311038 Si / 1000 Ang^3
#
#
#
# Elastic Constant Matrix: (Units=GPa)
#
#
# Indices 1 2 3 4 5 6 
#
# 1 101.0687 19.4740 58.4522 0.0000 0.0000 0.0000
# 2 19.4740 74.2324 24.8146 0.0000 0.0000 0.0000
# 3 58.4522 24.8146 105.8599 0.0000 0.0000 0.0000
# 4 0.0000 0.0000 0.0000 37.1635 0.0000 0.0000
# 5 0.0000 0.0000 0.0000 0.0000 47.3184 0.0000
# 6 0.0000 0.0000 0.0000 0.0000 0.0000 31.2582
#
#
#
# Elastic Compliance Matrix: (Units=1/GPa)
#
#
# Indices 1 2 3 4 5 6 
#
# 1 0.014640 -0.001235 -0.007794 0.000000 0.000000 0.000000
# 2 -0.001235 0.014721 -0.002769 0.000000 0.000000 0.000000
# 3 -0.007794 -0.002769 0.014399 0.000000 0.000000 0.000000
# 4 0.000000 0.000000 0.000000 0.026908 0.000000 0.000000
# 5 0.000000 0.000000 0.000000 0.000000 0.021133 0.000000
# 6 0.000000 0.000000 0.000000 0.000000 0.000000 0.031992
#
#
# Mechanical properties :
#
#
# Convention : Reuss Voigt Hill
#
# Bulk Modulus (GPa) = 49.59372 54.07140 51.83256
# Shear Modulus (GPa) = 32.44432 35.04271 33.74351
#
# Velocity S-wave (km/s) = 4.00105 4.15818 4.08037
# Velocity P-wave (km/s) = 6.76865 7.05220 6.91188
#
# Compressibility (1/GPa) = 0.02016384
#
# Stress axis : x y z
#
# Youngs Moduli (GPa) = 68.30631 67.93128 69.44870
#
# Poissons Ratio (x) = 0.08391 0.54129
# Poissons Ratio (y) = 0.08437 0.19228
# Poissons Ratio (z) = 0.53239 0.18808
#
# Static dielectric constant tensor:
#      x y z
#    x 3.697180 0.000000 0.000000 
#    y 0.000000 3.649200 0.000000 
#    z 0.000000 0.000000 3.632570 
# 
# 
# High freq. dielectric constant tensor:
#      x y z
#    x 1.799940 0.000000 0.000000 
#    y 0.000000 1.801490 0.000000 
#    z 0.000000 0.000000 1.798430 
# 
# From -- ./inp_files/18845.got.cif
#   From: 2010.03.12/outbox.cif.g09.slc.cpg/sg44_10_cif.got.tgz:18845.got - 2010.04.14 02:36:11.
