data_PCOD8190206
_publ_section_title
;
Structure prediction by ZEFSAII (Michael W. Deem and Ramdas Pophale) SiO2 
 PCOD8190206
Probable space group: I M M 2
;
_chemical_formula_sum "Si O2"
_cell_formula_units_Z 64
_cell_length_a 8.526748
_cell_length_b 28.785225
_cell_length_c 12.768063
_cell_angle_alpha 90.000000
_cell_angle_beta 90.000000
_cell_angle_gamma 90.000000
_cell_volume 3133.849048
_symmetry_space_group_name_H-M "I M M 2"
_symmetry_group_IT_number 44
_symmetry_cell_setting 'orthorhombic'
loop_
_space_group_symop_operation_xyz
x,y,z
-x,-y,z
-x,y,z
x,-y,z
1/2+x,1/2+y,1/2+z
1/2-x,1/2-y,1/2+z
1/2-x,1/2+y,1/2+z
1/2+x,1/2-y,1/2+z
loop_
_atom_site_type_symbol
_atom_site_label
_atom_site_fract_x
_atom_site_fract_y
_atom_site_fract_z
Si Si1 0.184528 0.126363 0.901560
Si Si2 0.183387 0.878817 0.345046
Si Si3 0.819210 0.445512 0.008707
Si Si4 0.821305 0.715731 0.894309
Si Si5 0.815719 0.947208 0.728320
Si Si6 0.817963 0.359660 0.624635
Si Si7 0.821700 0.708695 0.271964
Si Si8 0.322641 0.752558 0.090175
O O1 0.235471 0.082919 0.829207
O O2 0.269057 0.171905 0.857997
O O3 0.000000 0.134193 0.898238
O O4 0.239049 0.118789 0.020688
O O5 0.220023 0.924310 0.413284
O O6 0.275937 0.837861 0.404302
O O7 0.241824 0.884410 0.225479
O O8 0.000000 0.868917 0.344906
O O9 0.787333 0.500000 0.004308
O O10 0.000000 0.432538 0.993053
O O11 0.765354 0.427076 0.123263
O O12 0.696363 0.739535 0.817583
O O13 0.000000 0.720647 0.852619
O O14 0.807049 0.743021 0.002932
O O15 0.000000 0.944275 0.709712
O O16 0.761357 0.000000 0.750654
O O17 0.792672 0.304181 0.635353
O O18 0.000000 0.372369 0.621001
O O19 0.706330 0.710531 0.172396
O O20 0.000000 0.699501 0.238163
O O21 0.500000 0.748386 0.046702
#
# Coordination Sequence:
#
# PCOD8190206 Si02
#       8
#     8   8   8   8   8   8   8   8
#     4  11  23  39  62  90 122 161 206 253 306 366
#     4  12  25  41  64  91 123 162 206 252 305 368
#     4  10  22  42  68  96 126 158 197 249 307 364
#     4  12  24  39  59  85 119 159 204 253 301 358
#     4   9  20  41  67  94 124 157 197 248 306 366
#     4  11  23  40  62  86 121 163 207 255 304 361
#     4  12  24  38  57  84 119 161 204 250 301 358
#     4  11  23  39  58  82 116 160 206 253 304 357
#
# _framework density 20.422169
#
# number of rings (size 3 to 8) (size 9 to 14) (size 15 to 20)
#    0.000    1.000    2.500    4.875    1.750    2.750 
#    0.000    0.625    0.000    2.250    0.000    0.000 
#    0.000    0.000    0.000    0.000    0.000    0.000 
#
# Total GULP energy -396800.414237 kJ/mol
# GULP energy per Si atom -12400.012945 kJ/mol
# Density = 2.037569 g / cm^3
# Si number density = 20.422169 Si / 1000 Ang^3
#
#
#
# Elastic Constant Matrix: (Units=GPa)
#
#
# Indices 1 2 3 4 5 6 
#
# 1 100.4834 36.1331 45.3266 0.0000 0.0000 0.0001
# 2 36.1331 67.1697 47.0692 0.0001 0.0000 -0.0001
# 3 45.3266 47.0692 128.0777 0.0005 0.0000 0.0000
# 4 0.0000 0.0001 0.0005 39.1359 0.0000 0.0000
# 5 0.0000 0.0000 0.0000 0.0000 39.0407 0.0000
# 6 0.0001 -0.0001 0.0000 0.0000 0.0000 25.0345
#
#
#
# Elastic Compliance Matrix: (Units=1/GPa)
#
#
# Indices 1 2 3 4 5 6 
#
# 1 0.013015 -0.005082 -0.002738 0.000000 0.000000 0.000000
# 2 -0.005082 0.022036 -0.006300 0.000000 0.000000 0.000000
# 3 -0.002738 -0.006300 0.011092 0.000000 0.000000 0.000000
# 4 0.000000 0.000000 0.000000 0.025552 0.000000 0.000000
# 5 0.000000 0.000000 0.000000 0.000000 0.025614 0.000000
# 6 0.000000 0.000000 0.000000 0.000000 0.000000 0.039945
#
#
# Mechanical properties :
#
#
# Convention : Reuss Voigt Hill
#
# Bulk Modulus (GPa) = 55.85844 61.42094 58.63969
# Shear Modulus (GPa) = 29.16103 31.78901 30.47502
#
# Velocity S-wave (km/s) = 3.78287 3.94965 3.86716
# Velocity P-wave (km/s) = 6.81846 7.13726 6.97968
#
# Compressibility (1/GPa) = 0.01790240
#
# Stress axis : x y z
#
# Youngs Moduli (GPa) = 76.83706 45.37984 90.15533
#
# Poissons Ratio (x) = 0.23063 0.24685
# Poissons Ratio (y) = 0.39051 0.56796
# Poissons Ratio (z) = 0.21039 0.28588
#
# Static dielectric constant tensor:
#      x y z
#    x 3.684490 0.000000 0.000000 
#    y 0.000000 3.559770 0.000000 
#    z 0.000000 0.000000 3.992300 
# 
# 
# High freq. dielectric constant tensor:
#      x y z
#    x 1.806920 0.000000 0.000000 
#    y 0.000000 1.775640 0.000000 
#    z 0.000000 0.000000 1.810500 
# 
# From -- ./inp_files/11500.got.cif
#   From: 2010.03.12/outbox.cif.g09.slc.cpg/sg44_6_cif.got.tgz:11500.got - 2010.04.14 02:36:11.
