data_PCOD8190885
_publ_section_title
;
Structure prediction by ZEFSAII (Michael W. Deem and Ramdas Pophale) SiO2 
 PCOD8190885
Probable space group: I B A 2
;
_chemical_formula_sum "Si O2"
_cell_formula_units_Z 64
_cell_length_a 28.713258
_cell_length_b 11.237772
_cell_length_c 9.215460
_cell_angle_alpha 90.000000
_cell_angle_beta 90.000000
_cell_angle_gamma 90.000000
_cell_volume 2973.580556
_symmetry_space_group_name_H-M "I B A 2"
_symmetry_group_IT_number 45
_symmetry_cell_setting 'orthorhombic'
loop_
_space_group_symop_operation_xyz
x,y,z
-x,-y,z
-x,y,1/2+z
x,-y,1/2+z
1/2+x,1/2+y,1/2+z
1/2-x,1/2-y,1/2+z
1/2-x,1/2+y,z
1/2+x,1/2-y,z
loop_
_atom_site_type_symbol
_atom_site_label
_atom_site_fract_x
_atom_site_fract_y
_atom_site_fract_z
Si Si1 0.654730 0.535761 0.508530
Si Si2 0.542414 0.293240 0.604734
Si Si3 0.863537 0.351557 0.085386
Si Si4 0.699320 0.763197 0.643286
Si Si5 0.590643 0.502155 0.250241
Si Si6 0.544240 0.745906 0.781467
Si Si7 0.286554 0.685440 0.465700
Si Si8 0.124241 0.572666 0.773434
O O1 0.681679 0.657395 0.539516
O O2 0.607455 0.544963 0.409703
O O3 0.637557 0.480242 0.658936
O O4 0.690766 0.443110 0.440342
O O5 0.592158 0.231631 0.602516
O O6 0.548192 0.420209 0.685415
O O7 0.501331 0.225672 0.687573
O O8 0.526120 0.296903 0.438745
O O9 0.868411 0.437351 0.223347
O O10 0.817556 0.270319 0.071137
O O11 0.862604 0.431280 0.941428
O O12 0.720256 0.730777 0.801181
O O13 0.737929 0.831059 0.548191
O O14 0.656262 0.848944 0.669795
O O15 0.576782 0.363647 0.231912
O O16 0.572494 0.869812 0.769024
#
# Coordination Sequence:
#
# PCOD8190885 Si02
#       8
#     8   8   8   8   8   8   8   8
#     4  12  23  44  70  95 136 175 215 273 336 393
#     4  11  25  41  65  97 131 170 216 271 331 395
#     4  10  23  45  64  89 128 171 216 271 320 390
#     4  11  26  43  67  98 132 174 220 275 331 396
#     4  12  22  42  69  95 133 171 215 269 336 395
#     4  11  24  42  63  96 133 167 217 273 328 399
#     4  11  25  44  65  97 133 170 224 274 330 397
#     4  10  23  45  64  89 128 170 218 268 323 387
#
# _framework density 21.522874999999999
#
# number of rings (size 3 to 8) (size 9 to 14) (size 15 to 20)
#    0.000    1.000    5.000    1.125    5.250    4.500 
#    0.000    2.500    0.000    0.000    0.000    0.000 
#    0.000    0.000    0.000    0.000    0.000    0.000 
#
# Total GULP energy -396579.658262 kJ/mol
# GULP energy per Si atom -12393.114321 kJ/mol
# Density = 2.147389 g / cm^3
# Si number density = 21.522875 Si / 1000 Ang^3
#
#
#
# Elastic Constant Matrix: (Units=GPa)
#
#
# Indices 1 2 3 4 5 6 
#
# 1 71.7453 -5.6513 26.8621 0.0000 0.0000 0.0000
# 2 -5.6513 45.9412 16.9286 0.0000 0.0000 0.0000
# 3 26.8621 16.9286 77.6151 0.0000 0.0000 0.0000
# 4 0.0000 0.0000 0.0000 35.8048 0.0000 0.0000
# 5 0.0000 0.0000 0.0000 0.0000 38.4607 0.0000
# 6 0.0000 0.0000 0.0000 0.0000 0.0000 17.9215
#
#
#
# Elastic Compliance Matrix: (Units=1/GPa)
#
#
# Indices 1 2 3 4 5 6 
#
# 1 0.016860 0.004593 -0.006837 0.000000 0.000000 0.000000
# 2 0.004593 0.024921 -0.007025 0.000000 0.000000 0.000000
# 3 -0.006837 -0.007025 0.016783 0.000000 0.000000 0.000000
# 4 0.000000 0.000000 0.000000 0.027929 0.000000 0.000000
# 5 0.000000 0.000000 0.000000 0.000000 0.026001 0.000000
# 6 0.000000 0.000000 0.000000 0.000000 0.000000 0.055799
#
#
# Mechanical properties :
#
#
# Convention : Reuss Voigt Hill
#
# Bulk Modulus (GPa) = 24.98417 30.17563 27.57990
# Shear Modulus (GPa) = 24.97864 28.91488 26.94676
#
# Velocity S-wave (km/s) = 3.41040 3.66928 3.54221
# Velocity P-wave (km/s) = 5.20972 5.65705 5.43799
#
# Compressibility (1/GPa) = 0.04002534
#
# Stress axis : x y z
#
# Youngs Moduli (GPa) = 59.31273 40.12747 59.58575
#
# Poissons Ratio (x) = -0.18431 0.40738
# Poissons Ratio (y) = -0.27244 0.41860
# Poissons Ratio (z) = 0.40551 0.28190
#
# Static dielectric constant tensor:
#      x y z
#    x 3.833390 0.000000 0.000000 
#    y 0.000000 3.740030 0.000000 
#    z 0.000000 0.000000 4.186540 
# 
# 
# High freq. dielectric constant tensor:
#      x y z
#    x 1.844700 0.000000 0.000000 
#    y 0.000000 1.831480 0.000000 
#    z 0.000000 0.000000 1.857510 
# 
# From -- ./inp_files/1496.got.cif
#   From: 2010.03.12/outbox.cif.g09.slc.cpg/sg45_1_cif.got.tgz:1496.got - 2010.04.14 02:50:11.
