data_PCOD8190152
_publ_section_title
;
Structure prediction by ZEFSAII (Michael W. Deem and Ramdas Pophale) SiO2 
 PCOD8190152
Probable space group: I M M 2
;
_chemical_formula_sum "Si O2"
_cell_formula_units_Z 48
_cell_length_a 7.887737
_cell_length_b 19.569789
_cell_length_c 15.249268
_cell_angle_alpha 90.000000
_cell_angle_beta 90.000000
_cell_angle_gamma 90.000000
_cell_volume 2353.897576
_symmetry_space_group_name_H-M "I M M 2"
_symmetry_group_IT_number 44
_symmetry_cell_setting 'orthorhombic'
loop_
_space_group_symop_operation_xyz
x,y,z
-x,-y,z
-x,y,z
x,-y,z
1/2+x,1/2+y,1/2+z
1/2-x,1/2-y,1/2+z
1/2-x,1/2+y,1/2+z
1/2+x,1/2-y,1/2+z
loop_
_atom_site_type_symbol
_atom_site_label
_atom_site_fract_x
_atom_site_fract_y
_atom_site_fract_z
Si Si1 0.500000 0.924170 0.225711
Si Si2 0.305433 0.328398 0.484758
Si Si3 0.191835 0.287181 0.124117
Si Si4 0.811968 0.750391 0.811635
Si Si5 0.500000 0.918372 0.035868
Si Si6 0.801691 0.923219 0.539964
Si Si7 0.188236 0.110642 0.344260
O O1 0.500000 0.884676 0.133588
O O2 0.674995 0.914204 0.275525
O O3 0.500000 0.000000 0.190986
O O4 0.500000 0.350502 0.507385
O O5 0.249821 0.263811 0.545912
O O6 0.293110 0.310362 0.381960
O O7 0.174333 0.390516 0.493750
O O8 0.296570 0.277653 0.212940
O O9 0.000000 0.270819 0.148434
O O10 0.205068 0.366199 0.095520
O O11 0.677442 0.692575 0.837842
O O12 0.000000 0.716730 0.818677
O O13 0.500000 0.000000 0.024793
O O14 0.751008 0.914971 0.438668
O O15 0.000000 0.910571 0.552333
O O16 0.749957 0.000000 0.570504
O O17 0.000000 0.081603 0.322780
#
# Coordination Sequence:
#
# PCOD8190152 Si02
#       7
#     4   8   8   8   4   8   8
#     4  11  24  40  60  91 129 170 212 258 319 387
#     4  10  24  43  65  96 129 162 213 270 319 376
#     4  11  23  38  62  99 129 165 214 265 320 379
#     4  11  22  39  64  93 124 166 214 263 322 376
#     4  11  26  44  68  93 122 172 216 262 330 385
#     4  10  22  39  60  90 131 177 214 258 326 389
#     4  11  22  38  61  93 129 169 211 263 318 382
#
# _framework density 20.391711000000001
#
# number of rings (size 3 to 8) (size 9 to 14) (size 15 to 20)
#    0.000    1.333    2.500    2.500    5.833    3.667 
#    0.000    2.500    0.000    1.000    0.000    0.000 
#    0.000    0.000    0.000    0.000    0.000    0.000 
#
# Total GULP energy -297495.706474 kJ/mol
# GULP energy per Si atom -12395.654436 kJ/mol
# Density = 2.034530 g / cm^3
# Si number density = 20.391711 Si / 1000 Ang^3
#
#
#
# Elastic Constant Matrix: (Units=GPa)
#
#
# Indices 1 2 3 4 5 6 
#
# 1 95.0273 36.9744 41.4243 0.0000 0.0000 0.0000
# 2 36.9744 109.0783 30.1059 0.0000 0.0000 0.0000
# 3 41.4243 30.1059 108.1812 0.0000 0.0000 0.0000
# 4 0.0000 0.0000 0.0000 27.7264 0.0000 0.0000
# 5 0.0000 0.0000 0.0000 0.0000 30.8758 0.0000
# 6 0.0000 0.0000 0.0000 0.0000 0.0000 21.1726
#
#
#
# Elastic Compliance Matrix: (Units=1/GPa)
#
#
# Indices 1 2 3 4 5 6 
#
# 1 0.013749 -0.003474 -0.004298 0.000000 0.000000 0.000000
# 2 -0.003474 0.010808 -0.001678 0.000000 0.000000 0.000000
# 3 -0.004298 -0.001678 0.011356 0.000000 0.000000 0.000000
# 4 0.000000 0.000000 0.000000 0.036067 0.000000 0.000000
# 5 0.000000 0.000000 0.000000 0.000000 0.032388 0.000000
# 6 0.000000 0.000000 0.000000 0.000000 0.000000 0.047231
#
#
# Mechanical properties :
#
#
# Convention : Reuss Voigt Hill
#
# Bulk Modulus (GPa) = 58.77412 58.81068 58.79240
# Shear Modulus (GPa) = 28.38185 29.54043 28.96114
#
# Velocity S-wave (km/s) = 3.73477 3.81024 3.77270
# Velocity P-wave (km/s) = 6.89080 6.94697 6.91894
#
# Compressibility (1/GPa) = 0.01701429
#
# Stress axis : x y z
#
# Youngs Moduli (GPa) = 72.73507 92.52076 88.05713
#
# Poissons Ratio (x) = 0.32143 0.37844
# Poissons Ratio (y) = 0.25269 0.14772
# Poissons Ratio (z) = 0.31259 0.15521
#
# Static dielectric constant tensor:
#      x y z
#    x 2.018870 0.000000 0.000000 
#    y 0.000000 3.469440 0.000000 
#    z 0.000000 0.000000 3.613650 
# 
# 
# High freq. dielectric constant tensor:
#      x y z
#    x 1.807630 0.000000 0.000000 
#    y 0.000000 1.785960 0.000000 
#    z 0.000000 0.000000 1.792010 
# 
# From -- ./inp_files/16179.got.cif
#   From: 2010.03.12/outbox.cif.g09.slc.cpg/sg44_9_cif.got.tgz:16179.got - 2010.04.14 02:36:11.
