data_PCOD8190644
_publ_section_title
;
Structure prediction by ZEFSAII (Michael W. Deem and Ramdas Pophale) SiO2 
 PCOD8190644
Probable space group: I B A 2
;
_chemical_formula_sum "Si O2"
_cell_formula_units_Z 56
_cell_length_a 22.222882
_cell_length_b 5.478889
_cell_length_c 20.448433
_cell_angle_alpha 90.000000
_cell_angle_beta 90.000000
_cell_angle_gamma 90.000000
_cell_volume 2489.733799
_symmetry_space_group_name_H-M "I B A 2"
_symmetry_group_IT_number 45
_symmetry_cell_setting 'orthorhombic'
loop_
_space_group_symop_operation_xyz
x,y,z
-x,-y,z
-x,y,1/2+z
x,-y,1/2+z
1/2+x,1/2+y,1/2+z
1/2-x,1/2-y,1/2+z
1/2-x,1/2+y,z
1/2+x,1/2-y,z
loop_
_atom_site_type_symbol
_atom_site_label
_atom_site_fract_x
_atom_site_fract_y
_atom_site_fract_z
Si Si1 0.500000 0.000000 0.272900
Si Si2 0.217527 0.617017 0.632372
Si Si3 0.400707 0.297144 0.830726
Si Si4 0.282188 0.897442 0.287251
Si Si5 0.097939 0.832600 0.591999
Si Si6 0.433578 0.393631 0.216288
Si Si7 0.500000 0.000000 0.547680
Si Si8 0.935426 0.116491 0.971561
O O1 0.532162 0.190708 0.320725
O O2 0.445711 0.105413 0.226891
O O3 0.245900 0.359464 0.608447
O O4 0.212055 0.608179 0.709729
O O5 0.151045 0.638198 0.601707
O O6 0.348229 0.100498 0.819436
O O7 0.392623 0.513596 0.777166
O O8 0.396917 0.384403 0.905377
O O9 0.248949 0.648449 0.311217
O O10 0.032639 0.698638 0.594217
O O11 0.100107 0.039376 0.649110
O O12 0.104804 0.963009 0.522338
O O13 0.500000 0.500000 0.218203
O O14 0.552098 0.116105 0.502047
O O15 0.000000 0.000000 0.958182
#
# Coordination Sequence:
#
# PCOD8190644 Si02
#       8
#     4   8   8   8   8   8   4   8
#     4  10  23  35  62  98 133 167 218 278 347 397
#     4  10  23  43  68  95 132 176 229 281 340 396
#     4  11  22  40  65  94 131 175 223 273 335 405
#     4  10  23  44  66  97 131 176 226 284 338 396
#     4  11  23  41  64  96 130 176 220 276 338 402
#     4  10  21  37  57  97 126 161 212 277 331 394
#     4  10  23  41  64  92 135 175 214 268 343 413
#     4  10  22  40  61  94 135 174 216 262 341 413
#
# _framework density 22.492363000000001
#
# number of rings (size 3 to 8) (size 9 to 14) (size 15 to 20)
#    0.000    1.714    1.429    3.000    4.000    7.429 
#    0.000    1.429    0.000    0.000    0.000    0.000 
#    0.000    0.000    0.000    0.000    0.000    0.000 
#
# Total GULP energy -347087.740584 kJ/mol
# GULP energy per Si atom -12395.990735 kJ/mol
# Density = 2.244117 g / cm^3
# Si number density = 22.492363 Si / 1000 Ang^3
#
#
#
# Elastic Constant Matrix: (Units=GPa)
#
#
# Indices 1 2 3 4 5 6 
#
# 1 60.5507 9.2432 23.9267 0.0000 0.0000 0.0000
# 2 9.2432 94.4796 33.7871 0.0000 0.0000 0.0000
# 3 23.9267 33.7871 112.1950 0.0000 0.0000 0.0000
# 4 0.0000 0.0000 0.0000 17.4721 0.0000 0.0000
# 5 0.0000 0.0000 0.0000 0.0000 22.6683 0.0000
# 6 0.0000 0.0000 0.0000 0.0000 0.0000 33.8349
#
#
#
# Elastic Compliance Matrix: (Units=1/GPa)
#
#
# Indices 1 2 3 4 5 6 
#
# 1 0.018051 -0.000436 -0.003718 0.000000 0.000000 0.000000
# 2 -0.000436 0.011872 -0.003482 0.000000 0.000000 0.000000
# 3 -0.003718 -0.003482 0.010755 0.000000 0.000000 0.000000
# 4 0.000000 0.000000 0.000000 0.057234 0.000000 0.000000
# 5 0.000000 0.000000 0.000000 0.000000 0.044114 0.000000
# 6 0.000000 0.000000 0.000000 0.000000 0.000000 0.029555
#
#
# Mechanical properties :
#
#
# Convention : Reuss Voigt Hill
#
# Bulk Modulus (GPa) = 39.36318 44.57103 41.96710
# Shear Modulus (GPa) = 25.59861 28.14629 26.87245
#
# Velocity S-wave (km/s) = 3.37724 3.54131 3.46025
# Velocity P-wave (km/s) = 5.72244 6.04816 5.88755
#
# Compressibility (1/GPa) = 0.02540445
#
# Stress axis : x y z
#
# Youngs Moduli (GPa) = 55.39882 84.22985 92.98305
#
# Poissons Ratio (x) = 0.03675 0.34572
# Poissons Ratio (y) = 0.02417 0.32379
# Poissons Ratio (z) = 0.20598 0.29331
#
# Static dielectric constant tensor:
#      x y z
#    x 3.897450 0.000000 0.000000 
#    y 0.000000 4.928090 0.000000 
#    z 0.000000 0.000000 3.855640 
# 
# 
# High freq. dielectric constant tensor:
#      x y z
#    x 1.869380 0.000000 0.000000 
#    y 0.000000 1.892980 0.000000 
#    z 0.000000 0.000000 1.862170 
# 
# From -- ./inp_files/9340.got.cif
#   From: 2010.03.12/outbox.cif.g09.slc.cpg/sg45_5_cif.got.tgz:9340.got - 2010.04.14 02:50:11.
