data_PCOD8190341
_publ_section_title
;
Structure prediction by ZEFSAII (Michael W. Deem and Ramdas Pophale) SiO2 
 PCOD8190341
Probable space group: I M M 2
;
_chemical_formula_sum "Si O2"
_cell_formula_units_Z 48
_cell_length_a 24.047145
_cell_length_b 9.292260
_cell_length_c 13.809960
_cell_angle_alpha 90.000000
_cell_angle_beta 90.000000
_cell_angle_gamma 90.000000
_cell_volume 3085.867651
_symmetry_space_group_name_H-M "I M M 2"
_symmetry_group_IT_number 44
_symmetry_cell_setting 'orthorhombic'
loop_
_space_group_symop_operation_xyz
x,y,z
-x,-y,z
-x,y,z
x,-y,z
1/2+x,1/2+y,1/2+z
1/2-x,1/2-y,1/2+z
1/2-x,1/2+y,1/2+z
1/2+x,1/2-y,1/2+z
loop_
_atom_site_type_symbol
_atom_site_label
_atom_site_fract_x
_atom_site_fract_y
_atom_site_fract_z
Si Si1 0.725692 0.170560 0.473340
Si Si2 0.562325 0.331535 0.973040
Si Si3 0.225692 0.170560 0.169839
Si Si4 0.167373 0.669881 0.783365
Si Si5 0.167373 0.169881 0.359813
Si Si6 0.937675 0.668466 0.670140
O O1 0.709705 0.250001 0.571589
O O2 0.681143 0.222626 0.392007
O O3 0.786509 0.222723 0.437095
O O4 0.723481 0.000000 0.490534
O O5 0.500000 0.296648 0.935721
O O6 0.569760 0.500000 0.993912
O O7 0.575465 0.249998 0.071589
O O8 0.606133 0.277039 0.892175
O O9 0.286509 0.222723 0.206084
O O10 0.181143 0.222630 0.251172
O O11 0.223481 0.000000 0.152647
O O12 0.171052 0.500000 0.785027
O O13 0.106133 0.722964 0.751003
O O14 0.171055 0.000000 0.358149
O O15 0.930241 0.500000 0.649271
O O16 0.000000 0.703357 0.707458
#
# Coordination Sequence:
#
# PCOD8190341 Si02
#       6
#     8   8   8   8   8   8
#     4   9  16  27  42  58  78 103 130 159 190 226
#     4   9  16  26  41  60  80 102 128 157 190 229
#     4   9  16  27  42  58  78 103 130 159 190 226
#     4   8  15  27  41  57  79 106 129 152 190 235
#     4   8  15  27  41  57  79 106 129 152 190 235
#     4   9  16  26  41  60  80 102 128 157 190 229
#
# _framework density 15.554783
#
# number of rings (size 3 to 8) (size 9 to 14) (size 15 to 20)
#    0.000    3.333    0.000    3.000    0.000    0.000 
#    0.000    5.000    0.000    1.000    0.000    0.000 
#    0.000    0.000    0.000    0.000    0.000    0.000 
#
# Total GULP energy -297412.978815 kJ/mol
# GULP energy per Si atom -12392.207451 kJ/mol
# Density = 1.551938 g / cm^3
# Si number density = 15.554783 Si / 1000 Ang^3
#
#
#
# Elastic Constant Matrix: (Units=GPa)
#
#
# Indices 1 2 3 4 5 6 
#
# 1 133.4485 26.1253 83.3221 0.0000 0.0000 0.0000
# 2 26.1253 25.6975 33.4074 0.0000 0.0000 0.0000
# 3 83.3221 33.4074 136.8360 0.0000 0.0000 0.0000
# 4 0.0000 0.0000 0.0000 27.0459 0.0000 0.0000
# 5 0.0000 0.0000 0.0000 0.0000 27.0621 0.0000
# 6 0.0000 0.0000 0.0000 0.0000 0.0000 13.0787
#
#
#
# Elastic Compliance Matrix: (Units=1/GPa)
#
#
# Indices 1 2 3 4 5 6 
#
# 1 0.012375 -0.004080 -0.006540 0.000000 0.000000 0.000000
# 2 -0.004080 0.058353 -0.011762 0.000000 0.000000 0.000000
# 3 -0.006540 -0.011762 0.014162 0.000000 0.000000 0.000000
# 4 0.000000 0.000000 0.000000 0.036974 0.000000 0.000000
# 5 0.000000 0.000000 0.000000 0.000000 0.036952 0.000000
# 6 0.000000 0.000000 0.000000 0.000000 0.000000 0.076460
#
#
# Mechanical properties :
#
#
# Convention : Reuss Voigt Hill
#
# Bulk Modulus (GPa) = 24.92073 64.63239 44.77656
# Shear Modulus (GPa) = 17.04068 23.64582 20.34325
#
# Velocity S-wave (km/s) = 3.31347 3.90316 3.62034
# Velocity P-wave (km/s) = 5.54029 7.87112 6.80622
#
# Compressibility (1/GPa) = 0.04012724
#
# Stress axis : x y z
#
# Youngs Moduli (GPa) = 80.80562 17.13700 70.61282
#
# Poissons Ratio (x) = 0.06992 0.46178
# Poissons Ratio (y) = 0.32967 0.83056
# Poissons Ratio (z) = 0.52843 0.20157
#
# Static dielectric constant tensor:
#      x y z
#    x 3.330310 0.000000 0.000000 
#    y 0.000000 2.660470 0.000000 
#    z 0.000000 0.000000 3.087400 
# 
# 
# High freq. dielectric constant tensor:
#      x y z
#    x 1.594680 0.000000 0.000000 
#    y 0.000000 1.566880 0.000000 
#    z 0.000000 0.000000 1.587920 
# 
# From -- ./inp_files/6021.got.cif
#   From: 2010.03.12/outbox.cif.g09.slc.cpg/sg44_4_cif.got.tgz:6021.got - 2010.04.14 02:36:11.
