data_PCOD8190483
_publ_section_title
;
Structure prediction by ZEFSAII (Michael W. Deem and Ramdas Pophale) SiO2 
 PCOD8190483
Probable space group: I B A 2
;
_chemical_formula_sum "Si O2"
_cell_formula_units_Z 48
_cell_length_a 15.833499
_cell_length_b 8.443522
_cell_length_c 13.900979
_cell_angle_alpha 90.000000
_cell_angle_beta 90.000000
_cell_angle_gamma 90.000000
_cell_volume 1858.428793
_symmetry_space_group_name_H-M "I B A 2"
_symmetry_group_IT_number 45
_symmetry_cell_setting 'orthorhombic'
loop_
_space_group_symop_operation_xyz
x,y,z
-x,-y,z
-x,y,1/2+z
x,-y,1/2+z
1/2+x,1/2+y,1/2+z
1/2-x,1/2-y,1/2+z
1/2-x,1/2+y,z
1/2+x,1/2-y,z
loop_
_atom_site_type_symbol
_atom_site_label
_atom_site_fract_x
_atom_site_fract_y
_atom_site_fract_z
Si Si1 0.053663 0.822245 0.417990
Si Si2 0.068694 0.639626 0.803746
Si Si3 0.168746 0.068024 0.481069
Si Si4 0.572707 0.878946 0.597159
Si Si5 0.209133 0.627164 0.095006
Si Si6 0.695540 0.116357 0.823546
O O1 0.040379 0.737208 0.518063
O O2 0.131442 0.755215 0.354462
O O3 0.963953 0.789838 0.364622
O O4 0.076226 0.007015 0.442528
O O5 0.088562 0.709579 0.698046
O O6 0.154702 0.558093 0.842675
O O7 0.000000 0.500000 0.808011
O O8 0.163977 0.214467 0.555001
O O9 0.220058 0.121641 0.386561
O O10 0.203038 0.911244 0.539829
O O11 0.500000 0.000000 0.622409
O O12 0.656277 0.971721 0.564094
O O13 0.217431 0.641078 0.210421
#
# Coordination Sequence:
#
# PCOD8190483 Si02
#       6
#     8   8   8   8   8   8
#     4  11  21  40  69 101 137 180 243 298 358 435
#     4   8  18  36  67 101 124 184 240 286 348 439
#     4  12  24  42  66 107 143 189 235 309 374 434
#     4  10  19  40  72  96 131 183 236 289 352 444
#     4  11  24  40  66 103 141 187 239 297 370 443
#     4  10  21  40  68 100 146 186 241 292 366 449
#
# _framework density 25.828271999999998
#
# number of rings (size 3 to 8) (size 9 to 14) (size 15 to 20)
#    0.000    1.667    3.333    2.500    2.333    0.000 
#    0.000    0.833    0.000    4.000    0.000    0.000 
#    0.000    0.000    0.000    0.000    0.000    0.000 
#
# Total GULP energy -297474.890029 kJ/mol
# GULP energy per Si atom -12394.787085 kJ/mol
# Density = 2.576949 g / cm^3
# Si number density = 25.828272 Si / 1000 Ang^3
#
#
#
# Elastic Constant Matrix: (Units=GPa)
#
#
# Indices 1 2 3 4 5 6 
#
# 1 57.4285 29.7238 27.2259 0.0000 0.0000 0.0000
# 2 29.7238 113.7407 83.9233 0.0000 0.0000 0.0000
# 3 27.2259 83.9233 160.6950 0.0000 0.0000 0.0000
# 4 0.0000 0.0000 0.0000 21.8720 0.0000 0.0000
# 5 0.0000 0.0000 0.0000 0.0000 39.2114 0.0000
# 6 0.0000 0.0000 0.0000 0.0000 0.0000 24.8546
#
#
#
# Elastic Compliance Matrix: (Units=1/GPa)
#
#
# Indices 1 2 3 4 5 6 
#
# 1 0.020252 -0.004492 -0.001086 0.000000 0.000000 0.000000
# 2 -0.004492 0.015300 -0.007229 0.000000 0.000000 0.000000
# 3 -0.001086 -0.007229 0.010182 0.000000 0.000000 0.000000
# 4 0.000000 0.000000 0.000000 0.045721 0.000000 0.000000
# 5 0.000000 0.000000 0.000000 0.000000 0.025503 0.000000
# 6 0.000000 0.000000 0.000000 0.000000 0.000000 0.040234
#
#
# Mechanical properties :
#
#
# Convention : Reuss Voigt Hill
#
# Bulk Modulus (GPa) = 49.69769 68.17891 58.93830
# Shear Modulus (GPa) = 26.38348 29.92033 28.15191
#
# Velocity S-wave (km/s) = 3.19955 3.40727 3.30504
# Velocity P-wave (km/s) = 5.73872 6.47562 6.11827
#
# Compressibility (1/GPa) = 0.02012166
#
# Stress axis : x y z
#
# Youngs Moduli (GPa) = 49.37698 65.35977 98.20802
#
# Poissons Ratio (x) = 0.29357 0.10661
# Poissons Ratio (y) = 0.22178 0.70999
# Poissons Ratio (z) = 0.05360 0.47251
#
# Static dielectric constant tensor:
#      x y z
#    x 4.167980 0.000000 0.000000 
#    y 0.000000 4.525520 0.000000 
#    z 0.000000 0.000000 4.810310 
# 
# 
# High freq. dielectric constant tensor:
#      x y z
#    x 2.041280 0.000000 0.000000 
#    y 0.000000 2.028000 0.000000 
#    z 0.000000 0.000000 2.050250 
# 
# From -- ./inp_files/5616.got.cif
#   From: 2010.03.12/outbox.cif.g09.slc.cpg/sg45_3_cif.got.tgz:5616.got - 2010.04.14 02:50:11.
