data_PCOD8190196
_publ_section_title
;
Structure prediction by ZEFSAII (Michael W. Deem and Ramdas Pophale) SiO2 
 PCOD8190196
Probable space group: I M M 2
;
_chemical_formula_sum "Si O2"
_cell_formula_units_Z 56
_cell_length_a 16.079540
_cell_length_b 19.119478
_cell_length_c 9.037406
_cell_angle_alpha 90.000000
_cell_angle_beta 90.000000
_cell_angle_gamma 90.000000
_cell_volume 2778.391518
_symmetry_space_group_name_H-M "I M M 2"
_symmetry_group_IT_number 44
_symmetry_cell_setting 'orthorhombic'
loop_
_space_group_symop_operation_xyz
x,y,z
-x,-y,z
-x,y,z
x,-y,z
1/2+x,1/2+y,1/2+z
1/2-x,1/2-y,1/2+z
1/2-x,1/2+y,1/2+z
1/2+x,1/2-y,1/2+z
loop_
_atom_site_type_symbol
_atom_site_label
_atom_site_fract_x
_atom_site_fract_y
_atom_site_fract_z
Si Si1 0.825275 0.920237 0.250000
Si Si2 0.343844 0.846330 0.228875
Si Si3 0.500000 0.917429 0.725269
Si Si4 0.677820 0.312789 0.248662
Si Si5 0.000000 0.417234 0.880365
Si Si6 0.857060 0.332421 0.378003
Si Si7 0.593316 0.684172 0.948655
Si Si8 0.406137 0.577608 0.442740
O O1 0.737195 0.886032 0.285518
O O2 0.897290 0.881256 0.340235
O O3 0.824604 0.000000 0.302345
O O4 0.842927 0.912418 0.077045
O O5 0.339118 0.767549 0.292388
O O6 0.420912 0.884824 0.300752
O O7 0.349994 0.849128 0.051681
O O8 0.500000 0.896967 0.552772
O O9 0.417525 0.887952 0.802248
O O10 0.500000 0.000000 0.748060
O O11 0.769085 0.337936 0.294946
O O12 0.610217 0.362806 0.323478
O O13 0.664103 0.320675 0.073750
O O14 0.000000 0.500000 0.856781
O O15 0.893620 0.254963 0.354736
O O16 0.500000 0.683954 0.015976
O O17 0.500000 0.585341 0.501638
O O18 0.393037 0.500000 0.372890
#
# Coordination Sequence:
#
# PCOD8190196 Si02
#       8
#     8   8   4   8   4   8   8   8
#     4  11  23  41  65  94 127 170 215 263 323 387
#     4  11  24  42  68  98 130 172 218 267 329 393
#     4  11  27  45  69  99 132 175 218 269 331 396
#     4  11  24  41  68  98 127 169 220 264 322 389
#     4  11  27  45  65  99 136 171 218 275 331 394
#     4  11  23  44  67  96 133 172 218 265 326 393
#     4  11  24  42  64  96 134 171 216 269 325 385
#     4  10  22  41  64  94 128 164 210 263 318 380
#
# _framework density 20.155548
#
# number of rings (size 3 to 8) (size 9 to 14) (size 15 to 20)
#    0.000    1.143    3.571    1.714    6.000    4.857 
#    0.000    0.000    0.000    0.000    0.000    0.000 
#    0.000    0.000    0.000    0.000    0.000    0.000 
#
# Total GULP energy -347299.648382 kJ/mol
# GULP energy per Si atom -12403.558871 kJ/mol
# Density = 2.010967 g / cm^3
# Si number density = 20.155548 Si / 1000 Ang^3
#
#
#
# Elastic Constant Matrix: (Units=GPa)
#
#
# Indices 1 2 3 4 5 6 
#
# 1 129.7696 49.2294 42.2040 0.0000 0.0000 0.0000
# 2 49.2294 143.1118 53.2031 0.0000 0.0000 0.0000
# 3 42.2040 53.2031 79.9918 0.0000 0.0000 0.0000
# 4 0.0000 0.0000 0.0000 37.2941 0.0000 0.0000
# 5 0.0000 0.0000 0.0000 0.0000 43.5880 0.0000
# 6 0.0000 0.0000 0.0000 0.0000 0.0000 36.1763
#
#
#
# Elastic Compliance Matrix: (Units=1/GPa)
#
#
# Indices 1 2 3 4 5 6 
#
# 1 0.009676 -0.001901 -0.003841 0.000000 0.000000 0.000000
# 2 -0.001901 0.009656 -0.005420 0.000000 0.000000 0.000000
# 3 -0.003841 -0.005420 0.018132 0.000000 0.000000 0.000000
# 4 0.000000 0.000000 0.000000 0.026814 0.000000 0.000000
# 5 0.000000 0.000000 0.000000 0.000000 0.022942 0.000000
# 6 0.000000 0.000000 0.000000 0.000000 0.000000 0.027642
#
#
# Mechanical properties :
#
#
# Convention : Reuss Voigt Hill
#
# Bulk Modulus (GPa) = 66.04055 71.34958 68.69506
# Shear Modulus (GPa) = 35.15355 37.29411 36.22383
#
# Velocity S-wave (km/s) = 4.18079 4.30620 4.24396
# Velocity P-wave (km/s) = 7.49279 7.75891 7.62701
#
# Compressibility (1/GPa) = 0.01514221
#
# Stress axis : x y z
#
# Youngs Moduli (GPa) = 103.34653 103.56135 55.14970
#
# Poissons Ratio (x) = 0.19683 0.21184
# Poissons Ratio (y) = 0.19642 0.29889
# Poissons Ratio (z) = 0.39697 0.56126
#
# Static dielectric constant tensor:
#      x y z
#    x 3.633450 0.000000 0.000000 
#    y 0.000000 3.849190 0.000000 
#    z 0.000000 0.000000 3.539690 
# 
# 
# High freq. dielectric constant tensor:
#      x y z
#    x 1.800900 0.000000 0.000000 
#    y 0.000000 1.800460 0.000000 
#    z 0.000000 0.000000 1.779220 
# 
# From -- ./inp_files/7430.got.cif
#   From: 2010.03.12/outbox.cif.g09.slc.cpg/sg44_4_cif.got.tgz:7430.got - 2010.04.14 02:36:11.
