data_PCOD8190194
_publ_section_title
;
Structure prediction by ZEFSAII (Michael W. Deem and Ramdas Pophale) SiO2 
 PCOD8190194
Probable space group: I M M 2
;
_chemical_formula_sum "Si O2"
_cell_formula_units_Z 48
_cell_length_a 8.807892
_cell_length_b 18.087147
_cell_length_c 14.907990
_cell_angle_alpha 90.000000
_cell_angle_beta 90.000000
_cell_angle_gamma 90.000000
_cell_volume 2374.986481
_symmetry_space_group_name_H-M "I M M 2"
_symmetry_group_IT_number 44
_symmetry_cell_setting 'orthorhombic'
loop_
_space_group_symop_operation_xyz
x,y,z
-x,-y,z
-x,y,z
x,-y,z
1/2+x,1/2+y,1/2+z
1/2-x,1/2-y,1/2+z
1/2-x,1/2+y,1/2+z
1/2+x,1/2-y,1/2+z
loop_
_atom_site_type_symbol
_atom_site_label
_atom_site_fract_x
_atom_site_fract_y
_atom_site_fract_z
Si Si1 0.171501 0.396059 0.423090
Si Si2 0.679400 0.000000 0.599564
Si Si3 0.179063 0.000000 0.790878
Si Si4 0.169801 0.765068 0.363865
Si Si5 0.679650 0.351452 0.037455
Si Si6 0.177658 0.726580 0.677926
Si Si7 0.174841 0.081408 0.106368
O O1 0.250218 0.426366 0.333597
O O2 0.173892 0.308227 0.423569
O O3 0.264684 0.426129 0.506206
O O4 0.000000 0.425928 0.428674
O O5 0.779172 0.000000 0.688022
O O6 0.725456 0.073531 0.546126
O O7 0.500000 0.000000 0.619205
O O8 0.000000 0.000000 0.803013
O O9 0.216227 0.827746 0.435100
O O10 0.282574 0.755777 0.280721
O O11 0.000000 0.779251 0.326000
O O12 0.500000 0.365152 0.051248
O O13 0.739140 0.290068 0.109924
O O14 0.239635 0.644796 0.660053
O O15 0.000000 0.722618 0.665298
O O16 0.000000 0.103719 0.103285
O O17 0.197018 0.000000 0.151927
#
# Coordination Sequence:
#
# PCOD8190194 Si02
#       7
#     8   4   4   8   8   8   8
#     4  11  21  37  62  92 125 160 202 256 311 369
#     4  12  26  42  62  93 124 161 212 266 316 366
#     4  12  24  38  58  91 128 167 206 250 314 382
#     4  10  22  41  64  92 123 162 209 254 313 376
#     4  10  22  44  67  89 125 170 208 255 317 380
#     4  11  23  41  66  95 124 163 212 260 311 370
#     4  11  23  39  61  91 127 167 206 249 309 375
#
# _framework density 20.210640999999999
#
# number of rings (size 3 to 8) (size 9 to 14) (size 15 to 20)
#    0.000    1.167    2.500    4.000    0.000    7.000 
#    1.500    0.000    0.000    0.000    0.000    0.000 
#    0.000    0.000    0.000    0.000    0.000    0.000 
#
# Total GULP energy -297603.948516 kJ/mol
# GULP energy per Si atom -12400.164522 kJ/mol
# Density = 2.016464 g / cm^3
# Si number density = 20.210641 Si / 1000 Ang^3
#
#
#
# Elastic Constant Matrix: (Units=GPa)
#
#
# Indices 1 2 3 4 5 6 
#
# 1 69.3422 42.2568 20.2687 0.0000 0.0000 0.0000
# 2 42.2568 125.9838 31.9971 0.0000 0.0000 0.0000
# 3 20.2687 31.9971 72.5393 0.0000 0.0000 0.0000
# 4 0.0000 0.0000 0.0000 31.8799 0.0000 0.0000
# 5 0.0000 0.0000 0.0000 0.0000 36.9432 0.0000
# 6 0.0000 0.0000 0.0000 0.0000 0.0000 30.8840
#
#
#
# Elastic Compliance Matrix: (Units=1/GPa)
#
#
# Indices 1 2 3 4 5 6 
#
# 1 0.018602 -0.005540 -0.002754 0.000000 0.000000 0.000000
# 2 -0.005540 0.010589 -0.003123 0.000000 0.000000 0.000000
# 3 -0.002754 -0.003123 0.015933 0.000000 0.000000 0.000000
# 4 0.000000 0.000000 0.000000 0.031368 0.000000 0.000000
# 5 0.000000 0.000000 0.000000 0.000000 0.027069 0.000000
# 6 0.000000 0.000000 0.000000 0.000000 0.000000 0.032379
#
#
# Mechanical properties :
#
#
# Convention : Reuss Voigt Hill
#
# Bulk Modulus (GPa) = 44.86311 50.76784 47.81547
# Shear Modulus (GPa) = 30.08367 31.49758 30.79063
#
# Velocity S-wave (km/s) = 3.86230 3.95202 3.90742
# Velocity P-wave (km/s) = 6.49121 6.78222 6.63831
#
# Compressibility (1/GPa) = 0.02229003
#
# Stress axis : x y z
#
# Youngs Moduli (GPa) = 53.75682 94.43902 62.76432
#
# Poissons Ratio (x) = 0.52319 0.17286
# Poissons Ratio (y) = 0.29781 0.19600
# Poissons Ratio (z) = 0.14805 0.29491
#
# Static dielectric constant tensor:
#      x y z
#    x 3.674400 0.000000 0.000000 
#    y 0.000000 3.946300 0.000000 
#    z 0.000000 0.000000 3.539690 
# 
# 
# High freq. dielectric constant tensor:
#      x y z
#    x 1.790890 0.000000 0.000000 
#    y 0.000000 1.804050 0.000000 
#    z 0.000000 0.000000 1.780670 
# 
# From -- ./inp_files/16178.got.cif
#   From: 2010.03.12/outbox.cif.g09.slc.cpg/sg44_9_cif.got.tgz:16178.got - 2010.04.14 02:36:11.
