data_PCOD8190506
_publ_section_title
;
Structure prediction by ZEFSAII (Michael W. Deem and Ramdas Pophale) SiO2 
 PCOD8190506
Probable space group: I B A 2
;
_chemical_formula_sum "Si O2"
_cell_formula_units_Z 52
_cell_length_a 30.295019
_cell_length_b 10.264223
_cell_length_c 9.323274
_cell_angle_alpha 90.000000
_cell_angle_beta 90.000000
_cell_angle_gamma 90.000000
_cell_volume 2899.117089
_symmetry_space_group_name_H-M "I B A 2"
_symmetry_group_IT_number 45
_symmetry_cell_setting 'orthorhombic'
loop_
_space_group_symop_operation_xyz
x,y,z
-x,-y,z
-x,y,1/2+z
x,-y,1/2+z
1/2+x,1/2+y,1/2+z
1/2-x,1/2-y,1/2+z
1/2-x,1/2+y,z
1/2+x,1/2-y,z
loop_
_atom_site_type_symbol
_atom_site_label
_atom_site_fract_x
_atom_site_fract_y
_atom_site_fract_z
Si Si1 0.586848 0.597463 0.752710
Si Si2 0.500000 0.500000 0.657099
Si Si3 0.730190 0.131372 0.221754
Si Si4 0.126847 0.359272 0.211568
Si Si5 0.917085 0.131896 0.068996
Si Si6 0.877152 0.606403 0.537497
Si Si7 0.773898 0.630314 0.558266
O O1 0.533183 0.589053 0.751517
O O2 0.603150 0.724656 0.666765
O O3 0.606914 0.467109 0.679602
O O4 0.604532 0.605436 0.914079
O O5 0.469735 0.599628 0.563572
O O6 0.678890 0.160885 0.199380
O O7 0.756441 0.244076 0.141132
O O8 0.742024 0.125832 0.391785
O O9 0.743345 0.996214 0.144345
O O10 0.112553 0.403130 0.369824
O O11 0.109093 0.468900 0.104203
O O12 0.907028 0.280800 0.111544
O O13 0.826456 0.638543 0.567724
#
# Coordination Sequence:
#
# PCOD8190506 Si02
#       7
#     8   4   8   8   8   8   8
#     4   9  18  32  52  75 100 129 167 207 251 301
#     4   8  18  32  56  72 106 128 168 208 262 292
#     4  10  20  35  54  75 105 138 174 216 261 309
#     4   9  19  35  52  75 103 134 170 211 253 304
#     4   9  18  32  52  75 100 129 167 207 251 301
#     4   9  19  35  52  75 103 134 170 211 253 304
#     4  10  20  35  54  75 105 138 174 216 261 309
#
# _framework density 17.936494
#
# number of rings (size 3 to 8) (size 9 to 14) (size 15 to 20)
#    0.923    1.846    0.000    1.385    0.000    3.692 
#    0.000    3.846    0.000    3.692    0.000    0.000 
#    0.000    0.000    0.000    0.000    0.000    0.000 
#
# Total GULP energy -322178.675835 kJ/mol
# GULP energy per Si atom -12391.487532 kJ/mol
# Density = 1.789567 g / cm^3
# Si number density = 17.936494 Si / 1000 Ang^3
#
#
#
# Elastic Constant Matrix: (Units=GPa)
#
#
# Indices 1 2 3 4 5 6 
#
# 1 30.4018 19.2017 7.3860 0.0000 0.0000 0.0000
# 2 19.2017 49.7213 9.2174 0.0000 0.0000 0.0000
# 3 7.3860 9.2174 67.0754 0.0000 0.0000 0.0000
# 4 0.0000 0.0000 0.0000 37.0700 0.0000 0.0000
# 5 0.0000 0.0000 0.0000 0.0000 14.2463 0.0000
# 6 0.0000 0.0000 0.0000 0.0000 0.0000 38.6684
#
#
#
# Elastic Compliance Matrix: (Units=1/GPa)
#
#
# Indices 1 2 3 4 5 6 
#
# 1 0.043932 -0.016489 -0.002572 0.000000 0.000000 0.000000
# 2 -0.016489 0.026827 -0.001871 0.000000 0.000000 0.000000
# 3 -0.002572 -0.001871 0.015449 0.000000 0.000000 0.000000
# 4 0.000000 0.000000 0.000000 0.026976 0.000000 0.000000
# 5 0.000000 0.000000 0.000000 0.000000 0.070193 0.000000
# 6 0.000000 0.000000 0.000000 0.000000 0.000000 0.025861
#
#
# Mechanical properties :
#
#
# Convention : Reuss Voigt Hill
#
# Bulk Modulus (GPa) = 22.55075 24.31207 23.43141
# Shear Modulus (GPa) = 18.80526 25.42318 22.11422
#
# Velocity S-wave (km/s) = 3.24147 3.76892 3.51510
# Velocity P-wave (km/s) = 5.15842 5.70295 5.43751
#
# Compressibility (1/GPa) = 0.04434443
#
# Stress axis : x y z
#
# Youngs Moduli (GPa) = 22.76239 37.27612 64.72971
#
# Poissons Ratio (x) = 0.61465 0.16646
# Poissons Ratio (y) = 0.37533 0.12109
# Poissons Ratio (z) = 0.05854 0.06974
#
# Static dielectric constant tensor:
#      x y z
#    x 3.055160 0.000000 0.000000 
#    y 0.000000 3.402320 0.000000 
#    z 0.000000 0.000000 3.336990 
# 
# 
# High freq. dielectric constant tensor:
#      x y z
#    x 1.668030 0.000000 0.000000 
#    y 0.000000 1.700320 0.000000 
#    z 0.000000 0.000000 1.696240 
# 
# From -- ./inp_files/4935.got.cif
#   From: 2010.03.12/outbox.cif.g09.slc.cpg/sg45_3_cif.got.tgz:4935.got - 2010.04.14 02:50:11.
