data_PCOD8190058
_publ_section_title
;
Structure prediction by ZEFSAII (Michael W. Deem and Ramdas Pophale) SiO2 
 PCOD8190058
Probable space group: I M M 2
;
_chemical_formula_sum "Si O2"
_cell_formula_units_Z 40
_cell_length_a 19.289472
_cell_length_b 8.798075
_cell_length_c 10.597201
_cell_angle_alpha 90.000000
_cell_angle_beta 90.000000
_cell_angle_gamma 90.000000
_cell_volume 1798.453328
_symmetry_space_group_name_H-M "I M M 2"
_symmetry_group_IT_number 44
_symmetry_cell_setting 'orthorhombic'
loop_
_space_group_symop_operation_xyz
x,y,z
-x,-y,z
-x,y,z
x,-y,z
1/2+x,1/2+y,1/2+z
1/2-x,1/2-y,1/2+z
1/2-x,1/2+y,1/2+z
1/2+x,1/2-y,1/2+z
loop_
_atom_site_type_symbol
_atom_site_label
_atom_site_fract_x
_atom_site_fract_y
_atom_site_fract_z
Si Si1 0.582009 0.330216 0.804690
Si Si2 0.420239 0.178267 0.547996
Si Si3 0.791613 0.176407 0.952989
Si Si4 0.578777 0.178819 0.059906
Si Si5 0.703060 0.677011 0.172674
O O1 0.500000 0.338780 0.812916
O O2 0.613380 0.500000 0.789122
O O3 0.603946 0.224379 0.688568
O O4 0.609379 0.254002 0.932617
O O5 0.500000 0.223308 0.522223
O O6 0.372238 0.272181 0.452160
O O7 0.408315 0.000000 0.530294
O O8 0.763219 0.209526 0.810955
O O9 0.784841 0.000000 0.987015
O O10 0.752349 0.270842 0.059726
O O11 0.500000 0.229470 0.090460
O O12 0.629487 0.234658 0.170088
O O13 0.583143 0.000000 0.042645
O O14 0.687542 0.500000 0.156813
#
# Coordination Sequence:
#
# PCOD8190058 Si02
#       5
#     8   8   8   8   8
#     4   9  17  31  55  89 127 167 210 257 312 373
#     4  10  21  38  63  95 131 170 214 266 323 384
#     4  11  26  46  68  95 129 172 219 268 327 392
#     4  10  21  38  63  95 131 170 214 266 323 384
#     4  11  26  46  68  95 129 172 219 268 327 392
#
# _framework density 22.241333000000001
#
# number of rings (size 3 to 8) (size 9 to 14) (size 15 to 20)
#    0.000    1.800    0.000    3.000    2.800    8.800 
#    0.000    4.000    0.000    0.000    0.000    0.000 
#    0.000    0.000    0.000    0.000    0.000    0.000 
#
# Total GULP energy -248002.587902 kJ/mol
# GULP energy per Si atom -12400.129395 kJ/mol
# Density = 2.219071 g / cm^3
# Si number density = 22.241333 Si / 1000 Ang^3
#
#
#
# Elastic Constant Matrix: (Units=GPa)
#
#
# Indices 1 2 3 4 5 6 
#
# 1 74.1588 10.0870 37.6607 0.0000 0.0000 0.0000
# 2 10.0870 60.4766 23.7106 0.0000 0.0000 0.0000
# 3 37.6607 23.7106 107.6886 0.0000 0.0000 0.0000
# 4 0.0000 0.0000 0.0000 36.9569 0.0000 0.0000
# 5 0.0000 0.0000 0.0000 0.0000 35.1884 0.0000
# 6 0.0000 0.0000 0.0000 0.0000 0.0000 36.6128
#
#
#
# Elastic Compliance Matrix: (Units=1/GPa)
#
#
# Indices 1 2 3 4 5 6 
#
# 1 0.016412 -0.000533 -0.005622 0.000000 0.000000 0.000000
# 2 -0.000533 0.018115 -0.003802 0.000000 0.000000 0.000000
# 3 -0.005622 -0.003802 0.012089 0.000000 0.000000 0.000000
# 4 0.000000 0.000000 0.000000 0.027059 0.000000 0.000000
# 5 0.000000 0.000000 0.000000 0.000000 0.028418 0.000000
# 6 0.000000 0.000000 0.000000 0.000000 0.000000 0.027313
#
#
# Mechanical properties :
#
#
# Convention : Reuss Voigt Hill
#
# Bulk Modulus (GPa) = 37.45094 42.80450 40.12772
# Shear Modulus (GPa) = 31.60120 33.14268 32.37194
#
# Velocity S-wave (km/s) = 3.77348 3.86442 3.81922
# Velocity P-wave (km/s) = 5.98837 6.26090 6.12615
#
# Compressibility (1/GPa) = 0.02670160
#
# Stress axis : x y z
#
# Youngs Moduli (GPa) = 60.92990 55.20329 82.71731
#
# Poissons Ratio (x) = 0.02943 0.46506
# Poissons Ratio (y) = 0.03248 0.31449
# Poissons Ratio (z) = 0.34257 0.20988
#
# Static dielectric constant tensor:
#      x y z
#    x 4.039660 0.000000 0.000000 
#    y 0.000000 3.998210 0.000000 
#    z 0.000000 0.000000 4.081060 
# 
# 
# High freq. dielectric constant tensor:
#      x y z
#    x 1.873730 0.000000 0.000000 
#    y 0.000000 1.882190 0.000000 
#    z 0.000000 0.000000 1.872450 
# 
# From -- ./inp_files/13684.got.cif
#   From: 2010.03.12/outbox.cif.g09.slc.cpg/sg44_7_cif.got.tgz:13684.got - 2010.04.14 02:36:11.
