data_PCOD8190815
_publ_section_title
;
Structure prediction by ZEFSAII (Michael W. Deem and Ramdas Pophale) SiO2 
 PCOD8190815
Probable space group: I B A 2
;
_chemical_formula_sum "Si O2"
_cell_formula_units_Z 40
_cell_length_a 15.534641
_cell_length_b 7.513013
_cell_length_c 16.824194
_cell_angle_alpha 90.000000
_cell_angle_beta 90.000000
_cell_angle_gamma 90.000000
_cell_volume 1963.584654
_symmetry_space_group_name_H-M "I B A 2"
_symmetry_group_IT_number 45
_symmetry_cell_setting 'orthorhombic'
loop_
_space_group_symop_operation_xyz
x,y,z
-x,-y,z
-x,y,1/2+z
x,-y,1/2+z
1/2+x,1/2+y,1/2+z
1/2-x,1/2-y,1/2+z
1/2-x,1/2+y,z
1/2+x,1/2-y,z
loop_
_atom_site_type_symbol
_atom_site_label
_atom_site_fract_x
_atom_site_fract_y
_atom_site_fract_z
Si Si1 0.845073 0.003898 0.615910
Si Si2 0.440216 0.331530 0.253189
Si Si3 0.500000 0.500000 0.002647
Si Si4 0.157788 0.608309 0.570479
Si Si5 0.437260 0.833164 0.915056
Si Si6 0.500000 0.000000 0.161870
O O1 0.851021 0.215373 0.623670
O O2 0.860813 0.900913 0.698925
O O3 0.919091 0.945185 0.555883
O O4 0.752123 0.968529 0.579260
O O5 0.500000 0.500000 0.274207
O O6 0.399159 0.238193 0.331259
O O7 0.500168 0.181209 0.212650
O O8 0.492788 0.673342 0.949633
O O9 0.141112 0.628809 0.475787
O O10 0.084441 0.480622 0.606349
O O11 0.500000 0.000000 0.901443
#
# Coordination Sequence:
#
# PCOD8190815 Si02
#       6
#     8   8   4   8   8   4
#     4  11  23  41  66 100 132 179 227 272 326 396
#     4  12  22  42  66  99 136 171 226 277 337 390
#     4  10  22  42  66  92 132 178 226 278 322 398
#     4  11  24  42  68  99 135 178 230 272 323 408
#     4  11  23  40  67  98 132 176 219 277 337 389
#     4  12  22  42  70  94 130 182 226 278 328 400
#
# _framework density 20.370906000000002
#
# number of rings (size 3 to 8) (size 9 to 14) (size 15 to 20)
#    0.000    0.800    6.000    2.400    2.800    0.000 
#    0.000   10.000    0.000    0.000    0.000    0.000 
#    0.000    0.000    0.000    0.000    0.000    0.000 
#
# Total GULP energy -247908.470110 kJ/mol
# GULP energy per Si atom -12395.423506 kJ/mol
# Density = 2.032454 g / cm^3
# Si number density = 20.370906 Si / 1000 Ang^3
#
#
#
# Elastic Constant Matrix: (Units=GPa)
#
#
# Indices 1 2 3 4 5 6 
#
# 1 139.4047 26.0053 61.2235 0.0000 0.0000 0.0000
# 2 26.0053 103.0003 51.9607 0.0000 0.0000 0.0000
# 3 61.2235 51.9607 141.0956 0.0000 0.0000 0.0000
# 4 0.0000 0.0000 0.0000 34.5736 0.0000 0.0000
# 5 0.0000 0.0000 0.0000 0.0000 14.7963 0.0000
# 6 0.0000 0.0000 0.0000 0.0000 0.0000 27.6419
#
#
#
# Elastic Compliance Matrix: (Units=1/GPa)
#
#
# Indices 1 2 3 4 5 6 
#
# 1 0.008873 -0.000366 -0.003716 0.000000 0.000000 0.000000
# 2 -0.000366 0.011939 -0.004238 0.000000 0.000000 0.000000
# 3 -0.003716 -0.004238 0.010260 0.000000 0.000000 0.000000
# 4 0.000000 0.000000 0.000000 0.028924 0.000000 0.000000
# 5 0.000000 0.000000 0.000000 0.000000 0.067584 0.000000
# 6 0.000000 0.000000 0.000000 0.000000 0.000000 0.036177
#
#
# Mechanical properties :
#
#
# Convention : Reuss Voigt Hill
#
# Bulk Modulus (GPa) = 69.28146 73.54218 71.41182
# Shear Modulus (GPa) = 26.99668 31.68976 29.34322
#
# Velocity S-wave (km/s) = 3.64436 3.94844 3.79944
# Velocity P-wave (km/s) = 7.19669 7.54764 7.37425
#
# Compressibility (1/GPa) = 0.01443388
#
# Stress axis : x y z
#
# Youngs Moduli (GPa) = 112.69624 83.75890 97.46295
#
# Poissons Ratio (x) = 0.03065 0.36213
# Poissons Ratio (y) = 0.04124 0.41304
# Poissons Ratio (z) = 0.41873 0.35497
#
# Static dielectric constant tensor:
#      x y z
#    x 3.333340 0.000000 0.000000 
#    y 0.000000 3.938990 0.000000 
#    z 0.000000 0.000000 3.870060 
# 
# 
# High freq. dielectric constant tensor:
#      x y z
#    x 1.772130 0.000000 0.000000 
#    y 0.000000 1.822310 0.000000 
#    z 0.000000 0.000000 1.795660 
# 
# From -- ./inp_files/5488.got.cif
#   From: 2010.03.12/outbox.cif.g09.slc.cpg/sg45_3_cif.got.tgz:5488.got - 2010.04.14 02:50:11.
