data_PCOD8190521
_publ_section_title
;
Structure prediction by ZEFSAII (Michael W. Deem and Ramdas Pophale) SiO2 
 PCOD8190521
Probable space group: I B A 2
;
_chemical_formula_sum "Si O2"
_cell_formula_units_Z 60
_cell_length_a 14.498830
_cell_length_b 21.324111
_cell_length_c 9.779119
_cell_angle_alpha 90.000000
_cell_angle_beta 90.000000
_cell_angle_gamma 90.000000
_cell_volume 3023.455795
_symmetry_space_group_name_H-M "I B A 2"
_symmetry_group_IT_number 45
_symmetry_cell_setting 'orthorhombic'
loop_
_space_group_symop_operation_xyz
x,y,z
-x,-y,z
-x,y,1/2+z
x,-y,1/2+z
1/2+x,1/2+y,1/2+z
1/2-x,1/2-y,1/2+z
1/2-x,1/2+y,z
1/2+x,1/2-y,z
loop_
_atom_site_type_symbol
_atom_site_label
_atom_site_fract_x
_atom_site_fract_y
_atom_site_fract_z
Si Si1 0.692023 0.999980 0.250000
Si Si2 0.918957 0.390421 0.647747
Si Si3 0.843988 0.911414 0.849389
Si Si4 0.260990 0.688509 0.340093
Si Si5 0.739032 0.688463 0.159872
Si Si6 0.500000 0.500000 0.749994
Si Si7 0.081112 0.390300 0.852221
Si Si8 0.156009 0.088566 0.150562
O O1 0.625062 0.959100 0.344010
O O2 0.755321 0.956675 0.154532
O O3 0.624696 0.040696 0.156196
O O4 0.755244 0.043417 0.345285
O O5 0.839661 0.340167 0.668834
O O6 0.964798 0.383430 0.499973
O O7 0.000042 0.375864 0.749934
O O8 0.836202 0.858241 0.730930
O O9 0.935547 0.953877 0.838188
O O10 0.845529 0.879561 0.999988
O O11 0.289893 0.700132 0.499997
O O12 0.250192 0.750031 0.249966
O O13 0.160207 0.660108 0.331092
O O14 0.336088 0.641687 0.269107
O O15 0.564399 0.546156 0.661801
#
# Coordination Sequence:
#
# PCOD8190521 Si02
#       8
#     8   8   8   8   8   4   8   8
#     4   9  19  33  55  84 116 150 185 227 277 337
#     4  10  21  35  54  83 114 144 182 227 275 332
#     4  10  20  36  60  86 117 156 195 240 292 347
#     4  10  22  41  61  82 111 151 197 242 292 349
#     4  10  22  41  61  82 111 151 197 242 292 349
#     4  10  22  36  58  94 128 156 194 248 302 366
#     4  10  21  35  54  83 114 144 182 227 275 332
#     4  10  20  36  60  86 117 156 195 240 292 347
#
# _framework density 19.844840999999999
#
# number of rings (size 3 to 8) (size 9 to 14) (size 15 to 20)
#    0.000    2.133    0.000    2.400    0.000   14.933 
#    2.400    0.000    0.000    0.000    0.000    0.000 
#    0.000    0.000    0.000    0.000    0.000    0.000 
#
# Total GULP energy -371792.481749 kJ/mol
# GULP energy per Si atom -12393.082725 kJ/mol
# Density = 1.979967 g / cm^3
# Si number density = 19.844841 Si / 1000 Ang^3
#
#
#
# Elastic Constant Matrix: (Units=GPa)
#
#
# Indices 1 2 3 4 5 6 
#
# 1 75.8992 22.3674 57.8003 0.0000 0.0000 0.0000
# 2 22.3674 110.9235 70.2117 0.0000 0.0000 0.0000
# 3 57.8003 70.2117 187.1479 0.0000 0.0007 0.0000
# 4 0.0000 0.0000 0.0000 27.7318 0.0003 0.0000
# 5 0.0000 0.0000 0.0007 0.0003 -234.8053 0.0000
# 6 0.0000 0.0000 0.0000 0.0000 0.0000 11.1316
#
#
#
# Elastic Compliance Matrix: (Units=1/GPa)
#
#
# Indices 1 2 3 4 5 6 
#
# 1 0.017229 -0.000139 -0.005269 0.000000 0.000000 0.000000
# 2 -0.000139 0.011824 -0.004393 0.000000 0.000000 0.000000
# 3 -0.005269 -0.004393 0.008619 0.000000 0.000000 0.000000
# 4 0.000000 0.000000 0.000000 0.036060 0.000000 0.000000
# 5 0.000000 0.000000 0.000000 0.000000 -0.004259 0.000000
# 6 0.000000 0.000000 0.000000 0.000000 0.000000 0.089834
#
#
# Mechanical properties :
#
#
# Convention : Reuss Voigt Hill
#
# Bulk Modulus (GPa) = 55.34163 74.96995 65.15579
# Shear Modulus (GPa) = 27.03696 -24.28232 1.37732
#
# Velocity S-wave (km/s) = 3.69510 -3.50181 0.83400
# Velocity P-wave (km/s) = 6.79358 4.63787 5.81647
#
# Compressibility (1/GPa) = 0.01806958
#
# Stress axis : x y z
#
# Youngs Moduli (GPa) = 58.04215 84.57441 116.02581
#
# Poissons Ratio (x) = 0.01176 0.61133
# Poissons Ratio (y) = 0.00807 0.50970
# Poissons Ratio (z) = 0.30582 0.37153
#
# Static dielectric constant tensor:
#      x y z
#    x 3.551770 0.000000 0.000000 
#    y 0.000000 3.492440 0.000000 
#    z 0.000000 0.000000 3.656810 
# 
# 
# High freq. dielectric constant tensor:
#      x y z
#    x 1.766820 0.000000 0.000000 
#    y 0.000000 1.766890 0.000000 
#    z 0.000000 0.000000 1.783100 
# 
# From -- ./inp_files/1910.got.cif
#   From: 2010.03.12/outbox.cif.g09.slc.cpg/sg45_1_cif.got.tgz:1910.got - 2010.04.14 02:50:11.
