data_PCOD8190897
_publ_section_title
;
Structure prediction by ZEFSAII (Michael W. Deem and Ramdas Pophale) SiO2 
 PCOD8190897
Probable space group: I B A 2
;
_chemical_formula_sum "Si O2"
_cell_formula_units_Z 48
_cell_length_a 5.512792
_cell_length_b 28.838564
_cell_length_c 13.237528
_cell_angle_alpha 90.000000
_cell_angle_beta 90.000000
_cell_angle_gamma 90.000000
_cell_volume 2104.515504
_symmetry_space_group_name_H-M "I B A 2"
_symmetry_group_IT_number 45
_symmetry_cell_setting 'orthorhombic'
loop_
_space_group_symop_operation_xyz
x,y,z
-x,-y,z
-x,y,1/2+z
x,-y,1/2+z
1/2+x,1/2+y,1/2+z
1/2-x,1/2-y,1/2+z
1/2-x,1/2+y,z
1/2+x,1/2-y,z
loop_
_atom_site_type_symbol
_atom_site_label
_atom_site_fract_x
_atom_site_fract_y
_atom_site_fract_z
Si Si1 0.073344 0.648170 0.461530
Si Si2 0.286604 0.277661 0.828139
Si Si3 0.229266 0.662275 0.141460
Si Si4 0.000000 0.000000 0.999548
Si Si5 0.430863 0.904567 0.278581
Si Si6 0.389539 0.407056 0.097293
Si Si7 0.000000 0.500000 0.875682
O O1 0.275729 0.679425 0.405789
O O2 0.178811 0.601774 0.514719
O O3 0.945863 0.678533 0.549779
O O4 0.885888 0.627677 0.377565
O O5 0.538393 0.251201 0.848035
O O6 0.290090 0.293803 0.711256
O O7 0.458418 0.640127 0.085864
O O8 0.126230 0.620327 0.208142
O O9 0.018941 0.045139 0.070138
O O10 0.750161 0.997909 0.937870
O O11 0.185872 0.909757 0.214779
O O12 0.526704 0.955272 0.305156
#
# Coordination Sequence:
#
# PCOD8190897 Si02
#       7
#     8   8   8   4   8   8   4
#     4  10  23  48  70 101 142 192 236 291 369 428
#     4  11  28  47  74 108 140 179 239 298 360 436
#     4  10  25  44  73 100 145 187 237 296 364 428
#     4  12  28  44  72 108 144 192 252 292 340 434
#     4  10  24  42  68 101 141 193 239 295 354 423
#     4  11  25  43  73 101 147 195 239 298 355 424
#     4  12  26  44  68 102 146 188 248 296 348 414
#
# _framework density 22.808101000000001
#
# number of rings (size 3 to 8) (size 9 to 14) (size 15 to 20)
#    0.000    1.333    1.667    1.000   16.333    2.667 
#    0.000    0.000    0.000    0.000    0.000    0.000 
#    0.000    0.000    0.000    0.000    0.000    0.000 
#
# Total GULP energy -297453.783816 kJ/mol
# GULP energy per Si atom -12393.907659 kJ/mol
# Density = 2.275619 g / cm^3
# Si number density = 22.808101 Si / 1000 Ang^3
#
#
#
# Elastic Constant Matrix: (Units=GPa)
#
#
# Indices 1 2 3 4 5 6 
#
# 1 102.0249 18.4602 28.3544 0.0000 0.0000 0.0000
# 2 18.4602 84.1764 34.8417 -0.0002 0.0000 0.0000
# 3 28.3544 34.8417 126.1075 -0.0003 0.0000 0.0000
# 4 0.0000 -0.0002 -0.0003 36.8695 0.0000 0.0000
# 5 0.0000 0.0000 0.0000 0.0000 30.7258 0.0000
# 6 0.0000 0.0000 0.0000 0.0000 0.0000 36.2318
#
#
#
# Elastic Compliance Matrix: (Units=1/GPa)
#
#
# Indices 1 2 3 4 5 6 
#
# 1 0.010623 -0.001514 -0.001970 0.000000 0.000000 0.000000
# 2 -0.001514 0.013630 -0.003425 0.000000 0.000000 0.000000
# 3 -0.001970 -0.003425 0.009319 0.000000 0.000000 0.000000
# 4 0.000000 0.000000 0.000000 0.027123 0.000000 0.000000
# 5 0.000000 0.000000 0.000000 0.000000 0.032546 0.000000
# 6 0.000000 0.000000 0.000000 0.000000 0.000000 0.027600
#
#
# Mechanical properties :
#
#
# Convention : Reuss Voigt Hill
#
# Bulk Modulus (GPa) = 50.62632 52.84683 51.73657
# Shear Modulus (GPa) = 35.39979 36.14225 35.77102
#
# Velocity S-wave (km/s) = 3.94391 3.98505 3.96453
# Velocity P-wave (km/s) = 6.55622 6.66293 6.60979
#
# Compressibility (1/GPa) = 0.01975257
#
# Stress axis : x y z
#
# Youngs Moduli (GPa) = 94.13498 73.36964 107.30698
#
# Poissons Ratio (x) = 0.11110 0.21141
# Poissons Ratio (y) = 0.14254 0.36755
# Poissons Ratio (z) = 0.18546 0.25131
#
# Static dielectric constant tensor:
#      x y z
#    x 3.920500 0.000000 0.000000 
#    y 0.000000 4.042110 0.000000 
#    z 0.000000 0.000000 4.338150 
# 
# 
# High freq. dielectric constant tensor:
#      x y z
#    x 1.889040 0.000000 0.000000 
#    y 0.000000 1.897550 0.000000 
#    z 0.000000 0.000000 1.918830 
# 
# From -- ./inp_files/5197.got.cif
#   From: 2010.03.12/outbox.cif.g09.slc.cpg/sg45_3_cif.got.tgz:5197.got - 2010.04.14 02:50:11.
