data_PCOD8190184
_publ_section_title
;
Structure prediction by ZEFSAII (Michael W. Deem and Ramdas Pophale) SiO2 
 PCOD8190184
Probable space group: I M M 2
;
_chemical_formula_sum "Si O2"
_cell_formula_units_Z 64
_cell_length_a 8.833529
_cell_length_b 23.539064
_cell_length_c 15.304531
_cell_angle_alpha 90.000000
_cell_angle_beta 90.000000
_cell_angle_gamma 90.000000
_cell_volume 3182.317113
_symmetry_space_group_name_H-M "I M M 2"
_symmetry_group_IT_number 44
_symmetry_cell_setting 'orthorhombic'
loop_
_space_group_symop_operation_xyz
x,y,z
-x,-y,z
-x,y,z
x,-y,z
1/2+x,1/2+y,1/2+z
1/2-x,1/2-y,1/2+z
1/2-x,1/2+y,1/2+z
1/2+x,1/2-y,1/2+z
loop_
_atom_site_type_symbol
_atom_site_label
_atom_site_fract_x
_atom_site_fract_y
_atom_site_fract_z
Si Si1 0.324287 0.434658 0.604600
Si Si2 0.322458 0.248561 0.520035
Si Si3 0.322114 0.124880 0.453713
Si Si4 0.173712 0.065914 0.611212
Si Si5 0.177842 0.639555 0.455586
Si Si6 0.323464 0.634780 0.776353
Si Si7 0.673912 0.633764 0.278861
Si Si8 0.674157 0.244001 0.205375
O O1 0.500000 0.427694 0.581220
O O2 0.273449 0.500000 0.603560
O O3 0.229503 0.400645 0.533755
O O4 0.288890 0.410009 0.700091
O O5 0.500000 0.258417 0.511995
O O6 0.272321 0.188004 0.482306
O O7 0.242383 0.297228 0.464615
O O8 0.278056 0.252640 0.620740
O O9 0.500000 0.120695 0.436463
O O10 0.276197 0.080783 0.528508
O O11 0.231568 0.106997 0.366835
O O12 0.236199 0.100077 0.694837
O O13 0.000000 0.083424 0.591768
O O14 0.188964 0.000000 0.632512
O O15 0.232655 0.613979 0.363399
O O16 0.000000 0.642877 0.456866
O O17 0.500000 0.650177 0.780432
O O18 0.225851 0.691490 0.763906
O O19 0.500000 0.617638 0.295380
O O20 0.695707 0.700614 0.264161
O O21 0.500000 0.236479 0.176332
#
# Coordination Sequence:
#
# PCOD8190184 Si02
#       8
#     8   8   8   8   8   8   8   8
#     4  10  23  44  66  87 117 161 209 255 305 363
#     4  11  22  38  61  89 124 165 203 244 304 371
#     4  11  24  40  62  92 127 163 203 253 307 361
#     4  10  22  42  66  90 119 161 211 256 303 364
#     4  12  25  39  62  94 126 160 202 253 308 363
#     4  11  23  39  63  92 124 162 204 249 303 368
#     4  10  22  40  62  90 125 163 204 248 302 368
#     4  11  21  36  62  93 125 159 198 251 309 362
#
# _framework density 20.111132000000001
#
# number of rings (size 3 to 8) (size 9 to 14) (size 15 to 20)
#    0.000    1.250    2.500    3.375    0.000    8.000 
#    0.000    2.500    0.000    0.000    0.000    0.000 
#    0.000    0.000    0.000    0.000    0.000    0.000 
#
# Total GULP energy -397026.083174 kJ/mol
# GULP energy per Si atom -12407.065099 kJ/mol
# Density = 2.006536 g / cm^3
# Si number density = 20.111132 Si / 1000 Ang^3
#
#
#
# Elastic Constant Matrix: (Units=GPa)
#
#
# Indices 1 2 3 4 5 6 
#
# 1 75.4897 36.4818 42.1760 -0.0001 0.0000 0.0000
# 2 36.4818 78.3085 21.3261 -0.0002 0.0000 0.0000
# 3 42.1760 21.3261 126.0491 -0.0013 0.0003 0.0002
# 4 -0.0001 -0.0002 -0.0013 7.6160 0.0001 0.0001
# 5 0.0000 0.0000 0.0003 0.0001 36.9530 -0.0001
# 6 0.0000 0.0000 0.0002 0.0001 -0.0001 26.2789
#
#
#
# Elastic Compliance Matrix: (Units=1/GPa)
#
#
# Indices 1 2 3 4 5 6 
#
# 1 0.020061 -0.007881 -0.005379 -0.000001 0.000000 0.000000
# 2 -0.007881 0.016483 -0.000152 0.000000 0.000000 0.000000
# 3 -0.005379 -0.000152 0.009759 0.000002 0.000000 0.000000
# 4 -0.000001 0.000000 0.000002 0.131302 -0.000001 0.000000
# 5 0.000000 0.000000 0.000000 -0.000001 0.027061 0.000000
# 6 0.000000 0.000000 0.000000 0.000000 0.000000 0.038053
#
#
# Mechanical properties :
#
#
# Convention : Reuss Voigt Hill
#
# Bulk Modulus (GPa) = 51.33675 53.31280 52.32478
# Shear Modulus (GPa) = 18.11363 26.16048 22.13705
#
# Velocity S-wave (km/s) = 3.00438 3.61057 3.32133
# Velocity P-wave (km/s) = 6.13327 6.62935 6.38613
#
# Compressibility (1/GPa) = 0.01947922
#
# Stress axis : x y z
#
# Youngs Moduli (GPa) = 49.84901 60.66933 102.47073
#
# Poissons Ratio (x) = 0.47812 0.55118
# Poissons Ratio (y) = 0.39285 0.01555
# Poissons Ratio (z) = 0.26813 0.00921
#
# Static dielectric constant tensor:
#      x y z
#    x 3.647620 0.000000 0.000000 
#    y 0.000000 3.664210 0.000000 
#    z 0.000000 0.000000 3.733270 
# 
# 
# High freq. dielectric constant tensor:
#      x y z
#    x 1.785150 0.000000 0.000000 
#    y 0.000000 1.780740 0.000000 
#    z 0.000000 0.000000 1.799720 
# 
# From -- ./inp_files/16794.got.cif
#   From: 2010.03.12/outbox.cif.g09.slc.cpg/sg44_9_cif.got.tgz:16794.got - 2010.04.14 02:36:11.
