data_PCOD8190559
_publ_section_title
;
Structure prediction by ZEFSAII (Michael W. Deem and Ramdas Pophale) SiO2 
 PCOD8190559
Probable space group: I B A 2
;
_chemical_formula_sum "Si O2"
_cell_formula_units_Z 60
_cell_length_a 23.200941
_cell_length_b 14.247857
_cell_length_c 8.515533
_cell_angle_alpha 90.000000
_cell_angle_beta 90.000000
_cell_angle_gamma 90.000000
_cell_volume 2814.926008
_symmetry_space_group_name_H-M "I B A 2"
_symmetry_group_IT_number 45
_symmetry_cell_setting 'orthorhombic'
loop_
_space_group_symop_operation_xyz
x,y,z
-x,-y,z
-x,y,1/2+z
x,-y,1/2+z
1/2+x,1/2+y,1/2+z
1/2-x,1/2-y,1/2+z
1/2-x,1/2+y,z
1/2+x,1/2-y,z
loop_
_atom_site_type_symbol
_atom_site_label
_atom_site_fract_x
_atom_site_fract_y
_atom_site_fract_z
Si Si1 0.124511 0.242581 0.379370
Si Si2 0.976429 0.134665 0.855891
Si Si3 0.778175 0.445535 0.408772
Si Si4 0.296352 0.131316 0.058754
Si Si5 0.649620 0.447094 0.529494
Si Si6 0.000000 0.000000 0.613496
Si Si7 0.315603 0.241463 0.550311
Si Si8 0.111332 0.122030 0.862900
O O1 0.054510 0.238822 0.349100
O O2 0.145718 0.305396 0.527476
O O3 0.127487 0.132316 0.413376
O O4 0.162921 0.261346 0.228515
O O5 0.962834 0.076448 0.016232
O O6 0.955936 0.061792 0.719798
O O7 0.044870 0.147200 0.831836
O O8 0.806160 0.548002 0.432919
O O9 0.787201 0.413451 0.229470
O O10 0.714888 0.462399 0.475611
O O11 0.807759 0.367300 0.514703
O O12 0.243222 0.200623 0.026488
O O13 0.616245 0.544888 0.500832
O O14 0.645451 0.414803 0.710216
O O15 0.360958 0.282033 0.426471
#
# Coordination Sequence:
#
# PCOD8190559 Si02
#       8
#     8   8   8   8   8   4   8   8
#     4  12  25  40  64  90 133 176 227 272 333 393
#     4  11  22  40  58  94 133 184 219 276 322 401
#     4  12  25  42  67  95 135 170 224 272 339 384
#     4  12  24  44  63  95 129 174 219 277 327 403
#     4  12  22  37  62  97 132 186 212 276 327 403
#     4  10  20  38  60  86 138 174 226 260 328 390
#     4  12  24  41  64  96 130 174 224 273 328 397
#     4  12  24  37  64  96 141 176 232 264 334 399
#
# _framework density 21.314947
#
# number of rings (size 3 to 8) (size 9 to 14) (size 15 to 20)
#    0.000    0.267    4.000    7.200    1.867    0.000 
#    0.000    0.000    0.000    0.800    0.000    3.733 
#    0.000    0.000    0.000    0.000    0.000    0.000 
#
# Total GULP energy -371715.088795 kJ/mol
# GULP energy per Si atom -12390.502960 kJ/mol
# Density = 2.126643 g / cm^3
# Si number density = 21.314947 Si / 1000 Ang^3
#
#
#
# Elastic Constant Matrix: (Units=GPa)
#
#
# Indices 1 2 3 4 5 6 
#
# 1 108.1678 62.7294 42.1810 0.0000 0.0000 0.0000
# 2 62.7294 93.3021 22.2736 0.0000 0.0000 0.0000
# 3 42.1810 22.2736 116.9474 0.0000 0.0000 0.0000
# 4 0.0000 0.0000 0.0000 36.6463 0.0000 0.0000
# 5 0.0000 0.0000 0.0000 0.0000 26.5029 0.0000
# 6 0.0000 0.0000 0.0000 0.0000 0.0000 28.1804
#
#
#
# Elastic Compliance Matrix: (Units=1/GPa)
#
#
# Indices 1 2 3 4 5 6 
#
# 1 0.016846 -0.010346 -0.004106 0.000000 0.000000 0.000000
# 2 -0.010346 0.017582 0.000383 0.000000 0.000000 0.000000
# 3 -0.004106 0.000383 0.009959 0.000000 0.000000 0.000000
# 4 0.000000 0.000000 0.000000 0.027288 0.000000 0.000000
# 5 0.000000 0.000000 0.000000 0.000000 0.037732 0.000000
# 6 0.000000 0.000000 0.000000 0.000000 0.000000 0.035486
#
#
# Mechanical properties :
#
#
# Convention : Reuss Voigt Hill
#
# Bulk Modulus (GPa) = 61.53917 63.64282 62.59100
# Shear Modulus (GPa) = 28.01986 31.01480 29.51733
#
# Velocity S-wave (km/s) = 3.62962 3.81868 3.72535
# Velocity P-wave (km/s) = 6.81906 7.02611 6.92336
#
# Compressibility (1/GPa) = 0.01624981
#
# Stress axis : x y z
#
# Youngs Moduli (GPa) = 59.36270 56.87603 100.41433
#
# Poissons Ratio (x) = 0.58842 0.41225
# Poissons Ratio (y) = 0.61414 -0.03844
# Poissons Ratio (z) = 0.24371 -0.02177
#
# Static dielectric constant tensor:
#      x y z
#    x 4.230540 0.000000 0.000000 
#    y 0.000000 3.967490 0.000000 
#    z 0.000000 0.000000 4.133360 
# 
# 
# High freq. dielectric constant tensor:
#      x y z
#    x 1.833420 0.000000 0.000000 
#    y 0.000000 1.814850 0.000000 
#    z 0.000000 0.000000 1.859810 
# 
# From -- ./inp_files/2533.got.cif
#   From: 2010.03.12/outbox.cif.g09.slc.cpg/sg45_2_cif.got.tgz:2533.got - 2010.04.14 02:50:11.
