data_PCOD8190103
_publ_section_title
;
Structure prediction by ZEFSAII (Michael W. Deem and Ramdas Pophale) SiO2 
 PCOD8190103
Probable space group: I M M 2
;
_chemical_formula_sum "Si O2"
_cell_formula_units_Z 40
_cell_length_a 8.874661
_cell_length_b 7.523933
_cell_length_c 29.071724
_cell_angle_alpha 90.000000
_cell_angle_beta 90.000000
_cell_angle_gamma 90.000000
_cell_volume 1941.187468
_symmetry_space_group_name_H-M "I M M 2"
_symmetry_group_IT_number 44
_symmetry_cell_setting 'orthorhombic'
loop_
_space_group_symop_operation_xyz
x,y,z
-x,-y,z
-x,y,z
x,-y,z
1/2+x,1/2+y,1/2+z
1/2-x,1/2-y,1/2+z
1/2-x,1/2+y,1/2+z
1/2+x,1/2-y,1/2+z
loop_
_atom_site_type_symbol
_atom_site_label
_atom_site_fract_x
_atom_site_fract_y
_atom_site_fract_z
Si Si1 0.321658 0.000000 0.636081
Si Si2 0.331293 0.710899 0.482061
Si Si3 0.826972 0.293484 0.391894
Si Si4 0.672721 0.699348 0.791156
Si Si5 0.323565 0.500000 0.234427
Si Si6 0.676805 0.793627 0.074769
O O1 0.274484 0.000000 0.688779
O O2 0.258310 0.820887 0.613499
O O3 0.500000 0.000000 0.631879
O O4 0.500000 0.782569 0.489414
O O5 0.326099 0.500000 0.479156
O O6 0.267466 0.788695 0.434248
O O7 0.230898 0.774824 0.524896
O O8 0.791851 0.500000 0.384743
O O9 0.780961 0.196668 0.344813
O O10 0.000000 0.260087 0.404334
O O11 0.500000 0.767585 0.786320
O O12 0.689296 0.500000 0.771667
O O13 0.784307 0.824644 0.763230
O O14 0.500000 0.500000 0.222631
O O15 0.500000 0.761910 0.078441
O O16 0.719532 0.000000 0.082577
#
# Coordination Sequence:
#
# PCOD8190103 Si02
#       6
#     4   8   8   8   4   8
#     4  12  26  44  68  94 122 158 206 258 313 370
#     4   9  17  30  52  84 122 164 208 250 299 358
#     4   9  16  30  54  83 119 161 205 252 304 362
#     4  10  21  40  65  91 121 160 207 257 309 368
#     4  12  26  44  66  90 124 162 202 256 315 374
#     4  10  21  40  65  92 125 163 204 252 306 366
#
# _framework density 20.605944999999998
#
# number of rings (size 3 to 8) (size 9 to 14) (size 15 to 20)
#    0.000    2.000    1.000    3.000    0.000    5.600 
#    1.800    0.000    0.000    0.000    0.000    0.000 
#    0.000    0.000    0.000    0.000    0.000    0.000 
#
# Total GULP energy -248039.042536 kJ/mol
# GULP energy per Si atom -12401.952127 kJ/mol
# Density = 2.055904 g / cm^3
# Si number density = 20.605945 Si / 1000 Ang^3
#
#
#
# Elastic Constant Matrix: (Units=GPa)
#
#
# Indices 1 2 3 4 5 6 
#
# 1 114.9209 40.0826 42.9526 0.0000 0.0000 0.0000
# 2 40.0826 84.8758 40.0261 0.0000 0.0000 0.0000
# 3 42.9526 40.0261 103.7043 0.0000 0.0000 0.0000
# 4 0.0000 0.0000 0.0000 -57.1475 0.0000 0.0000
# 5 0.0000 0.0000 0.0000 0.0000 40.1677 0.0000
# 6 0.0000 0.0000 0.0000 0.0000 0.0000 19.5780
#
#
#
# Elastic Compliance Matrix: (Units=1/GPa)
#
#
# Indices 1 2 3 4 5 6 
#
# 1 0.011214 -0.003797 -0.003179 0.000000 0.000000 0.000000
# 2 -0.003797 0.015689 -0.004483 0.000000 0.000000 0.000000
# 3 -0.003179 -0.004483 0.012690 0.000000 0.000000 0.000000
# 4 0.000000 0.000000 0.000000 -0.017499 0.000000 0.000000
# 5 0.000000 0.000000 0.000000 0.000000 0.024896 0.000000
# 6 0.000000 0.000000 0.000000 0.000000 0.000000 0.051078
#
#
# Mechanical properties :
#
#
# Convention : Reuss Voigt Hill
#
# Bulk Modulus (GPa) = 59.96891 61.06929 60.51910
# Shear Modulus (GPa) = 39.51206 12.54896 26.03051
#
# Velocity S-wave (km/s) = 4.38369 2.47046 3.55808
# Velocity P-wave (km/s) = 7.40190 6.15131 6.80540
#
# Compressibility (1/GPa) = 0.01667531
#
# Stress axis : x y z
#
# Youngs Moduli (GPa) = 89.17328 63.73936 78.80289
#
# Poissons Ratio (x) = 0.24199 0.25054
# Poissons Ratio (y) = 0.33855 0.35327
# Poissons Ratio (z) = 0.28352 0.28574
#
# Static dielectric constant tensor:
#      x y z
#    x 3.733160 0.000000 0.000000 
#    y 0.000000 3.678150 0.000000 
#    z 0.000000 0.000000 3.790320 
# 
# 
# High freq. dielectric constant tensor:
#      x y z
#    x 1.802820 0.000000 0.000000 
#    y 0.000000 1.800160 0.000000 
#    z 0.000000 0.000000 1.807540 
# 
# From -- ./inp_files/25938.got.cif
#   From: 2010.03.12/outbox.cif.g09.slc.cpg/sg44_13_cif.got.tgz:25938.got - 2010.04.14 02:36:11.
