data_PCOD8190929
_publ_section_title
;
Structure prediction by ZEFSAII (Michael W. Deem and Ramdas Pophale) SiO2 
 PCOD8190929
Probable space group: I B A 2
;
_chemical_formula_sum "Si O2"
_cell_formula_units_Z 60
_cell_length_a 7.465556
_cell_length_b 19.179878
_cell_length_c 18.179039
_cell_angle_alpha 90.000000
_cell_angle_beta 90.000000
_cell_angle_gamma 90.000000
_cell_volume 2603.028477
_symmetry_space_group_name_H-M "I B A 2"
_symmetry_group_IT_number 45
_symmetry_cell_setting 'orthorhombic'
loop_
_space_group_symop_operation_xyz
x,y,z
-x,-y,z
-x,y,1/2+z
x,-y,1/2+z
1/2+x,1/2+y,1/2+z
1/2-x,1/2-y,1/2+z
1/2-x,1/2+y,z
1/2+x,1/2-y,z
loop_
_atom_site_type_symbol
_atom_site_label
_atom_site_fract_x
_atom_site_fract_y
_atom_site_fract_z
Si Si1 0.942035 0.299436 0.638410
Si Si2 0.540691 0.610770 0.774604
Si Si3 0.340638 0.350651 0.623626
Si Si4 0.691990 0.180090 0.299997
Si Si5 0.685770 0.185838 0.862632
Si Si6 0.000000 0.000000 0.877879
Si Si7 0.858454 0.395228 0.507650
Si Si8 0.248134 0.950181 0.497438
O O1 0.950811 0.220424 0.606362
O O2 0.844688 0.292128 0.717008
O O3 0.838027 0.350294 0.581910
O O4 0.139412 0.330359 0.646044
O O5 0.572819 0.603528 0.688277
O O6 0.327482 0.615804 0.789403
O O7 0.655414 0.675309 0.803770
O O8 0.619392 0.546671 0.822407
O O9 0.356980 0.402882 0.555500
O O10 0.505844 0.156368 0.336101
O O11 0.803283 0.230122 0.357430
O O12 0.726992 0.151701 0.942113
O O13 0.869298 0.949551 0.923745
O O14 0.756849 0.468281 0.521297
O O15 0.061008 0.414150 0.484661
#
# Coordination Sequence:
#
# PCOD8190929 Si02
#       8
#     8   8   8   8   8   4   8   8
#     4  11  22  41  68 102 133 181 222 283 344 407
#     4  12  25  44  68 103 136 178 228 280 342 406
#     4  11  23  43  69  99 137 175 229 282 339 403
#     4  12  23  41  72 105 139 173 227 283 347 401
#     4  12  22  43  69  99 142 176 218 290 335 399
#     4  12  26  44  66  96 134 182 234 276 338 408
#     4  10  24  44  69  95 140 182 226 276 353 397
#     4  10  24  46  67  96 136 181 225 286 335 409
#
# _framework density 23.050076000000001
#
# number of rings (size 3 to 8) (size 9 to 14) (size 15 to 20)
#    0.000    0.800    5.333    1.600    0.000    6.933 
#    0.000    0.000    0.000    0.000    0.000    0.000 
#    0.000    0.000    0.000    0.000    0.000    0.000 
#
# Total GULP energy -371784.387400 kJ/mol
# GULP energy per Si atom -12392.812913 kJ/mol
# Density = 2.299761 g / cm^3
# Si number density = 23.050076 Si / 1000 Ang^3
#
#
#
# Elastic Constant Matrix: (Units=GPa)
#
#
# Indices 1 2 3 4 5 6 
#
# 1 71.4655 16.2937 15.6345 0.0000 0.0000 0.0000
# 2 16.2937 115.8420 87.3042 0.0000 0.0000 0.0000
# 3 15.6345 87.3042 113.0431 0.0000 0.0000 0.0000
# 4 0.0000 0.0000 0.0000 51.4626 0.0000 0.0000
# 5 0.0000 0.0000 0.0000 0.0000 30.1892 0.0000
# 6 0.0000 0.0000 0.0000 0.0000 0.0000 24.7698
#
#
#
# Elastic Compliance Matrix: (Units=1/GPa)
#
#
# Indices 1 2 3 4 5 6 
#
# 1 0.014506 -0.001264 -0.001030 0.000000 0.000000 0.000000
# 2 -0.001264 0.020764 -0.015862 0.000000 0.000000 0.000000
# 3 -0.001030 -0.015862 0.021239 0.000000 0.000000 0.000000
# 4 0.000000 0.000000 0.000000 0.019432 0.000000 0.000000
# 5 0.000000 0.000000 0.000000 0.000000 0.033124 0.000000
# 6 0.000000 0.000000 0.000000 0.000000 0.000000 0.040372
#
#
# Mechanical properties :
#
#
# Convention : Reuss Voigt Hill
#
# Bulk Modulus (GPa) = 49.51029 59.86840 54.68935
# Shear Modulus (GPa) = 25.97652 33.35886 29.66769
#
# Velocity S-wave (km/s) = 3.36066 3.80838 3.59151
# Velocity P-wave (km/s) = 6.04854 6.73557 6.40128
#
# Compressibility (1/GPa) = 0.02019782
#
# Stress axis : x y z
#
# Youngs Moduli (GPa) = 68.93553 48.15935 47.08367
#
# Poissons Ratio (x) = 0.06088 0.04850
# Poissons Ratio (y) = 0.08714 0.74683
# Poissons Ratio (z) = 0.07101 0.76389
#
# Static dielectric constant tensor:
#      x y z
#    x 4.094170 0.000000 0.000000 
#    y 0.000000 4.211430 0.000000 
#    z 0.000000 0.000000 4.067200 
# 
# 
# High freq. dielectric constant tensor:
#      x y z
#    x 1.912840 0.000000 0.000000 
#    y 0.000000 1.906080 0.000000 
#    z 0.000000 0.000000 1.912330 
# 
# From -- ./inp_files/7692.got.cif
#   From: 2010.03.12/outbox.cif.g09.slc.cpg/sg45_4_cif.got.tgz:7692.got - 2010.04.14 02:50:11.
