data_PCOD8190913
_publ_section_title
;
Structure prediction by ZEFSAII (Michael W. Deem and Ramdas Pophale) SiO2 
 PCOD8190913
Probable space group: I B A 2
;
_chemical_formula_sum "Si O2"
_cell_formula_units_Z 40
_cell_length_a 9.291570
_cell_length_b 8.687652
_cell_length_c 19.952269
_cell_angle_alpha 90.000000
_cell_angle_beta 90.000000
_cell_angle_gamma 90.000000
_cell_volume 1610.585596
_symmetry_space_group_name_H-M "I B A 2"
_symmetry_group_IT_number 45
_symmetry_cell_setting 'orthorhombic'
loop_
_space_group_symop_operation_xyz
x,y,z
-x,-y,z
-x,y,1/2+z
x,-y,1/2+z
1/2+x,1/2+y,1/2+z
1/2-x,1/2-y,1/2+z
1/2-x,1/2+y,z
1/2+x,1/2-y,z
loop_
_atom_site_type_symbol
_atom_site_label
_atom_site_fract_x
_atom_site_fract_y
_atom_site_fract_z
Si Si1 0.250491 0.283641 0.987950
Si Si2 0.650613 0.046885 0.579633
Si Si3 0.849095 0.045329 0.396011
Si Si4 0.357807 0.405628 0.694722
Si Si5 0.641363 0.100060 0.278649
O O1 0.128183 0.168724 0.956376
O O2 0.302736 0.382749 0.925757
O O3 0.373806 0.169371 0.018993
O O4 0.198480 0.385014 0.049537
O O5 0.770831 0.129402 0.626302
O O6 0.500000 0.000000 0.616825
O O7 0.729118 0.120561 0.347665
O O8 0.000000 0.000000 0.359033
O O9 0.500000 0.500000 0.676187
O O10 0.397943 0.260173 0.741593
O O11 0.247535 0.513826 0.730938
O O12 0.500000 0.000000 0.293455
#
# Coordination Sequence:
#
# PCOD8190913 Si02
#       5
#     8   8   8   8   8
#     4  10  24  42  70 106 142 178 222 278 346 416
#     4  11  24  45  72 103 139 180 227 282 344 415
#     4  11  24  45  72 103 139 180 227 282 344 415
#     4  12  27  47  71 102 141 187 238 294 354 418
#     4  12  27  47  71 102 141 187 238 294 354 418
#
# _framework density 24.835685000000002
#
# number of rings (size 3 to 8) (size 9 to 14) (size 15 to 20)
#    0.000    0.800    0.000    6.000    0.000   16.000 
#    0.000    2.000    0.000    0.000    0.000    0.000 
#    0.000    0.000    0.000    0.000    0.000    0.000 
#
# Total GULP energy -247763.135438 kJ/mol
# GULP energy per Si atom -12388.156772 kJ/mol
# Density = 2.477916 g / cm^3
# Si number density = 24.835685 Si / 1000 Ang^3
#
#
#
# Elastic Constant Matrix: (Units=GPa)
#
#
# Indices 1 2 3 4 5 6 
#
# 1 148.1575 46.4230 50.0509 0.0000 0.0000 0.0000
# 2 46.4230 143.6915 49.1325 0.0000 0.0000 0.0000
# 3 50.0509 49.1325 106.4942 0.0000 0.0000 0.0000
# 4 0.0000 0.0000 0.0000 52.3797 0.0000 0.0000
# 5 0.0000 0.0000 0.0000 0.0000 41.0668 0.0000
# 6 0.0000 0.0000 0.0000 0.0000 0.0000 29.9446
#
#
#
# Elastic Compliance Matrix: (Units=1/GPa)
#
#
# Indices 1 2 3 4 5 6 
#
# 1 0.008324 -0.001605 -0.003172 0.000000 0.000000 0.000000
# 2 -0.001605 0.008572 -0.003201 0.000000 0.000000 0.000000
# 3 -0.003172 -0.003201 0.012358 0.000000 0.000000 0.000000
# 4 0.000000 0.000000 0.000000 0.019091 0.000000 0.000000
# 5 0.000000 0.000000 0.000000 0.000000 0.024351 0.000000
# 6 0.000000 0.000000 0.000000 0.000000 0.000000 0.033395
#
#
# Mechanical properties :
#
#
# Convention : Reuss Voigt Hill
#
# Bulk Modulus (GPa) = 75.19201 76.61735 75.90468
# Shear Modulus (GPa) = 39.53257 41.52736 40.52996
#
# Velocity S-wave (km/s) = 3.99402 4.09355 4.04409
# Velocity P-wave (km/s) = 7.18409 7.29791 7.24122
#
# Compressibility (1/GPa) = 0.01329929
#
# Stress axis : x y z
#
# Youngs Moduli (GPa) = 120.13634 116.65597 80.92212
#
# Poissons Ratio (x) = 0.18720 0.25667
# Poissons Ratio (y) = 0.19278 0.25901
# Poissons Ratio (z) = 0.38104 0.37338
#
# Static dielectric constant tensor:
#      x y z
#    x 3.165520 0.000000 0.000000 
#    y 0.000000 2.821500 0.000000 
#    z 0.000000 0.000000 5.710040 
# 
# 
# High freq. dielectric constant tensor:
#      x y z
#    x 1.975370 0.000000 0.000000 
#    y 0.000000 2.013380 0.000000 
#    z 0.000000 0.000000 1.996900 
# 
# From -- ./inp_files/1013.got.cif
#   From: 2010.03.12/outbox.cif.g09.slc.cpg/sg45_1_cif.got.tgz:1013.got - 2010.04.14 02:50:11.
