data_PCOD8190066
_publ_section_title
;
Structure prediction by ZEFSAII (Michael W. Deem and Ramdas Pophale) SiO2 
 PCOD8190066
Probable space group: I M M 2
;
_chemical_formula_sum "Si O2"
_cell_formula_units_Z 64
_cell_length_a 8.523811
_cell_length_b 24.057253
_cell_length_c 15.565952
_cell_angle_alpha 90.000000
_cell_angle_beta 90.000000
_cell_angle_gamma 90.000000
_cell_volume 3191.945988
_symmetry_space_group_name_H-M "I M M 2"
_symmetry_group_IT_number 44
_symmetry_cell_setting 'orthorhombic'
loop_
_space_group_symop_operation_xyz
x,y,z
-x,-y,z
-x,y,z
x,-y,z
1/2+x,1/2+y,1/2+z
1/2-x,1/2-y,1/2+z
1/2-x,1/2+y,1/2+z
1/2+x,1/2-y,1/2+z
loop_
_atom_site_type_symbol
_atom_site_label
_atom_site_fract_x
_atom_site_fract_y
_atom_site_fract_z
Si Si1 0.317274 0.861165 0.920210
Si Si2 0.185026 0.561848 0.073814
Si Si3 0.815021 0.064132 0.068551
Si Si4 0.184219 0.366115 0.229126
Si Si5 0.682738 0.367493 0.920881
Si Si6 0.313931 0.250590 0.668453
Si Si7 0.816792 0.746297 0.972211
Si Si8 0.685914 0.632942 0.730382
O O1 0.500000 0.846573 0.928933
O O2 0.278964 0.886352 0.825752
O O3 0.218846 0.804972 0.928559
O O4 0.270094 0.906863 0.989308
O O5 0.258288 0.500000 0.066569
O O6 0.257009 0.591485 0.158917
O O7 0.000000 0.557539 0.082696
O O8 0.221663 0.597138 0.989388
O O9 0.753310 0.089975 0.158243
O O10 0.000000 0.073195 0.057972
O O11 0.767570 0.000000 0.068198
O O12 0.254618 0.304185 0.215028
O O13 0.000000 0.362842 0.211713
O O14 0.500000 0.377869 0.936490
O O15 0.719047 0.302120 0.926510
O O16 0.735019 0.387468 0.825402
O O17 0.500000 0.252517 0.675405
O O18 0.260355 0.249469 0.570084
O O19 0.241836 0.305888 0.711996
O O20 0.000000 0.732482 0.964867
O O21 0.500000 0.636907 0.724727
#
# Coordination Sequence:
#
# PCOD8190066 Si02
#       8
#     8   8   8   8   8   8   8   8
#     4  11  22  36  59  89 118 145 184 239 291 333
#     4  10  21  39  61  82 109 152 201 237 273 334
#     4  10  21  39  61  82 109 152 201 237 273 334
#     4   9  18  34  57  83 110 148 192 230 273 339
#     4  11  22  36  59  89 118 145 184 239 291 333
#     4   9  15  29  57  82 103 139 188 228 263 322
#     4  11  20  35  61  86 115 153 190 226 275 344
#     4   9  18  34  57  83 110 148 192 230 273 339
#
# _framework density 20.050464999999999
#
# number of rings (size 3 to 8) (size 9 to 14) (size 15 to 20)
#    0.000    2.000    2.500    1.875    0.000    3.500 
#    0.000    5.000    0.000    0.000    0.000    0.000 
#    0.000    0.000    0.000    0.000    0.000    0.000 
#
# Total GULP energy -396769.095307 kJ/mol
# GULP energy per Si atom -12399.034228 kJ/mol
# Density = 2.000483 g / cm^3
# Si number density = 20.050465 Si / 1000 Ang^3
#
#
#
# Elastic Constant Matrix: (Units=GPa)
#
#
# Indices 1 2 3 4 5 6 
#
# 1 20.5399 6.3399 17.5167 -0.0002 0.0000 0.0000
# 2 6.3399 132.6550 70.5776 -0.0004 0.0000 0.0000
# 3 17.5167 70.5776 168.4366 -0.0021 0.0001 0.0001
# 4 -0.0002 -0.0004 -0.0021 14.2769 0.0000 0.0001
# 5 0.0000 0.0000 0.0001 0.0000 25.5772 -0.0001
# 6 0.0000 0.0000 0.0001 0.0001 -0.0001 17.8022
#
#
#
# Elastic Compliance Matrix: (Units=1/GPa)
#
#
# Indices 1 2 3 4 5 6 
#
# 1 0.053452 0.000518 -0.005776 0.000000 0.000000 0.000000
# 2 0.000518 0.009706 -0.004121 0.000000 0.000000 0.000000
# 3 -0.005776 -0.004121 0.008264 0.000001 0.000000 0.000000
# 4 0.000000 0.000000 0.000001 0.070043 0.000000 0.000000
# 5 0.000000 0.000000 0.000000 0.000000 0.039097 0.000000
# 6 0.000000 0.000000 0.000000 0.000000 0.000000 0.056173
#
#
# Mechanical properties :
#
#
# Convention : Reuss Voigt Hill
#
# Bulk Modulus (GPa) = 18.98789 56.72220 37.85505
# Shear Modulus (GPa) = 18.31186 26.67775 22.49481
#
# Velocity S-wave (km/s) = 3.02535 3.65160 3.35313
# Velocity P-wave (km/s) = 4.65771 6.79191 5.82341
#
# Compressibility (1/GPa) = 0.05266514
#
# Stress axis : x y z
#
# Youngs Moduli (GPa) = 18.70852 103.02843 121.00152
#
# Poissons Ratio (x) = -0.05342 0.69890
# Poissons Ratio (y) = -0.00970 0.49864
# Poissons Ratio (z) = 0.10806 0.42457
#
# Static dielectric constant tensor:
#      x y z
#    x 3.223750 0.000000 0.000000 
#    y 0.000000 3.797840 0.000000 
#    z 0.000000 0.000000 3.880130 
# 
# 
# High freq. dielectric constant tensor:
#      x y z
#    x 1.740380 0.000000 0.000000 
#    y 0.000000 1.782270 0.000000 
#    z 0.000000 0.000000 1.799620 
# 
# From -- ./inp_files/16883.got.cif
#   From: 2010.03.12/outbox.cif.g09.slc.cpg/sg44_9_cif.got.tgz:16883.got - 2010.04.14 02:36:11.
