data_PCOD8190413
_publ_section_title
;
Structure prediction by ZEFSAII (Michael W. Deem and Ramdas Pophale) SiO2 
 PCOD8190413
Probable space group: I B A 2
;
_chemical_formula_sum "Si O2"
_cell_formula_units_Z 60
_cell_length_a 15.820104
_cell_length_b 9.406484
_cell_length_c 19.737113
_cell_angle_alpha 90.000000
_cell_angle_beta 90.000000
_cell_angle_gamma 90.000000
_cell_volume 2937.110480
_symmetry_space_group_name_H-M "I B A 2"
_symmetry_group_IT_number 45
_symmetry_cell_setting 'orthorhombic'
loop_
_space_group_symop_operation_xyz
x,y,z
-x,-y,z
-x,y,1/2+z
x,-y,1/2+z
1/2+x,1/2+y,1/2+z
1/2-x,1/2-y,1/2+z
1/2-x,1/2+y,z
1/2+x,1/2-y,z
loop_
_atom_site_type_symbol
_atom_site_label
_atom_site_fract_x
_atom_site_fract_y
_atom_site_fract_z
Si Si1 0.500000 0.500000 0.685670
Si Si2 0.015399 0.661499 0.995246
Si Si3 0.241379 0.337020 0.192665
Si Si4 0.803123 0.986328 0.019082
Si Si5 0.167341 0.678793 0.550799
Si Si6 0.893014 0.795886 0.611604
Si Si7 0.918937 0.087684 0.903863
Si Si8 0.335689 0.583931 0.263916
O O1 0.519841 0.359869 0.640872
O O2 0.577258 0.537360 0.732234
O O3 0.000000 0.500000 0.970556
O O4 0.048429 0.759674 0.933465
O O5 0.927382 0.711935 0.027605
O O6 0.084465 0.673686 0.056563
O O7 0.178925 0.371675 0.128896
O O8 0.326123 0.247690 0.169151
O O9 0.264251 0.474122 0.238392
O O10 0.189038 0.240963 0.243223
O O11 0.871144 0.994586 0.959618
O O12 0.713121 0.062467 0.001968
O O13 0.843191 0.067106 0.082796
O O14 0.781952 0.826108 0.040472
O O15 0.850387 0.098897 0.844335
O O16 0.000000 0.000000 0.878993
#
# Coordination Sequence:
#
# PCOD8190413 Si02
#       8
#     4   8   8   8   8   8   8   8
#     4  10  18  36  64  92 116 178 220 256 324 412
#     4  11  24  38  65  97 129 166 211 281 338 389
#     4  10  22  38  63  98 126 167 213 272 332 395
#     4  10  22  35  63  91 125 167 204 273 329 392
#     4  11  21  38  63  97 130 157 208 273 348 390
#     4   9  19  35  60  92 130 156 209 261 343 386
#     4  11  23  46  62  85 126 178 230 254 316 405
#     4  11  23  41  65  87 128 177 224 264 316 399
#
# _framework density 20.428242000000001
#
# number of rings (size 3 to 8) (size 9 to 14) (size 15 to 20)
#    0.000    1.600    2.000    4.000    9.333    1.067 
#    0.000    0.000    0.000    0.000    0.000    0.000 
#    0.000    0.000    0.000    0.000    0.000    0.000 
#
# Total GULP energy -371761.542591 kJ/mol
# GULP energy per Si atom -12392.051420 kJ/mol
# Density = 2.038175 g / cm^3
# Si number density = 20.428242 Si / 1000 Ang^3
#
#
#
# Elastic Constant Matrix: (Units=GPa)
#
#
# Indices 1 2 3 4 5 6 
#
# 1 57.9118 15.3498 28.8481 0.0000 0.0000 0.0000
# 2 15.3498 85.2160 40.6493 0.0000 0.0000 0.0000
# 3 28.8481 40.6493 90.8181 0.0000 0.0000 0.0000
# 4 0.0000 0.0000 0.0000 25.9016 0.0000 0.0000
# 5 0.0000 0.0000 0.0000 0.0000 37.3045 0.0000
# 6 0.0000 0.0000 0.0000 0.0000 0.0000 31.5638
#
#
#
# Elastic Compliance Matrix: (Units=1/GPa)
#
#
# Indices 1 2 3 4 5 6 
#
# 1 0.020551 -0.000747 -0.006193 0.000000 0.000000 0.000000
# 2 -0.000747 0.014948 -0.006453 0.000000 0.000000 0.000000
# 3 -0.006193 -0.006453 0.015867 0.000000 0.000000 0.000000
# 4 0.000000 0.000000 0.000000 0.038608 0.000000 0.000000
# 5 0.000000 0.000000 0.000000 0.000000 0.026806 0.000000
# 6 0.000000 0.000000 0.000000 0.000000 0.000000 0.031682
#
#
# Mechanical properties :
#
#
# Convention : Reuss Voigt Hill
#
# Bulk Modulus (GPa) = 40.68757 44.84893 42.76825
# Shear Modulus (GPa) = 27.25664 28.89387 28.07525
#
# Velocity S-wave (km/s) = 3.65672 3.76494 3.71122
# Velocity P-wave (km/s) = 6.14730 6.39545 6.27260
#
# Compressibility (1/GPa) = 0.02457753
#
# Stress axis : x y z
#
# Youngs Moduli (GPa) = 48.65960 66.89994 63.02538
#
# Poissons Ratio (x) = 0.05001 0.39034
# Poissons Ratio (y) = 0.03637 0.40670
# Poissons Ratio (z) = 0.30137 0.43171
#
# Static dielectric constant tensor:
#      x y z
#    x 3.994070 0.000000 0.000000 
#    y 0.000000 3.828050 0.000000 
#    z 0.000000 0.000000 3.627630 
# 
# 
# High freq. dielectric constant tensor:
#      x y z
#    x 1.812040 0.000000 0.000000 
#    y 0.000000 1.790580 0.000000 
#    z 0.000000 0.000000 1.775340 
# 
# From -- ./inp_files/8365.got.cif
#   From: 2010.03.12/outbox.cif.g09.slc.cpg/sg45_5_cif.got.tgz:8365.got - 2010.04.14 02:50:11.
