data_PCOD8190578
_publ_section_title
;
Structure prediction by ZEFSAII (Michael W. Deem and Ramdas Pophale) SiO2 
 PCOD8190578
Probable space group: I B A 2
;
_chemical_formula_sum "Si O2"
_cell_formula_units_Z 52
_cell_length_a 8.768678
_cell_length_b 17.072232
_cell_length_c 16.610097
_cell_angle_alpha 90.000000
_cell_angle_beta 90.000000
_cell_angle_gamma 90.000000
_cell_volume 2486.546556
_symmetry_space_group_name_H-M "I B A 2"
_symmetry_group_IT_number 45
_symmetry_cell_setting 'orthorhombic'
loop_
_space_group_symop_operation_xyz
x,y,z
-x,-y,z
-x,y,1/2+z
x,-y,1/2+z
1/2+x,1/2+y,1/2+z
1/2-x,1/2-y,1/2+z
1/2-x,1/2+y,z
1/2+x,1/2-y,z
loop_
_atom_site_type_symbol
_atom_site_label
_atom_site_fract_x
_atom_site_fract_y
_atom_site_fract_z
Si Si1 0.532522 0.887792 0.938190
Si Si2 0.196835 0.716530 0.821693
Si Si3 0.582476 0.648832 0.054760
Si Si4 0.500000 0.500000 0.330030
Si Si5 0.985195 0.843847 0.738759
Si Si6 0.153293 0.744246 0.487809
Si Si7 0.253858 0.515269 0.457043
O O1 0.593092 0.854722 0.853364
O O2 0.375987 0.931407 0.916883
O O3 0.658651 0.938923 0.988221
O O4 0.489650 0.815432 0.995930
O O5 0.315242 0.678940 0.761363
O O6 0.101222 0.778259 0.769826
O O7 0.278998 0.757619 0.897778
O O8 0.517228 0.643394 0.143741
O O9 0.714788 0.715068 0.048646
O O10 0.427846 0.671991 0.005130
O O11 0.647719 0.564434 0.023113
O O12 0.537326 0.425373 0.276417
O O13 0.356598 0.482088 0.386163
#
# Coordination Sequence:
#
# PCOD8190578 Si02
#       7
#     8   8   8   4   8   8   8
#     4  10  20  39  67  93 118 164 227 274 313 396
#     4  12  21  42  69  95 125 172 230 273 327 411
#     4  11  24  41  62  97 137 169 219 283 348 393
#     4  12  24  42  64  96 126 178 228 274 334 420
#     4  12  26  41  63  99 139 170 216 292 349 398
#     4  11  20  40  69  97 123 176 234 268 323 412
#     4  10  23  40  66  90 126 170 224 269 330 417
#
# _framework density 20.912537
#
# number of rings (size 3 to 8) (size 9 to 14) (size 15 to 20)
#    0.000    0.923    4.615    3.692    0.000    0.615 
#    0.000    0.000   13.538    0.000    0.000    0.000 
#    0.000    0.000    0.000    0.000    0.000    0.000 
#
# Total GULP energy -322140.468743 kJ/mol
# GULP energy per Si atom -12390.018029 kJ/mol
# Density = 2.086494 g / cm^3
# Si number density = 20.912537 Si / 1000 Ang^3
#
#
#
# Elastic Constant Matrix: (Units=GPa)
#
#
# Indices 1 2 3 4 5 6 
#
# 1 83.9585 29.3824 45.2013 0.0000 0.0000 0.0000
# 2 29.3824 67.1915 34.9818 0.0000 0.0000 0.0000
# 3 45.2013 34.9818 107.5730 0.0000 0.0000 0.0000
# 4 0.0000 0.0000 0.0000 19.3777 0.0000 0.0000
# 5 0.0000 0.0000 0.0000 0.0000 28.1775 0.0000
# 6 0.0000 0.0000 0.0000 0.0000 0.0000 48.5914
#
#
#
# Elastic Compliance Matrix: (Units=1/GPa)
#
#
# Indices 1 2 3 4 5 6 
#
# 1 0.016366 -0.004305 -0.005477 0.000000 0.000000 0.000000
# 2 -0.004305 0.019049 -0.004385 0.000000 0.000000 0.000000
# 3 -0.005477 -0.004385 0.013023 0.000000 0.000000 0.000000
# 4 0.000000 0.000000 0.000000 0.051606 0.000000 0.000000
# 5 0.000000 0.000000 0.000000 0.000000 0.035489 0.000000
# 6 0.000000 0.000000 0.000000 0.000000 0.000000 0.020580
#
#
# Mechanical properties :
#
#
# Convention : Reuss Voigt Hill
#
# Bulk Modulus (GPa) = 49.74385 53.09491 51.41938
# Shear Modulus (GPa) = 26.15764 29.17317 27.66541
#
# Velocity S-wave (km/s) = 3.54052 3.73903 3.64113
# Velocity P-wave (km/s) = 6.36804 6.63963 6.50525
#
# Compressibility (1/GPa) = 0.02010299
#
# Stress axis : x y z
#
# Youngs Moduli (GPa) = 61.10258 52.49704 76.78483
#
# Poissons Ratio (x) = 0.22602 0.42053
# Poissons Ratio (y) = 0.26307 0.33673
# Poissons Ratio (z) = 0.33464 0.23022
#
# Static dielectric constant tensor:
#      x y z
#    x 4.192760 0.000000 0.000000 
#    y 0.000000 4.344840 0.000000 
#    z 0.000000 0.000000 3.394820 
# 
# 
# High freq. dielectric constant tensor:
#      x y z
#    x 1.848680 0.000000 0.000000 
#    y 0.000000 1.835910 0.000000 
#    z 0.000000 0.000000 1.775140 
# 
# From -- ./inp_files/7641.got.cif
#   From: 2010.03.12/outbox.cif.g09.slc.cpg/sg45_4_cif.got.tgz:7641.got - 2010.04.14 02:50:11.
