data_PCOD8190943
_publ_section_title
;
Structure prediction by ZEFSAII (Michael W. Deem and Ramdas Pophale) SiO2 
 PCOD8190943
Probable space group: I B A 2
;
_chemical_formula_sum "Si O2"
_cell_formula_units_Z 56
_cell_length_a 12.748352
_cell_length_b 16.318117
_cell_length_c 12.346247
_cell_angle_alpha 90.000000
_cell_angle_beta 90.000000
_cell_angle_gamma 90.000000
_cell_volume 2568.378646
_symmetry_space_group_name_H-M "I B A 2"
_symmetry_group_IT_number 45
_symmetry_cell_setting 'orthorhombic'
loop_
_space_group_symop_operation_xyz
x,y,z
-x,-y,z
-x,y,1/2+z
x,-y,1/2+z
1/2+x,1/2+y,1/2+z
1/2-x,1/2-y,1/2+z
1/2-x,1/2+y,z
1/2+x,1/2-y,z
loop_
_atom_site_type_symbol
_atom_site_label
_atom_site_fract_x
_atom_site_fract_y
_atom_site_fract_z
Si Si1 0.746806 0.456099 0.243610
Si Si2 0.606810 0.844064 0.818613
Si Si3 0.321213 0.308822 0.434802
Si Si4 0.098730 0.819753 0.679616
Si Si5 0.618086 0.131584 0.908941
Si Si6 0.391964 0.040559 0.618980
Si Si7 0.068972 0.922892 0.280750
O O1 0.675215 0.376842 0.248293
O O2 0.832586 0.441559 0.337987
O O3 0.808305 0.465584 0.128751
O O4 0.681964 0.541389 0.248429
O O5 0.705274 0.840341 0.901475
O O6 0.591013 0.765479 0.741758
O O7 0.505683 0.857275 0.892795
O O8 0.612701 0.921623 0.739495
O O9 0.350975 0.308514 0.561439
O O10 0.325600 0.217612 0.386439
O O11 0.413014 0.363267 0.382105
O O12 0.986283 0.869006 0.683920
O O13 0.640120 0.108390 0.032980
O O14 0.500000 0.000000 0.584554
O O15 0.000000 0.000000 0.319009
#
# Coordination Sequence:
#
# PCOD8190943 Si02
#       7
#     8   8   8   8   8   8   8
#     4  11  25  46  69 103 148 182 243 300 357 437
#     4  12  25  47  69 106 146 184 243 299 364 448
#     4  12  25  46  75 103 140 193 239 300 372 433
#     4  11  25  47  71 103 140 192 244 296 365 432
#     4  12  27  45  71 108 143 194 238 298 375 440
#     4  12  27  43  69 103 144 192 234 298 371 435
#     4  10  24  46  70 103 143 187 240 306 354 432
#
# _framework density 21.803637999999999
#
# number of rings (size 3 to 8) (size 9 to 14) (size 15 to 20)
#    0.000    0.571    7.143    0.000    6.000    1.714 
#    7.714    0.000    0.000    0.000    0.000    0.000 
#    0.000    0.000    0.000    0.000    0.000    0.000 
#
# Total GULP energy -346979.540137 kJ/mol
# GULP energy per Si atom -12392.126433 kJ/mol
# Density = 2.175401 g / cm^3
# Si number density = 21.803638 Si / 1000 Ang^3
#
#
#
# Elastic Constant Matrix: (Units=GPa)
#
#
# Indices 1 2 3 4 5 6 
#
# 1 114.3432 32.3130 41.5094 0.0000 0.0000 0.0000
# 2 32.3130 97.7045 31.6030 0.0000 0.0000 0.0000
# 3 41.5094 31.6030 105.4332 0.0001 0.0000 0.0000
# 4 0.0000 0.0000 0.0001 40.7386 0.0000 0.0000
# 5 0.0000 0.0000 0.0000 0.0000 26.3060 0.0000
# 6 0.0000 0.0000 0.0000 0.0000 0.0000 39.8450
#
#
#
# Elastic Compliance Matrix: (Units=1/GPa)
#
#
# Indices 1 2 3 4 5 6 
#
# 1 0.010692 -0.002408 -0.003488 0.000000 0.000000 0.000000
# 2 -0.002408 0.011876 -0.002612 0.000000 0.000000 0.000000
# 3 -0.003488 -0.002612 0.011641 0.000000 0.000000 0.000000
# 4 0.000000 0.000000 0.000000 0.024547 0.000000 0.000000
# 5 0.000000 0.000000 0.000000 0.000000 0.038014 0.000000
# 6 0.000000 0.000000 0.000000 0.000000 0.000000 0.025097
#
#
# Mechanical properties :
#
#
# Convention : Reuss Voigt Hill
#
# Bulk Modulus (GPa) = 58.16002 58.70352 58.43177
# Shear Modulus (GPa) = 34.57491 35.51497 35.04494
#
# Velocity S-wave (km/s) = 3.98646 4.04029 4.01346
# Velocity P-wave (km/s) = 6.92253 6.98193 6.95230
#
# Compressibility (1/GPa) = 0.01719394
#
# Stress axis : x y z
#
# Youngs Moduli (GPa) = 93.52567 84.20262 85.90555
#
# Poissons Ratio (x) = 0.20276 0.29962
# Poissons Ratio (y) = 0.22521 0.22436
# Poissons Ratio (z) = 0.32620 0.21992
#
# Static dielectric constant tensor:
#      x y z
#    x 4.166140 0.000000 0.000000 
#    y 0.000000 4.190500 0.000000 
#    z 0.000000 0.000000 3.602130 
# 
# 
# High freq. dielectric constant tensor:
#      x y z
#    x 1.870570 0.000000 0.000000 
#    y 0.000000 1.882730 0.000000 
#    z 0.000000 0.000000 1.835540 
# 
# From -- ./inp_files/4156.got.cif
#   From: 2010.03.12/outbox.cif.g09.slc.cpg/sg45_3_cif.got.tgz:4156.got - 2010.04.14 02:50:11.
