data_PCOD8190857
_publ_section_title
;
Structure prediction by ZEFSAII (Michael W. Deem and Ramdas Pophale) SiO2 
 PCOD8190857
Probable space group: I B A 2
;
_chemical_formula_sum "Si O2"
_cell_formula_units_Z 64
_cell_length_a 8.878576
_cell_length_b 26.765958
_cell_length_c 12.590001
_cell_angle_alpha 90.000000
_cell_angle_beta 90.000000
_cell_angle_gamma 90.000000
_cell_volume 2991.933065
_symmetry_space_group_name_H-M "I B A 2"
_symmetry_group_IT_number 45
_symmetry_cell_setting 'orthorhombic'
loop_
_space_group_symop_operation_xyz
x,y,z
-x,-y,z
-x,y,1/2+z
x,-y,1/2+z
1/2+x,1/2+y,1/2+z
1/2-x,1/2-y,1/2+z
1/2-x,1/2+y,z
1/2+x,1/2-y,z
loop_
_atom_site_type_symbol
_atom_site_label
_atom_site_fract_x
_atom_site_fract_y
_atom_site_fract_z
Si Si1 0.866244 0.065369 0.056980
Si Si2 0.403445 0.187204 0.992386
Si Si3 0.173020 0.510109 0.174070
Si Si4 0.199692 0.910155 0.521556
Si Si5 0.155049 0.759218 0.175874
Si Si6 0.257614 0.834296 0.000491
Si Si7 0.158026 0.007530 0.864712
Si Si8 0.891653 0.228274 0.827748
O O1 0.787131 0.037433 0.156544
O O2 0.753880 0.107515 0.019315
O O3 0.871891 0.022285 0.971708
O O4 0.031077 0.090964 0.073264
O O5 0.277144 0.144210 0.008509
O O6 0.570234 0.169600 0.963979
O O7 0.353943 0.221392 0.893550
O O8 0.426893 0.220485 0.097791
O O9 0.204992 0.517897 0.299431
O O10 0.000000 0.500000 0.152341
O O11 0.201699 0.558852 0.104748
O O12 0.196059 0.935947 0.404396
O O13 0.293347 0.727856 0.221739
O O14 0.059136 0.776117 0.279547
O O15 0.214664 0.806436 0.109591
O O16 0.146112 0.818207 0.904521
O O17 0.000000 0.000000 0.799765
#
# Coordination Sequence:
#
# PCOD8190857 Si02
#       8
#     8   8   8   8   8   8   8   8
#     4  10  23  41  64  93 124 164 210 262 316 379
#     4  11  24  41  64  96 129 166 213 272 319 381
#     4  11  22  40  65  91 126 166 205 260 321 379
#     4  10  23  41  64  91 128 161 209 264 314 378
#     4  11  24  43  64  91 129 172 213 266 326 380
#     4  11  24  41  64  94 130 166 217 267 319 386
#     4   9  20  42  63  88 123 164 208 256 316 382
#     4  11  24  43  64  90 131 171 213 267 325 381
#
# _framework density 21.390853
#
# number of rings (size 3 to 8) (size 9 to 14) (size 15 to 20)
#    0.000    1.500    2.500    2.625    3.500    5.000 
#    4.500    0.000    0.000    0.000    0.000    0.000 
#    0.000    0.000    0.000    0.000    0.000    0.000 
#
# Total GULP energy -396533.781494 kJ/mol
# GULP energy per Si atom -12391.680672 kJ/mol
# Density = 2.134217 g / cm^3
# Si number density = 21.390853 Si / 1000 Ang^3
#
#
#
# Elastic Constant Matrix: (Units=GPa)
#
#
# Indices 1 2 3 4 5 6 
#
# 1 95.3332 14.2901 21.3462 -0.0002 -0.0001 0.0000
# 2 14.2901 61.9848 -0.8779 -0.0001 -0.0002 0.0000
# 3 21.3462 -0.8779 68.8211 -0.0006 0.0002 0.0004
# 4 -0.0002 -0.0001 -0.0006 -4.4922 0.0001 0.0000
# 5 -0.0001 -0.0002 0.0002 0.0001 37.4973 -0.0002
# 6 0.0000 0.0000 0.0004 0.0000 -0.0002 40.1318
#
#
#
# Elastic Compliance Matrix: (Units=1/GPa)
#
#
# Indices 1 2 3 4 5 6 
#
# 1 0.011725 -0.002755 -0.003672 0.000000 0.000000 0.000000
# 2 -0.002755 0.016783 0.001069 0.000000 0.000000 0.000000
# 3 -0.003672 0.001069 0.015683 -0.000002 0.000000 0.000000
# 4 0.000000 0.000000 -0.000002 -0.222607 0.000000 0.000000
# 5 0.000000 0.000000 0.000000 0.000000 0.026669 0.000000
# 6 0.000000 0.000000 0.000000 0.000000 0.000000 0.024918
#
#
# Mechanical properties :
#
#
# Convention : Reuss Voigt Hill
#
# Bulk Modulus (GPa) = 29.87350 32.85066 31.36208
# Shear Modulus (GPa) = -47.63938 27.38611 -10.12664
#
# Velocity S-wave (km/s) = -4.72433 3.58197 -2.17816
# Velocity P-wave (km/s) = 3.97028 5.70070 2.89265
#
# Compressibility (1/GPa) = 0.03347448
#
# Stress axis : x y z
#
# Youngs Moduli (GPa) = 85.29040 59.58318 63.76363
#
# Poissons Ratio (x) = 0.16415 0.23413
# Poissons Ratio (y) = 0.23498 -0.06814
# Poissons Ratio (z) = 0.31317 -0.06367
#
# Static dielectric constant tensor:
#      x y z
#    x 4.019880 0.000000 0.000000 
#    y 0.000000 3.761930 0.000000 
#    z 0.000000 0.000000 3.848270 
# 
# 
# High freq. dielectric constant tensor:
#      x y z
#    x 1.852070 0.000000 0.000000 
#    y 0.000000 1.826220 0.000000 
#    z 0.000000 0.000000 1.840970 
# 
# From -- ./inp_files/3425.got.cif
#   From: 2010.03.12/outbox.cif.g09.slc.cpg/sg45_2_cif.got.tgz:3425.got - 2010.04.14 02:50:11.
