data_PCOD8190122
_publ_section_title
;
Structure prediction by ZEFSAII (Michael W. Deem and Ramdas Pophale) SiO2 
 PCOD8190122
Probable space group: I M M 2
;
_chemical_formula_sum "Si O2"
_cell_formula_units_Z 56
_cell_length_a 24.750162
_cell_length_b 8.801125
_cell_length_c 14.094300
_cell_angle_alpha 90.000000
_cell_angle_beta 90.000000
_cell_angle_gamma 90.000000
_cell_volume 3070.151074
_symmetry_space_group_name_H-M "I M M 2"
_symmetry_group_IT_number 44
_symmetry_cell_setting 'orthorhombic'
loop_
_space_group_symop_operation_xyz
x,y,z
-x,-y,z
-x,y,z
x,-y,z
1/2+x,1/2+y,1/2+z
1/2-x,1/2-y,1/2+z
1/2-x,1/2+y,1/2+z
1/2+x,1/2-y,1/2+z
loop_
_atom_site_type_symbol
_atom_site_label
_atom_site_fract_x
_atom_site_fract_y
_atom_site_fract_z
Si Si1 0.206578 0.321666 0.911100
Si Si2 0.327268 0.327099 0.120249
Si Si3 0.607820 0.326267 0.303469
Si Si4 0.887814 0.321050 0.454412
Si Si5 0.317566 0.675749 0.812093
Si Si6 0.779122 0.173985 0.110083
Si Si7 0.500000 0.179678 0.039052
Si Si8 0.500000 0.179673 0.254978
O O1 0.199474 0.500000 0.897019
O O2 0.154211 0.240463 0.869288
O O3 0.261202 0.264506 0.858788
O O4 0.207359 0.282593 0.022503
O O5 0.306668 0.500000 0.111576
O O6 0.375872 0.311195 0.193700
O O7 0.278885 0.218892 0.153810
O O8 0.345897 0.269905 0.018592
O O9 0.598439 0.500000 0.333226
O O10 0.551884 0.236258 0.313752
O O11 0.882219 0.500000 0.470905
O O12 0.868955 0.273720 0.348960
O O13 0.948130 0.264434 0.479218
O O14 0.325352 0.500000 0.839203
O O15 0.319553 0.697687 0.698361
O O16 0.778882 0.000000 0.075402
O O17 0.500000 0.245324 0.146636
O O18 0.500000 0.000000 0.046488
O O19 0.500000 0.000000 0.253325
#
# Coordination Sequence:
#
# PCOD8190122 Si02
#       8
#     8   8   8   8   8   8   4   4
#     4  11  22  37  57  83 115 148 186 232 284 336
#     4  11  21  32  51  81 116 147 184 228 271 330
#     4  11  23  37  55  83 117 152 193 232 277 336
#     4  11  21  35  56  80 112 150 189 227 276 334
#     4  10  22  37  54  81 115 147 184 231 283 336
#     4  11  22  37  56  79 112 151 188 227 278 336
#     4   9  20  35  53  82 113 146 185 229 278 334
#     4  11  21  37  59  82 115 152 189 231 286 338
#
# _framework density 18.240144999999998
#
# number of rings (size 3 to 8) (size 9 to 14) (size 15 to 20)
#    0.000    1.286    4.286    2.357    0.000    2.857 
#    0.000    1.429    0.000    0.857    0.000    2.000 
#    0.000    0.000    0.000    0.000    0.000    0.000 
#
# Total GULP energy -347221.365128 kJ/mol
# GULP energy per Si atom -12400.763040 kJ/mol
# Density = 1.819863 g / cm^3
# Si number density = 18.240145 Si / 1000 Ang^3
#
#
#
# Elastic Constant Matrix: (Units=GPa)
#
#
# Indices 1 2 3 4 5 6 
#
# 1 100.1742 29.3448 27.1468 0.0000 0.0000 0.0000
# 2 29.3448 60.3765 24.1731 0.0000 0.0000 0.0000
# 3 27.1468 24.1731 70.5288 0.0000 0.0000 0.0000
# 4 0.0000 0.0000 0.0000 30.7214 0.0000 0.0000
# 5 0.0000 0.0000 0.0000 0.0000 27.1397 0.0000
# 6 0.0000 0.0000 0.0000 0.0000 0.0000 29.9219
#
#
#
# Elastic Compliance Matrix: (Units=1/GPa)
#
#
# Indices 1 2 3 4 5 6 
#
# 1 0.012193 -0.004691 -0.003085 0.000000 0.000000 0.000000
# 2 -0.004691 0.021002 -0.005393 0.000000 0.000000 0.000000
# 3 -0.003085 -0.005393 0.017214 0.000000 0.000000 0.000000
# 4 0.000000 0.000000 0.000000 0.032551 0.000000 0.000000
# 5 0.000000 0.000000 0.000000 0.000000 0.036846 0.000000
# 6 0.000000 0.000000 0.000000 0.000000 0.000000 0.033420
#
#
# Mechanical properties :
#
#
# Convention : Reuss Voigt Hill
#
# Bulk Modulus (GPa) = 41.54305 43.60098 42.57201
# Shear Modulus (GPa) = 26.65422 27.58425 27.11924
#
# Velocity S-wave (km/s) = 3.82683 3.89303 3.86007
# Velocity P-wave (km/s) = 6.50779 6.64555 6.57703
#
# Compressibility (1/GPa) = 0.02407142
#
# Stress axis : x y z
#
# Youngs Moduli (GPa) = 82.01537 47.61529 58.09085
#
# Poissons Ratio (x) = 0.22335 0.17923
# Poissons Ratio (y) = 0.38472 0.31326
# Poissons Ratio (z) = 0.25304 0.25677
#
# Static dielectric constant tensor:
#      x y z
#    x 3.358700 0.000000 0.000000 
#    y 0.000000 3.358200 0.000000 
#    z 0.000000 0.000000 3.253430 
# 
# 
# High freq. dielectric constant tensor:
#      x y z
#    x 1.692890 0.000000 0.000000 
#    y 0.000000 1.712230 0.000000 
#    z 0.000000 0.000000 1.695800 
# 
# From -- ./inp_files/16594.got.cif
#   From: 2010.03.12/outbox.cif.g09.slc.cpg/sg44_9_cif.got.tgz:16594.got - 2010.04.14 02:36:11.
