data_PCOD8190033
_publ_section_title
;
Structure prediction by ZEFSAII (Michael W. Deem and Ramdas Pophale) SiO2 
 PCOD8190033
Probable space group: I M M 2
;
_chemical_formula_sum "Si O2"
_cell_formula_units_Z 48
_cell_length_a 7.718257
_cell_length_b 8.748879
_cell_length_c 33.620052
_cell_angle_alpha 90.000000
_cell_angle_beta 90.000000
_cell_angle_gamma 90.000000
_cell_volume 2270.230879
_symmetry_space_group_name_H-M "I M M 2"
_symmetry_group_IT_number 44
_symmetry_cell_setting 'orthorhombic'
loop_
_space_group_symop_operation_xyz
x,y,z
-x,-y,z
-x,y,z
x,-y,z
1/2+x,1/2+y,1/2+z
1/2-x,1/2-y,1/2+z
1/2-x,1/2+y,1/2+z
1/2+x,1/2-y,1/2+z
loop_
_atom_site_type_symbol
_atom_site_label
_atom_site_fract_x
_atom_site_fract_y
_atom_site_fract_z
Si Si1 0.801279 0.819710 0.297130
Si Si2 0.000000 0.678931 0.933489
Si Si3 0.000000 0.179932 0.848020
Si Si4 0.202316 0.674786 0.214186
Si Si5 0.696299 0.171165 0.557965
Si Si6 0.695539 0.175617 0.981736
Si Si7 0.196085 0.329086 0.634939
O O1 0.675586 0.745785 0.329329
O O2 0.742666 0.765127 0.253631
O O3 0.000000 0.769005 0.305898
O O4 0.781251 0.000000 0.299407
O O5 0.000000 0.778744 0.894023
O O6 0.000000 0.500000 0.923297
O O7 0.825828 0.717112 0.957612
O O8 0.000000 0.000000 0.842319
O O9 0.259482 0.500000 0.219674
O O10 0.301354 0.746245 0.177216
O O11 0.000000 0.690662 0.205774
O O12 0.500000 0.167537 0.542434
O O13 0.804744 0.277088 0.528110
O O14 0.695302 0.236822 0.602489
O O15 0.774481 0.000000 0.558330
O O16 0.500000 0.196802 0.965278
O O17 0.755077 0.000000 0.977943
O O18 0.272679 0.500000 0.639281
O O19 0.000000 0.334427 0.619726
#
# Coordination Sequence:
#
# PCOD8190033 Si02
#       7
#     8   4   4   8   8   8   8
#     4  10  22  42  68  97 131 172 217 268 326 389
#     4  12  26  46  70 100 134 172 218 270 326 390
#     4  12  26  44  70 100 134 174 216 270 328 390
#     4  10  21  38  60  87 120 160 209 263 322 385
#     4  11  23  39  61  90 124 165 213 267 326 385
#     4  11  24  43  69  99 132 172 216 265 324 389
#     4  11  24  38  54  82 120 164 214 268 322 380
#
# _framework density 21.143225000000001
#
# number of rings (size 3 to 8) (size 9 to 14) (size 15 to 20)
#    0.000    1.167    0.833    5.000    1.167   10.333 
#    0.000    0.000    0.000    0.000    0.000    0.000 
#    0.000    0.000    0.000    0.000    0.000    0.000 
#
# Total GULP energy -297732.358363 kJ/mol
# GULP energy per Si atom -12405.514932 kJ/mol
# Density = 2.109510 g / cm^3
# Si number density = 21.143225 Si / 1000 Ang^3
#
#
#
# Elastic Constant Matrix: (Units=GPa)
#
#
# Indices 1 2 3 4 5 6 
#
# 1 87.6088 37.3813 35.0603 0.0000 0.0000 0.0000
# 2 37.3813 120.8400 27.5873 0.0000 0.0000 0.0000
# 3 35.0603 27.5873 111.0449 0.0000 0.0000 0.0000
# 4 0.0000 0.0000 0.0000 43.1676 0.0000 0.0000
# 5 0.0000 0.0000 0.0000 0.0000 24.6313 0.0000
# 6 0.0000 0.0000 0.0000 0.0000 0.0000 27.0969
#
#
#
# Elastic Compliance Matrix: (Units=1/GPa)
#
#
# Indices 1 2 3 4 5 6 
#
# 1 0.014424 -0.003628 -0.003653 0.000000 0.000000 0.000000
# 2 -0.003628 0.009686 -0.001261 0.000000 0.000000 0.000000
# 3 -0.003653 -0.001261 0.010472 0.000000 0.000000 0.000000
# 4 0.000000 0.000000 0.000000 0.023166 0.000000 0.000000
# 5 0.000000 0.000000 0.000000 0.000000 0.040599 0.000000
# 6 0.000000 0.000000 0.000000 0.000000 0.000000 0.036905
#
#
# Mechanical properties :
#
#
# Convention : Reuss Voigt Hill
#
# Bulk Modulus (GPa) = 57.14825 57.72795 57.43810
# Shear Modulus (GPa) = 31.61220 33.61015 32.61117
#
# Velocity S-wave (km/s) = 3.87091 3.99136 3.93159
# Velocity P-wave (km/s) = 6.86049 6.97164 6.91629
#
# Compressibility (1/GPa) = 0.01749835
#
# Stress axis : x y z
#
# Youngs Moduli (GPa) = 69.32750 103.24635 95.49381
#
# Poissons Ratio (x) = 0.37459 0.34882
# Poissons Ratio (y) = 0.25153 0.12039
# Poissons Ratio (z) = 0.25324 0.13016
#
# Static dielectric constant tensor:
#      x y z
#    x 3.675610 0.000000 0.000000 
#    y 0.000000 3.955140 0.000000 
#    z 0.000000 0.000000 3.672860 
# 
# 
# High freq. dielectric constant tensor:
#      x y z
#    x 1.834160 0.000000 0.000000 
#    y 0.000000 1.843770 0.000000 
#    z 0.000000 0.000000 1.825920 
# 
# From -- ./inp_files/26958.got.cif
#   From: 2010.03.12/outbox.cif.g09.slc.cpg/sg44_14_cif.got.tgz:26958.got - 2010.04.14 02:36:11.
