data_PCOD8190065
_publ_section_title
;
Structure prediction by ZEFSAII (Michael W. Deem and Ramdas Pophale) SiO2 
 PCOD8190065
Probable space group: I M M 2
;
_chemical_formula_sum "Si O2"
_cell_formula_units_Z 64
_cell_length_a 8.600480
_cell_length_b 15.421048
_cell_length_c 23.908770
_cell_angle_alpha 90.000000
_cell_angle_beta 90.000000
_cell_angle_gamma 90.000000
_cell_volume 3170.982267
_symmetry_space_group_name_H-M "I M M 2"
_symmetry_group_IT_number 44
_symmetry_cell_setting 'orthorhombic'
loop_
_space_group_symop_operation_xyz
x,y,z
-x,-y,z
-x,y,z
x,-y,z
1/2+x,1/2+y,1/2+z
1/2-x,1/2-y,1/2+z
1/2-x,1/2+y,1/2+z
1/2+x,1/2-y,1/2+z
loop_
_atom_site_type_symbol
_atom_site_label
_atom_site_fract_x
_atom_site_fract_y
_atom_site_fract_z
Si Si1 0.818086 0.652178 0.523040
Si Si2 0.316598 0.745694 0.215873
Si Si3 0.820378 0.903149 0.413276
Si Si4 0.315075 0.095912 0.144630
Si Si5 0.680103 0.838137 0.522461
Si Si6 0.179595 0.097685 0.633307
Si Si7 0.821649 0.901940 0.910640
Si Si8 0.819182 0.254440 0.337330
O O1 0.755756 0.617691 0.582422
O O2 0.787809 0.754015 0.518955
O O3 0.725074 0.601439 0.475456
O O4 0.000000 0.633773 0.515126
O O5 0.500000 0.748995 0.213171
O O6 0.246801 0.833600 0.188203
O O7 0.256837 0.662693 0.180869
O O8 0.268081 0.736265 0.279334
O O9 0.717870 0.897059 0.469016
O O10 0.761163 0.833083 0.368017
O O11 0.000000 0.885035 0.428532
O O12 0.798685 0.000000 0.388305
O O13 0.500000 0.099914 0.144762
O O14 0.256042 0.000000 0.162033
O O15 0.500000 0.811483 0.522212
O O16 0.718811 0.892092 0.577786
O O17 0.000000 0.117995 0.618716
O O18 0.199380 0.000000 0.656101
O O19 0.714593 0.837905 0.875120
O O20 0.000000 0.872818 0.903847
O O21 0.797747 0.000000 0.888813
O O22 0.000000 0.249310 0.324642
#
# Coordination Sequence:
#
# PCOD8190065 Si02
#       8
#     8   8   8   8   8   8   8   8
#     4  11  20  36  62  90 122 160 199 239 290 353
#     4  10  21  39  60  84 117 155 200 248 296 348
#     4  10  22  41  63  86 117 159 202 244 296 360
#     4   9  18  34  59  89 118 151 193 238 286 346
#     4  12  23  35  58  91 125 156 192 242 301 357
#     4  10  21  39  62  86 115 156 200 240 293 358
#     4  11  24  41  62  91 125 158 195 244 302 358
#     4  11  24  41  62  87 117 158 206 250 297 353
#
# _framework density 20.183019999999999
#
# number of rings (size 3 to 8) (size 9 to 14) (size 15 to 20)
#    0.000    1.500    2.500    3.000    0.000    5.500 
#    0.000    1.250    0.000    1.500    0.000    0.000 
#    0.000    0.000    0.000    0.000    0.000    0.000 
#
# Total GULP energy -396909.925883 kJ/mol
# GULP energy per Si atom -12403.435184 kJ/mol
# Density = 2.013708 g / cm^3
# Si number density = 20.183020 Si / 1000 Ang^3
#
#
#
# Elastic Constant Matrix: (Units=GPa)
#
#
# Indices 1 2 3 4 5 6 
#
# 1 29.8838 19.4363 10.3243 0.0000 0.0000 0.0000
# 2 19.4363 138.2739 46.2762 0.0000 0.0000 0.0000
# 3 10.3243 46.2762 112.3374 0.0000 0.0000 0.0000
# 4 0.0000 0.0000 0.0000 14.9760 0.0000 0.0000
# 5 0.0000 0.0000 0.0000 0.0000 31.4770 0.0000
# 6 0.0000 0.0000 0.0000 0.0000 0.0000 18.6636
#
#
#
# Elastic Compliance Matrix: (Units=1/GPa)
#
#
# Indices 1 2 3 4 5 6 
#
# 1 0.037036 -0.004717 -0.001461 0.000000 0.000000 0.000000
# 2 -0.004717 0.008989 -0.003270 0.000000 0.000000 0.000000
# 3 -0.001461 -0.003270 0.010383 0.000000 0.000000 0.000000
# 4 0.000000 0.000000 0.000000 0.066774 0.000000 0.000000
# 5 0.000000 0.000000 0.000000 0.000000 0.031769 0.000000
# 6 0.000000 0.000000 0.000000 0.000000 0.000000 0.053580
#
#
# Mechanical properties :
#
#
# Convention : Reuss Voigt Hill
#
# Bulk Modulus (GPa) = 26.65718 48.06319 37.36019
# Shear Modulus (GPa) = 20.83946 26.65388 23.74667
#
# Velocity S-wave (km/s) = 3.21678 3.63796 3.43383
# Velocity P-wave (km/s) = 5.19935 6.44296 5.85427
#
# Compressibility (1/GPa) = 0.03751335
#
# Stress axis : x y z
#
# Youngs Moduli (GPa) = 27.00109 111.24363 96.31281
#
# Poissons Ratio (x) = 0.52474 0.14067
# Poissons Ratio (y) = 0.12737 0.31490
# Poissons Ratio (z) = 0.03944 0.36371
#
# Static dielectric constant tensor:
#      x y z
#    x 3.417710 0.000000 0.000000 
#    y 0.000000 3.883380 0.000000 
#    z 0.000000 0.000000 3.634610 
# 
# 
# High freq. dielectric constant tensor:
#      x y z
#    x 1.768640 0.000000 0.000000 
#    y 0.000000 1.803960 0.000000 
#    z 0.000000 0.000000 1.781500 
# 
# From -- ./inp_files/25093.got.cif
#   From: 2010.03.12/outbox.cif.g09.slc.cpg/sg44_13_cif.got.tgz:25093.got - 2010.04.14 02:36:11.
