data_PCOD8190165
_publ_section_title
;
Structure prediction by ZEFSAII (Michael W. Deem and Ramdas Pophale) SiO2 
 PCOD8190165
Probable space group: I M M 2
;
_chemical_formula_sum "Si O2"
_cell_formula_units_Z 64
_cell_length_a 8.810748
_cell_length_b 24.869582
_cell_length_c 15.013614
_cell_angle_alpha 90.000000
_cell_angle_beta 90.000000
_cell_angle_gamma 90.000000
_cell_volume 3289.777393
_symmetry_space_group_name_H-M "I M M 2"
_symmetry_group_IT_number 44
_symmetry_cell_setting 'orthorhombic'
loop_
_space_group_symop_operation_xyz
x,y,z
-x,-y,z
-x,y,z
x,-y,z
1/2+x,1/2+y,1/2+z
1/2-x,1/2-y,1/2+z
1/2-x,1/2+y,1/2+z
1/2+x,1/2-y,1/2+z
loop_
_atom_site_type_symbol
_atom_site_label
_atom_site_fract_x
_atom_site_fract_y
_atom_site_fract_z
Si Si1 0.175196 0.367939 0.961740
Si Si2 0.320815 0.887513 0.137027
Si Si3 0.177853 0.778207 0.165916
Si Si4 0.826078 0.145912 0.835239
Si Si5 0.826481 0.734111 0.848253
Si Si6 0.678586 0.941035 0.956412
Si Si7 0.176191 0.063033 0.311032
Si Si8 0.177592 0.832652 0.632766
O O1 0.196388 0.306174 0.930050
O O2 0.268955 0.408758 0.901162
O O3 0.000000 0.385268 0.960100
O O4 0.239033 0.371159 0.061927
O O5 0.500000 0.877331 0.140637
O O6 0.235960 0.831680 0.117836
O O7 0.271813 0.914864 0.228707
O O8 0.269699 0.925240 0.055707
O O9 0.214504 0.784535 0.270396
O O10 0.262635 0.727859 0.122675
O O11 0.000000 0.770940 0.150783
O O12 0.789116 0.204695 0.877163
O O13 0.727760 0.101211 0.882638
O O14 0.784094 0.145514 0.730905
O O15 0.000000 0.130813 0.850259
O O16 0.000000 0.732130 0.811532
O O17 0.500000 0.943544 0.953038
O O18 0.747732 0.000000 0.935250
O O19 0.000000 0.076197 0.294910
O O20 0.205688 0.000000 0.321552
O O21 0.000000 0.833152 0.613028
#
# Coordination Sequence:
#
# PCOD8190165 Si02
#       8
#     8   8   8   8   8   8   8   8
#     4  11  22  37  61  91 122 158 201 248 300 359
#     4  11  22  38  59  86 120 160 200 242 300 360
#     4  11  21  34  56  87 121 158 199 239 292 354
#     4   9  20  39  61  85 116 153 194 243 298 351
#     4   9  19  36  56  84 120 154 189 238 297 354
#     4  10  23  41  60  85 116 151 197 249 297 349
#     4  11  24  41  61  88 122 160 203 250 298 355
#     4  10  22  40  60  85 123 161 197 247 303 357
#
# _framework density 19.454205000000002
#
# number of rings (size 3 to 8) (size 9 to 14) (size 15 to 20)
#    0.000    1.750    1.250    3.750    1.750    5.750 
#    0.000    0.625    0.000    0.750    0.000    0.000 
#    0.000    0.000    0.000    0.000    0.000    0.000 
#
# Total GULP energy -396891.199536 kJ/mol
# GULP energy per Si atom -12402.849985 kJ/mol
# Density = 1.940993 g / cm^3
# Si number density = 19.454205 Si / 1000 Ang^3
#
#
#
# Elastic Constant Matrix: (Units=GPa)
#
#
# Indices 1 2 3 4 5 6 
#
# 1 51.0750 25.0090 22.7061 0.0000 0.0000 0.0000
# 2 25.0090 109.0901 41.2230 0.0000 0.0000 0.0000
# 3 22.7061 41.2230 79.3676 0.0001 0.0000 -0.0001
# 4 0.0000 0.0000 0.0001 25.0444 0.0000 0.0000
# 5 0.0000 0.0000 0.0000 0.0000 33.1926 0.0000
# 6 0.0000 0.0000 -0.0001 0.0000 0.0000 30.9675
#
#
#
# Elastic Compliance Matrix: (Units=1/GPa)
#
#
# Indices 1 2 3 4 5 6 
#
# 1 0.023481 -0.003539 -0.004879 0.000000 0.000000 0.000000
# 2 -0.003539 0.011939 -0.005188 0.000000 0.000000 0.000000
# 3 -0.004879 -0.005188 0.016690 0.000000 0.000000 0.000000
# 4 0.000000 0.000000 0.000000 0.039929 0.000000 0.000000
# 5 0.000000 0.000000 0.000000 0.000000 0.030127 0.000000
# 6 0.000000 0.000000 0.000000 0.000000 0.000000 0.032292
#
#
# Mechanical properties :
#
#
# Convention : Reuss Voigt Hill
#
# Bulk Modulus (GPa) = 40.16672 46.37877 43.27275
# Shear Modulus (GPa) = 26.31976 27.88053 27.10015
#
# Velocity S-wave (km/s) = 3.68218 3.78979 3.73637
# Velocity P-wave (km/s) = 6.22652 6.56062 6.39575
#
# Compressibility (1/GPa) = 0.02489623
#
# Stress axis : x y z
#
# Youngs Moduli (GPa) = 42.58711 83.76139 59.91491
#
# Poissons Ratio (x) = 0.29645 0.29235
# Poissons Ratio (y) = 0.15073 0.31086
# Poissons Ratio (z) = 0.20780 0.43458
#
# Static dielectric constant tensor:
#      x y z
#    x 3.552580 0.000000 0.000000 
#    y 0.000000 3.661060 0.000000 
#    z 0.000000 0.000000 3.481750 
# 
# 
# High freq. dielectric constant tensor:
#      x y z
#    x 1.761530 0.000000 0.000000 
#    y 0.000000 1.754850 0.000000 
#    z 0.000000 0.000000 1.754610 
# 
# From -- ./inp_files/16768.got.cif
#   From: 2010.03.12/outbox.cif.g09.slc.cpg/sg44_9_cif.got.tgz:16768.got - 2010.04.14 02:36:11.
