data_PCOD8190998
_publ_section_title
;
Structure prediction by ZEFSAII (Michael W. Deem and Ramdas Pophale) SiO2 
 PCOD8190998
Probable space group: I B A 2
;
_chemical_formula_sum "Si O2"
_cell_formula_units_Z 56
_cell_length_a 14.300490
_cell_length_b 13.333318
_cell_length_c 14.276302
_cell_angle_alpha 90.000000
_cell_angle_beta 90.000000
_cell_angle_gamma 90.000000
_cell_volume 2722.105056
_symmetry_space_group_name_H-M "I B A 2"
_symmetry_group_IT_number 45
_symmetry_cell_setting 'orthorhombic'
loop_
_space_group_symop_operation_xyz
x,y,z
-x,-y,z
-x,y,1/2+z
x,-y,1/2+z
1/2+x,1/2+y,1/2+z
1/2-x,1/2-y,1/2+z
1/2-x,1/2+y,z
1/2+x,1/2-y,z
loop_
_atom_site_type_symbol
_atom_site_label
_atom_site_fract_x
_atom_site_fract_y
_atom_site_fract_z
Si Si1 0.955311 0.396630 0.992980
Si Si2 0.740700 0.640229 0.830349
Si Si3 0.052620 0.593672 0.686184
Si Si4 0.954859 0.760500 0.339487
Si Si5 0.750832 0.468750 0.970033
Si Si6 0.741960 0.518161 0.171578
Si Si7 0.350992 0.342574 0.317164
O O1 0.985836 0.303279 0.929607
O O2 0.843201 0.403713 0.989710
O O3 0.000000 0.500000 0.955369
O O4 0.991133 0.373055 0.097270
O O5 0.637244 0.675254 0.858364
O O6 0.778078 0.568846 0.913088
O O7 0.740323 0.583052 0.731647
O O8 0.811836 0.730857 0.820267
O O9 0.066448 0.685467 0.754886
O O10 0.153588 0.557211 0.652667
O O11 0.000000 0.500000 0.736633
O O12 0.036995 0.837721 0.314450
O O13 0.679891 0.403353 0.908665
O O14 0.700389 0.495359 0.068462
O O15 0.681779 0.603729 0.222162
#
# Coordination Sequence:
#
# PCOD8190998 Si02
#       7
#     8   8   8   8   8   8   8
#     4  11  21  39  66  97 123 160 220 278 326 363
#     4  11  24  43  68  93 136 175 211 272 320 387
#     4  11  21  39  66  97 123 160 220 278 326 363
#     4  12  24  42  64  97 131 168 218 261 325 390
#     4  11  23  43  65  96 132 170 216 266 322 385
#     4  11  23  43  65  96 132 170 216 266 322 385
#     4  11  25  42  66  98 130 176 213 265 327 387
#
# _framework density 20.572313000000001
#
# number of rings (size 3 to 8) (size 9 to 14) (size 15 to 20)
#    0.000    0.857    5.714    3.000    0.000    5.714 
#    0.000    1.429    0.000    0.000    0.000    0.000 
#    0.000    0.000    0.000    0.000    0.000    0.000 
#
# Total GULP energy -347322.903939 kJ/mol
# GULP energy per Si atom -12404.389426 kJ/mol
# Density = 2.052549 g / cm^3
# Si number density = 20.572313 Si / 1000 Ang^3
#
#
#
# Elastic Constant Matrix: (Units=GPa)
#
#
# Indices 1 2 3 4 5 6 
#
# 1 59.1067 -4.4274 -19.2292 0.0000 0.0000 0.0000
# 2 -4.4274 79.3717 34.0889 0.0000 0.0000 0.0000
# 3 -19.2292 34.0889 105.8065 0.0000 0.0000 0.0000
# 4 0.0000 0.0000 0.0000 -9.6154 0.0000 0.0000
# 5 0.0000 0.0000 0.0000 0.0000 18.5691 0.0000
# 6 0.0000 0.0000 0.0000 0.0000 0.0000 39.8985
#
#
#
# Elastic Compliance Matrix: (Units=1/GPa)
#
#
# Indices 1 2 3 4 5 6 
#
# 1 0.017997 -0.000465 0.003421 0.000000 0.000000 0.000000
# 2 -0.000465 0.014634 -0.004799 0.000000 0.000000 0.000000
# 3 0.003421 -0.004799 0.011619 0.000000 0.000000 0.000000
# 4 0.000000 0.000000 0.000000 -0.104000 0.000000 0.000000
# 5 0.000000 0.000000 0.000000 0.000000 0.053853 0.000000
# 6 0.000000 0.000000 0.000000 0.000000 0.000000 0.025064
#
#
# Mechanical properties :
#
#
# Convention : Reuss Voigt Hill
#
# Bulk Modulus (GPa) = 24.65377 29.46106 27.05741
# Shear Modulus (GPa) = 137.45732 25.36062 81.40897
#
# Velocity S-wave (km/s) = 8.18301 3.51487 6.29746
# Velocity P-wave (km/s) = 10.06441 5.55196 8.12762
#
# Compressibility (1/GPa) = 0.04056175
#
# Stress axis : x y z
#
# Youngs Moduli (GPa) = 55.56625 68.33267 86.06471
#
# Poissons Ratio (x) = 0.03179 -0.29439
# Poissons Ratio (y) = 0.02585 0.41306
# Poissons Ratio (z) = -0.19007 0.32796
#
# Static dielectric constant tensor:
#      x y z
#    x 3.676590 0.000000 0.000000 
#    y 0.000000 3.780480 0.000000 
#    z 0.000000 0.000000 3.810140 
# 
# 
# High freq. dielectric constant tensor:
#      x y z
#    x 1.802160 0.000000 0.000000 
#    y 0.000000 1.805140 0.000000 
#    z 0.000000 0.000000 1.810210 
# 
# From -- ./inp_files/6522.got.cif
#   From: 2010.03.12/outbox.cif.g09.slc.cpg/sg45_4_cif.got.tgz:6522.got - 2010.04.14 02:50:11.
