data_PCOD8190794
_publ_section_title
;
Structure prediction by ZEFSAII (Michael W. Deem and Ramdas Pophale) SiO2 
 PCOD8190794
Probable space group: I B A 2
;
_chemical_formula_sum "Si O2"
_cell_formula_units_Z 64
_cell_length_a 30.543417
_cell_length_b 8.244837
_cell_length_c 11.406626
_cell_angle_alpha 90.000000
_cell_angle_beta 90.000000
_cell_angle_gamma 90.000000
_cell_volume 2872.479234
_symmetry_space_group_name_H-M "I B A 2"
_symmetry_group_IT_number 45
_symmetry_cell_setting 'orthorhombic'
loop_
_space_group_symop_operation_xyz
x,y,z
-x,-y,z
-x,y,1/2+z
x,-y,1/2+z
1/2+x,1/2+y,1/2+z
1/2-x,1/2-y,1/2+z
1/2-x,1/2+y,z
1/2+x,1/2-y,z
loop_
_atom_site_type_symbol
_atom_site_label
_atom_site_fract_x
_atom_site_fract_y
_atom_site_fract_z
Si Si1 0.923870 0.835188 0.168680
Si Si2 0.718870 0.484698 0.328438
Si Si3 0.875965 0.024558 0.350759
Si Si4 0.791259 0.523297 0.011885
Si Si5 0.114134 0.640935 0.449215
Si Si6 0.957893 0.610931 0.376470
Si Si7 0.240341 0.748185 0.164596
Si Si8 0.541996 0.424245 0.495512
O O1 0.949900 0.726099 0.263406
O O2 0.884197 0.939227 0.225482
O O3 0.904435 0.716762 0.069477
O O4 0.956860 0.974363 0.118046
O O5 0.672631 0.475904 0.396845
O O6 0.759046 0.539176 0.409998
O O7 0.729153 0.313140 0.270134
O O8 0.711230 0.609992 0.220730
O O9 0.880714 0.219841 0.350296
O O10 0.911099 0.953021 0.439061
O O11 0.839723 0.552876 0.966781
O O12 0.792174 0.389300 0.115032
O O13 0.771628 0.690681 0.060725
O O14 0.082997 0.504380 0.397431
O O15 0.964790 0.728045 0.491698
O O16 0.000000 0.500000 0.355015
O O17 0.500000 0.500000 0.426149
#
# Coordination Sequence:
#
# PCOD8190794 Si02
#       8
#     8   8   8   8   8   8   8   8
#     4  10  24  42  67  93 129 174 209 257 322 383
#     4  11  22  39  61  88 125 167 208 262 315 366
#     4  10  22  41  64  92 127 169 215 257 314 389
#     4  11  23  41  61  88 127 165 207 264 315 367
#     4  11  24  42  65  98 129 164 217 270 318 374
#     4  11  25  44  68 100 130 162 212 269 316 374
#     4  10  23  37  60  90 120 165 218 253 309 384
#     4  10  23  44  67  93 126 168 211 254 314 389
#
# _framework density 22.280407
#
# number of rings (size 3 to 8) (size 9 to 14) (size 15 to 20)
#    0.000    1.500    0.000    4.500    0.000   16.500 
#    0.000    0.000    0.000    0.000    0.000    0.000 
#    0.000    0.000    0.000    0.000    0.000    0.000 
#
# Total GULP energy -396569.093699 kJ/mol
# GULP energy per Si atom -12392.784178 kJ/mol
# Density = 2.222970 g / cm^3
# Si number density = 22.280407 Si / 1000 Ang^3
#
#
#
# Elastic Constant Matrix: (Units=GPa)
#
#
# Indices 1 2 3 4 5 6 
#
# 1 165.7153 55.7073 43.4927 0.0000 0.0000 0.0000
# 2 55.7073 108.4723 47.7799 0.0000 0.0000 0.0000
# 3 43.4927 47.7799 91.6490 0.0000 0.0000 0.0000
# 4 0.0000 0.0000 0.0000 58.0461 0.0000 0.0000
# 5 0.0000 0.0000 0.0000 0.0000 25.5564 0.0000
# 6 0.0000 0.0000 0.0000 0.0000 0.0000 26.2893
#
#
#
# Elastic Compliance Matrix: (Units=1/GPa)
#
#
# Indices 1 2 3 4 5 6 
#
# 1 0.007575 -0.002994 -0.002034 0.000000 0.000000 0.000000
# 2 -0.002994 0.013151 -0.005435 0.000000 0.000000 0.000000
# 3 -0.002034 -0.005435 0.014710 0.000000 0.000000 0.000000
# 4 0.000000 0.000000 0.000000 0.017228 0.000000 0.000000
# 5 0.000000 0.000000 0.000000 0.000000 0.039129 0.000000
# 6 0.000000 0.000000 0.000000 0.000000 0.000000 0.038038
#
#
# Mechanical properties :
#
#
# Convention : Reuss Voigt Hill
#
# Bulk Modulus (GPa) = 68.92096 73.31069 71.11582
# Shear Modulus (GPa) = 32.13521 36.56879 34.35200
#
# Velocity S-wave (km/s) = 3.80189 4.05569 3.93084
# Velocity P-wave (km/s) = 7.09035 7.40990 7.25189
#
# Compressibility (1/GPa) = 0.01450937
#
# Stress axis : x y z
#
# Youngs Moduli (GPa) = 132.01734 76.04144 67.98242
#
# Poissons Ratio (x) = 0.22770 0.13825
# Poissons Ratio (y) = 0.39531 0.36948
# Poissons Ratio (z) = 0.26847 0.41328
#
# Static dielectric constant tensor:
#      x y z
#    x 4.039540 0.000000 0.000000 
#    y 0.000000 4.449850 0.000000 
#    z 0.000000 0.000000 4.118720 
# 
# 
# High freq. dielectric constant tensor:
#      x y z
#    x 1.881170 0.000000 0.000000 
#    y 0.000000 1.896260 0.000000 
#    z 0.000000 0.000000 1.862760 
# 
# From -- ./inp_files/4984.got.cif
#   From: 2010.03.12/outbox.cif.g09.slc.cpg/sg45_3_cif.got.tgz:4984.got - 2010.04.14 02:50:11.
