data_PCOD8190673
_publ_section_title
;
Structure prediction by ZEFSAII (Michael W. Deem and Ramdas Pophale) SiO2 
 PCOD8190673
Probable space group: I B A 2
;
_chemical_formula_sum "Si O2"
_cell_formula_units_Z 60
_cell_length_a 22.516440
_cell_length_b 14.572829
_cell_length_c 8.895972
_cell_angle_alpha 90.000000
_cell_angle_beta 90.000000
_cell_angle_gamma 90.000000
_cell_volume 2919.019545
_symmetry_space_group_name_H-M "I B A 2"
_symmetry_group_IT_number 45
_symmetry_cell_setting 'orthorhombic'
loop_
_space_group_symop_operation_xyz
x,y,z
-x,-y,z
-x,y,1/2+z
x,-y,1/2+z
1/2+x,1/2+y,1/2+z
1/2-x,1/2-y,1/2+z
1/2-x,1/2+y,z
1/2+x,1/2-y,z
loop_
_atom_site_type_symbol
_atom_site_label
_atom_site_fract_x
_atom_site_fract_y
_atom_site_fract_z
Si Si1 0.476380 0.128194 0.500000
Si Si2 0.157964 0.928524 0.453621
Si Si3 0.500000 0.000000 0.750629
Si Si4 0.116357 0.243062 0.112909
Si Si5 0.205742 0.433600 0.426129
Si Si6 0.348282 0.615148 0.605867
Si Si7 0.605222 0.790100 0.958479
Si Si8 0.787037 0.612636 0.087996
O O1 0.437127 0.218553 0.510246
O O2 0.545623 0.154667 0.496816
O O3 0.460096 0.065835 0.645787
O O4 0.459579 0.066145 0.355244
O O5 0.122812 0.861841 0.565877
O O6 0.227875 0.914300 0.487174
O O7 0.142552 0.910085 0.280126
O O8 0.135249 0.029373 0.499505
O O9 0.103114 0.252672 0.288705
O O10 0.176125 0.295148 0.065767
O O11 0.160176 0.358297 0.490601
O O12 0.203626 0.433564 0.248160
O O13 0.188809 0.537277 0.471032
O O14 0.389515 0.702030 0.567146
O O15 0.280878 0.642293 0.565442
#
# Coordination Sequence:
#
# PCOD8190673 Si02
#       8
#     8   8   4   8   8   8   8   8
#     4  11  24  40  61  88 120 156 197 234 289 340
#     4  10  21  39  61  85 116 153 194 242 293 344
#     4  10  24  42  60  82 126 158 192 238 284 340
#     4  11  23  38  59  86 120 154 197 242 287 345
#     4   9  20  35  56  87 119 154 192 235 290 346
#     4  10  21  39  61  85 116 153 194 242 293 344
#     4  11  23  38  59  86 120 154 197 242 287 345
#     4   9  20  35  56  87 119 154 192 235 290 346
#
# _framework density 20.554846999999999
#
# number of rings (size 3 to 8) (size 9 to 14) (size 15 to 20)
#    0.000    1.867    1.333    1.600    5.600    2.133 
#    0.000    0.667    0.000    3.200    0.000    0.000 
#    0.000    0.000    0.000    0.000    0.000    0.000 
#
# Total GULP energy -372005.593474 kJ/mol
# GULP energy per Si atom -12400.186449 kJ/mol
# Density = 2.050806 g / cm^3
# Si number density = 20.554847 Si / 1000 Ang^3
#
#
#
# Elastic Constant Matrix: (Units=GPa)
#
#
# Indices 1 2 3 4 5 6 
#
# 1 56.2968 32.8104 21.4765 0.0000 0.0000 0.0000
# 2 32.8104 97.1839 32.6496 0.0000 0.0000 0.0000
# 3 21.4765 32.6496 78.9639 0.0000 0.0000 0.0000
# 4 0.0000 0.0000 0.0000 39.3974 0.0000 0.0000
# 5 0.0000 0.0000 0.0000 0.0000 19.4030 0.0000
# 6 0.0000 0.0000 0.0000 0.0000 0.0000 19.0561
#
#
#
# Elastic Compliance Matrix: (Units=1/GPa)
#
#
# Indices 1 2 3 4 5 6 
#
# 1 0.022929 -0.006557 -0.003525 0.000000 0.000000 0.000000
# 2 -0.006557 0.013825 -0.003933 0.000000 0.000000 0.000000
# 3 -0.003525 -0.003933 0.015249 0.000000 0.000000 0.000000
# 4 0.000000 0.000000 0.000000 0.025382 0.000000 0.000000
# 5 0.000000 0.000000 0.000000 0.000000 0.051539 0.000000
# 6 0.000000 0.000000 0.000000 0.000000 0.000000 0.052477
#
#
# Mechanical properties :
#
#
# Convention : Reuss Voigt Hill
#
# Bulk Modulus (GPa) = 41.71343 45.14641 43.42992
# Shear Modulus (GPa) = 22.99684 25.27183 24.13433
#
# Velocity S-wave (km/s) = 3.34848 3.51020 3.43029
# Velocity P-wave (km/s) = 5.94033 6.20002 6.07156
#
# Compressibility (1/GPa) = 0.02397309
#
# Stress axis : x y z
#
# Youngs Moduli (GPa) = 43.61254 72.33424 65.57842
#
# Poissons Ratio (x) = 0.47428 0.23117
# Poissons Ratio (y) = 0.28596 0.25791
# Poissons Ratio (z) = 0.15374 0.28448
#
# Static dielectric constant tensor:
#      x y z
#    x 3.553540 0.000000 0.000000 
#    y 0.000000 3.715420 0.000000 
#    z 0.000000 0.000000 3.782440 
# 
# 
# High freq. dielectric constant tensor:
#      x y z
#    x 1.778470 0.000000 0.000000 
#    y 0.000000 1.809880 0.000000 
#    z 0.000000 0.000000 1.810840 
# 
# From -- ./inp_files/2523.got.cif
#   From: 2010.03.12/outbox.cif.g09.slc.cpg/sg45_2_cif.got.tgz:2523.got - 2010.04.14 02:50:11.
