data_PCOD8190154
_publ_section_title
;
Structure prediction by ZEFSAII (Michael W. Deem and Ramdas Pophale) SiO2 
 PCOD8190154
Probable space group: I M M 2
;
_chemical_formula_sum "Si O2"
_cell_formula_units_Z 48
_cell_length_a 30.609514
_cell_length_b 9.998662
_cell_length_c 7.976314
_cell_angle_alpha 90.000000
_cell_angle_beta 90.000000
_cell_angle_gamma 90.000000
_cell_volume 2441.184276
_symmetry_space_group_name_H-M "I M M 2"
_symmetry_group_IT_number 44
_symmetry_cell_setting 'orthorhombic'
loop_
_space_group_symop_operation_xyz
x,y,z
-x,-y,z
-x,y,z
x,-y,z
1/2+x,1/2+y,1/2+z
1/2-x,1/2-y,1/2+z
1/2-x,1/2+y,1/2+z
1/2+x,1/2-y,1/2+z
loop_
_atom_site_type_symbol
_atom_site_label
_atom_site_fract_x
_atom_site_fract_y
_atom_site_fract_z
Si Si1 0.448552 0.755062 0.412380
Si Si2 0.047219 0.846164 0.267238
Si Si3 0.384157 0.000000 0.441101
Si Si4 0.762757 0.000000 0.527645
Si Si5 0.816171 0.500000 0.248531
Si Si6 0.815038 0.272249 0.515202
Si Si7 0.403662 0.344272 0.088072
Si Si8 0.302249 0.000000 0.240024
O O1 0.500000 0.793008 0.405592
O O2 0.436623 0.666316 0.575690
O O3 0.417229 0.878707 0.435684
O O4 0.436891 0.676862 0.241948
O O5 0.077898 0.785085 0.411658
O O6 0.000000 0.774810 0.283197
O O7 0.042581 0.000000 0.312674
O O8 0.352642 0.000000 0.603164
O O9 0.354406 0.000000 0.274196
O O10 0.790137 0.132880 0.486061
O O11 0.736272 0.000000 0.703279
O O12 0.721112 0.000000 0.412802
O O13 0.824037 0.360807 0.349036
O O14 0.859263 0.236606 0.614256
O O15 0.787691 0.367748 0.638785
O O16 0.392296 0.500000 0.073818
#
# Coordination Sequence:
#
# PCOD8190154 Si02
#       8
#     8   8   4   4   4   8   8   4
#     4  11  22  37  59  87 120 163 212 257 308 371
#     4   9  19  35  55  82 118 155 196 250 308 363
#     4  11  21  40  56  82 117 159 205 244 306 365
#     4  11  22  40  65  91 120 153 206 258 310 379
#     4  10  24  39  65  88 123 172 197 254 325 379
#     4  11  21  40  61  91 121 157 206 252 311 382
#     4  11  21  36  61  89 122 160 208 261 315 368
#     4  10  22  39  62  81 122 158 188 248 310 371
#
# _framework density 19.662586999999998
#
# number of rings (size 3 to 8) (size 9 to 14) (size 15 to 20)
#    0.000    1.500    2.500    3.250    0.000    1.667 
#    0.000    0.000    0.000    2.000    0.000    0.000 
#    0.000    0.000    0.000    0.000    0.000    0.000 
#
# Total GULP energy -297322.786834 kJ/mol
# GULP energy per Si atom -12388.449451 kJ/mol
# Density = 1.961783 g / cm^3
# Si number density = 19.662587 Si / 1000 Ang^3
#
#
#
# Elastic Constant Matrix: (Units=GPa)
#
#
# Indices 1 2 3 4 5 6 
#
# 1 86.2985 42.5976 32.1916 0.0000 0.0000 0.0000
# 2 42.5976 115.4353 30.5544 0.0000 0.0000 0.0000
# 3 32.1916 30.5544 112.4384 0.0000 0.0000 0.0000
# 4 0.0000 0.0000 0.0000 28.8894 0.0000 0.0000
# 5 0.0000 0.0000 0.0000 0.0000 32.1011 0.0000
# 6 0.0000 0.0000 0.0000 0.0000 0.0000 23.7289
#
#
#
# Elastic Compliance Matrix: (Units=1/GPa)
#
#
# Indices 1 2 3 4 5 6 
#
# 1 0.015063 -0.004759 -0.003019 0.000000 0.000000 0.000000
# 2 -0.004759 0.010838 -0.001583 0.000000 0.000000 0.000000
# 3 -0.003019 -0.001583 0.010188 0.000000 0.000000 0.000000
# 4 0.000000 0.000000 0.000000 0.034615 0.000000 0.000000
# 5 0.000000 0.000000 0.000000 0.000000 0.031152 0.000000
# 6 0.000000 0.000000 0.000000 0.000000 0.000000 0.042143
#
#
# Mechanical properties :
#
#
# Convention : Reuss Voigt Hill
#
# Bulk Modulus (GPa) = 57.58048 58.31771 57.94910
# Shear Modulus (GPa) = 29.67179 30.86578 30.26878
#
# Velocity S-wave (km/s) = 3.88886 3.96633 3.92779
# Velocity P-wave (km/s) = 7.03649 7.12035 7.07854
#
# Compressibility (1/GPa) = 0.01736700
#
# Stress axis : x y z
#
# Youngs Moduli (GPa) = 66.38663 92.26753 98.15228
#
# Poissons Ratio (x) = 0.43914 0.29636
# Poissons Ratio (y) = 0.31596 0.15533
# Poissons Ratio (z) = 0.20044 0.14602
#
# Static dielectric constant tensor:
#      x y z
#    x 3.684970 0.000000 0.000000 
#    y 0.000000 3.567830 0.000000 
#    z 0.000000 0.000000 3.744400 
# 
# 
# High freq. dielectric constant tensor:
#      x y z
#    x 1.767840 0.000000 0.000000 
#    y 0.000000 1.762700 0.000000 
#    z 0.000000 0.000000 1.775140 
# 
# From -- ./inp_files/5010.got.cif
#   From: 2010.03.12/outbox.cif.g09.slc.cpg/sg44_3_cif.got.tgz:5010.got - 2010.04.14 02:36:11.
