data_PCOD8190221
_publ_section_title
;
Structure prediction by ZEFSAII (Michael W. Deem and Ramdas Pophale) SiO2 
 PCOD8190221
Probable space group: I M M 2
;
_chemical_formula_sum "Si O2"
_cell_formula_units_Z 58
_cell_length_a 17.242945
_cell_length_b 18.997014
_cell_length_c 8.814677
_cell_angle_alpha 90.000000
_cell_angle_beta 90.000000
_cell_angle_gamma 90.000000
_cell_volume 2887.374978
_symmetry_space_group_name_H-M "I M M 2"
_symmetry_group_IT_number 44
_symmetry_cell_setting 'orthorhombic'
loop_
_space_group_symop_operation_xyz
x,y,z
-x,-y,z
-x,y,z
x,-y,z
1/2+x,1/2+y,1/2+z
1/2-x,1/2-y,1/2+z
1/2-x,1/2+y,1/2+z
1/2+x,1/2-y,1/2+z
loop_
_atom_site_type_symbol
_atom_site_label
_atom_site_fract_x
_atom_site_fract_y
_atom_site_fract_z
Si Si1 0.088175 0.172362 0.656620
Si Si2 0.500000 0.000000 0.925209
Si Si3 0.299946 0.578961 0.343826
Si Si4 0.196758 0.803843 0.082838
Si Si5 0.165354 0.706108 0.814552
Si Si6 0.123638 0.605645 0.301482
Si Si7 0.411694 0.079016 0.461761
Si Si8 0.090015 0.760483 0.340221
O O1 0.148654 0.113191 0.710076
O O2 0.096562 0.243008 0.757792
O O3 0.107100 0.188881 0.481781
O O4 0.000000 0.145330 0.675767
O O5 0.433531 0.940949 0.901093
O O6 0.330103 0.500000 0.371408
O O7 0.310660 0.621679 0.499271
O O8 0.210489 0.575944 0.295085
O O9 0.272784 0.800616 0.183094
O O10 0.121594 0.796710 0.188322
O O11 0.203444 0.739117 0.965153
O O12 0.134428 0.628058 0.845975
O O13 0.129674 0.684572 0.368427
O O14 0.090950 0.608428 0.130986
O O15 0.500000 0.077084 0.404512
O O16 0.376928 0.000000 0.452138
O O17 0.000000 0.747202 0.315877
#
# Coordination Sequence:
#
# PCOD8190221 Si02
#       8
#     8   2   8   8   8   8   8   8
#     4  10  23  42  64  93 124 162 218 268 320 379
#     4  12  20  36  60 100 132 164 206 244 306 384
#     4  11  25  43  66  91 126 166 213 265 325 389
#     4  11  24  38  62  91 125 165 216 261 315 381
#     4  11  22  38  61  88 128 164 206 258 313 367
#     4  12  20  37  62  93 127 166 207 246 305 382
#     4  11  21  35  57  89 125 160 200 240 299 373
#     4  11  22  39  66  95 124 163 211 266 317 378
#
# _framework density 20.08745
#
# number of rings (size 3 to 8) (size 9 to 14) (size 15 to 20)
#    0.000    0.966    4.138    3.724    1.931    3.034 
#    0.000    0.690    0.000    0.828    0.000    0.000 
#    0.000    0.000    0.000    0.000    0.000    0.000 
#
# Total GULP energy -359282.794313 kJ/mol
# GULP energy per Si atom -12389.061873 kJ/mol
# Density = 2.004173 g / cm^3
# Si number density = 20.087450 Si / 1000 Ang^3
#
#
#
# Elastic Constant Matrix: (Units=GPa)
#
#
# Indices 1 2 3 4 5 6 
#
# 1 87.3045 57.6714 38.4452 0.0000 0.0000 0.0000
# 2 57.6714 145.1913 54.7767 0.0000 0.0000 0.0000
# 3 38.4452 54.7767 96.9678 0.0000 0.0000 0.0000
# 4 0.0000 0.0000 0.0000 20.0661 0.0000 0.0000
# 5 0.0000 0.0000 0.0000 0.0000 25.2776 0.0000
# 6 0.0000 0.0000 0.0000 0.0000 0.0000 38.7408
#
#
#
# Elastic Compliance Matrix: (Units=1/GPa)
#
#
# Indices 1 2 3 4 5 6 
#
# 1 0.016462 -0.005180 -0.003600 0.000000 0.000000 0.000000
# 2 -0.005180 0.010383 -0.003811 0.000000 0.000000 0.000000
# 3 -0.003600 -0.003811 0.013893 0.000000 0.000000 0.000000
# 4 0.000000 0.000000 0.000000 0.049835 0.000000 0.000000
# 5 0.000000 0.000000 0.000000 0.000000 0.039561 0.000000
# 6 0.000000 0.000000 0.000000 0.000000 0.000000 0.025813
#
#
# Mechanical properties :
#
#
# Convention : Reuss Voigt Hill
#
# Bulk Modulus (GPa) = 64.29338 70.13890 67.21614
# Shear Modulus (GPa) = 26.83621 28.72158 27.77889
#
# Velocity S-wave (km/s) = 3.65906 3.78541 3.72277
# Velocity P-wave (km/s) = 7.06596 7.35516 7.21201
#
# Compressibility (1/GPa) = 0.01555370
#
# Stress axis : x y z
#
# Youngs Moduli (GPa) = 60.74731 96.30974 71.97779
#
# Poissons Ratio (x) = 0.49893 0.25913
# Poissons Ratio (y) = 0.31470 0.27434
# Poissons Ratio (z) = 0.21870 0.36708
#
# Static dielectric constant tensor:
#      x y z
#    x 3.896390 0.000000 0.000000 
#    y 0.000000 3.941490 0.000000 
#    z 0.000000 0.000000 3.633000 
# 
# 
# High freq. dielectric constant tensor:
#      x y z
#    x 1.797710 0.000000 0.000000 
#    y 0.000000 1.784490 0.000000 
#    z 0.000000 0.000000 1.770900 
# 
# From -- ./inp_files/8327.got.cif
#   From: 2010.03.12/outbox.cif.g09.slc.cpg/sg44_5_cif.got.tgz:8327.got - 2010.04.14 02:36:11.
