data_PCOD8190524
_publ_section_title
;
Structure prediction by ZEFSAII (Michael W. Deem and Ramdas Pophale) SiO2 
 PCOD8190524
Probable space group: I B A 2
;
_chemical_formula_sum "Si O2"
_cell_formula_units_Z 64
_cell_length_a 15.163177
_cell_length_b 23.192536
_cell_length_c 9.024713
_cell_angle_alpha 90.000000
_cell_angle_beta 90.000000
_cell_angle_gamma 90.000000
_cell_volume 3173.743639
_symmetry_space_group_name_H-M "I B A 2"
_symmetry_group_IT_number 45
_symmetry_cell_setting 'orthorhombic'
loop_
_space_group_symop_operation_xyz
x,y,z
-x,-y,z
-x,y,1/2+z
x,-y,1/2+z
1/2+x,1/2+y,1/2+z
1/2-x,1/2-y,1/2+z
1/2-x,1/2+y,z
1/2+x,1/2-y,z
loop_
_atom_site_type_symbol
_atom_site_label
_atom_site_fract_x
_atom_site_fract_y
_atom_site_fract_z
Si Si1 0.840913 0.739681 0.261620
Si Si2 0.231765 0.939896 0.265967
Si Si3 0.089060 0.136803 0.263444
Si Si4 0.731766 0.560105 0.917623
Si Si5 0.087658 0.619689 0.764095
Si Si6 0.089059 0.136803 0.920147
Si Si7 0.340914 0.239681 0.421966
Si Si8 0.912343 0.380311 0.419496
O O1 0.904743 0.794289 0.279955
O O2 0.888879 0.683237 0.328082
O O3 0.749999 0.750001 0.341791
O O4 0.816837 0.727437 0.091793
O O5 0.333164 0.924274 0.298358
O O6 0.171957 0.890757 0.337895
O O7 0.208155 0.000001 0.341793
O O8 0.211986 0.943321 0.091795
O O9 0.171958 0.109244 0.345697
O O10 0.000000 0.115095 0.341796
O O11 0.088169 0.117905 0.091796
O O12 0.833165 0.575727 0.885233
O O13 0.067183 0.623467 0.591796
O O14 0.000001 0.595696 0.841797
O O15 0.095256 0.205710 0.903633
O O16 0.388882 0.183237 0.355507
#
# Coordination Sequence:
#
# PCOD8190524 Si02
#       8
#     8   8   8   8   8   8   8   8
#     4  10  20  36  60  91 124 159 197 241 297 358
#     4  11  24  43  64  87 120 158 205 255 301 355
#     4  11  23  39  63  93 124 160 200 245 301 361
#     4  11  24  43  64  87 120 158 205 255 301 355
#     4  10  22  39  61  90 123 159 198 244 297 354
#     4  11  23  39  63  93 124 160 200 245 301 361
#     4  10  20  36  60  91 124 159 197 241 297 358
#     4  10  22  39  61  90 123 159 198 244 297 354
#
# _framework density 20.165458999999998
#
# number of rings (size 3 to 8) (size 9 to 14) (size 15 to 20)
#    0.000    1.500    2.500    2.250    0.000    5.000 
#    0.000    5.000    0.000    0.000    0.000    0.000 
#    0.000    0.000    0.000    0.000    0.000    0.000 
#
# Total GULP energy -396948.542877 kJ/mol
# GULP energy per Si atom -12404.641965 kJ/mol
# Density = 2.011956 g / cm^3
# Si number density = 20.165459 Si / 1000 Ang^3
#
#
#
# Elastic Constant Matrix: (Units=GPa)
#
#
# Indices 1 2 3 4 5 6 
#
# 1 98.9207 -8.3268 50.3126 0.0000 0.0000 0.0000
# 2 -8.3268 61.4510 25.0667 -0.0001 0.0000 0.0000
# 3 50.3126 25.0667 101.3475 -0.0009 0.0001 0.0003
# 4 0.0000 -0.0001 -0.0009 26.6872 0.0000 0.0001
# 5 0.0000 0.0000 0.0001 0.0000 41.2604 0.0002
# 6 0.0000 0.0000 0.0003 0.0001 0.0002 17.1522
#
#
#
# Elastic Compliance Matrix: (Units=1/GPa)
#
#
# Indices 1 2 3 4 5 6 
#
# 1 0.015121 0.005684 -0.008912 0.000000 0.000000 0.000000
# 2 0.005684 0.020236 -0.007827 0.000000 0.000000 0.000000
# 3 -0.008912 -0.007827 0.016227 0.000001 0.000000 0.000000
# 4 0.000000 0.000000 0.000001 0.037471 0.000000 0.000000
# 5 0.000000 0.000000 0.000000 0.000000 0.024236 0.000000
# 6 0.000000 0.000000 0.000000 0.000000 0.000000 0.058302
#
#
# Mechanical properties :
#
#
# Convention : Reuss Voigt Hill
#
# Bulk Modulus (GPa) = 33.92817 43.98046 38.95431
# Shear Modulus (GPa) = 24.56667 29.99774 27.28220
#
# Velocity S-wave (km/s) = 3.49414 3.86110 3.68219
# Velocity P-wave (km/s) = 5.75674 6.46023 6.11861
#
# Compressibility (1/GPa) = 0.02947404
#
# Stress axis : x y z
#
# Youngs Moduli (GPa) = 66.13518 49.41655 61.62439
#
# Poissons Ratio (x) = -0.28090 0.54922
# Poissons Ratio (y) = -0.37594 0.48234
# Poissons Ratio (z) = 0.58942 0.38678
#
# Static dielectric constant tensor:
#      x y z
#    x 3.578140 0.000000 0.000000 
#    y 0.000000 3.747360 0.000000 
#    z 0.000000 0.000000 3.717220 
# 
# 
# High freq. dielectric constant tensor:
#      x y z
#    x 1.792510 0.000000 0.000000 
#    y 0.000000 1.786500 0.000000 
#    z 0.000000 0.000000 1.789090 
# 
# From -- ./inp_files/1934.got.cif
#   From: 2010.03.12/outbox.cif.g09.slc.cpg/sg45_1_cif.got.tgz:1934.got - 2010.04.14 02:50:11.
