data_PCOD8190563
_publ_section_title
;
Structure prediction by ZEFSAII (Michael W. Deem and Ramdas Pophale) SiO2 
 PCOD8190563
Probable space group: I B A 2
;
_chemical_formula_sum "Si O2"
_cell_formula_units_Z 32
_cell_length_a 14.455417
_cell_length_b 5.041791
_cell_length_c 18.819649
_cell_angle_alpha 90.000000
_cell_angle_beta 90.000000
_cell_angle_gamma 90.000000
_cell_volume 1371.598440
_symmetry_space_group_name_H-M "I B A 2"
_symmetry_group_IT_number 45
_symmetry_cell_setting 'orthorhombic'
loop_
_space_group_symop_operation_xyz
x,y,z
-x,-y,z
-x,y,1/2+z
x,-y,1/2+z
1/2+x,1/2+y,1/2+z
1/2-x,1/2-y,1/2+z
1/2-x,1/2+y,z
1/2+x,1/2-y,z
loop_
_atom_site_type_symbol
_atom_site_label
_atom_site_fract_x
_atom_site_fract_y
_atom_site_fract_z
Si Si1 0.891957 0.455895 0.010050
Si Si2 0.060858 0.252114 0.656711
Si Si3 0.810925 0.185238 0.286660
Si Si4 0.608193 0.457173 0.934923
O O1 0.877296 0.361512 0.091170
O O2 0.000000 0.500000 0.995070
O O3 0.847865 0.739960 0.989662
O O4 0.846546 0.239212 0.956391
O O5 0.126178 0.140617 0.717957
O O6 0.000000 0.500000 0.685268
O O7 0.000000 0.000000 0.630366
O O8 0.775482 0.486243 0.285869
O O9 0.873546 0.129097 0.354781
O O10 0.500000 0.500000 0.946474
#
# Coordination Sequence:
#
# PCOD8190563 Si02
#       4
#     8   8   8   8
#     4   9  18  35  63  92 113 142 200 259 296 343
#     4  11  22  41  66  91 118 159 206 251 300 360
#     4  12  26  42  58  89 130 165 200 247 300 360
#     4  10  20  38  63  88 115 154 200 247 297 355
#
# _framework density 23.330442999999999
#
# number of rings (size 3 to 8) (size 9 to 14) (size 15 to 20)
#    0.000    1.500    0.000    7.500    0.000    3.000 
#    0.000    7.500    0.000    0.000    0.000    0.000 
#    0.000    0.000    0.000    0.000    0.000    0.000 
#
# Total GULP energy -198347.218490 kJ/mol
# GULP energy per Si atom -12396.701156 kJ/mol
# Density = 2.327734 g / cm^3
# Si number density = 23.330443 Si / 1000 Ang^3
#
#
#
# Elastic Constant Matrix: (Units=GPa)
#
#
# Indices 1 2 3 4 5 6 
#
# 1 26.6975 21.5081 25.5511 0.0000 0.0000 0.0000
# 2 21.5081 137.7950 62.1866 0.0000 0.0000 0.0000
# 3 25.5511 62.1866 179.9818 0.0000 0.0000 0.0000
# 4 0.0000 0.0000 0.0000 40.3794 0.0000 0.0000
# 5 0.0000 0.0000 0.0000 0.0000 11.9421 0.0000
# 6 0.0000 0.0000 0.0000 0.0000 0.0000 28.8468
#
#
#
# Elastic Compliance Matrix: (Units=1/GPa)
#
#
# Indices 1 2 3 4 5 6 
#
# 1 0.046109 -0.005027 -0.004809 0.000000 0.000000 0.000000
# 2 -0.005027 0.009146 -0.002446 0.000000 0.000000 0.000000
# 3 -0.004809 -0.002446 0.007084 0.000000 0.000000 0.000000
# 4 0.000000 0.000000 0.000000 0.024765 0.000000 0.000000
# 5 0.000000 0.000000 0.000000 0.000000 0.083738 0.000000
# 6 0.000000 0.000000 0.000000 0.000000 0.000000 0.034666
#
#
# Mechanical properties :
#
#
# Convention : Reuss Voigt Hill
#
# Bulk Modulus (GPa) = 26.47288 62.55177 44.51232
# Shear Modulus (GPa) = 20.60468 31.91555 26.26011
#
# Velocity S-wave (km/s) = 2.97504 3.70263 3.35860
# Velocity P-wave (km/s) = 4.81380 6.71928 5.84472
#
# Compressibility (1/GPa) = 0.03777451
#
# Stress axis : x y z
#
# Youngs Moduli (GPa) = 21.68777 109.33936 141.16108
#
# Poissons Ratio (x) = 0.54962 0.67885
# Poissons Ratio (y) = 0.10902 0.34534
# Poissons Ratio (z) = 0.10430 0.26749
#
# Static dielectric constant tensor:
#      x y z
#    x 3.722720 0.000000 0.000000 
#    y 0.000000 4.931250 0.000000 
#    z 0.000000 0.000000 4.070370 
# 
# 
# High freq. dielectric constant tensor:
#      x y z
#    x 1.888400 0.000000 0.000000 
#    y 0.000000 1.954010 0.000000 
#    z 0.000000 0.000000 1.924060 
# 
# From -- ./inp_files/8083.got.cif
#   From: 2010.03.12/outbox.cif.g09.slc.cpg/sg45_5_cif.got.tgz:8083.got - 2010.04.14 02:50:11.
