data_PCOD8190746
_publ_section_title
;
Structure prediction by ZEFSAII (Michael W. Deem and Ramdas Pophale) SiO2 
 PCOD8190746
Probable space group: I B A 2
;
_chemical_formula_sum "Si O2"
_cell_formula_units_Z 36
_cell_length_a 8.507954
_cell_length_b 19.935174
_cell_length_c 9.041067
_cell_angle_alpha 90.000000
_cell_angle_beta 90.000000
_cell_angle_gamma 90.000000
_cell_volume 1533.433163
_symmetry_space_group_name_H-M "I B A 2"
_symmetry_group_IT_number 45
_symmetry_cell_setting 'orthorhombic'
loop_
_space_group_symop_operation_xyz
x,y,z
-x,-y,z
-x,y,1/2+z
x,-y,1/2+z
1/2+x,1/2+y,1/2+z
1/2-x,1/2-y,1/2+z
1/2-x,1/2+y,z
1/2+x,1/2-y,z
loop_
_atom_site_type_symbol
_atom_site_label
_atom_site_fract_x
_atom_site_fract_y
_atom_site_fract_z
Si Si1 0.500000 0.000000 0.211071
Si Si2 0.933725 0.590409 0.461070
Si Si3 0.209427 0.132232 0.461068
Si Si4 0.500000 0.341311 0.711068
Si Si5 0.707868 0.714795 0.461069
O O1 0.390298 0.952615 0.314890
O O2 0.609701 0.952614 0.107251
O O3 0.848722 0.660931 0.461070
O O4 0.122384 0.598328 0.461068
O O5 0.110349 0.111599 0.314482
O O6 0.215056 0.212937 0.461068
O O7 0.110349 0.111598 0.607654
O O8 0.394404 0.293279 0.608629
O O9 0.605598 0.293279 0.813507
#
# Coordination Sequence:
#
# PCOD8190746 Si02
#       5
#     4   8   8   8   8
#     4  10  24  40  64  92 120 168 220 254 284 354
#     4  11  22  42  68  90 122 165 216 254 296 369
#     4  11  22  38  62  93 126 162 201 258 318 367
#     4  10  22  35  54  89 128 152 190 248 318 374
#     4  11  22  38  62  93 126 162 201 258 318 367
#
# _framework density 23.476731000000001
#
# number of rings (size 3 to 8) (size 9 to 14) (size 15 to 20)
#    0.000    1.333    0.000    6.667    0.000    3.556 
#    0.000    0.000    0.000   93.333    0.000    0.000 
#    0.000    0.000    0.000    0.000    0.000    0.000 
#
# Total GULP energy -223160.748667 kJ/mol
# GULP energy per Si atom -12397.819370 kJ/mol
# Density = 2.342330 g / cm^3
# Si number density = 23.476731 Si / 1000 Ang^3
#
#
#
# Elastic Constant Matrix: (Units=GPa)
#
#
# Indices 1 2 3 4 5 6 
#
# 1 132.4220 21.5477 55.5155 -0.0003 0.0005 0.0000
# 2 21.5477 81.0293 22.9308 -0.0004 0.0000 0.0000
# 3 55.5155 22.9308 179.7995 0.0000 0.0027 0.0000
# 4 -0.0003 -0.0004 0.0000 11.0097 0.0009 0.0001
# 5 0.0005 0.0000 0.0027 0.0009 33.1331 -0.0002
# 6 0.0000 0.0000 0.0000 0.0001 -0.0002 17.0687
#
#
#
# Elastic Compliance Matrix: (Units=1/GPa)
#
#
# Indices 1 2 3 4 5 6 
#
# 1 0.008881 -0.001645 -0.002532 0.000000 0.000000 0.000000
# 2 -0.001645 0.013108 -0.001164 0.000000 0.000000 0.000000
# 3 -0.002532 -0.001164 0.006492 0.000000 0.000000 0.000000
# 4 0.000000 0.000000 0.000000 0.090829 -0.000002 0.000000
# 5 0.000000 0.000000 0.000000 -0.000002 0.030181 0.000000
# 6 0.000000 0.000000 0.000000 0.000000 0.000000 0.058587
#
#
# Mechanical properties :
#
#
# Convention : Reuss Voigt Hill
#
# Bulk Modulus (GPa) = 56.18386 65.91543 61.04964
# Shear Modulus (GPa) = 22.25256 31.79276 27.02266
#
# Velocity S-wave (km/s) = 3.08207 3.68397 3.39638
# Velocity P-wave (km/s) = 6.05386 6.79951 6.43749
#
# Compressibility (1/GPa) = 0.01779871
#
# Stress axis : x y z
#
# Youngs Moduli (GPa) = 112.60099 76.28918 154.03434
#
# Poissons Ratio (x) = 0.12550 0.39006
# Poissons Ratio (y) = 0.18523 0.17927
# Poissons Ratio (z) = 0.28514 0.08879
#
# Static dielectric constant tensor:
#      x y z
#    x 4.231830 0.000000 0.000000 
#    y 0.000000 3.763910 0.000000 
#    z 0.000000 0.000000 4.843210 
# 
# 
# High freq. dielectric constant tensor:
#      x y z
#    x 1.924350 0.000000 0.000000 
#    y 0.000000 1.890300 0.000000 
#    z 0.000000 0.000000 1.963840 
# 
# From -- ./inp_files/915.got.cif
#   From: 2010.03.12/outbox.cif.g09.slc.cpg/sg45_1_cif.got.tgz:915.got - 2010.04.14 02:50:11.
