data_PCOD8190798
_publ_section_title
;
Structure prediction by ZEFSAII (Michael W. Deem and Ramdas Pophale) SiO2 
 PCOD8190798
Probable space group: I B A 2
;
_chemical_formula_sum "Si O2"
_cell_formula_units_Z 36
_cell_length_a 11.764141
_cell_length_b 4.891363
_cell_length_c 25.970426
_cell_angle_alpha 90.000000
_cell_angle_beta 90.000000
_cell_angle_gamma 90.000000
_cell_volume 1494.408017
_symmetry_space_group_name_H-M "I B A 2"
_symmetry_group_IT_number 45
_symmetry_cell_setting 'orthorhombic'
loop_
_space_group_symop_operation_xyz
x,y,z
-x,-y,z
-x,y,1/2+z
x,-y,1/2+z
1/2+x,1/2+y,1/2+z
1/2-x,1/2-y,1/2+z
1/2-x,1/2+y,z
1/2+x,1/2-y,z
loop_
_atom_site_type_symbol
_atom_site_label
_atom_site_fract_x
_atom_site_fract_y
_atom_site_fract_z
Si Si1 0.500000 0.000000 0.596730
Si Si2 0.324686 0.909786 0.013413
Si Si3 0.169530 0.330501 0.900674
Si Si4 0.500000 0.500000 0.663296
Si Si5 0.500000 0.000000 0.820534
Si Si6 0.668505 0.320855 0.248431
O O1 0.407550 0.148403 0.560648
O O2 0.552363 0.249194 0.630143
O O3 0.211916 0.725530 0.016981
O O4 0.384393 0.840834 0.958358
O O5 0.245467 0.589817 0.890744
O O6 0.073770 0.307114 0.857535
O O7 0.398081 0.350739 0.694425
O O8 0.571749 0.779919 0.787784
O O9 0.722978 0.621490 0.254613
#
# Coordination Sequence:
#
# PCOD8190798 Si02
#       6
#     4   8   8   4   4   8
#     4  12  24  42  70 100 128 176 230 280 340 410
#     4  10  22  41  65  99 139 175 218 272 334 405
#     4  10  23  41  65 100 139 178 219 271 336 406
#     4  12  28  46  68  98 132 176 234 288 352 406
#     4  12  24  44  72 100 134 180 232 280 340 412
#     4  12  27  47  69  97 135 178 229 290 348 407
#
# _framework density 24.089805999999999
#
# number of rings (size 3 to 8) (size 9 to 14) (size 15 to 20)
#    0.000    0.889    0.000    6.667    0.000    9.778 
#    0.000    6.667    0.000    0.000    0.000    0.000 
#    0.000    0.000    0.000    0.000    0.000    0.000 
#
# Total GULP energy -223075.206597 kJ/mol
# GULP energy per Si atom -12393.067033 kJ/mol
# Density = 2.403498 g / cm^3
# Si number density = 24.089806 Si / 1000 Ang^3
#
#
#
# Elastic Constant Matrix: (Units=GPa)
#
#
# Indices 1 2 3 4 5 6 
#
# 1 95.4946 27.3520 65.3873 0.0000 0.0000 0.0000
# 2 27.3520 123.4855 44.1901 0.0000 0.0000 0.0000
# 3 65.3873 44.1901 159.1874 0.0000 0.0000 0.0000
# 4 0.0000 0.0000 0.0000 35.5645 0.0000 0.0000
# 5 0.0000 0.0000 0.0000 0.0000 45.3136 0.0000
# 6 0.0000 0.0000 0.0000 0.0000 0.0000 32.3590
#
#
#
# Elastic Compliance Matrix: (Units=1/GPa)
#
#
# Indices 1 2 3 4 5 6 
#
# 1 0.014733 -0.001219 -0.005713 0.000000 0.000000 0.000000
# 2 -0.001219 0.009092 -0.002023 0.000000 0.000000 0.000000
# 3 -0.005713 -0.002023 0.009190 0.000000 0.000000 0.000000
# 4 0.000000 0.000000 0.000000 0.028118 0.000000 0.000000
# 5 0.000000 0.000000 0.000000 0.000000 0.022068 0.000000
# 6 0.000000 0.000000 0.000000 0.000000 0.000000 0.030903
#
#
# Mechanical properties :
#
#
# Convention : Reuss Voigt Hill
#
# Bulk Modulus (GPa) = 66.20523 72.44736 69.32630
# Shear Modulus (GPa) = 36.48283 38.72997 37.60640
#
# Velocity S-wave (km/s) = 3.89582 4.01400 3.95535
# Velocity P-wave (km/s) = 6.91222 7.18485 7.04986
#
# Compressibility (1/GPa) = 0.01510455
#
# Stress axis : x y z
#
# Youngs Moduli (GPa) = 67.87520 109.98504 108.80970
#
# Poissons Ratio (x) = 0.13405 0.62166
# Poissons Ratio (y) = 0.08273 0.22016
# Poissons Ratio (z) = 0.38779 0.22254
#
# Static dielectric constant tensor:
#      x y z
#    x 4.232350 0.000000 0.000000 
#    y 0.000000 4.271850 0.000000 
#    z 0.000000 0.000000 4.732460 
# 
# 
# High freq. dielectric constant tensor:
#      x y z
#    x 1.943000 0.000000 0.000000 
#    y 0.000000 1.972250 0.000000 
#    z 0.000000 0.000000 1.973030 
# 
# From -- ./inp_files/9391.got.cif
#   From: 2010.03.12/outbox.cif.g09.slc.cpg/sg45_5_cif.got.tgz:9391.got - 2010.04.14 02:50:11.
