data_PCOD8190110
_publ_section_title
;
Structure prediction by ZEFSAII (Michael W. Deem and Ramdas Pophale) SiO2 
 PCOD8190110
Probable space group: I M M 2
;
_chemical_formula_sum "Si O2"
_cell_formula_units_Z 48
_cell_length_a 13.916918
_cell_length_b 27.516493
_cell_length_c 5.461330
_cell_angle_alpha 90.000000
_cell_angle_beta 90.000000
_cell_angle_gamma 90.000000
_cell_volume 2091.387797
_symmetry_space_group_name_H-M "I M M 2"
_symmetry_group_IT_number 44
_symmetry_cell_setting 'orthorhombic'
loop_
_space_group_symop_operation_xyz
x,y,z
-x,-y,z
-x,y,z
x,-y,z
1/2+x,1/2+y,1/2+z
1/2-x,1/2-y,1/2+z
1/2-x,1/2+y,1/2+z
1/2+x,1/2-y,1/2+z
loop_
_atom_site_type_symbol
_atom_site_label
_atom_site_fract_x
_atom_site_fract_y
_atom_site_fract_z
Si Si1 0.894569 0.851163 0.494110
Si Si2 0.254246 0.812047 0.130475
Si Si3 0.393242 0.259796 0.345465
Si Si4 0.206505 0.590570 0.458664
Si Si5 0.610813 0.943467 0.453496
Si Si6 0.105572 0.054478 0.805077
O O1 0.801011 0.844024 0.330909
O O2 0.894328 0.809924 0.699730
O O3 0.882590 0.905557 0.594133
O O4 0.000000 0.847484 0.359661
O O5 0.354791 0.787307 0.202861
O O6 0.181480 0.768218 0.065663
O O7 0.279847 0.851141 0.919651
O O8 0.500000 0.247390 0.442566
O O9 0.145926 0.582876 0.706017
O O10 0.309819 0.564186 0.500601
O O11 0.160481 0.571712 0.207441
O O12 0.500000 0.930318 0.485922
O O13 0.628423 0.000000 0.411358
O O14 0.000000 0.060329 0.930443
O O15 0.115776 0.000000 0.694319
#
# Coordination Sequence:
#
# PCOD8190110 Si02
#       6
#     8   8   8   8   8   8
#     4  10  21  41  68  97 135 185 232 285 354 420
#     4  12  24  42  69  98 136 181 231 296 351 427
#     4  11  24  43  67  96 129 175 231 287 354 421
#     4  12  25  42  73 106 143 185 237 295 355 417
#     4  11  25  47  73 102 141 190 239 292 356 422
#     4  10  21  40  68 104 144 185 233 285 343 421
#
# _framework density 22.951264999999999
#
# number of rings (size 3 to 8) (size 9 to 14) (size 15 to 20)
#    0.000    1.000    3.333    3.500    0.000    3.333 
#    0.000    2.500    0.000    9.000    0.000    0.000 
#    0.000    0.000    0.000    0.000    0.000    0.000 
#
# Total GULP energy -297416.369405 kJ/mol
# GULP energy per Si atom -12392.348725 kJ/mol
# Density = 2.289903 g / cm^3
# Si number density = 22.951265 Si / 1000 Ang^3
#
#
#
# Elastic Constant Matrix: (Units=GPa)
#
#
# Indices 1 2 3 4 5 6 
#
# 1 155.5955 60.3827 39.8633 0.1079 0.1480 0.0017
# 2 60.3827 136.1677 18.2177 0.3706 -0.2206 -0.2617
# 3 39.8633 18.2177 78.0467 0.0539 0.2477 -0.4662
# 4 0.1079 0.3706 0.0539 36.4174 -0.1933 -0.2271
# 5 0.1480 -0.2206 0.2477 -0.1933 16.7372 0.2302
# 6 0.0017 -0.2617 -0.4662 -0.2271 0.2302 22.5024
#
#
#
# Elastic Compliance Matrix: (Units=1/GPa)
#
#
# Indices 1 2 3 4 5 6 
#
# 1 0.008662 -0.003354 -0.003642 0.000013 -0.000065 -0.000114
# 2 -0.003354 0.008880 -0.000359 -0.000079 0.000150 0.000094
# 3 -0.003642 -0.000359 0.014759 -0.000007 -0.000195 0.000304
# 4 0.000013 -0.000079 -0.000007 0.027464 0.000312 0.000273
# 5 -0.000065 0.000150 -0.000195 0.000312 0.059765 -0.000611
# 6 -0.000114 0.000094 0.000304 0.000273 -0.000611 0.044456
#
#
# Mechanical properties :
#
#
# Convention : Reuss Voigt Hill
#
# Bulk Modulus (GPa) = 56.84914 67.41523 62.13218
# Shear Modulus (GPa) = 27.09165 31.88782 29.48973
#
# Velocity S-wave (km/s) = 3.43942 3.73147 3.58842
# Velocity P-wave (km/s) = 6.37151 6.92836 6.65576
#
# Compressibility (1/GPa) = 0.01759042
#
# Stress axis : x y z
#
# Youngs Moduli (GPa) = 115.45249 112.61308 67.75453
#
# Poissons Ratio (x) = 0.37771 0.24673
# Poissons Ratio (y) = 0.38724 0.02436
# Poissons Ratio (z) = 0.42043 0.04048
#
# Static dielectric constant tensor:
#      x y z
#    x 4.745050 0.000220 0.000140 
#    y 0.000220 4.286000 0.000080 
#    z 0.000140 0.000080 3.713390 
# 
# 
# High freq. dielectric constant tensor:
#      x y z
#    x 1.930750 0.000000 0.000010 
#    y 0.000000 1.923780 -0.000030 
#    z 0.000010 -0.000030 1.872800 
# 
# From -- ./inp_files/1569.got.cif
#   From: 2010.03.12/outbox.cif.g09.slc.cpg/sg44_1_cif.got.tgz:1569.got - 2010.04.14 02:36:11.
