data_PCOD8190763
_publ_section_title
;
Structure prediction by ZEFSAII (Michael W. Deem and Ramdas Pophale) SiO2 
 PCOD8190763
Probable space group: I B A 2
;
_chemical_formula_sum "Si O2"
_cell_formula_units_Z 40
_cell_length_a 8.917975
_cell_length_b 21.889277
_cell_length_c 9.105726
_cell_angle_alpha 90.000000
_cell_angle_beta 90.000000
_cell_angle_gamma 90.000000
_cell_volume 1777.510789
_symmetry_space_group_name_H-M "I B A 2"
_symmetry_group_IT_number 45
_symmetry_cell_setting 'orthorhombic'
loop_
_space_group_symop_operation_xyz
x,y,z
-x,-y,z
-x,y,1/2+z
x,-y,1/2+z
1/2+x,1/2+y,1/2+z
1/2-x,1/2-y,1/2+z
1/2-x,1/2+y,z
1/2+x,1/2-y,z
loop_
_atom_site_type_symbol
_atom_site_label
_atom_site_fract_x
_atom_site_fract_y
_atom_site_fract_z
Si Si1 0.847878 0.694722 0.597610
Si Si2 0.756226 0.915800 0.267086
Si Si3 0.500000 0.000000 0.179788
Si Si4 0.669300 0.803019 0.748003
Si Si5 0.241686 0.585038 0.579276
Si Si6 0.500000 0.500000 0.166662
O O1 0.764995 0.630739 0.632150
O O2 0.760257 0.747452 0.681189
O O3 0.850664 0.704606 0.422472
O O4 0.013108 0.692964 0.663215
O O5 0.628152 0.967841 0.276648
O O6 0.748416 0.879838 0.422497
O O7 0.918147 0.947896 0.260955
O O8 0.419619 0.948148 0.083327
O O9 0.758135 0.866043 0.711393
O O10 0.372573 0.534284 0.573159
#
# Coordination Sequence:
#
# PCOD8190763 Si02
#       6
#     8   8   4   8   8   4
#     4  12  27  48  74 103 138 181 232 289 350 414
#     4  11  23  43  69 101 140 182 230 283 344 411
#     4  10  22  38  70 100 138 174 234 276 350 406
#     4  12  27  48  74 103 138 181 232 289 350 414
#     4  11  23  43  69 101 140 182 230 283 344 411
#     4  10  26  42  66 104 146 182 236 278 350 402
#
# _framework density 22.503381000000001
#
# number of rings (size 3 to 8) (size 9 to 14) (size 15 to 20)
#    0.000    0.800    2.000    4.800    2.800    8.000 
#    0.000    0.000    0.000    0.000    0.000    0.000 
#    0.000    0.000    0.000    0.000    0.000    0.000 
#
# Total GULP energy -247914.847150 kJ/mol
# GULP energy per Si atom -12395.742357 kJ/mol
# Density = 2.245216 g / cm^3
# Si number density = 22.503381 Si / 1000 Ang^3
#
#
#
# Elastic Constant Matrix: (Units=GPa)
#
#
# Indices 1 2 3 4 5 6 
#
# 1 107.9253 35.0657 24.1423 0.0000 -0.0002 -0.0001
# 2 35.0657 114.5676 34.9812 0.0000 -0.0002 0.0000
# 3 24.1423 34.9812 175.7328 0.0015 -0.0002 -0.0002
# 4 0.0000 0.0000 0.0015 32.0056 -0.0001 0.0000
# 5 -0.0002 -0.0002 -0.0002 -0.0001 18.8596 0.0001
# 6 -0.0001 0.0000 -0.0002 0.0000 0.0001 37.0605
#
#
#
# Elastic Compliance Matrix: (Units=1/GPa)
#
#
# Indices 1 2 3 4 5 6 
#
# 1 0.010406 -0.002926 -0.000847 0.000000 0.000000 0.000000
# 2 -0.002926 0.010116 -0.001612 0.000000 0.000000 0.000000
# 3 -0.000847 -0.001612 0.006128 0.000000 0.000000 0.000000
# 4 0.000000 0.000000 0.000000 0.031245 0.000000 0.000000
# 5 0.000000 0.000000 0.000000 0.000000 0.053023 0.000000
# 6 0.000000 0.000000 0.000000 0.000000 0.000000 0.026983
#
#
# Mechanical properties :
#
#
# Convention : Reuss Voigt Hill
#
# Bulk Modulus (GPa) = 62.97367 65.17824 64.07596
# Shear Modulus (GPa) = 32.47515 37.85426 35.16471
#
# Velocity S-wave (km/s) = 3.80297 4.10586 3.95731
# Velocity P-wave (km/s) = 6.87955 7.17664 7.02966
#
# Compressibility (1/GPa) = 0.01587965
#
# Stress axis : x y z
#
# Youngs Moduli (GPa) = 96.09901 98.85097 163.19466
#
# Poissons Ratio (x) = 0.28927 0.13824
# Poissons Ratio (y) = 0.28122 0.26302
# Poissons Ratio (z) = 0.08140 0.15932
#
# Static dielectric constant tensor:
#      x y z
#    x 4.517730 0.000000 0.000000 
#    y 0.000000 4.108630 0.000000 
#    z 0.000000 0.000000 3.983820 
# 
# 
# High freq. dielectric constant tensor:
#      x y z
#    x 1.898190 0.000000 0.000000 
#    y 0.000000 1.890950 0.000000 
#    z 0.000000 0.000000 1.886490 
# 
# From -- ./inp_files/977.got.cif
#   From: 2010.03.12/outbox.cif.g09.slc.cpg/sg45_1_cif.got.tgz:977.got - 2010.04.14 02:50:11.
