data_PCOD8190868
_publ_section_title
;
Structure prediction by ZEFSAII (Michael W. Deem and Ramdas Pophale) SiO2 
 PCOD8190868
Probable space group: I B A 2
;
_chemical_formula_sum "Si O2"
_cell_formula_units_Z 40
_cell_length_a 12.278485
_cell_length_b 5.201628
_cell_length_c 25.501769
_cell_angle_alpha 90.000000
_cell_angle_beta 90.000000
_cell_angle_gamma 90.000000
_cell_volume 1628.749823
_symmetry_space_group_name_H-M "I B A 2"
_symmetry_group_IT_number 45
_symmetry_cell_setting 'orthorhombic'
loop_
_space_group_symop_operation_xyz
x,y,z
-x,-y,z
-x,y,1/2+z
x,-y,1/2+z
1/2+x,1/2+y,1/2+z
1/2-x,1/2-y,1/2+z
1/2-x,1/2+y,z
1/2+x,1/2-y,z
loop_
_atom_site_type_symbol
_atom_site_label
_atom_site_fract_x
_atom_site_fract_y
_atom_site_fract_z
Si Si1 0.362718 0.140636 0.302930
Si Si2 0.000000 0.000000 0.443991
Si Si3 0.073462 0.744268 0.192755
Si Si4 0.684010 0.203483 0.582415
Si Si5 0.500000 0.000000 0.006903
Si Si6 0.622845 0.635182 0.848003
O O1 0.345496 0.238789 0.243065
O O2 0.433133 0.362411 0.331615
O O3 0.249534 0.088259 0.333828
O O4 0.423924 0.869061 0.312088
O O5 0.953462 0.249944 0.475493
O O6 0.097692 0.138169 0.410345
O O7 0.144980 0.692242 0.142048
O O8 0.000000 0.500000 0.202615
O O9 0.000000 0.000000 0.187853
O O10 0.720605 0.496500 0.572701
O O11 0.590075 0.131836 0.542746
#
# Coordination Sequence:
#
# PCOD8190868 Si02
#       6
#     8   4   8   8   4   8
#     4  10  23  42  65 104 152 183 242 300 377 463
#     4  12  26  48  80 100 148 208 264 332 398 436
#     4  12  26  44  76 111 158 211 246 311 395 473
#     4  12  28  51  82 117 156 204 265 331 402 477
#     4  12  28  56  74 114 154 200 270 348 396 474
#     4  10  23  43  66 102 139 195 246 308 362 462
#
# _framework density 24.558714999999999
#
# number of rings (size 3 to 8) (size 9 to 14) (size 15 to 20)
#    0.000    0.800    1.000    4.800   11.200    0.000 
#   21.600    0.000    0.000    0.000    0.000    0.000 
#    0.000    0.000    0.000    0.000    0.000    0.000 
#
# Total GULP energy -247800.929043 kJ/mol
# GULP energy per Si atom -12390.046452 kJ/mol
# Density = 2.450282 g / cm^3
# Si number density = 24.558715 Si / 1000 Ang^3
#
#
#
# Elastic Constant Matrix: (Units=GPa)
#
#
# Indices 1 2 3 4 5 6 
#
# 1 84.2950 29.2606 35.4337 0.0000 0.0000 0.0000
# 2 29.2606 204.1324 50.2470 0.0000 0.0000 0.0000
# 3 35.4337 50.2470 130.7311 0.0000 0.0000 0.0000
# 4 0.0000 0.0000 0.0000 54.3304 0.0000 0.0000
# 5 0.0000 0.0000 0.0000 0.0000 -26.7350 0.0000
# 6 0.0000 0.0000 0.0000 0.0000 0.0000 43.7106
#
#
#
# Elastic Compliance Matrix: (Units=1/GPa)
#
#
# Indices 1 2 3 4 5 6 
#
# 1 0.013630 -0.001154 -0.003251 0.000000 0.000000 0.000000
# 2 -0.001154 0.005508 -0.001804 0.000000 0.000000 0.000000
# 3 -0.003251 -0.001804 0.009224 0.000000 0.000000 0.000000
# 4 0.000000 0.000000 0.000000 0.018406 0.000000 0.000000
# 5 0.000000 0.000000 0.000000 0.000000 -0.037404 0.000000
# 6 0.000000 0.000000 0.000000 0.000000 0.000000 0.022878
#
#
# Mechanical properties :
#
#
# Convention : Reuss Voigt Hill
#
# Bulk Modulus (GPa) = 62.71785 72.11566 67.41676
# Shear Modulus (GPa) = 100.05074 34.54233 67.29654
#
# Velocity S-wave (km/s) = 6.38967 3.75443 5.24040
# Velocity P-wave (km/s) = 8.94598 6.94425 8.00791
#
# Compressibility (1/GPa) = 0.01594442
#
# Stress axis : x y z
#
# Youngs Moduli (GPa) = 73.36717 181.54412 108.41285
#
# Poissons Ratio (x) = 0.20942 0.35245
# Poissons Ratio (y) = 0.08463 0.19563
# Poissons Ratio (z) = 0.23851 0.32759
#
# Static dielectric constant tensor:
#      x y z
#    x 4.876240 0.000000 0.000000 
#    y 0.000000 5.656170 0.000000 
#    z 0.000000 0.000000 4.676970 
# 
# 
# High freq. dielectric constant tensor:
#      x y z
#    x 1.991300 0.000000 0.000000 
#    y 0.000000 2.026960 0.000000 
#    z 0.000000 0.000000 1.972760 
# 
# From -- ./inp_files/9733.got.cif
#   From: 2010.03.12/outbox.cif.g09.slc.cpg/sg45_5_cif.got.tgz:9733.got - 2010.04.14 02:50:11.
