data_PCOD8190425
_publ_section_title
;
Structure prediction by ZEFSAII (Michael W. Deem and Ramdas Pophale) SiO2 
 PCOD8190425
Probable space group: I B A 2
;
_chemical_formula_sum "Si O2"
_cell_formula_units_Z 48
_cell_length_a 13.712515
_cell_length_b 23.632616
_cell_length_c 8.897886
_cell_angle_alpha 90.000000
_cell_angle_beta 90.000000
_cell_angle_gamma 90.000000
_cell_volume 2883.472084
_symmetry_space_group_name_H-M "I B A 2"
_symmetry_group_IT_number 45
_symmetry_cell_setting 'orthorhombic'
loop_
_space_group_symop_operation_xyz
x,y,z
-x,-y,z
-x,y,1/2+z
x,-y,1/2+z
1/2+x,1/2+y,1/2+z
1/2-x,1/2-y,1/2+z
1/2-x,1/2+y,z
1/2+x,1/2-y,z
loop_
_atom_site_type_symbol
_atom_site_label
_atom_site_fract_x
_atom_site_fract_y
_atom_site_fract_z
Si Si1 0.102879 0.057997 0.345630
Si Si2 0.897120 0.057997 0.490745
Si Si3 0.777300 0.832433 0.343210
Si Si4 0.103505 0.276622 0.992149
Si Si5 0.103504 0.276622 0.344233
Si Si6 0.277299 0.332432 0.493172
O O1 0.088526 0.050468 0.168187
O O2 0.180306 0.106435 0.384293
O O3 1.000000 0.074940 0.418187
O O4 0.142520 1.000000 0.418187
O O5 0.819693 0.106436 0.452086
O O6 0.677897 0.824681 0.435287
O O7 0.856139 0.785052 0.391134
O O8 0.752744 0.826599 0.168191
O O9 0.090802 0.282650 0.168191
O O10 0.143862 0.214948 0.945248
O O11 0.000001 0.287001 0.918190
O O12 0.177896 0.324680 0.401097
#
# Coordination Sequence:
#
# PCOD8190425 Si02
#       6
#     8   8   8   8   8   8
#     4  10  19  31  48  70  97 126 157 193 232 276
#     4  10  19  31  48  70  97 126 157 193 232 276
#     4   9  19  33  48  69  96 126 158 192 231 276
#     4  10  19  31  49  71  96 125 156 192 233 278
#     4  10  19  31  49  71  96 125 156 192 233 278
#     4   9  19  33  48  69  96 126 158 192 231 276
#
# _framework density 16.646598000000001
#
# number of rings (size 3 to 8) (size 9 to 14) (size 15 to 20)
#    0.000    2.333    0.000    4.000    0.000    4.000 
#    0.000    0.000    0.000    1.000    0.000    7.000 
#    0.000    0.000    0.000    0.000    0.000    0.000 
#
# Total GULP energy -297659.879923 kJ/mol
# GULP energy per Si atom -12402.494997 kJ/mol
# Density = 1.660871 g / cm^3
# Si number density = 16.646598 Si / 1000 Ang^3
#
#
#
# Elastic Constant Matrix: (Units=GPa)
#
#
# Indices 1 2 3 4 5 6 
#
# 1 140.9930 74.0285 66.7150 0.0006 0.0001 -0.0004
# 2 74.0285 114.1123 54.9205 -0.0016 -0.0001 0.0004
# 3 66.7150 54.9205 86.2162 -0.0049 -0.0011 0.0011
# 4 0.0006 -0.0016 -0.0049 26.0640 -0.0005 0.0011
# 5 0.0001 -0.0001 -0.0011 -0.0005 31.6891 -0.0003
# 6 -0.0004 0.0004 0.0011 0.0011 -0.0003 16.9133
#
#
#
# Elastic Compliance Matrix: (Units=1/GPa)
#
#
# Indices 1 2 3 4 5 6 
#
# 1 0.013020 -0.005188 -0.006770 -0.000002 0.000000 0.000001
# 2 -0.005188 0.014705 -0.005353 0.000000 0.000000 0.000000
# 3 -0.006770 -0.005353 0.020247 0.000004 0.000001 -0.000001
# 4 -0.000002 0.000000 0.000004 0.038367 0.000001 -0.000002
# 5 0.000000 0.000000 0.000001 0.000001 0.031557 0.000001
# 6 0.000001 0.000000 -0.000001 -0.000002 0.000001 0.059125
#
#
# Mechanical properties :
#
#
# Convention : Reuss Voigt Hill
#
# Bulk Modulus (GPa) = 74.90346 81.40551 78.15449
# Shear Modulus (GPa) = 23.13813 24.64379 23.89096
#
# Velocity S-wave (km/s) = 3.73226 3.85178 3.79249
# Velocity P-wave (km/s) = 7.97916 8.29397 8.13809
#
# Compressibility (1/GPa) = 0.01335052
#
# Stress axis : x y z
#
# Youngs Moduli (GPa) = 76.80411 68.00299 49.38941
#
# Poissons Ratio (x) = 0.35282 0.33437
# Poissons Ratio (y) = 0.39848 0.26436
# Poissons Ratio (z) = 0.51998 0.36400
#
# Static dielectric constant tensor:
#      x y z
#    x 3.014680 0.000000 0.000000 
#    y 0.000000 3.137680 0.000000 
#    z 0.000000 0.000000 3.224680 
# 
# 
# High freq. dielectric constant tensor:
#      x y z
#    x 1.631580 0.000000 0.000000 
#    y 0.000000 1.632040 0.000000 
#    z 0.000000 0.000000 1.655270 
# 
# From -- ./inp_files/1349.got.cif
#   From: 2010.03.12/outbox.cif.g09.slc.cpg/sg45_1_cif.got.tgz:1349.got - 2010.04.14 02:50:11.
