data_PCOD8190936
_publ_section_title
;
Structure prediction by ZEFSAII (Michael W. Deem and Ramdas Pophale) SiO2 
 PCOD8190936
Probable space group: I B A 2
;
_chemical_formula_sum "Si O2"
_cell_formula_units_Z 64
_cell_length_a 25.173967
_cell_length_b 9.200049
_cell_length_c 12.766258
_cell_angle_alpha 90.000000
_cell_angle_beta 90.000000
_cell_angle_gamma 90.000000
_cell_volume 2956.687437
_symmetry_space_group_name_H-M "I B A 2"
_symmetry_group_IT_number 45
_symmetry_cell_setting 'orthorhombic'
loop_
_space_group_symop_operation_xyz
x,y,z
-x,-y,z
-x,y,1/2+z
x,-y,1/2+z
1/2+x,1/2+y,1/2+z
1/2-x,1/2-y,1/2+z
1/2-x,1/2+y,z
1/2+x,1/2-y,z
loop_
_atom_site_type_symbol
_atom_site_label
_atom_site_fract_x
_atom_site_fract_y
_atom_site_fract_z
Si Si1 0.923339 0.226906 0.393480
Si Si2 0.207068 0.641592 0.089586
Si Si3 0.803443 0.329185 0.856268
Si Si4 0.619388 0.961107 0.235393
Si Si5 0.981363 0.155441 0.754890
Si Si6 0.538877 0.880764 0.593819
Si Si7 0.129757 0.945428 0.825353
Si Si8 0.217940 0.076382 0.697059
O O1 0.893584 0.326019 0.309439
O O2 0.923778 0.308285 0.505501
O O3 0.984088 0.202860 0.356050
O O4 0.892727 0.071011 0.404247
O O5 0.150486 0.595085 0.134247
O O6 0.213987 0.814179 0.100089
O O7 0.253079 0.566470 0.156535
O O8 0.209965 0.600424 0.968167
O O9 0.848125 0.422687 0.800934
O O10 0.826019 0.164544 0.873330
O O11 0.748977 0.338608 0.790466
O O12 0.568501 0.040008 0.189056
O O13 0.993573 0.256075 0.654534
O O14 0.919041 0.151792 0.783591
O O15 0.000000 0.000000 0.714735
O O16 0.500000 0.000000 0.540194
O O17 0.158889 0.030982 0.731663
#
# Coordination Sequence:
#
# PCOD8190936 Si02
#       8
#     8   8   8   8   8   8   8   8
#     4  11  25  44  69 101 138 185 231 283 351 412
#     4  11  25  42  69  98 132 181 224 283 354 406
#     4  11  25  44  70  99 135 180 232 289 352 418
#     4  11  23  46  66 101 138 173 237 286 338 417
#     4  10  24  45  67  99 140 178 231 287 340 412
#     4  12  25  41  72 101 138 188 228 291 349 414
#     4  11  23  47  70  96 142 179 223 297 340 411
#     4  11  24  45  65 100 140 174 232 288 343 417
#
# _framework density 21.645845999999999
#
# number of rings (size 3 to 8) (size 9 to 14) (size 15 to 20)
#    0.000    1.000    5.000    0.750    3.500    3.500 
#    4.500    0.000    0.000    0.000    0.000    0.000 
#    0.000    0.000    0.000    0.000    0.000    0.000 
#
# Total GULP energy -396781.336672 kJ/mol
# GULP energy per Si atom -12399.416771 kJ/mol
# Density = 2.159658 g / cm^3
# Si number density = 21.645846 Si / 1000 Ang^3
#
#
#
# Elastic Constant Matrix: (Units=GPa)
#
#
# Indices 1 2 3 4 5 6 
#
# 1 66.4156 6.6576 5.3520 0.0000 0.0000 0.0000
# 2 6.6576 93.3768 19.6773 0.0000 0.0000 0.0000
# 3 5.3520 19.6773 93.3967 0.0000 0.0000 0.0000
# 4 0.0000 0.0000 0.0000 27.3443 0.0000 0.0000
# 5 0.0000 0.0000 0.0000 0.0000 10.4991 0.0000
# 6 0.0000 0.0000 0.0000 0.0000 0.0000 20.9921
#
#
#
# Elastic Compliance Matrix: (Units=1/GPa)
#
#
# Indices 1 2 3 4 5 6 
#
# 1 0.015205 -0.000942 -0.000673 0.000000 0.000000 0.000000
# 2 -0.000942 0.011265 -0.002319 0.000000 0.000000 0.000000
# 3 -0.000673 -0.002319 0.011234 0.000000 0.000000 0.000000
# 4 0.000000 0.000000 0.000000 0.036571 0.000000 0.000000
# 5 0.000000 0.000000 0.000000 0.000000 0.095246 0.000000
# 6 0.000000 0.000000 0.000000 0.000000 0.000000 0.047637
#
#
# Mechanical properties :
#
#
# Convention : Reuss Voigt Hill
#
# Bulk Modulus (GPa) = 33.51681 35.17365 34.34523
# Shear Modulus (GPa) = 21.27906 26.53393 23.90649
#
# Velocity S-wave (km/s) = 3.13877 3.50497 3.32691
# Velocity P-wave (km/s) = 5.35291 5.71530 5.53707
#
# Compressibility (1/GPa) = 0.02983578
#
# Stress axis : x y z
#
# Youngs Moduli (GPa) = 65.76621 88.76845 89.01358
#
# Poissons Ratio (x) = 0.08365 0.05989
# Poissons Ratio (y) = 0.06197 0.20646
# Poissons Ratio (z) = 0.04425 0.20589
#
# Static dielectric constant tensor:
#      x y z
#    x 3.953470 0.000000 0.000000 
#    y 0.000000 4.191110 0.000000 
#    z 0.000000 0.000000 3.575290 
# 
# 
# High freq. dielectric constant tensor:
#      x y z
#    x 1.851930 0.000000 0.000000 
#    y 0.000000 1.873060 0.000000 
#    z 0.000000 0.000000 1.829900 
# 
# From -- ./inp_files/3426.got.cif
#   From: 2010.03.12/outbox.cif.g09.slc.cpg/sg45_2_cif.got.tgz:3426.got - 2010.04.14 02:50:11.
