data_PCOD8190642
_publ_section_title
;
Structure prediction by ZEFSAII (Michael W. Deem and Ramdas Pophale) SiO2 
 PCOD8190642
Probable space group: I B A 2
;
_chemical_formula_sum "Si O2"
_cell_formula_units_Z 60
_cell_length_a 9.215641
_cell_length_b 20.991320
_cell_length_c 13.854554
_cell_angle_alpha 90.000000
_cell_angle_beta 90.000000
_cell_angle_gamma 90.000000
_cell_volume 2680.142263
_symmetry_space_group_name_H-M "I B A 2"
_symmetry_group_IT_number 45
_symmetry_cell_setting 'orthorhombic'
loop_
_space_group_symop_operation_xyz
x,y,z
-x,-y,z
-x,y,1/2+z
x,-y,1/2+z
1/2+x,1/2+y,1/2+z
1/2-x,1/2-y,1/2+z
1/2-x,1/2+y,z
1/2+x,1/2-y,z
loop_
_atom_site_type_symbol
_atom_site_label
_atom_site_fract_x
_atom_site_fract_y
_atom_site_fract_z
Si Si1 0.271607 0.359862 0.353990
Si Si2 0.556481 0.897730 0.352626
Si Si3 0.500000 0.000000 0.213333
Si Si4 0.776186 0.213280 0.073341
Si Si5 0.728392 0.640138 0.572676
Si Si6 1.000000 0.156462 0.213333
Si Si7 0.223814 0.213280 0.353325
Si Si8 0.056481 0.602270 0.574040
O O1 0.314772 0.378174 0.463333
O O2 0.390279 0.387604 0.277827
O O3 0.281019 0.284100 0.337156
O O4 0.112123 0.384880 0.330251
O O5 0.646941 0.835142 0.326337
O O6 0.582135 0.917768 0.463333
O O7 0.601617 0.956322 0.283118
O O8 0.601617 0.043678 0.143549
O O9 0.718980 0.284100 0.089510
O O10 0.646941 0.164858 0.100329
O O11 0.913288 0.201448 0.140136
O O12 0.828093 0.203941 0.963333
O O13 0.609720 0.612396 0.648839
O O14 0.887877 0.615120 0.596415
O O15 0.086712 0.201448 0.286531
#
# Coordination Sequence:
#
# PCOD8190642 Si02
#       8
#     8   8   4   8   8   8   8   8
#     4  10  21  37  57  85 120 154 191 240 299 356
#     4  10  22  40  62  87 118 157 198 242 291 346
#     4  12  22  38  60  88 116 154 210 252 276 326
#     4  10  21  37  57  85 120 154 191 240 299 356
#     4  10  21  37  57  85 120 154 191 240 299 356
#     4  12  20  29  52  85 116 146 180 226 288 354
#     4  10  21  37  57  85 120 154 191 240 299 356
#     4  10  22  40  62  87 118 157 198 242 291 346
#
# _framework density 22.386872
#
# number of rings (size 3 to 8) (size 9 to 14) (size 15 to 20)
#    0.000    1.600    0.000    5.200    0.000    6.400 
#    0.000    0.000    0.000   12.800    0.000   29.867 
#    0.000    0.000    0.000    0.000    0.000    0.000 
#
# Total GULP energy -371926.617914 kJ/mol
# GULP energy per Si atom -12397.553930 kJ/mol
# Density = 2.233592 g / cm^3
# Si number density = 22.386872 Si / 1000 Ang^3
#
#
#
# Elastic Constant Matrix: (Units=GPa)
#
#
# Indices 1 2 3 4 5 6 
#
# 1 120.0779 13.1382 68.5485 0.0000 0.0000 0.0000
# 2 13.1382 79.5692 40.8190 -0.0001 0.0000 0.0000
# 3 68.5485 40.8190 117.5869 -0.0005 0.0001 0.0001
# 4 0.0000 -0.0001 -0.0005 34.3175 0.0000 0.0000
# 5 0.0000 0.0000 0.0001 0.0000 51.7531 0.0000
# 6 0.0000 0.0000 0.0001 0.0000 0.0000 11.2691
#
#
#
# Elastic Compliance Matrix: (Units=1/GPa)
#
#
# Indices 1 2 3 4 5 6 
#
# 1 0.012758 0.002079 -0.008159 0.000000 0.000000 0.000000
# 2 0.002079 0.015630 -0.006638 0.000000 0.000000 0.000000
# 3 -0.008159 -0.006638 0.015565 0.000000 0.000000 0.000000
# 4 0.000000 0.000000 0.000000 0.029140 0.000000 0.000000
# 5 0.000000 0.000000 0.000000 0.000000 0.019323 0.000000
# 6 0.000000 0.000000 0.000000 0.000000 0.000000 0.088738
#
#
# Mechanical properties :
#
#
# Convention : Reuss Voigt Hill
#
# Bulk Modulus (GPa) = 54.00384 62.47169 58.23777
# Shear Modulus (GPa) = 23.50053 32.44983 27.97518
#
# Velocity S-wave (km/s) = 3.24349 3.81136 3.53884
# Velocity P-wave (km/s) = 6.18081 6.88002 6.53977
#
# Compressibility (1/GPa) = 0.01851720
#
# Stress axis : x y z
#
# Youngs Moduli (GPa) = 78.38004 63.98156 64.24620
#
# Poissons Ratio (x) = -0.13303 0.52421
# Poissons Ratio (y) = -0.16296 0.42644
# Poissons Ratio (z) = 0.63953 0.42469
#
# Static dielectric constant tensor:
#      x y z
#    x 4.002310 0.000000 0.000000 
#    y 0.000000 3.681570 0.000000 
#    z 0.000000 0.000000 4.625930 
# 
# 
# High freq. dielectric constant tensor:
#      x y z
#    x 1.870560 0.000000 0.000000 
#    y 0.000000 1.830730 0.000000 
#    z 0.000000 0.000000 1.922490 
# 
# From -- ./inp_files/5818.got.cif
#   From: 2010.03.12/outbox.cif.g09.slc.cpg/sg45_3_cif.got.tgz:5818.got - 2010.04.14 02:50:11.
