data_PCOD8190096
_publ_section_title
;
Structure prediction by ZEFSAII (Michael W. Deem and Ramdas Pophale) SiO2 
 PCOD8190096
Probable space group: I M M 2
;
_chemical_formula_sum "Si O2"
_cell_formula_units_Z 48
_cell_length_a 18.253139
_cell_length_b 8.837151
_cell_length_c 15.040914
_cell_angle_alpha 90.000000
_cell_angle_beta 90.000000
_cell_angle_gamma 90.000000
_cell_volume 2426.185847
_symmetry_space_group_name_H-M "I M M 2"
_symmetry_group_IT_number 44
_symmetry_cell_setting 'orthorhombic'
loop_
_space_group_symop_operation_xyz
x,y,z
-x,-y,z
-x,y,z
x,-y,z
1/2+x,1/2+y,1/2+z
1/2-x,1/2-y,1/2+z
1/2-x,1/2+y,1/2+z
1/2+x,1/2-y,1/2+z
loop_
_atom_site_type_symbol
_atom_site_label
_atom_site_fract_x
_atom_site_fract_y
_atom_site_fract_z
Si Si1 0.344050 0.320162 0.110370
Si Si2 0.736267 0.823054 0.265608
Si Si3 0.500000 0.830570 0.866081
Si Si4 0.382575 0.825771 0.718858
Si Si5 0.000000 0.823314 0.546585
Si Si6 0.919947 0.174108 0.045623
Si Si7 0.778426 0.320869 0.968220
O O1 0.344236 0.500000 0.110959
O O2 0.326774 0.259894 0.209022
O O3 0.425090 0.254902 0.087659
O O4 0.284923 0.263085 0.036133
O O5 0.811821 0.778747 0.220152
O O6 0.740057 0.769844 0.367924
O O7 0.722271 0.000000 0.258251
O O8 0.427819 0.805117 0.808355
O O9 0.500000 0.000000 0.906257
O O10 0.500000 0.706430 0.941899
O O11 0.429317 0.767488 0.636416
O O12 0.359572 0.000000 0.704084
O O13 0.000000 0.000000 0.562960
O O14 0.000000 0.186616 0.997830
O O15 0.900726 0.000000 0.065716
O O16 0.856464 0.245423 0.986400
O O17 0.786811 0.500000 0.976283
#
# Coordination Sequence:
#
# PCOD8190096 Si02
#       7
#     8   8   4   8   4   8   8
#     4  10  21  40  63  87 119 162 203 247 303 359
#     4  11  23  39  61  91 119 156 206 252 296 354
#     4  10  22  36  56  89 122 155 196 243 302 364
#     4  11  21  36  58  86 122 159 193 239 302 363
#     4  10  22  40  62  87 120 161 202 247 300 354
#     4  11  23  38  59  89 121 155 199 248 296 352
#     4  10  22  40  62  87 120 160 203 247 303 364
#
# _framework density 19.784140000000001
#
# number of rings (size 3 to 8) (size 9 to 14) (size 15 to 20)
#    0.000    1.500    2.500    2.500    0.000    5.667 
#    1.500    0.000    0.000    0.000    0.000    0.000 
#    0.000    0.000    0.000    0.000    0.000    0.000 
#
# Total GULP energy -297573.425241 kJ/mol
# GULP energy per Si atom -12398.892718 kJ/mol
# Density = 1.973911 g / cm^3
# Si number density = 19.784140 Si / 1000 Ang^3
#
#
#
# Elastic Constant Matrix: (Units=GPa)
#
#
# Indices 1 2 3 4 5 6 
#
# 1 140.8593 29.1567 41.9526 0.0000 0.0000 0.0000
# 2 29.1567 26.5744 28.4697 0.0000 0.0000 0.0000
# 3 41.9526 28.4697 93.3068 0.0000 0.0000 0.0000
# 4 0.0000 0.0000 0.0000 34.1357 0.0000 0.0000
# 5 0.0000 0.0000 0.0000 0.0000 19.2589 0.0000
# 6 0.0000 0.0000 0.0000 0.0000 0.0000 25.7252
#
#
#
# Elastic Compliance Matrix: (Units=1/GPa)
#
#
# Indices 1 2 3 4 5 6 
#
# 1 0.009342 -0.008542 -0.001594 0.000000 0.000000 0.000000
# 2 -0.008542 0.063715 -0.015600 0.000000 0.000000 0.000000
# 3 -0.001594 -0.015600 0.016194 0.000000 0.000000 0.000000
# 4 0.000000 0.000000 0.000000 0.029295 0.000000 0.000000
# 5 0.000000 0.000000 0.000000 0.000000 0.051924 0.000000
# 6 0.000000 0.000000 0.000000 0.000000 0.000000 0.038872
#
#
# Mechanical properties :
#
#
# Convention : Reuss Voigt Hill
#
# Bulk Modulus (GPa) = 26.46992 51.09983 38.78488
# Shear Modulus (GPa) = 18.28769 26.56806 22.42787
#
# Velocity S-wave (km/s) = 3.04363 3.66853 3.37059
# Velocity P-wave (km/s) = 5.07543 6.62034 5.89868
#
# Compressibility (1/GPa) = 0.03777873
#
# Stress axis : x y z
#
# Youngs Moduli (GPa) = 107.04088 15.69486 61.75181
#
# Poissons Ratio (x) = 0.13407 0.09843
# Poissons Ratio (y) = 0.91438 0.96332
# Poissons Ratio (z) = 0.17063 0.24484
#
# Static dielectric constant tensor:
#      x y z
#    x 3.810860 0.000000 0.000000 
#    y 0.000000 3.493170 0.000000 
#    z 0.000000 0.000000 3.590640 
# 
# 
# High freq. dielectric constant tensor:
#      x y z
#    x 1.783460 0.000000 0.000000 
#    y 0.000000 1.765650 0.000000 
#    z 0.000000 0.000000 1.763510 
# 
# From -- ./inp_files/16126.got.cif
#   From: 2010.03.12/outbox.cif.g09.slc.cpg/sg44_9_cif.got.tgz:16126.got - 2010.04.14 02:36:11.
