data_PCOD8190029
_publ_section_title
;
Structure prediction by ZEFSAII (Michael W. Deem and Ramdas Pophale) SiO2 
 PCOD8190029
Probable space group: I M M 2
;
_chemical_formula_sum "Si O2"
_cell_formula_units_Z 48
_cell_length_a 9.237587
_cell_length_b 23.067897
_cell_length_c 11.487166
_cell_angle_alpha 90.000000
_cell_angle_beta 90.000000
_cell_angle_gamma 90.000000
_cell_volume 2447.819794
_symmetry_space_group_name_H-M "I M M 2"
_symmetry_group_IT_number 44
_symmetry_cell_setting 'orthorhombic'
loop_
_space_group_symop_operation_xyz
x,y,z
-x,-y,z
-x,y,z
x,-y,z
1/2+x,1/2+y,1/2+z
1/2-x,1/2-y,1/2+z
1/2-x,1/2+y,1/2+z
1/2+x,1/2-y,1/2+z
loop_
_atom_site_type_symbol
_atom_site_label
_atom_site_fract_x
_atom_site_fract_y
_atom_site_fract_z
Si Si1 0.332385 0.063144 0.051770
Si Si2 0.331053 0.345637 0.145406
Si Si3 0.169784 0.231286 0.121076
Si Si4 0.670723 0.067907 0.493691
Si Si5 0.831594 0.642428 0.767936
Si Si6 0.662987 0.354149 0.413007
O O1 0.500000 0.060395 0.026331
O O2 0.295855 0.097236 0.167771
O O3 0.265448 0.000000 0.069777
O O4 0.262350 0.090906 0.938123
O O5 0.500000 0.344888 0.110727
O O6 0.245621 0.291938 0.089865
O O7 0.308265 0.335471 0.282001
O O8 0.259862 0.406285 0.102919
O O9 0.239101 0.199900 0.235595
O O10 0.000000 0.240276 0.145157
O O11 0.200931 0.197053 0.002141
O O12 0.500000 0.072492 0.517565
O O13 0.715401 0.109260 0.385349
O O14 0.712636 0.000000 0.472875
O O15 0.000000 0.660530 0.772301
O O16 0.500000 0.374746 0.431929
#
# Coordination Sequence:
#
# PCOD8190029 Si02
#       6
#     8   8   8   8   8   8
#     4   9  17  31  55  85 112 141 182 230 276 328
#     4  11  24  40  58  82 114 154 194 238 292 349
#     4  10  21  38  60  86 113 145 190 241 293 350
#     4  10  22  40  61  86 119 160 201 240 289 349
#     4   9  18  35  59  86 117 151 187 234 290 343
#     4   9  21  39  55  76 110 147 184 228 284 344
#
# _framework density 19.609286000000001
#
# number of rings (size 3 to 8) (size 9 to 14) (size 15 to 20)
#    0.000    2.333    0.000    1.500    2.333    6.000 
#    0.000    3.333    0.000    3.000    0.000    0.000 
#    0.000    0.000    0.000    0.000    0.000    0.000 
#
# Total GULP energy -297521.785284 kJ/mol
# GULP energy per Si atom -12396.741053 kJ/mol
# Density = 1.956465 g / cm^3
# Si number density = 19.609286 Si / 1000 Ang^3
#
#
#
# Elastic Constant Matrix: (Units=GPa)
#
#
# Indices 1 2 3 4 5 6 
#
# 1 60.7470 55.0224 35.8937 -0.0003 0.0000 0.0000
# 2 55.0224 108.5678 31.5561 0.0003 -0.0001 -0.0001
# 3 35.8937 31.5561 76.9157 -0.0002 0.0001 0.0000
# 4 -0.0003 0.0003 -0.0002 30.6892 0.0000 0.0000
# 5 0.0000 -0.0001 0.0001 0.0000 30.9403 0.0001
# 6 0.0000 -0.0001 0.0000 0.0000 0.0001 32.7886
#
#
#
# Elastic Compliance Matrix: (Units=1/GPa)
#
#
# Indices 1 2 3 4 5 6 
#
# 1 0.037016 -0.015599 -0.010874 0.000000 0.000000 0.000000
# 2 -0.015599 0.017032 0.000292 0.000000 0.000000 0.000000
# 3 -0.010874 0.000292 0.017956 0.000000 0.000000 0.000000
# 4 0.000000 0.000000 0.000000 0.032585 0.000000 0.000000
# 5 0.000000 0.000000 0.000000 0.000000 0.032320 0.000000
# 6 0.000000 0.000000 0.000000 0.000000 0.000000 0.030498
#
#
# Mechanical properties :
#
#
# Convention : Reuss Voigt Hill
#
# Bulk Modulus (GPa) = 50.91372 54.57499 52.74435
# Shear Modulus (GPa) = 22.09289 27.13417 24.61353
#
# Velocity S-wave (km/s) = 3.36021 3.72390 3.54672
# Velocity P-wave (km/s) = 6.40899 6.81040 6.61274
#
# Compressibility (1/GPa) = 0.01964107
#
# Stress axis : x y z
#
# Youngs Moduli (GPa) = 27.01523 58.71412 55.69160
#
# Poissons Ratio (x) = 0.91589 0.60560
# Poissons Ratio (y) = 0.42142 -0.01626
# Poissons Ratio (z) = 0.29377 -0.01714
#
# Static dielectric constant tensor:
#      x y z
#    x 3.569140 0.000000 0.000000 
#    y 0.000000 3.359060 0.000000 
#    z 0.000000 0.000000 3.586390 
# 
# 
# High freq. dielectric constant tensor:
#      x y z
#    x 1.759840 0.000000 0.000000 
#    y 0.000000 1.770060 0.000000 
#    z 0.000000 0.000000 1.760030 
# 
# From -- ./inp_files/11151.got.cif
#   From: 2010.03.12/outbox.cif.g09.slc.cpg/sg44_6_cif.got.tgz:11151.got - 2010.04.14 02:36:11.
