data_PCOD8190928
_publ_section_title
;
Structure prediction by ZEFSAII (Michael W. Deem and Ramdas Pophale) SiO2 
 PCOD8190928
Probable space group: I B A 2
;
_chemical_formula_sum "Si O2"
_cell_formula_units_Z 60
_cell_length_a 16.806713
_cell_length_b 17.459401
_cell_length_c 8.942106
_cell_angle_alpha 90.000000
_cell_angle_beta 90.000000
_cell_angle_gamma 90.000000
_cell_volume 2623.928142
_symmetry_space_group_name_H-M "I B A 2"
_symmetry_group_IT_number 45
_symmetry_cell_setting 'orthorhombic'
loop_
_space_group_symop_operation_xyz
x,y,z
-x,-y,z
-x,y,1/2+z
x,-y,1/2+z
1/2+x,1/2+y,1/2+z
1/2-x,1/2-y,1/2+z
1/2-x,1/2+y,z
1/2+x,1/2-y,z
loop_
_atom_site_type_symbol
_atom_site_label
_atom_site_fract_x
_atom_site_fract_y
_atom_site_fract_z
Si Si1 0.000000 0.000000 0.969200
Si Si2 0.922238 0.904102 0.724940
Si Si3 0.253725 0.653861 0.630449
Si Si4 0.787583 0.805317 0.293620
Si Si5 0.012456 0.333812 0.533858
Si Si6 0.540451 0.729246 0.761859
Si Si7 0.847588 0.597327 0.682556
Si Si8 0.378120 0.050850 0.512159
O O1 0.932045 0.963757 0.861775
O O2 0.039061 0.934637 0.071322
O O3 0.829717 0.891118 0.693784
O O4 0.963781 0.824896 0.773152
O O5 0.231451 0.719037 0.747566
O O6 0.264724 0.688254 0.466051
O O7 0.180708 0.595354 0.623070
O O8 0.881281 0.823267 0.279817
O O9 0.739779 0.864128 0.185599
O O10 0.039604 0.301451 0.374803
O O11 0.087145 0.336869 0.649437
O O12 0.954038 0.268625 0.599309
O O13 0.967914 0.416134 0.528006
O O14 0.865618 0.538144 0.549308
O O15 0.857701 0.556139 0.839264
#
# Coordination Sequence:
#
# PCOD8190928 Si02
#       8
#     4   8   8   8   8   8   8   8
#     4  10  24  44  68  98 140 182 236 286 350 426
#     4  11  24  44  69 101 135 186 228 289 350 427
#     4  11  25  43  67  99 136 177 238 287 354 415
#     4  11  24  44  66 102 136 179 232 296 352 423
#     4  12  24  44  68 103 134 184 233 293 349 424
#     4  12  24  42  73 101 136 176 234 290 355 412
#     4  11  26  44  68  97 144 183 235 288 358 423
#     4  11  26  44  66 101 139 186 233 289 350 432
#
# _framework density 22.866479999999999
#
# number of rings (size 3 to 8) (size 9 to 14) (size 15 to 20)
#    0.000    0.800    2.667    4.400    3.733    7.467 
#    0.000    0.000    0.000    0.000    0.000    0.000 
#    0.000    0.000    0.000    0.000    0.000    0.000 
#
# Total GULP energy -372028.991419 kJ/mol
# GULP energy per Si atom -12400.966381 kJ/mol
# Density = 2.281443 g / cm^3
# Si number density = 22.866480 Si / 1000 Ang^3
#
#
#
# Elastic Constant Matrix: (Units=GPa)
#
#
# Indices 1 2 3 4 5 6 
#
# 1 122.2701 26.5151 30.9657 0.0000 0.0000 0.0000
# 2 26.5151 83.2219 31.3923 0.0000 0.0000 0.0000
# 3 30.9657 31.3923 88.2497 0.0000 0.0000 0.0000
# 4 0.0000 0.0000 0.0000 42.7999 0.0000 0.0000
# 5 0.0000 0.0000 0.0000 0.0000 30.0480 0.0000
# 6 0.0000 0.0000 0.0000 0.0000 0.0000 30.1606
#
#
#
# Elastic Compliance Matrix: (Units=1/GPa)
#
#
# Indices 1 2 3 4 5 6 
#
# 1 0.009253 -0.001990 -0.002539 0.000000 0.000000 0.000000
# 2 -0.001990 0.014306 -0.004391 0.000000 0.000000 0.000000
# 3 -0.002539 -0.004391 0.013784 0.000000 0.000000 0.000000
# 4 0.000000 0.000000 0.000000 0.023365 0.000000 0.000000
# 5 0.000000 0.000000 0.000000 0.000000 0.033280 0.000000
# 6 0.000000 0.000000 0.000000 0.000000 0.000000 0.033156
#
#
# Mechanical properties :
#
#
# Convention : Reuss Voigt Hill
#
# Bulk Modulus (GPa) = 51.27163 52.38756 51.82960
# Shear Modulus (GPa) = 33.00644 34.25960 33.63302
#
# Velocity S-wave (km/s) = 3.80339 3.87492 3.83932
# Velocity P-wave (km/s) = 6.46208 6.55591 6.50916
#
# Compressibility (1/GPa) = 0.01950396
#
# Stress axis : x y z
#
# Youngs Moduli (GPa) = 108.07033 69.89845 72.54698
#
# Poissons Ratio (x) = 0.13913 0.18418
# Poissons Ratio (y) = 0.21511 0.31853
# Poissons Ratio (z) = 0.27437 0.30690
#
# Static dielectric constant tensor:
#      x y z
#    x 4.295140 0.000000 0.000000 
#    y 0.000000 4.040280 0.000000 
#    z 0.000000 0.000000 4.077000 
# 
# 
# High freq. dielectric constant tensor:
#      x y z
#    x 1.904940 0.000000 0.000000 
#    y 0.000000 1.904170 0.000000 
#    z 0.000000 0.000000 1.911480 
# 
# From -- ./inp_files/2144.got.cif
#   From: 2010.03.12/outbox.cif.g09.slc.cpg/sg45_2_cif.got.tgz:2144.got - 2010.04.14 02:50:11.
