data_PCOD8190254
_publ_section_title
;
Structure prediction by ZEFSAII (Michael W. Deem and Ramdas Pophale) SiO2 
 PCOD8190254
Probable space group: I M M 2
;
_chemical_formula_sum "Si O2"
_cell_formula_units_Z 56
_cell_length_a 8.963723
_cell_length_b 14.487322
_cell_length_c 22.981251
_cell_angle_alpha 90.000000
_cell_angle_beta 90.000000
_cell_angle_gamma 90.000000
_cell_volume 2984.353101
_symmetry_space_group_name_H-M "I M M 2"
_symmetry_group_IT_number 44
_symmetry_cell_setting 'orthorhombic'
loop_
_space_group_symop_operation_xyz
x,y,z
-x,-y,z
-x,y,z
x,-y,z
1/2+x,1/2+y,1/2+z
1/2-x,1/2-y,1/2+z
1/2-x,1/2+y,1/2+z
1/2+x,1/2-y,1/2+z
loop_
_atom_site_type_symbol
_atom_site_label
_atom_site_fract_x
_atom_site_fract_y
_atom_site_fract_z
Si Si1 0.677785 0.104893 0.117750
Si Si2 0.828797 0.893303 0.907211
Si Si3 0.177825 0.712469 0.729748
Si Si4 0.324162 0.105409 0.469394
Si Si5 0.177221 0.899981 0.775688
Si Si6 0.176215 0.718312 0.506587
Si Si7 0.677073 0.101770 0.338815
O O1 0.500000 0.103294 0.119484
O O2 0.742753 0.159440 0.173807
O O3 0.735960 0.158375 0.060924
O O4 0.739588 0.000000 0.117682
O O5 0.770646 0.878119 0.841461
O O6 0.000000 0.860363 0.913660
O O7 0.812691 0.000000 0.925226
O O8 0.726599 0.831352 0.947936
O O9 0.230490 0.819859 0.731243
O O10 0.242262 0.668198 0.789131
O O11 0.000000 0.706032 0.728826
O O12 0.500000 0.115438 0.477605
O O13 0.242090 0.177983 0.511533
O O14 0.274967 0.132359 0.403551
O O15 0.275212 0.000000 0.483842
O O16 0.000000 0.904976 0.777360
O O17 0.240904 0.000000 0.755212
O O18 0.000000 0.725824 0.508062
O O19 0.500000 0.100237 0.335962
O O20 0.739943 0.000000 0.325771
#
# Coordination Sequence:
#
# PCOD8190254 Si02
#       7
#     8   8   8   8   8   8   8
#     4   9  18  30  41  58  89 126 159 189 225 274
#     4   9  17  30  49  72  97 125 158 197 239 283
#     4   9  14  22  39  61  88 121 150 181 229 282
#     4   9  18  33  52  73  96 121 153 195 238 282
#     4   8  14  24  40  65  92 114 144 192 243 284
#     4  11  21  31  45  67  98 132 161 193 233 277
#     4   8  13  22  41  69  92 109 138 185 235 276
#
# _framework density 18.764534999999999
#
# number of rings (size 3 to 8) (size 9 to 14) (size 15 to 20)
#    0.000    3.000    0.000    3.857    0.000    5.143 
#    0.000    0.714    0.000    2.571    0.000    8.000 
#    0.000    9.143    0.000    0.000    0.000    0.000 
#
# Total GULP energy -347003.852498 kJ/mol
# GULP energy per Si atom -12392.994732 kJ/mol
# Density = 1.872183 g / cm^3
# Si number density = 18.764535 Si / 1000 Ang^3
#
#
#
# Elastic Constant Matrix: (Units=GPa)
#
#
# Indices 1 2 3 4 5 6 
#
# 1 21.7852 25.3348 14.1896 0.0000 0.0000 0.0000
# 2 25.3348 172.2525 90.1179 0.0000 0.0000 0.0000
# 3 14.1896 90.1179 89.2293 0.0000 0.0000 0.0000
# 4 0.0000 0.0000 0.0000 35.8325 0.0000 0.0000
# 5 0.0000 0.0000 0.0000 0.0000 15.0960 0.0000
# 6 0.0000 0.0000 0.0000 0.0000 0.0000 20.8482
#
#
#
# Elastic Compliance Matrix: (Units=1/GPa)
#
#
# Indices 1 2 3 4 5 6 
#
# 1 0.055438 -0.007509 -0.001232 0.000000 0.000000 0.000000
# 2 -0.007509 0.013327 -0.012265 0.000000 0.000000 0.000000
# 3 -0.001232 -0.012265 0.023791 0.000000 0.000000 0.000000
# 4 0.000000 0.000000 0.000000 0.027908 0.000000 0.000000
# 5 0.000000 0.000000 0.000000 0.000000 0.066243 0.000000
# 6 0.000000 0.000000 0.000000 0.000000 0.000000 0.047966
#
#
# Mechanical properties :
#
#
# Convention : Reuss Voigt Hill
#
# Bulk Modulus (GPa) = 19.78544 60.28349 40.03447
# Shear Modulus (GPa) = 17.03392 24.59700 20.81546
#
# Velocity S-wave (km/s) = 3.01619 3.62446 3.33423
# Velocity P-wave (km/s) = 4.76412 7.05065 6.01700
#
# Compressibility (1/GPa) = 0.05054220
#
# Stress axis : x y z
#
# Youngs Moduli (GPa) = 18.03816 75.03677 42.03358
#
# Poissons Ratio (x) = 0.56347 0.05178
# Poissons Ratio (y) = 0.13545 0.51556
# Poissons Ratio (z) = 0.02222 0.92035
#
# Static dielectric constant tensor:
#      x y z
#    x 2.764340 0.000000 0.000000 
#    y 0.000000 3.889450 0.000000 
#    z 0.000000 0.000000 3.462830 
# 
# 
# High freq. dielectric constant tensor:
#      x y z
#    x 1.656120 0.000000 0.000000 
#    y 0.000000 1.752120 0.000000 
#    z 0.000000 0.000000 1.712870 
# 
# From -- ./inp_files/23105.got.cif
#   From: 2010.03.12/outbox.cif.g09.slc.cpg/sg44_12_cif.got.tgz:23105.got - 2010.04.14 02:36:11.
