data_PCOD8190133
_publ_section_title
;
Structure prediction by ZEFSAII (Michael W. Deem and Ramdas Pophale) SiO2 
 PCOD8190133
Probable space group: I M M 2
;
_chemical_formula_sum "Si O2"
_cell_formula_units_Z 48
_cell_length_a 8.472217
_cell_length_b 28.190440
_cell_length_c 10.305698
_cell_angle_alpha 90.000000
_cell_angle_beta 90.000000
_cell_angle_gamma 90.000000
_cell_volume 2461.366792
_symmetry_space_group_name_H-M "I M M 2"
_symmetry_group_IT_number 44
_symmetry_cell_setting 'orthorhombic'
loop_
_space_group_symop_operation_xyz
x,y,z
-x,-y,z
-x,y,z
x,-y,z
1/2+x,1/2+y,1/2+z
1/2-x,1/2-y,1/2+z
1/2-x,1/2+y,1/2+z
1/2+x,1/2-y,1/2+z
loop_
_atom_site_type_symbol
_atom_site_label
_atom_site_fract_x
_atom_site_fract_y
_atom_site_fract_z
Si Si1 0.685157 0.354078 0.736400
Si Si2 0.314956 0.301356 0.480952
Si Si3 0.685252 0.851795 0.734423
Si Si4 0.687270 0.051824 0.855924
Si Si5 0.685104 0.052910 0.147695
Si Si6 0.685076 0.698789 0.990263
O O1 0.500000 0.349286 0.739556
O O2 0.751055 0.330031 0.605277
O O3 0.733560 0.409207 0.742194
O O4 0.752400 0.327299 0.862316
O O5 0.500000 0.310319 0.458245
O O6 0.217537 0.317746 0.356055
O O7 0.284338 0.246378 0.508392
O O8 0.500000 0.850395 0.702470
O O9 0.745891 0.905363 0.765020
O O10 0.785198 0.835078 0.612175
O O11 0.500000 0.052294 0.863684
O O12 0.744685 0.000000 0.803347
O O13 0.752366 0.059477 0.001723
O O14 0.500000 0.062016 0.150248
O O15 0.725475 0.000000 0.198193
O O16 0.500000 0.710487 0.979891
#
# Coordination Sequence:
#
# PCOD8190133 Si02
#       6
#     8   8   8   8   8   8
#     4  10  22  38  56  81 114 148 185 229 281 332
#     4  11  22  38  60  85 110 144 193 239 281 337
#     4  11  21  36  59  86 115 150 187 229 283 337
#     4   8  15  30  54  83 111 140 179 228 276 326
#     4   9  17  32  57  86 111 140 183 230 275 329
#     4  11  24  40  56  79 115 154 191 235 280 331
#
# _framework density 19.501359999999998
#
# number of rings (size 3 to 8) (size 9 to 14) (size 15 to 20)
#    0.000    2.000    1.667    3.500    0.000    3.667 
#    0.000    0.833    0.000    5.000    0.000    0.000 
#    0.000    0.000    0.000    0.000    0.000    0.000 
#
# Total GULP energy -297610.140384 kJ/mol
# GULP energy per Si atom -12400.422516 kJ/mol
# Density = 1.945697 g / cm^3
# Si number density = 19.501360 Si / 1000 Ang^3
#
#
#
# Elastic Constant Matrix: (Units=GPa)
#
#
# Indices 1 2 3 4 5 6 
#
# 1 24.3496 10.6998 14.4289 0.0009 0.0004 0.0001
# 2 10.6998 140.8211 45.3217 0.0001 0.0005 0.0000
# 3 14.4289 45.3217 100.3597 -0.0012 0.0004 -0.0002
# 4 0.0009 0.0001 -0.0012 15.7705 0.0004 -0.0001
# 5 0.0004 0.0005 0.0004 0.0004 22.3378 0.0001
# 6 0.0001 0.0000 -0.0002 -0.0001 0.0001 29.7336
#
#
#
# Elastic Compliance Matrix: (Units=1/GPa)
#
#
# Indices 1 2 3 4 5 6 
#
# 1 0.045188 -0.001571 -0.005787 -0.000003 -0.000001 0.000000
# 2 -0.001571 0.008363 -0.003551 0.000000 0.000000 0.000000
# 3 -0.005787 -0.003551 0.012400 0.000001 0.000000 0.000000
# 4 -0.000003 0.000000 0.000001 0.063410 -0.000001 0.000000
# 5 -0.000001 0.000000 0.000000 -0.000001 0.044767 0.000000
# 6 0.000000 0.000000 0.000000 0.000000 0.000000 0.033632
#
#
# Mechanical properties :
#
#
# Convention : Reuss Voigt Hill
#
# Bulk Modulus (GPa) = 22.65882 45.15903 33.90892
# Shear Modulus (GPa) = 20.46750 26.57372 23.52061
#
# Velocity S-wave (km/s) = 3.24318 3.69543 3.47666
# Velocity P-wave (km/s) = 5.06642 6.43548 5.79154
#
# Compressibility (1/GPa) = 0.04413293
#
# Stress axis : x y z
#
# Youngs Moduli (GPa) = 22.12963 119.56834 80.64619
#
# Poissons Ratio (x) = 0.18782 0.46673
# Poissons Ratio (y) = 0.03476 0.28638
# Poissons Ratio (z) = 0.12807 0.42459
#
# Static dielectric constant tensor:
#      x y z
#    x 3.233620 0.000000 0.000000 
#    y 0.000000 3.902260 0.000000 
#    z 0.000000 0.000000 3.572830 
# 
# 
# High freq. dielectric constant tensor:
#      x y z
#    x 1.740210 0.000000 0.000000 
#    y 0.000000 1.776870 0.000000 
#    z 0.000000 0.000000 1.742420 
# 
# From -- ./inp_files/4922.got.cif
#   From: 2010.03.12/outbox.cif.g09.slc.cpg/sg44_3_cif.got.tgz:4922.got - 2010.04.14 02:36:11.
