data_PCOD8190618
_publ_section_title
;
Structure prediction by ZEFSAII (Michael W. Deem and Ramdas Pophale) SiO2 
 PCOD8190618
Probable space group: I B A 2
;
_chemical_formula_sum "Si O2"
_cell_formula_units_Z 44
_cell_length_a 21.201493
_cell_length_b 11.154694
_cell_length_c 8.616094
_cell_angle_alpha 90.000000
_cell_angle_beta 90.000000
_cell_angle_gamma 90.000000
_cell_volume 2037.673203
_symmetry_space_group_name_H-M "I B A 2"
_symmetry_group_IT_number 45
_symmetry_cell_setting 'orthorhombic'
loop_
_space_group_symop_operation_xyz
x,y,z
-x,-y,z
-x,y,1/2+z
x,-y,1/2+z
1/2+x,1/2+y,1/2+z
1/2-x,1/2-y,1/2+z
1/2-x,1/2+y,z
1/2+x,1/2-y,z
loop_
_atom_site_type_symbol
_atom_site_label
_atom_site_fract_x
_atom_site_fract_y
_atom_site_fract_z
Si Si1 0.500000 0.000000 0.173630
Si Si2 0.800570 0.530766 0.084771
Si Si3 0.077263 0.628396 0.429492
Si Si4 0.283932 0.830288 0.382488
Si Si5 0.164302 0.898120 0.982979
Si Si6 0.140822 0.143707 0.822791
O O1 0.444337 0.058386 0.274547
O O2 0.526418 0.107838 0.065958
O O3 0.808029 0.566609 0.264003
O O4 0.737128 0.589954 0.023932
O O5 0.857105 0.575377 0.980879
O O6 0.793263 0.386940 0.056344
O O7 0.087219 0.769738 0.394491
O O8 0.331576 0.716995 0.367084
O O9 0.210248 0.800926 0.354774
O O10 0.125997 0.870399 0.139949
O O11 0.134261 0.011831 0.898092
#
# Coordination Sequence:
#
# PCOD8190618 Si02
#       6
#     4   8   8   8   8   8
#     4  10  26  42  72  90 118 152 238 274 316 344
#     4  10  21  34  63  90 133 161 201 247 318 362
#     4  11  22  46  63  98 116 167 205 284 309 358
#     4  10  21  35  56  99 134 170 199 240 300 411
#     4  10  22  37  57  99 134 169 197 235 305 421
#     4  10  23  38  61  89 138 169 204 245 314 377
#
# _framework density 21.593254999999999
#
# number of rings (size 3 to 8) (size 9 to 14) (size 15 to 20)
#    0.000    1.818    1.818    1.091    7.636    2.909 
#    0.000    0.000    0.000    3.273    0.000    0.000 
#    0.000    0.000    0.000    0.000    0.000    0.000 
#
# Total GULP energy -272641.261511 kJ/mol
# GULP energy per Si atom -12392.784614 kJ/mol
# Density = 2.154411 g / cm^3
# Si number density = 21.593255 Si / 1000 Ang^3
#
#
#
# Elastic Constant Matrix: (Units=GPa)
#
#
# Indices 1 2 3 4 5 6 
#
# 1 53.2263 29.1109 28.7412 0.0000 0.0000 0.0000
# 2 29.1109 124.8523 55.0141 0.0000 0.0000 0.0000
# 3 28.7412 55.0141 108.8132 0.0000 0.0000 0.0000
# 4 0.0000 0.0000 0.0000 32.5473 0.0000 0.0000
# 5 0.0000 0.0000 0.0000 0.0000 22.0094 0.0000
# 6 0.0000 0.0000 0.0000 0.0000 0.0000 35.1868
#
#
#
# Elastic Compliance Matrix: (Units=1/GPa)
#
#
# Indices 1 2 3 4 5 6 
#
# 1 0.023018 -0.003458 -0.004331 0.000000 0.000000 0.000000
# 2 -0.003458 0.010825 -0.004559 0.000000 0.000000 0.000000
# 3 -0.004331 -0.004559 0.012639 0.000000 0.000000 0.000000
# 4 0.000000 0.000000 0.000000 0.030725 0.000000 0.000000
# 5 0.000000 0.000000 0.000000 0.000000 0.045435 0.000000
# 6 0.000000 0.000000 0.000000 0.000000 0.000000 0.028420
#
#
# Mechanical properties :
#
#
# Convention : Reuss Voigt Hill
#
# Bulk Modulus (GPa) = 45.90544 56.95824 51.43184
# Shear Modulus (GPa) = 27.31924 29.55039 28.43482
#
# Velocity S-wave (km/s) = 3.56079 3.70334 3.63276
# Velocity P-wave (km/s) = 6.18150 6.68740 6.43942
#
# Compressibility (1/GPa) = 0.02178391
#
# Stress axis : x y z
#
# Youngs Moduli (GPa) = 43.44419 92.37996 79.11855
#
# Poissons Ratio (x) = 0.31949 0.34269
# Poissons Ratio (y) = 0.15025 0.36073
# Poissons Ratio (z) = 0.18817 0.42120
#
# Static dielectric constant tensor:
#      x y z
#    x 3.555420 0.000000 0.000000 
#    y 0.000000 4.094660 0.000000 
#    z 0.000000 0.000000 4.178240 
# 
# 
# High freq. dielectric constant tensor:
#      x y z
#    x 1.802860 0.000000 0.000000 
#    y 0.000000 1.850430 0.000000 
#    z 0.000000 0.000000 1.860000 
# 
# From -- ./inp_files/2480.got.cif
#   From: 2010.03.12/outbox.cif.g09.slc.cpg/sg45_2_cif.got.tgz:2480.got - 2010.04.14 02:50:11.
