data_PCOD8190434
_publ_section_title
;
Structure prediction by ZEFSAII (Michael W. Deem and Ramdas Pophale) SiO2 
 PCOD8190434
Probable space group: I B A 2
;
_chemical_formula_sum "Si O2"
_cell_formula_units_Z 64
_cell_length_a 26.123219
_cell_length_b 26.109678
_cell_length_c 5.408057
_cell_angle_alpha 90.000000
_cell_angle_beta 90.000000
_cell_angle_gamma 90.000000
_cell_volume 3688.667145
_symmetry_space_group_name_H-M "I B A 2"
_symmetry_group_IT_number 45
_symmetry_cell_setting 'orthorhombic'
loop_
_space_group_symop_operation_xyz
x,y,z
-x,-y,z
-x,y,1/2+z
x,-y,1/2+z
1/2+x,1/2+y,1/2+z
1/2-x,1/2-y,1/2+z
1/2-x,1/2+y,z
1/2+x,1/2-y,z
loop_
_atom_site_type_symbol
_atom_site_label
_atom_site_fract_x
_atom_site_fract_y
_atom_site_fract_z
Si Si1 0.290123 0.135387 0.891750
Si Si2 0.475788 0.787219 0.594359
Si Si3 0.727127 0.272918 0.790005
Si Si4 0.898891 0.516268 0.892754
Si Si5 0.378009 0.122055 0.541963
Si Si6 0.864656 0.709976 0.692092
Si Si7 0.212703 0.524218 0.989682
Si Si8 0.016255 0.398865 0.191183
O O1 0.238849 0.166499 0.816681
O O2 0.321727 0.115845 0.654517
O O3 0.273991 0.084188 0.035854
O O4 0.326971 0.173093 0.041939
O O5 0.504316 0.763231 0.354239
O O6 0.415852 0.773907 0.548121
O O7 0.483467 0.848573 0.609138
O O8 0.754905 0.255697 0.538288
O O9 0.666484 0.261285 0.766709
O O10 0.929102 0.490062 0.660234
O O11 0.884247 0.575693 0.843242
O O12 0.848619 0.483489 0.974972
O O13 0.384135 0.178393 0.429559
O O14 0.424361 0.115836 0.740607
O O15 0.236683 0.504306 0.729830
O O16 0.990085 0.429097 0.423742
#
# Coordination Sequence:
#
# PCOD8190434 Si02
#       8
#     8   8   8   8   8   8   8   8
#     4  11  21  32  51  71  97 126 155 196 244 283
#     4  10  19  33  47  69  89 113 160 200 228 282
#     4  10  22  34  46  72 102 126 158 185 236 307
#     4  10  20  32  44  69  81 106 152 189 230 281
#     4  12  20  30  56  63  88 120 144 202 238 263
#     4  11  21  32  51  71  97 126 155 196 244 283
#     4  10  19  33  47  69  89 113 160 200 228 282
#     4  10  20  32  44  69  81 106 152 189 230 281
#
# _framework density 17.350439000000001
#
# number of rings (size 3 to 8) (size 9 to 14) (size 15 to 20)
#    0.000    1.500    6.250    3.000    0.000    0.000 
#    0.000    0.000    0.000    2.250    0.000    0.000 
#    0.000    0.000    0.000    0.000    0.000    3.750 
#
# Total GULP energy -396453.247418 kJ/mol
# GULP energy per Si atom -12389.163982 kJ/mol
# Density = 1.731095 g / cm^3
# Si number density = 17.350439 Si / 1000 Ang^3
#
#
#
# Elastic Constant Matrix: (Units=GPa)
#
#
# Indices 1 2 3 4 5 6 
#
# 1 61.8193 52.4023 21.9785 0.0000 0.0000 0.0000
# 2 52.4023 60.1027 17.0237 0.0000 0.0000 0.0000
# 3 21.9785 17.0237 116.8629 0.0000 0.0000 0.0000
# 4 0.0000 0.0000 0.0000 18.5010 0.0000 0.0000
# 5 0.0000 0.0000 0.0000 0.0000 18.5169 0.0000
# 6 0.0000 0.0000 0.0000 0.0000 0.0000 -1.1771
#
#
#
# Elastic Compliance Matrix: (Units=1/GPa)
#
#
# Indices 1 2 3 4 5 6 
#
# 1 0.063790 -0.054467 -0.004063 0.000000 0.000000 0.000000
# 2 -0.054467 0.063860 0.000941 0.000000 0.000000 0.000000
# 3 -0.004063 0.000941 0.009184 0.000000 0.000000 0.000000
# 4 0.000000 0.000000 0.000000 0.054051 0.000000 0.000000
# 5 0.000000 0.000000 0.000000 0.000000 0.054005 0.000000
# 6 0.000000 0.000000 0.000000 0.000000 0.000000 -0.849566
#
#
# Mechanical properties :
#
#
# Convention : Reuss Voigt Hill
#
# Bulk Modulus (GPa) = 46.17376 46.84378 46.50877
# Shear Modulus (GPa) = -10.36744 16.99354 3.31305
#
# Velocity S-wave (km/s) = -2.44710 3.13298 1.38334
# Velocity P-wave (km/s) = 4.32271 6.33598 5.42358
#
# Compressibility (1/GPa) = 0.02165732
#
# Stress axis : x y z
#
# Youngs Moduli (GPa) = 15.67635 15.65924 108.88432
#
# Poissons Ratio (x) = 0.85291 0.44237
# Poissons Ratio (y) = 0.85384 -0.10245
# Poissons Ratio (z) = 0.06369 -0.01473
#
# Static dielectric constant tensor:
#      x y z
#    x 3.129000 0.000000 0.000000 
#    y 0.000000 3.127340 0.000000 
#    z 0.000000 0.000000 4.104680 
# 
# 
# High freq. dielectric constant tensor:
#      x y z
#    x 1.622120 0.000000 0.000000 
#    y 0.000000 1.621970 0.000000 
#    z 0.000000 0.000000 1.700140 
# 
# From -- ./inp_files/585.got.cif
#   From: 2010.03.12/outbox.cif.g09.slc.cpg/sg45_1_cif.got.tgz:585.got - 2010.04.14 02:50:11.
