data_PCOD8190952
_publ_section_title
;
Structure prediction by ZEFSAII (Michael W. Deem and Ramdas Pophale) SiO2 
 PCOD8190952
Probable space group: I B A 2
;
_chemical_formula_sum "Si O2"
_cell_formula_units_Z 44
_cell_length_a 16.522044
_cell_length_b 5.297429
_cell_length_c 23.091641
_cell_angle_alpha 90.000000
_cell_angle_beta 90.000000
_cell_angle_gamma 90.000000
_cell_volume 2021.080985
_symmetry_space_group_name_H-M "I B A 2"
_symmetry_group_IT_number 45
_symmetry_cell_setting 'orthorhombic'
loop_
_space_group_symop_operation_xyz
x,y,z
-x,-y,z
-x,y,1/2+z
x,-y,1/2+z
1/2+x,1/2+y,1/2+z
1/2-x,1/2-y,1/2+z
1/2-x,1/2+y,z
1/2+x,1/2-y,z
loop_
_atom_site_type_symbol
_atom_site_label
_atom_site_fract_x
_atom_site_fract_y
_atom_site_fract_z
Si Si1 0.199723 0.804160 0.259720
Si Si2 0.420326 0.147581 0.033276
Si Si3 0.699702 0.303521 0.626181
Si Si4 0.500000 0.500000 0.942953
Si Si5 0.697263 0.996175 0.442737
Si Si6 0.920573 0.647053 0.852317
O O1 0.257388 0.567957 0.274717
O O2 0.173292 0.794703 0.192960
O O3 0.117920 0.787108 0.297148
O O4 0.382145 0.285885 0.088811
O O5 0.500000 0.000000 0.054571
O O6 0.440787 0.343236 0.983178
O O7 0.355202 0.967927 0.001839
O O8 0.742569 0.567415 0.611214
O O9 0.558301 0.340049 0.902798
O O10 0.747028 0.739872 0.442426
O O11 0.644189 0.033300 0.384065
O O12 0.000000 0.500000 0.830358
#
# Coordination Sequence:
#
# PCOD8190952 Si02
#       6
#     8   8   8   4   8   8
#     4  10  24  47  72 100 133 176 231 283 336 403
#     4  12  25  42  66  98 140 181 221 285 338 405
#     4  10  24  47  72 100 133 176 231 283 336 403
#     4  12  24  44  62 100 148 174 226 276 338 414
#     4  12  24  40  63  93 128 176 228 266 332 396
#     4  12  25  42  66  98 140 181 221 285 338 405
#
# _framework density 21.770529
#
# number of rings (size 3 to 8) (size 9 to 14) (size 15 to 20)
#    0.000    0.727    3.636    3.273    5.091    0.727 
#    0.000    0.909    0.000    0.000    0.000    0.000 
#    0.000    0.000    0.000    0.000    0.000    0.000 
#
# Total GULP energy -272845.092021 kJ/mol
# GULP energy per Si atom -12402.049637 kJ/mol
# Density = 2.172098 g / cm^3
# Si number density = 21.770529 Si / 1000 Ang^3
#
#
#
# Elastic Constant Matrix: (Units=GPa)
#
#
# Indices 1 2 3 4 5 6 
#
# 1 102.0778 19.8054 50.4834 0.0000 0.0000 0.0000
# 2 19.8054 91.9119 17.8318 0.0000 0.0000 0.0000
# 3 50.4834 17.8318 110.7820 0.0000 0.0000 0.0000
# 4 0.0000 0.0000 0.0000-1206.2486 0.0000 0.0000
# 5 0.0000 0.0000 0.0000 0.0000 55.2872 0.0000
# 6 0.0000 0.0000 0.0000 0.0000 0.0000 12.1250
#
#
#
# Elastic Compliance Matrix: (Units=1/GPa)
#
#
# Indices 1 2 3 4 5 6 
#
# 1 0.012896 -0.001692 -0.005605 0.000000 0.000000 0.000000
# 2 -0.001692 0.011453 -0.001073 0.000000 0.000000 0.000000
# 3 -0.005605 -0.001073 0.011753 0.000000 0.000000 0.000000
# 4 0.000000 0.000000 0.000000 -0.000829 0.000000 0.000000
# 5 0.000000 0.000000 0.000000 0.000000 0.018087 0.000000
# 6 0.000000 0.000000 0.000000 0.000000 0.000000 0.082474
#
#
# Mechanical properties :
#
#
# Convention : Reuss Voigt Hill
#
# Bulk Modulus (GPa) = 51.64002 53.44589 52.54295
# Shear Modulus (GPa) = 31.44103 -213.32389 -90.94143
#
# Velocity S-wave (km/s) = 3.80439 -9.90960 -6.47019
# Velocity P-wave (km/s) = 6.56273 10.31167 5.62411
#
# Compressibility (1/GPa) = 0.01936483
#
# Stress axis : x y z
#
# Youngs Moduli (GPa) = 77.54047 87.31648 85.08159
#
# Poissons Ratio (x) = 0.14771 0.47685
# Poissons Ratio (y) = 0.13117 0.09126
# Poissons Ratio (z) = 0.43459 0.09365
#
# Static dielectric constant tensor:
#      x y z
#    x 3.704400 0.000000 0.000000 
#    y 0.000000 122.341640 0.000000 
#    z 0.000000 0.000000 4.273060 
# 
# 
# High freq. dielectric constant tensor:
#      x y z
#    x 1.859570 0.000000 0.000000 
#    y 0.000000 1.864290 0.000000 
#    z 0.000000 0.000000 1.860610 
# 
# From -- ./inp_files/9805.got.cif
#   From: 2010.03.12/outbox.cif.g09.slc.cpg/sg45_5_cif.got.tgz:9805.got - 2010.04.14 02:50:11.
