data_PCOD8190682
_publ_section_title
;
Structure prediction by ZEFSAII (Michael W. Deem and Ramdas Pophale) SiO2 
 PCOD8190682
Probable space group: I B A 2
;
_chemical_formula_sum "Si O2"
_cell_formula_units_Z 48
_cell_length_a 8.353709
_cell_length_b 15.272237
_cell_length_c 15.985158
_cell_angle_alpha 90.000000
_cell_angle_beta 90.000000
_cell_angle_gamma 90.000000
_cell_volume 2039.383639
_symmetry_space_group_name_H-M "I B A 2"
_symmetry_group_IT_number 45
_symmetry_cell_setting 'orthorhombic'
loop_
_space_group_symop_operation_xyz
x,y,z
-x,-y,z
-x,y,1/2+z
x,-y,1/2+z
1/2+x,1/2+y,1/2+z
1/2-x,1/2-y,1/2+z
1/2-x,1/2+y,z
1/2+x,1/2-y,z
loop_
_atom_site_type_symbol
_atom_site_label
_atom_site_fract_x
_atom_site_fract_y
_atom_site_fract_z
Si Si1 0.256402 0.338047 0.465670
Si Si2 0.185440 0.477603 0.773757
Si Si3 0.802297 0.164076 0.279558
Si Si4 0.375804 0.320312 0.710026
Si Si5 0.573211 0.686799 0.040688
Si Si6 0.682005 0.526661 0.951750
O O1 0.212488 0.321644 0.368440
O O2 0.442073 0.312126 0.468051
O O3 0.163126 0.279636 0.533886
O O4 0.231643 0.440151 0.490296
O O5 0.281389 0.564706 0.749046
O O6 0.247500 0.399255 0.714315
O O7 0.221867 0.446031 0.868472
O O8 0.000000 0.500000 0.760681
O O9 0.722611 0.229571 0.211989
O O10 0.994185 0.178653 0.285373
O O11 0.484545 0.327995 0.627769
O O12 0.692278 0.605289 0.019449
O O13 0.500000 0.500000 0.928141
#
# Coordination Sequence:
#
# PCOD8190682 Si02
#       6
#     8   8   8   8   8   8
#     4  10  21  39  63  91 126 175 230 276 338 423
#     4  11  23  40  66  98 133 180 238 293 349 425
#     4  11  23  41  66  95 132 181 234 290 351 426
#     4  12  24  42  66 100 140 179 231 295 367 422
#     4  11  23  40  64  96 134 177 224 287 359 415
#     4   9  20  40  64  92 129 178 233 285 349 425
#
# _framework density 23.536524
#
# number of rings (size 3 to 8) (size 9 to 14) (size 15 to 20)
#    0.000    1.333    0.000    7.500    0.000    8.000 
#    0.000    0.000    0.000    9.000    0.000    0.000 
#    0.000    0.000    0.000    0.000    0.000    0.000 
#
# Total GULP energy -297510.104962 kJ/mol
# GULP energy per Si atom -12396.254373 kJ/mol
# Density = 2.348295 g / cm^3
# Si number density = 23.536524 Si / 1000 Ang^3
#
#
#
# Elastic Constant Matrix: (Units=GPa)
#
#
# Indices 1 2 3 4 5 6 
#
# 1 90.7642 49.0606 26.6644 0.0000 0.0000 0.0000
# 2 49.0606 188.0732 65.5887 0.0000 0.0000 0.0000
# 3 26.6644 65.5887 95.7564 0.0000 0.0000 0.0000
# 4 0.0000 0.0000 0.0000 28.7030 0.0000 0.0000
# 5 0.0000 0.0000 0.0000 0.0000 37.8251 0.0000
# 6 0.0000 0.0000 0.0000 0.0000 0.0000 50.0901
#
#
#
# Elastic Compliance Matrix: (Units=1/GPa)
#
#
# Indices 1 2 3 4 5 6 
#
# 1 0.013035 -0.002804 -0.001709 0.000000 0.000000 0.000000
# 2 -0.002804 0.007589 -0.004417 0.000000 0.000000 0.000000
# 3 -0.001709 -0.004417 0.013945 0.000000 0.000000 0.000000
# 4 0.000000 0.000000 0.000000 0.034840 0.000000 0.000000
# 5 0.000000 0.000000 0.000000 0.000000 0.026437 0.000000
# 6 0.000000 0.000000 0.000000 0.000000 0.000000 0.019964
#
#
# Mechanical properties :
#
#
# Convention : Reuss Voigt Hill
#
# Bulk Modulus (GPa) = 59.85178 73.02458 66.43818
# Shear Modulus (GPa) = 35.90898 38.87565 37.39232
#
# Velocity S-wave (km/s) = 3.91022 4.06854 3.99017
# Velocity P-wave (km/s) = 6.77281 7.29137 7.03687
#
# Compressibility (1/GPa) = 0.01670794
#
# Stress axis : x y z
#
# Youngs Moduli (GPa) = 76.71366 131.76751 71.71203
#
# Poissons Ratio (x) = 0.36954 0.12255
# Poissons Ratio (y) = 0.21514 0.31677
# Poissons Ratio (z) = 0.13110 0.58205
#
# Static dielectric constant tensor:
#      x y z
#    x 4.285770 0.000000 0.000000 
#    y 0.000000 4.491450 0.000000 
#    z 0.000000 0.000000 3.953030 
# 
# 
# High freq. dielectric constant tensor:
#      x y z
#    x 1.923320 0.000000 0.000000 
#    y 0.000000 1.944650 0.000000 
#    z 0.000000 0.000000 1.915900 
# 
# From -- ./inp_files/7568.got.cif
#   From: 2010.03.12/outbox.cif.g09.slc.cpg/sg45_4_cif.got.tgz:7568.got - 2010.04.14 02:50:11.
