data_PCOD8190251
_publ_section_title
;
Structure prediction by ZEFSAII (Michael W. Deem and Ramdas Pophale) SiO2 
 PCOD8190251
Probable space group: I M M 2
;
_chemical_formula_sum "Si O2"
_cell_formula_units_Z 56
_cell_length_a 13.651817
_cell_length_b 9.127297
_cell_length_c 29.283107
_cell_angle_alpha 90.000000
_cell_angle_beta 90.000000
_cell_angle_gamma 90.000000
_cell_volume 3648.797780
_symmetry_space_group_name_H-M "I M M 2"
_symmetry_group_IT_number 44
_symmetry_cell_setting 'orthorhombic'
loop_
_space_group_symop_operation_xyz
x,y,z
-x,-y,z
-x,y,z
x,-y,z
1/2+x,1/2+y,1/2+z
1/2-x,1/2-y,1/2+z
1/2-x,1/2+y,1/2+z
1/2+x,1/2-y,1/2+z
loop_
_atom_site_type_symbol
_atom_site_label
_atom_site_fract_x
_atom_site_fract_y
_atom_site_fract_z
Si Si1 0.616698 0.669307 0.592280
Si Si2 0.607312 0.326949 0.493292
Si Si3 0.887224 0.827680 0.894712
Si Si4 0.888180 0.328472 0.717649
Si Si5 0.389738 0.331699 0.756150
Si Si6 0.205215 0.667970 0.812007
Si Si7 0.288520 0.173723 0.675298
O O1 0.500000 0.693815 0.595154
O O2 0.641496 0.500000 0.603346
O O3 0.658145 0.715124 0.541540
O O4 0.672857 0.775154 0.626444
O O5 0.500000 0.254619 0.493323
O O6 0.594722 0.500000 0.492898
O O7 0.656737 0.279967 0.444893
O O8 0.818749 0.759102 0.856595
O O9 0.000000 0.775006 0.889503
O O10 0.881595 0.000000 0.888449
O O11 0.866913 0.500000 0.710511
O O12 0.863751 0.284380 0.769784
O O13 0.820018 0.238050 0.683229
O O14 0.000000 0.287614 0.706941
O O15 0.500000 0.298119 0.772277
O O16 0.377359 0.500000 0.739905
O O17 0.318168 0.300522 0.798682
O O18 0.363696 0.229904 0.713536
O O19 0.187071 0.500000 0.824248
O O20 0.283626 0.000000 0.676882
#
# Coordination Sequence:
#
# PCOD8190251 Si02
#       7
#     8   8   8   8   8   8   8
#     4   9  16  28  46  63  82 113 149 179 207 246
#     4   7  12  24  41  60  81 108 143 176 203 239
#     4   9  16  26  41  62  88 115 140 167 204 251
#     4   9  18  33  49  62  81 113 151 182 203 237
#     4   9  18  33  48  59  78 113 153 184 207 242
#     4   9  17  28  43  64  85 106 137 175 212 247
#     4  11  21  29  41  65  93 114 135 171 219 262
#
# _framework density 15.347521
#
# number of rings (size 3 to 8) (size 9 to 14) (size 15 to 20)
#    0.000    3.000    0.000    4.714    0.000    5.714 
#    0.000    0.714    0.000    2.571    0.000    1.000 
#    0.000    5.714    0.000    0.000    0.000    0.000 
#
# Total GULP energy -346935.939100 kJ/mol
# GULP energy per Si atom -12390.569254 kJ/mol
# Density = 1.531259 g / cm^3
# Si number density = 15.347521 Si / 1000 Ang^3
#
#
#
# Elastic Constant Matrix: (Units=GPa)
#
#
# Indices 1 2 3 4 5 6 
#
# 1 92.1397 38.2467 52.4721 0.0000 0.0000 0.0000
# 2 38.2467 62.0960 51.2637 0.0000 0.0000 0.0000
# 3 52.4721 51.2637 130.8562 0.0000 0.0000 0.0000
# 4 0.0000 0.0000 0.0000 23.9826 0.0000 0.0000
# 5 0.0000 0.0000 0.0000 0.0000 19.6549 0.0000
# 6 0.0000 0.0000 0.0000 0.0000 0.0000 15.3634
#
#
#
# Elastic Compliance Matrix: (Units=1/GPa)
#
#
# Indices 1 2 3 4 5 6 
#
# 1 0.015711 -0.006615 -0.003708 0.000000 0.000000 0.000000
# 2 -0.006615 0.026588 -0.007763 0.000000 0.000000 0.000000
# 3 -0.003708 -0.007763 0.012170 0.000000 0.000000 0.000000
# 4 0.000000 0.000000 0.000000 0.041697 0.000000 0.000000
# 5 0.000000 0.000000 0.000000 0.000000 0.050878 0.000000
# 6 0.000000 0.000000 0.000000 0.000000 0.000000 0.065090
#
#
# Mechanical properties :
#
#
# Convention : Reuss Voigt Hill
#
# Bulk Modulus (GPa) = 54.65951 63.22853 58.94402
# Shear Modulus (GPa) = 19.65368 21.34081 20.49724
#
# Velocity S-wave (km/s) = 3.58240 3.73299 3.65847
# Velocity P-wave (km/s) = 7.26659 7.73742 7.50570
#
# Compressibility (1/GPa) = 0.01829508
#
# Stress axis : x y z
#
# Youngs Moduli (GPa) = 63.64996 37.61149 82.16767
#
# Poissons Ratio (x) = 0.24881 0.30470
# Poissons Ratio (y) = 0.42107 0.63788
# Poissons Ratio (z) = 0.23603 0.29198
#
# Static dielectric constant tensor:
#      x y z
#    x 2.850160 0.000000 0.000000 
#    y 0.000000 2.747380 0.000000 
#    z 0.000000 0.000000 3.130660 
# 
# 
# High freq. dielectric constant tensor:
#      x y z
#    x 1.560010 0.000000 0.000000 
#    y 0.000000 1.572650 0.000000 
#    z 0.000000 0.000000 1.589150 
# 
# From -- ./inp_files/27203.got.cif
#   From: 2010.03.12/outbox.cif.g09.slc.cpg/sg44_14_cif.got.tgz:27203.got - 2010.04.14 02:36:11.
