data_PCOD8190219
_publ_section_title
;
Structure prediction by ZEFSAII (Michael W. Deem and Ramdas Pophale) SiO2 
 PCOD8190219
Probable space group: I M M 2
;
_chemical_formula_sum "Si O2"
_cell_formula_units_Z 48
_cell_length_a 8.819668
_cell_length_b 18.157461
_cell_length_c 14.962071
_cell_angle_alpha 90.000000
_cell_angle_beta 90.000000
_cell_angle_gamma 90.000000
_cell_volume 2396.067611
_symmetry_space_group_name_H-M "I M M 2"
_symmetry_group_IT_number 44
_symmetry_cell_setting 'orthorhombic'
loop_
_space_group_symop_operation_xyz
x,y,z
-x,-y,z
-x,y,z
x,-y,z
1/2+x,1/2+y,1/2+z
1/2-x,1/2-y,1/2+z
1/2-x,1/2+y,1/2+z
1/2+x,1/2-y,1/2+z
loop_
_atom_site_type_symbol
_atom_site_label
_atom_site_fract_x
_atom_site_fract_y
_atom_site_fract_z
Si Si1 0.822300 0.724365 0.621560
Si Si2 0.327813 0.500000 0.242944
Si Si3 0.174280 0.080969 0.046484
Si Si4 0.828522 0.000000 0.532448
Si Si5 0.172805 0.746614 0.826204
Si Si6 0.177130 0.391731 0.366228
Si Si7 0.826217 0.347213 0.995008
O O1 0.772598 0.642590 0.594911
O O2 0.777770 0.729282 0.725437
O O3 0.745602 0.788395 0.563476
O O4 0.000000 0.732192 0.605880
O O5 0.500000 0.500000 0.278414
O O6 0.322662 0.500000 0.137951
O O7 0.239998 0.427197 0.275180
O O8 0.000000 0.106972 0.045540
O O9 0.190299 0.000000 0.092878
O O10 0.233935 0.070295 0.946486
O O11 0.749446 0.926724 0.497150
O O12 0.000000 0.000000 0.497006
O O13 0.289294 0.805473 0.865823
O O14 0.000000 0.776791 0.828337
O O15 0.189227 0.676970 0.891532
O O16 0.000000 0.406696 0.376569
O O17 0.000000 0.354690 0.023861
#
# Coordination Sequence:
#
# PCOD8190219 Si02
#       7
#     8   4   8   4   8   8   8
#     4  11  23  41  66  95 125 163 211 260 310 371
#     4  11  23  39  59  86 125 166 199 249 322 382
#     4  11  23  40  62  88 126 168 202 249 315 373
#     4  11  25  43  63  90 125 164 209 265 316 364
#     4  10  23  42  63  89 125 167 205 252 316 376
#     4  12  23  35  60  93 123 157 204 257 305 367
#     4  11  23  42  67  91 125 169 209 256 314 377
#
# _framework density 20.032823
#
# number of rings (size 3 to 8) (size 9 to 14) (size 15 to 20)
#    0.000    1.000    2.500    4.500    0.000    8.333 
#    1.500    0.000    0.000    0.000    0.000    0.000 
#    0.000    0.000    0.000    0.000    0.000    0.000 
#
# Total GULP energy -297628.208614 kJ/mol
# GULP energy per Si atom -12401.175359 kJ/mol
# Density = 1.998723 g / cm^3
# Si number density = 20.032823 Si / 1000 Ang^3
#
#
#
# Elastic Constant Matrix: (Units=GPa)
#
#
# Indices 1 2 3 4 5 6 
#
# 1 104.8544 53.4794 39.3917 0.0000 0.0000 0.0000
# 2 53.4794 147.3576 45.9658 0.0000 0.0000 0.0000
# 3 39.3917 45.9658 98.7455 0.0001 0.0000 0.0000
# 4 0.0000 0.0000 0.0001 31.9116 0.0000 0.0000
# 5 0.0000 0.0000 0.0000 0.0000 29.1816 0.0000
# 6 0.0000 0.0000 0.0000 0.0000 0.0000 35.5743
#
#
#
# Elastic Compliance Matrix: (Units=1/GPa)
#
#
# Indices 1 2 3 4 5 6 
#
# 1 0.012605 -0.003517 -0.003391 0.000000 0.000000 0.000000
# 2 -0.003517 0.008920 -0.002749 0.000000 0.000000 0.000000
# 3 -0.003391 -0.002749 0.012760 0.000000 0.000000 0.000000
# 4 0.000000 0.000000 0.000000 0.031337 0.000000 0.000000
# 5 0.000000 0.000000 0.000000 0.000000 0.034268 0.000000
# 6 0.000000 0.000000 0.000000 0.000000 0.000000 0.028110
#
#
# Mechanical properties :
#
#
# Convention : Reuss Voigt Hill
#
# Bulk Modulus (GPa) = 66.80105 69.84790 68.32447
# Shear Modulus (GPa) = 32.82904 33.47488 33.15196
#
# Velocity S-wave (km/s) = 4.05256 4.09222 4.07244
# Velocity P-wave (km/s) = 7.43746 7.56775 7.50289
#
# Compressibility (1/GPa) = 0.01496982
#
# Stress axis : x y z
#
# Youngs Moduli (GPa) = 79.33551 112.10596 78.37149
#
# Poissons Ratio (x) = 0.39424 0.26578
# Poissons Ratio (y) = 0.27900 0.21548
# Poissons Ratio (z) = 0.26905 0.30823
#
# Static dielectric constant tensor:
#      x y z
#    x 3.790990 0.000000 0.000000 
#    y 0.000000 3.630950 0.000000 
#    z 0.000000 0.000000 3.656610 
# 
# 
# High freq. dielectric constant tensor:
#      x y z
#    x 1.794940 0.000000 0.000000 
#    y 0.000000 1.791920 0.000000 
#    z 0.000000 0.000000 1.775470 
# 
# From -- ./inp_files/16164.got.cif
#   From: 2010.03.12/outbox.cif.g09.slc.cpg/sg44_9_cif.got.tgz:16164.got - 2010.04.14 02:36:11.
