data_PCOD8190027
_publ_section_title
;
Structure prediction by ZEFSAII (Michael W. Deem and Ramdas Pophale) SiO2 
 PCOD8190027
Probable space group: I M M 2
;
_chemical_formula_sum "Si O2"
_cell_formula_units_Z 48
_cell_length_a 14.541377
_cell_length_b 8.647176
_cell_length_c 20.447249
_cell_angle_alpha 90.000000
_cell_angle_beta 90.000000
_cell_angle_gamma 90.000000
_cell_volume 2571.074839
_symmetry_space_group_name_H-M "I M M 2"
_symmetry_group_IT_number 44
_symmetry_cell_setting 'orthorhombic'
loop_
_space_group_symop_operation_xyz
x,y,z
-x,-y,z
-x,y,z
x,-y,z
1/2+x,1/2+y,1/2+z
1/2-x,1/2-y,1/2+z
1/2-x,1/2+y,1/2+z
1/2+x,1/2-y,1/2+z
loop_
_atom_site_type_symbol
_atom_site_label
_atom_site_fract_x
_atom_site_fract_y
_atom_site_fract_z
Si Si1 0.311052 0.682316 0.143360
Si Si2 0.809964 0.683110 0.025646
Si Si3 0.500000 0.179250 0.346112
Si Si4 0.500000 0.316534 0.937849
Si Si5 0.000000 0.183921 0.587658
Si Si6 0.821399 0.820219 0.789612
Si Si7 0.808610 0.680888 0.408809
Si Si8 0.000000 0.181325 0.987395
O O1 0.316781 0.500000 0.134562
O O2 0.233982 0.745056 0.093417
O O3 0.410356 0.752705 0.123738
O O4 0.285547 0.727579 0.217534
O O5 0.816684 0.500000 0.023112
O O6 0.747387 0.735455 0.965569
O O7 0.911106 0.751823 0.022743
O O8 0.410298 0.217964 0.304351
O O9 0.500000 0.280250 0.411206
O O10 0.500000 0.000000 0.365673
O O11 0.500000 0.500000 0.931486
O O12 0.410607 0.248356 0.902356
O O13 0.500000 0.260736 0.012774
O O14 0.000000 0.000000 0.590630
O O15 0.740248 0.783977 0.839981
O O16 0.850509 0.000000 0.791911
O O17 0.811395 0.500000 0.424293
O O18 0.000000 0.000000 0.995557
#
# Coordination Sequence:
#
# PCOD8190027 Si02
#       8
#     8   8   4   4   4   8   8   4
#     4   9  18  34  59  87 114 149 192 236 283 345
#     4  11  21  37  62  88 114 149 198 244 286 343
#     4  12  23  35  57  88 121 153 192 242 292 347
#     4  11  21  36  59  85 112 148 193 238 282 333
#     4   9  15  28  54  86 110 136 182 236 281 331
#     4  10  21  38  60  84 116 155 192 234 292 352
#     4  11  22  36  57  86 118 151 190 236 290 345
#     4  12  24  39  58  85 119 155 195 242 297 347
#
# _framework density 18.669235
#
# number of rings (size 3 to 8) (size 9 to 14) (size 15 to 20)
#    0.000    1.500    3.333    3.250    0.000    2.000 
#    0.000    2.500    0.000    5.000    0.000    0.000 
#    0.000    0.000    0.000    0.000    0.000    0.000 
#
# Total GULP energy -297657.279140 kJ/mol
# GULP energy per Si atom -12402.386631 kJ/mol
# Density = 1.862674 g / cm^3
# Si number density = 18.669235 Si / 1000 Ang^3
#
#
#
# Elastic Constant Matrix: (Units=GPa)
#
#
# Indices 1 2 3 4 5 6 
#
# 1 167.4157 48.4277 80.4142 0.0000 0.0000 0.0000
# 2 48.4277 76.7064 39.0913 0.0000 0.0000 0.0000
# 3 80.4142 39.0913 152.2067 0.0000 0.0000 0.0000
# 4 0.0000 0.0000 0.0000 22.5845 0.0000 0.0000
# 5 0.0000 0.0000 0.0000 0.0000 43.1762 0.0000
# 6 0.0000 0.0000 0.0000 0.0000 0.0000 30.9879
#
#
#
# Elastic Compliance Matrix: (Units=1/GPa)
#
#
# Indices 1 2 3 4 5 6 
#
# 1 0.008821 -0.003675 -0.003717 0.000000 0.000000 0.000000
# 2 -0.003675 0.016531 -0.002304 0.000000 0.000000 0.000000
# 3 -0.003717 -0.002304 0.009125 0.000000 0.000000 0.000000
# 4 0.000000 0.000000 0.000000 0.044278 0.000000 0.000000
# 5 0.000000 0.000000 0.000000 0.000000 0.023161 0.000000
# 6 0.000000 0.000000 0.000000 0.000000 0.000000 0.032271
#
#
# Mechanical properties :
#
#
# Convention : Reuss Voigt Hill
#
# Bulk Modulus (GPa) = 66.28571 81.35503 73.82037
# Shear Modulus (GPa) = 31.52418 34.57609 33.05014
#
# Velocity S-wave (km/s) = 4.11367 4.30820 4.21206
# Velocity P-wave (km/s) = 7.62532 8.27158 7.95501
#
# Compressibility (1/GPa) = 0.01508621
#
# Stress axis : x y z
#
# Youngs Moduli (GPa) = 113.35943 60.49161 109.58480
#
# Poissons Ratio (x) = 0.22232 0.40729
# Poissons Ratio (y) = 0.41662 0.25248
# Poissons Ratio (z) = 0.42132 0.13937
#
# Static dielectric constant tensor:
#      x y z
#    x 3.624240 0.000000 0.000000 
#    y 0.000000 3.295120 0.000000 
#    z 0.000000 0.000000 3.561970 
# 
# 
# High freq. dielectric constant tensor:
#      x y z
#    x 1.731290 0.000000 0.000000 
#    y 0.000000 1.710440 0.000000 
#    z 0.000000 0.000000 1.724880 
# 
# From -- ./inp_files/21754.got.cif
#   From: 2010.03.12/outbox.cif.g09.slc.cpg/sg44_11_cif.got.tgz:21754.got - 2010.04.14 02:36:11.
