data_PCOD8190440
_publ_section_title
;
Structure prediction by ZEFSAII (Michael W. Deem and Ramdas Pophale) SiO2 
 PCOD8190440
Probable space group: I B A 2
;
_chemical_formula_sum "Si O2"
_cell_formula_units_Z 60
_cell_length_a 24.556170
_cell_length_b 8.087222
_cell_length_c 16.734923
_cell_angle_alpha 90.000000
_cell_angle_beta 90.000000
_cell_angle_gamma 90.000000
_cell_volume 3323.408411
_symmetry_space_group_name_H-M "I B A 2"
_symmetry_group_IT_number 45
_symmetry_cell_setting 'orthorhombic'
loop_
_space_group_symop_operation_xyz
x,y,z
-x,-y,z
-x,y,1/2+z
x,-y,1/2+z
1/2+x,1/2+y,1/2+z
1/2-x,1/2-y,1/2+z
1/2-x,1/2+y,z
1/2+x,1/2-y,z
loop_
_atom_site_type_symbol
_atom_site_label
_atom_site_fract_x
_atom_site_fract_y
_atom_site_fract_z
Si Si1 0.500000 0.500000 0.195890
Si Si2 0.180944 0.205651 0.877014
Si Si3 0.405844 0.535826 0.311309
Si Si4 0.677918 0.288328 0.210640
Si Si5 0.875357 0.178170 0.540353
Si Si6 0.445936 0.395599 0.979863
Si Si7 0.768277 0.498822 0.291167
Si Si8 0.487889 0.185810 0.581655
O O1 0.449133 0.459951 0.251291
O O2 0.509948 0.331083 0.147537
O O3 0.189701 0.384063 0.838401
O O4 0.129519 0.121335 0.835672
O O5 0.235935 0.100921 0.859761
O O6 0.167141 0.226103 0.970475
O O7 0.372409 0.678349 0.268493
O O8 0.432258 0.626768 0.387314
O O9 0.660371 0.313543 0.119794
O O10 0.727495 0.407996 0.231500
O O11 0.696030 0.103394 0.229394
O O12 0.927108 0.303971 0.542809
O O13 0.897106 0.989718 0.526824
O O14 0.500000 0.500000 0.991616
O O15 0.462393 0.219185 0.018665
O O16 0.500000 0.000000 0.614975
#
# Coordination Sequence:
#
# PCOD8190440 Si02
#       8
#     4   8   8   8   8   8   8   8
#     4  12  20  38  58  82 124 150 190 240 282 348
#     4   9  20  36  58  81 110 149 189 233 294 347
#     4  10  19  33  60  82 108 156 185 223 294 339
#     4  10  19  35  55  79 107 142 185 235 287 330
#     4  10  19  35  57  79 110 149 187 235 288 345
#     4   9  17  35  55  77 111 151 187 224 276 341
#     4   9  20  37  54  78 111 142 187 242 283 342
#     4  11  22  36  55  82 118 154 192 237 285 335
#
# _framework density 18.053754000000001
#
# number of rings (size 3 to 8) (size 9 to 14) (size 15 to 20)
#    0.000    2.133    4.000    0.000    0.000    3.200 
#    0.000    2.000    0.000    0.000    0.000    0.000 
#    0.000    0.000    0.000    0.000    0.000    0.000 
#
# Total GULP energy -371810.150673 kJ/mol
# GULP energy per Si atom -12393.671689 kJ/mol
# Density = 1.801266 g / cm^3
# Si number density = 18.053754 Si / 1000 Ang^3
#
#
#
# Elastic Constant Matrix: (Units=GPa)
#
#
# Indices 1 2 3 4 5 6 
#
# 1 73.5246 37.7648 58.6430 0.0000 0.0000 0.0000
# 2 37.7648 97.9677 55.5233 0.0000 0.0000 0.0000
# 3 58.6430 55.5233 148.9225 0.0000 0.0000 0.0000
# 4 0.0000 0.0000 0.0000 2.2926 0.0000 0.0000
# 5 0.0000 0.0000 0.0000 0.0000 45.4126 0.0000
# 6 0.0000 0.0000 0.0000 0.0000 0.0000 15.4034
#
#
#
# Elastic Compliance Matrix: (Units=1/GPa)
#
#
# Indices 1 2 3 4 5 6 
#
# 1 0.021204 -0.004364 -0.006723 0.000000 0.000000 0.000000
# 2 -0.004364 0.013840 -0.003442 0.000000 0.000000 0.000000
# 3 -0.006723 -0.003442 0.010646 0.000000 0.000000 0.000000
# 4 0.000000 0.000000 0.000000 0.436177 0.000000 0.000000
# 5 0.000000 0.000000 0.000000 0.000000 0.022020 0.000000
# 6 0.000000 0.000000 0.000000 0.000000 0.000000 0.064921
#
#
# Mechanical properties :
#
#
# Convention : Reuss Voigt Hill
#
# Bulk Modulus (GPa) = 60.12042 69.36411 64.74227
# Shear Modulus (GPa) = 8.28625 23.85398 16.07011
#
# Velocity S-wave (km/s) = 2.14470 3.63888 2.98673
# Velocity P-wave (km/s) = 6.28538 7.49397 6.91613
#
# Compressibility (1/GPa) = 0.01663328
#
# Stress axis : x y z
#
# Youngs Moduli (GPa) = 47.15988 72.25343 93.93635
#
# Poissons Ratio (x) = 0.31529 0.63154
# Poissons Ratio (y) = 0.20579 0.32331
# Poissons Ratio (z) = 0.31706 0.24868
#
# Static dielectric constant tensor:
#      x y z
#    x 3.503680 0.000000 0.000000 
#    y 0.000000 3.293220 0.000000 
#    z 0.000000 0.000000 3.681580 
# 
# 
# High freq. dielectric constant tensor:
#      x y z
#    x 1.707300 0.000000 0.000000 
#    y 0.000000 1.679960 0.000000 
#    z 0.000000 0.000000 1.701810 
# 
# From -- ./inp_files/7134.got.cif
#   From: 2010.03.12/outbox.cif.g09.slc.cpg/sg45_4_cif.got.tgz:7134.got - 2010.04.14 02:50:11.
