data_PCOD8190674
_publ_section_title
;
Structure prediction by ZEFSAII (Michael W. Deem and Ramdas Pophale) SiO2 
 PCOD8190674
Probable space group: I B A 2
;
_chemical_formula_sum "Si O2"
_cell_formula_units_Z 40
_cell_length_a 9.956089
_cell_length_b 11.312438
_cell_length_c 15.032149
_cell_angle_alpha 90.000000
_cell_angle_beta 90.000000
_cell_angle_gamma 90.000000
_cell_volume 1693.035459
_symmetry_space_group_name_H-M "I B A 2"
_symmetry_group_IT_number 45
_symmetry_cell_setting 'orthorhombic'
loop_
_space_group_symop_operation_xyz
x,y,z
-x,-y,z
-x,y,1/2+z
x,-y,1/2+z
1/2+x,1/2+y,1/2+z
1/2-x,1/2-y,1/2+z
1/2-x,1/2+y,z
1/2+x,1/2-y,z
loop_
_atom_site_type_symbol
_atom_site_label
_atom_site_fract_x
_atom_site_fract_y
_atom_site_fract_z
Si Si1 0.228816 0.178532 0.321950
Si Si2 0.232005 0.862273 0.016827
Si Si3 0.865299 0.054316 0.654809
Si Si4 0.507257 0.864168 0.777621
Si Si5 0.494592 0.216533 0.584138
O O1 0.187722 0.115186 0.414802
O O2 0.221871 0.082611 0.242077
O O3 0.386926 0.211864 0.322880
O O4 0.145234 0.298468 0.304935
O O5 0.394340 0.848014 0.014986
O O6 0.143089 0.747833 0.047642
O O7 0.206390 0.969188 0.084329
O O8 0.905123 0.169360 0.601805
O O9 0.000000 0.000000 0.695498
O O10 0.488367 0.862650 0.671400
O O11 0.500000 0.000000 0.811040
#
# Coordination Sequence:
#
# PCOD8190674 Si02
#       5
#     8   8   8   8   8
#     4  11  24  42  67 100 135 173 229 282 333 410
#     4  11  22  40  65  94 129 169 217 277 334 394
#     4   9  21  39  61  90 127 173 216 268 335 394
#     4  11  24  44  69  98 138 182 223 279 342 400
#     4  10  21  39  61  90 129 169 217 268 325 400
#
# _framework density 23.626203
#
# number of rings (size 3 to 8) (size 9 to 14) (size 15 to 20)
#    0.000    1.600    0.000    4.800    0.000    7.200 
#    0.000    4.000    0.000    0.000    0.000    0.000 
#    0.000    0.000    0.000    0.000    0.000    0.000 
#
# Total GULP energy -247816.305960 kJ/mol
# GULP energy per Si atom -12390.815298 kJ/mol
# Density = 2.357243 g / cm^3
# Si number density = 23.626203 Si / 1000 Ang^3
#
#
#
# Elastic Constant Matrix: (Units=GPa)
#
#
# Indices 1 2 3 4 5 6 
#
# 1 137.7776 40.4822 25.9052 0.0000 0.0000 0.0000
# 2 40.4822 103.8603 41.1744 0.0000 0.0000 0.0000
# 3 25.9052 41.1744 142.9525 0.0000 0.0000 0.0000
# 4 0.0000 0.0000 0.0000 25.8837 0.0000 0.0000
# 5 0.0000 0.0000 0.0000 0.0000 35.3235 0.0000
# 6 0.0000 0.0000 0.0000 0.0000 0.0000 24.4346
#
#
#
# Elastic Compliance Matrix: (Units=1/GPa)
#
#
# Indices 1 2 3 4 5 6 
#
# 1 0.008249 -0.002961 -0.000642 0.000000 0.000000 0.000000
# 2 -0.002961 0.011932 -0.002900 0.000000 0.000000 0.000000
# 3 -0.000642 -0.002900 0.007947 0.000000 0.000000 0.000000
# 4 0.000000 0.000000 0.000000 0.038634 0.000000 0.000000
# 5 0.000000 0.000000 0.000000 0.000000 0.028310 0.000000
# 6 0.000000 0.000000 0.000000 0.000000 0.000000 0.040926
#
#
# Mechanical properties :
#
#
# Convention : Reuss Voigt Hill
#
# Bulk Modulus (GPa) = 66.12903 66.63489 66.38196
# Shear Modulus (GPa) = 32.45825 35.59693 34.02759
#
# Velocity S-wave (km/s) = 3.71053 3.88580 3.79918
# Velocity P-wave (km/s) = 6.81233 6.95684 6.88497
#
# Compressibility (1/GPa) = 0.01512195
#
# Stress axis : x y z
#
# Youngs Moduli (GPa) = 121.23150 83.80780 125.83306
#
# Poissons Ratio (x) = 0.24812 0.08079
# Poissons Ratio (y) = 0.35892 0.36495
# Poissons Ratio (z) = 0.07784 0.24307
#
# Static dielectric constant tensor:
#      x y z
#    x 4.505110 0.000000 0.000000 
#    y 0.000000 0.364250 0.000000 
#    z 0.000000 0.000000 4.191010 
# 
# 
# High freq. dielectric constant tensor:
#      x y z
#    x 1.956300 0.000000 0.000000 
#    y 0.000000 1.913900 0.000000 
#    z 0.000000 0.000000 1.931010 
# 
# From -- ./inp_files/7432.got.cif
#   From: 2010.03.12/outbox.cif.g09.slc.cpg/sg45_4_cif.got.tgz:7432.got - 2010.04.14 02:50:11.
