data_PCOD8190114
_publ_section_title
;
Structure prediction by ZEFSAII (Michael W. Deem and Ramdas Pophale) SiO2 
 PCOD8190114
Probable space group: I M M 2
;
_chemical_formula_sum "Si O2"
_cell_formula_units_Z 40
_cell_length_a 13.533682
_cell_length_b 17.110683
_cell_length_c 7.849998
_cell_angle_alpha 90.000000
_cell_angle_beta 90.000000
_cell_angle_gamma 90.000000
_cell_volume 1817.828296
_symmetry_space_group_name_H-M "I M M 2"
_symmetry_group_IT_number 44
_symmetry_cell_setting 'orthorhombic'
loop_
_space_group_symop_operation_xyz
x,y,z
-x,-y,z
-x,y,z
x,-y,z
1/2+x,1/2+y,1/2+z
1/2-x,1/2-y,1/2+z
1/2-x,1/2+y,1/2+z
1/2+x,1/2-y,1/2+z
loop_
_atom_site_type_symbol
_atom_site_label
_atom_site_fract_x
_atom_site_fract_y
_atom_site_fract_z
Si Si1 0.111534 0.409047 0.125000
Si Si2 0.218409 0.090603 0.158054
Si Si3 0.386531 0.161636 0.993331
Si Si4 0.114008 0.088305 0.817671
Si Si5 0.300325 0.330190 0.995373
O O1 0.140402 0.500000 0.096898
O O2 0.120574 0.390175 0.324135
O O3 0.184976 0.352221 0.022017
O O4 0.000000 0.392777 0.061443
O O5 0.165529 0.131894 0.317396
O O6 0.200735 0.000000 0.184518
O O7 0.335557 0.111403 0.144914
O O8 0.169846 0.121727 0.982849
O O9 0.500000 0.180939 0.040547
O O10 0.319901 0.238895 0.975051
O O11 0.135530 0.139231 0.652182
O O12 0.000000 0.092019 0.862245
O O13 0.149221 0.000000 0.779370
#
# Coordination Sequence:
#
# PCOD8190114 Si02
#       5
#     8   8   8   8   8
#     4  10  21  41  70  98 130 175 222 270 326 389
#     4  11  24  41  67  98 131 173 221 272 325 390
#     4  11  24  42  65  97 136 176 216 267 331 394
#     4  10  22  41  65  93 129 174 220 268 325 390
#     4  12  23  42  66  98 132 170 217 271 332 387
#
# _framework density 22.004277999999999
#
# number of rings (size 3 to 8) (size 9 to 14) (size 15 to 20)
#    0.000    1.200    2.000    4.200    0.000    3.600 
#    0.000    3.000    0.000    0.000    0.000    0.000 
#    0.000    0.000    0.000    0.000    0.000    0.000 
#
# Total GULP energy -248007.046629 kJ/mol
# GULP energy per Si atom -12400.352331 kJ/mol
# Density = 2.195419 g / cm^3
# Si number density = 22.004278 Si / 1000 Ang^3
#
#
#
# Elastic Constant Matrix: (Units=GPa)
#
#
# Indices 1 2 3 4 5 6 
#
# 1 102.7334 19.5280 18.3835 0.0000 0.0000 0.0000
# 2 19.5280 52.1319 10.0433 0.0000 0.0000 0.0000
# 3 18.3835 10.0433 105.7042 0.0000 0.0000 0.0000
# 4 0.0000 0.0000 0.0000 20.0171 0.0000 0.0000
# 5 0.0000 0.0000 0.0000 0.0000 22.4447 0.0000
# 6 0.0000 0.0000 0.0000 0.0000 0.0000 34.5109
#
#
#
# Elastic Compliance Matrix: (Units=1/GPa)
#
#
# Indices 1 2 3 4 5 6 
#
# 1 0.010711 -0.003722 -0.001509 0.000000 0.000000 0.000000
# 2 -0.003722 0.020833 -0.001332 0.000000 0.000000 0.000000
# 3 -0.001509 -0.001332 0.009849 0.000000 0.000000 0.000000
# 4 0.000000 0.000000 0.000000 0.049957 0.000000 0.000000
# 5 0.000000 0.000000 0.000000 0.000000 0.044554 0.000000
# 6 0.000000 0.000000 0.000000 0.000000 0.000000 0.028976
#
#
# Mechanical properties :
#
#
# Convention : Reuss Voigt Hill
#
# Bulk Modulus (GPa) = 35.37620 39.60880 37.49250
# Shear Modulus (GPa) = 26.67663 29.56885 28.12274
#
# Velocity S-wave (km/s) = 3.48564 3.66973 3.57887
# Velocity P-wave (km/s) = 5.68432 5.99963 5.84410
#
# Compressibility (1/GPa) = 0.02826760
#
# Stress axis : x y z
#
# Youngs Moduli (GPa) = 93.35821 48.00113 101.52888
#
# Poissons Ratio (x) = 0.17864 0.15323
# Poissons Ratio (y) = 0.34744 0.13525
# Poissons Ratio (z) = 0.14090 0.06394
#
# Static dielectric constant tensor:
#      x y z
#    x 4.189440 0.000000 0.000000 
#    y 0.000000 3.946310 0.000000 
#    z 0.000000 0.000000 3.981760 
# 
# 
# High freq. dielectric constant tensor:
#      x y z
#    x 1.869850 0.000000 0.000000 
#    y 0.000000 1.866660 0.000000 
#    z 0.000000 0.000000 1.866800 
# 
# From -- ./inp_files/6963.got.cif
#   From: 2010.03.12/outbox.cif.g09.slc.cpg/sg44_4_cif.got.tgz:6963.got - 2010.04.14 02:36:11.
