data_PCOD8190813
_publ_section_title
;
Structure prediction by ZEFSAII (Michael W. Deem and Ramdas Pophale) SiO2 
 PCOD8190813
Probable space group: I B A 2
;
_chemical_formula_sum "Si O2"
_cell_formula_units_Z 56
_cell_length_a 14.633769
_cell_length_b 8.441092
_cell_length_c 19.265733
_cell_angle_alpha 90.000000
_cell_angle_beta 90.000000
_cell_angle_gamma 90.000000
_cell_volume 2379.799485
_symmetry_space_group_name_H-M "I B A 2"
_symmetry_group_IT_number 45
_symmetry_cell_setting 'orthorhombic'
loop_
_space_group_symop_operation_xyz
x,y,z
-x,-y,z
-x,y,1/2+z
x,-y,1/2+z
1/2+x,1/2+y,1/2+z
1/2-x,1/2-y,1/2+z
1/2-x,1/2+y,z
1/2+x,1/2-y,z
loop_
_atom_site_type_symbol
_atom_site_label
_atom_site_fract_x
_atom_site_fract_y
_atom_site_fract_z
Si Si1 0.958203 0.324427 0.767810
Si Si2 0.257456 0.057680 0.980723
Si Si3 0.507483 0.684194 0.900195
Si Si4 0.813168 0.696406 0.884271
Si Si5 0.784756 0.158241 0.740909
Si Si6 0.118885 0.180286 0.534902
Si Si7 0.380031 0.663659 0.690803
O O1 0.924411 0.267221 0.845327
O O2 0.859597 0.301189 0.730712
O O3 0.000000 0.500000 0.761825
O O4 0.032481 0.201845 0.737506
O O5 0.231337 0.141050 0.908985
O O6 0.317125 0.913134 0.952861
O O7 0.311617 0.171162 0.033281
O O8 0.166747 0.986919 0.016723
O O9 0.500000 0.500000 0.886005
O O10 0.418634 0.773647 0.870404
O O11 0.537477 0.715350 0.979711
O O12 0.757879 0.632863 0.818046
O O13 0.698428 0.201640 0.692794
O O14 0.833818 0.997520 0.717307
O O15 0.080984 0.158886 0.612211
#
# Coordination Sequence:
#
# PCOD8190813 Si02
#       7
#     8   8   8   8   8   8   8
#     4  12  28  47  72 111 146 191 253 313 380 455
#     4  10  22  42  66 104 140 191 243 305 371 446
#     4  12  25  45  70 106 148 189 248 314 374 449
#     4  11  23  41  74 105 141 189 249 309 373 436
#     4  12  25  45  77 105 148 198 249 316 377 454
#     4  11  25  45  70 104 149 194 248 302 380 453
#     4  12  26  49  73 107 149 203 249 306 383 462
#
# _framework density 23.531395
#
# number of rings (size 3 to 8) (size 9 to 14) (size 15 to 20)
#    0.000    0.571    2.857    5.571    4.000    1.143 
#    7.714    0.000    0.000    0.000    0.000    0.000 
#    0.000    0.000    0.000    0.000    0.000    0.000 
#
# Total GULP energy -346920.076770 kJ/mol
# GULP energy per Si atom -12390.002742 kJ/mol
# Density = 2.347784 g / cm^3
# Si number density = 23.531395 Si / 1000 Ang^3
#
#
#
# Elastic Constant Matrix: (Units=GPa)
#
#
# Indices 1 2 3 4 5 6 
#
# 1 103.7166 16.5487 35.8478 0.0000 0.0000 0.0000
# 2 16.5487 78.1043 31.3095 0.0000 0.0000 0.0000
# 3 35.8478 31.3095 149.6579 0.0000 0.0000 0.0000
# 4 0.0000 0.0000 0.0000 36.3278 0.0000 0.0000
# 5 0.0000 0.0000 0.0000 0.0000 41.6435 0.0000
# 6 0.0000 0.0000 0.0000 0.0000 0.0000 15.8113
#
#
#
# Elastic Compliance Matrix: (Units=1/GPa)
#
#
# Indices 1 2 3 4 5 6 
#
# 1 0.010640 -0.001346 -0.002267 0.000000 0.000000 0.000000
# 2 -0.001346 0.014146 -0.002637 0.000000 0.000000 0.000000
# 3 -0.002267 -0.002637 0.007777 0.000000 0.000000 0.000000
# 4 0.000000 0.000000 0.000000 0.027527 0.000000 0.000000
# 5 0.000000 0.000000 0.000000 0.000000 0.024013 0.000000
# 6 0.000000 0.000000 0.000000 0.000000 0.000000 0.063246
#
#
# Mechanical properties :
#
#
# Convention : Reuss Voigt Hill
#
# Bulk Modulus (GPa) = 49.84369 55.43231 52.63800
# Shear Modulus (GPa) = 30.02363 35.27472 32.64917
#
# Velocity S-wave (km/s) = 3.57584 3.87596 3.72892
# Velocity P-wave (km/s) = 6.18681 6.60595 6.39981
#
# Compressibility (1/GPa) = 0.02006272
#
# Stress axis : x y z
#
# Youngs Moduli (GPa) = 93.98558 70.69338 128.59036
#
# Poissons Ratio (x) = 0.09512 0.29153
# Poissons Ratio (y) = 0.12647 0.33910
# Poissons Ratio (z) = 0.21307 0.18642
#
# Static dielectric constant tensor:
#      x y z
#    x 4.276040 0.000000 0.000000 
#    y 0.000000 4.245770 0.000000 
#    z 0.000000 0.000000 4.111780 
# 
# 
# High freq. dielectric constant tensor:
#      x y z
#    x 1.937330 0.000000 0.000000 
#    y 0.000000 1.939680 0.000000 
#    z 0.000000 0.000000 1.922250 
# 
# From -- ./inp_files/9172.got.cif
#   From: 2010.03.12/outbox.cif.g09.slc.cpg/sg45_5_cif.got.tgz:9172.got - 2010.04.14 02:50:11.
