data_PCOD8190498
_publ_section_title
;
Structure prediction by ZEFSAII (Michael W. Deem and Ramdas Pophale) SiO2 
 PCOD8190498
Probable space group: I B A 2
;
_chemical_formula_sum "Si O2"
_cell_formula_units_Z 60
_cell_length_a 22.779071
_cell_length_b 14.832420
_cell_length_c 8.834073
_cell_angle_alpha 90.000000
_cell_angle_beta 90.000000
_cell_angle_gamma 90.000000
_cell_volume 2984.757187
_symmetry_space_group_name_H-M "I B A 2"
_symmetry_group_IT_number 45
_symmetry_cell_setting 'orthorhombic'
loop_
_space_group_symop_operation_xyz
x,y,z
-x,-y,z
-x,y,1/2+z
x,-y,1/2+z
1/2+x,1/2+y,1/2+z
1/2-x,1/2-y,1/2+z
1/2-x,1/2+y,z
1/2+x,1/2-y,z
loop_
_atom_site_type_symbol
_atom_site_label
_atom_site_fract_x
_atom_site_fract_y
_atom_site_fract_z
Si Si1 0.215595 0.105291 0.537760
Si Si2 0.976700 0.872400 0.407002
Si Si3 0.791341 0.923577 0.889973
Si Si4 0.500000 0.500000 0.151300
Si Si5 0.102171 0.209957 0.875631
Si Si6 0.668382 0.076885 0.557124
Si Si7 0.884495 0.241330 0.031295
Si Si8 0.839904 0.393670 0.411561
O O1 0.222525 0.076082 0.712122
O O2 0.177053 0.192576 0.509115
O O3 0.278315 0.137838 0.479081
O O4 0.187837 0.023020 0.441096
O O5 0.042690 0.835807 0.437247
O O6 0.932086 0.789328 0.407186
O O7 0.965214 0.928800 0.254810
O O8 0.957949 0.940753 0.543036
O O9 0.842570 0.851571 0.924241
O O10 0.732493 0.904167 0.986464
O O11 0.092051 0.216919 0.696999
O O12 0.113626 0.312114 0.935687
O O13 0.623816 0.153424 0.501134
O O14 0.671434 0.080336 0.737833
O O15 0.639822 0.982773 0.502372
#
# Coordination Sequence:
#
# PCOD8190498 Si02
#       8
#     8   8   8   4   8   8   8   8
#     4  10  20  34  55  84 115 148 184 226 280 337
#     4  11  22  42  57  88 114 150 187 224 281 326
#     4  10  20  34  55  84 115 148 184 226 280 337
#     4  10  24  38  64  78 122 150 184 226 272 336
#     4  10  22  38  58  82 115 149 189 233 278 332
#     4  10  20  39  58  81 112 148 187 236 283 329
#     4  10  22  38  58  82 115 149 189 233 278 332
#     4  10  20  39  58  81 112 148 187 236 283 329
#
# _framework density 20.102136999999999
#
# number of rings (size 3 to 8) (size 9 to 14) (size 15 to 20)
#    0.000    1.867    1.333    4.000    3.733    0.000 
#    7.200    0.667    0.000    3.200    0.000    0.000 
#    0.000    0.000    0.000    0.000    0.000    0.000 
#
# Total GULP energy -371825.482405 kJ/mol
# GULP energy per Si atom -12394.182747 kJ/mol
# Density = 2.005638 g / cm^3
# Si number density = 20.102137 Si / 1000 Ang^3
#
#
#
# Elastic Constant Matrix: (Units=GPa)
#
#
# Indices 1 2 3 4 5 6 
#
# 1 61.5170 43.9670 26.8346 0.0000 0.0000 0.0000
# 2 43.9670 114.0373 34.5818 0.0000 0.0000 0.0000
# 3 26.8346 34.5818 91.7142 0.0000 0.0000 0.0000
# 4 0.0000 0.0000 0.0000 24.9382 0.0000 0.0000
# 5 0.0000 0.0000 0.0000 0.0000 20.6573 0.0000
# 6 0.0000 0.0000 0.0000 0.0000 0.0000 12.8142
#
#
#
# Elastic Compliance Matrix: (Units=1/GPa)
#
#
# Indices 1 2 3 4 5 6 
#
# 1 0.023629 -0.007919 -0.003928 0.000000 0.000000 0.000000
# 2 -0.007919 0.012555 -0.002417 0.000000 0.000000 0.000000
# 3 -0.003928 -0.002417 0.012964 0.000000 0.000000 0.000000
# 4 0.000000 0.000000 0.000000 0.040099 0.000000 0.000000
# 5 0.000000 0.000000 0.000000 0.000000 0.048409 0.000000
# 6 0.000000 0.000000 0.000000 0.000000 0.000000 0.078039
#
#
# Mechanical properties :
#
#
# Convention : Reuss Voigt Hill
#
# Bulk Modulus (GPa) = 48.49508 53.11505 50.80507
# Shear Modulus (GPa) = 19.91274 22.47427 21.19351
#
# Velocity S-wave (km/s) = 3.15076 3.34728 3.25051
# Velocity P-wave (km/s) = 6.11662 6.43576 6.27822
#
# Compressibility (1/GPa) = 0.02062065
#
# Stress axis : x y z
#
# Youngs Moduli (GPa) = 42.32134 79.64824 77.13684
#
# Poissons Ratio (x) = 0.63074 0.30296
# Poissons Ratio (y) = 0.33514 0.18644
# Poissons Ratio (z) = 0.16622 0.19251
#
# Static dielectric constant tensor:
#      x y z
#    x 3.320210 0.000000 0.000000 
#    y 0.000000 3.907510 0.000000 
#    z 0.000000 0.000000 3.743970 
# 
# 
# High freq. dielectric constant tensor:
#      x y z
#    x 1.755450 0.000000 0.000000 
#    y 0.000000 1.798160 0.000000 
#    z 0.000000 0.000000 1.789900 
# 
# From -- ./inp_files/2532.got.cif
#   From: 2010.03.12/outbox.cif.g09.slc.cpg/sg45_2_cif.got.tgz:2532.got - 2010.04.14 02:50:11.
