data_PCOD8190179
_publ_section_title
;
Structure prediction by ZEFSAII (Michael W. Deem and Ramdas Pophale) SiO2 
 PCOD8190179
Probable space group: I M M 2
;
_chemical_formula_sum "Si O2"
_cell_formula_units_Z 48
_cell_length_a 28.845477
_cell_length_b 7.885135
_cell_length_c 9.562763
_cell_angle_alpha 90.000000
_cell_angle_beta 90.000000
_cell_angle_gamma 90.000000
_cell_volume 2175.055037
_symmetry_space_group_name_H-M "I M M 2"
_symmetry_group_IT_number 44
_symmetry_cell_setting 'orthorhombic'
loop_
_space_group_symop_operation_xyz
x,y,z
-x,-y,z
-x,y,z
x,-y,z
1/2+x,1/2+y,1/2+z
1/2-x,1/2-y,1/2+z
1/2-x,1/2+y,1/2+z
1/2+x,1/2-y,1/2+z
loop_
_atom_site_type_symbol
_atom_site_label
_atom_site_fract_x
_atom_site_fract_y
_atom_site_fract_z
Si Si1 0.298014 0.195761 0.343620
Si Si2 0.619307 0.197773 0.157492
Si Si3 0.054455 0.000000 0.017014
Si Si4 0.052601 0.690573 0.201535
Si Si5 0.783588 0.190969 0.156641
Si Si6 0.142223 0.311452 0.354661
Si Si7 0.055139 0.000000 0.703186
O O1 0.348443 0.256033 0.288087
O O2 0.257101 0.280628 0.249195
O O3 0.292319 0.219318 0.508845
O O4 0.293749 0.000000 0.309955
O O5 0.575806 0.325141 0.140939
O O6 0.602594 0.000000 0.170243
O O7 0.650975 0.221762 0.018468
O O8 0.072711 0.000000 0.861551
O O9 0.071354 0.826209 0.089222
O O10 0.000000 0.000000 0.017069
O O11 0.055371 0.500000 0.136502
O O12 0.086605 0.707939 0.333529
O O13 0.000000 0.730945 0.250703
O O14 0.829476 0.187893 0.253505
O O15 0.771071 0.000000 0.116700
O O16 0.158382 0.500000 0.312671
O O17 0.000000 0.000000 0.680922
#
# Coordination Sequence:
#
# PCOD8190179 Si02
#       7
#     8   8   4   8   8   8   4
#     4  10  23  43  62  92 131 171 218 264 330 398
#     4  10  24  44  66  92 132 177 218 274 329 395
#     4   9  20  37  57  85 125 161 201 265 323 380
#     4   9  19  35  58  87 120 162 211 262 319 386
#     4  11  24  39  66  98 128 170 217 271 328 394
#     4  10  22  40  61  91 128 166 211 266 329 386
#     4  11  26  43  65  99 131 173 227 277 336 398
#
# _framework density 22.068406
#
# number of rings (size 3 to 8) (size 9 to 14) (size 15 to 20)
#    0.000    2.000    0.000    1.500    5.833    4.333 
#    0.000    4.167    0.000    0.000    0.000    0.000 
#    0.000    0.000    0.000    0.000    0.000    0.000 
#
# Total GULP energy -297421.002189 kJ/mol
# GULP energy per Si atom -12392.541758 kJ/mol
# Density = 2.201818 g / cm^3
# Si number density = 22.068406 Si / 1000 Ang^3
#
#
#
# Elastic Constant Matrix: (Units=GPa)
#
#
# Indices 1 2 3 4 5 6 
#
# 1 112.3746 37.6567 39.4162 0.0000 0.0000 0.0000
# 2 37.6567 92.8972 25.3741 0.0000 0.0000 0.0000
# 3 39.4162 25.3741 116.8320 0.0000 0.0000 0.0000
# 4 0.0000 0.0000 0.0000 29.1388 0.0000 0.0000
# 5 0.0000 0.0000 0.0000 0.0000 32.4358 0.0000
# 6 0.0000 0.0000 0.0000 0.0000 0.0000 26.5102
#
#
#
# Elastic Compliance Matrix: (Units=1/GPa)
#
#
# Indices 1 2 3 4 5 6 
#
# 1 0.011187 -0.003725 -0.002965 0.000000 0.000000 0.000000
# 2 -0.003725 0.012684 -0.001498 0.000000 0.000000 0.000000
# 3 -0.002965 -0.001498 0.009885 0.000000 0.000000 0.000000
# 4 0.000000 0.000000 0.000000 0.034318 0.000000 0.000000
# 5 0.000000 0.000000 0.000000 0.000000 0.030830 0.000000
# 6 0.000000 0.000000 0.000000 0.000000 0.000000 0.037721
#
#
# Mechanical properties :
#
#
# Convention : Reuss Voigt Hill
#
# Bulk Modulus (GPa) = 57.53896 58.55531 58.04714
# Shear Modulus (GPa) = 31.48709 32.26075 31.87392
#
# Velocity S-wave (km/s) = 3.78139 3.82757 3.80455
# Velocity P-wave (km/s) = 6.72271 6.79153 6.75721
#
# Compressibility (1/GPa) = 0.01737953
#
# Stress axis : x y z
#
# Youngs Moduli (GPa) = 89.38867 78.84163 101.16280
#
# Poissons Ratio (x) = 0.29367 0.29998
# Poissons Ratio (y) = 0.33296 0.15154
# Poissons Ratio (z) = 0.26506 0.11811
#
# Static dielectric constant tensor:
#      x y z
#    x 3.942320 0.000000 0.000000 
#    y 0.000000 4.281530 0.000000 
#    z 0.000000 0.000000 3.928830 
# 
# 
# High freq. dielectric constant tensor:
#      x y z
#    x 1.865080 0.000000 0.000000 
#    y 0.000000 1.865900 0.000000 
#    z 0.000000 0.000000 1.864320 
# 
# From -- ./inp_files/9985.got.cif
#   From: 2010.03.12/outbox.cif.g09.slc.cpg/sg44_5_cif.got.tgz:9985.got - 2010.04.14 02:36:11.
