data_PCOD8190740
_publ_section_title
;
Structure prediction by ZEFSAII (Michael W. Deem and Ramdas Pophale) SiO2 
 PCOD8190740
Probable space group: I B A 2
;
_chemical_formula_sum "Si O2"
_cell_formula_units_Z 56
_cell_length_a 13.652348
_cell_length_b 8.361731
_cell_length_c 19.452460
_cell_angle_alpha 90.000000
_cell_angle_beta 90.000000
_cell_angle_gamma 90.000000
_cell_volume 2220.639563
_symmetry_space_group_name_H-M "I B A 2"
_symmetry_group_IT_number 45
_symmetry_cell_setting 'orthorhombic'
loop_
_space_group_symop_operation_xyz
x,y,z
-x,-y,z
-x,y,1/2+z
x,-y,1/2+z
1/2+x,1/2+y,1/2+z
1/2-x,1/2-y,1/2+z
1/2-x,1/2+y,z
1/2+x,1/2-y,z
loop_
_atom_site_type_symbol
_atom_site_label
_atom_site_fract_x
_atom_site_fract_y
_atom_site_fract_z
Si Si1 0.395075 0.544394 0.804480
Si Si2 0.290574 0.162261 0.545380
Si Si3 0.651979 0.070880 0.189923
Si Si4 0.981536 0.829364 0.029859
Si Si5 0.717270 0.783365 0.825495
Si Si6 0.450919 0.255600 0.176941
Si Si7 0.364196 0.855341 0.468906
O O1 0.500000 0.500000 0.840901
O O2 0.321270 0.392553 0.808056
O O3 0.335523 0.693202 0.841149
O O4 0.423121 0.598624 0.727143
O O5 0.277831 0.118227 0.625706
O O6 0.366008 0.310307 0.541256
O O7 0.191773 0.209938 0.507466
O O8 0.339949 0.019886 0.504105
O O9 0.709545 0.099302 0.259972
O O10 0.555037 0.177857 0.195645
O O11 0.630568 0.883097 0.181611
O O12 0.043574 0.824065 0.100555
O O13 0.021660 0.688463 0.979916
O O14 0.000000 0.000000 0.994532
O O15 0.657911 0.859396 0.888393
#
# Coordination Sequence:
#
# PCOD8190740 Si02
#       7
#     8   8   8   8   8   8   8
#     4  12  26  49  73 111 155 202 252 330 388 468
#     4  11  25  46  72 102 148 198 252 313 383 455
#     4  10  22  45  73 109 141 195 258 323 380 463
#     4  11  24  45  74 104 144 194 250 315 380 460
#     4  12  28  46  75 113 152 201 265 314 406 478
#     4  10  21  44  75 106 144 191 259 319 389 457
#     4  12  26  48  70 109 150 197 252 314 385 474
#
# _framework density 25.217959
#
# number of rings (size 3 to 8) (size 9 to 14) (size 15 to 20)
#    0.000    0.857    2.857    3.429    4.000    2.857 
#    5.143    0.000    0.000    0.000    0.000    0.000 
#    0.000    0.000    0.000    0.000    0.000    0.000 
#
# Total GULP energy -347108.363717 kJ/mol
# GULP energy per Si atom -12396.727276 kJ/mol
# Density = 2.516056 g / cm^3
# Si number density = 25.217959 Si / 1000 Ang^3
#
#
#
# Elastic Constant Matrix: (Units=GPa)
#
#
# Indices 1 2 3 4 5 6 
#
# 1 81.2672 18.6455 0.9996 0.0000 0.0000 0.0000
# 2 18.6455 91.0512 8.1113 0.0000 0.0000 0.0000
# 3 0.9996 8.1113 125.8150 0.0000 0.0000 0.0000
# 4 0.0000 0.0000 0.0000 11.9133 0.0000 0.0000
# 5 0.0000 0.0000 0.0000 0.0000 22.2485 0.0000
# 6 0.0000 0.0000 0.0000 0.0000 0.0000 50.8813
#
#
#
# Elastic Compliance Matrix: (Units=1/GPa)
#
#
# Indices 1 2 3 4 5 6 
#
# 1 0.012912 -0.002650 0.000068 0.000000 0.000000 0.000000
# 2 -0.002650 0.011590 -0.000726 0.000000 0.000000 0.000000
# 3 0.000068 -0.000726 0.007994 0.000000 0.000000 0.000000
# 4 0.000000 0.000000 0.000000 0.083939 0.000000 0.000000
# 5 0.000000 0.000000 0.000000 0.000000 0.044947 0.000000
# 6 0.000000 0.000000 0.000000 0.000000 0.000000 0.019654
#
#
# Mechanical properties :
#
#
# Convention : Reuss Voigt Hill
#
# Bulk Modulus (GPa) = 38.63886 39.29403 38.96644
# Shear Modulus (GPa) = 25.47379 35.03376 30.25377
#
# Velocity S-wave (km/s) = 3.18173 3.73129 3.46741
# Velocity P-wave (km/s) = 5.37150 5.84628 5.61391
#
# Compressibility (1/GPa) = 0.02588068
#
# Stress axis : x y z
#
# Youngs Moduli (GPa) = 77.44550 86.27944 125.08678
#
# Poissons Ratio (x) = 0.22866 -0.00854
# Poissons Ratio (y) = 0.20525 0.09083
# Poissons Ratio (z) = -0.00529 0.06265
#
# Static dielectric constant tensor:
#      x y z
#    x 4.981620 0.000000 0.000000 
#    y 0.000000 4.431430 0.000000 
#    z 0.000000 0.000000 4.405860 
# 
# 
# High freq. dielectric constant tensor:
#      x y z
#    x 2.017090 0.000000 0.000000 
#    y 0.000000 2.011820 0.000000 
#    z 0.000000 0.000000 1.992360 
# 
# From -- ./inp_files/9175.got.cif
#   From: 2010.03.12/outbox.cif.g09.slc.cpg/sg45_5_cif.got.tgz:9175.got - 2010.04.14 02:50:11.
