data_PCOD8190622
_publ_section_title
;
Structure prediction by ZEFSAII (Michael W. Deem and Ramdas Pophale) SiO2 
 PCOD8190622
Probable space group: I B A 2
;
_chemical_formula_sum "Si O2"
_cell_formula_units_Z 40
_cell_length_a 27.668914
_cell_length_b 11.070096
_cell_length_c 5.009268
_cell_angle_alpha 90.000000
_cell_angle_beta 90.000000
_cell_angle_gamma 90.000000
_cell_volume 1534.326437
_symmetry_space_group_name_H-M "I B A 2"
_symmetry_group_IT_number 45
_symmetry_cell_setting 'orthorhombic'
loop_
_space_group_symop_operation_xyz
x,y,z
-x,-y,z
-x,y,1/2+z
x,-y,1/2+z
1/2+x,1/2+y,1/2+z
1/2-x,1/2-y,1/2+z
1/2-x,1/2+y,z
1/2+x,1/2-y,z
loop_
_atom_site_type_symbol
_atom_site_label
_atom_site_fract_x
_atom_site_fract_y
_atom_site_fract_z
Si Si1 0.795557 0.579715 0.606470
Si Si2 0.371707 0.747463 0.380591
Si Si3 0.473570 0.830649 0.403235
Si Si4 0.051988 0.080384 0.552012
Si Si5 0.813630 0.079987 0.542790
O O1 0.806099 0.471311 0.400088
O O2 0.830810 0.692470 0.561559
O O3 0.741139 0.628526 0.576646
O O4 0.416216 0.843355 0.328223
O O5 0.393283 0.631725 0.538760
O O6 0.348913 0.693785 0.106466
O O7 0.491438 0.890659 0.680949
O O8 0.484449 0.688157 0.464713
O O9 0.043739 0.968762 0.349903
O O10 0.821948 0.032048 0.245353
#
# Coordination Sequence:
#
# PCOD8190622 Si02
#       5
#     8   8   8   8   8
#     4  10  24  43  64  91 121 162 214 264 313 371
#     4  10  24  40  67  89 128 171 205 262 320 375
#     4  10  23  38  58  91 130 167 211 255 310 382
#     4  10  21  35  56  89 124 163 204 243 307 378
#     4  10  22  40  62  94 127 156 201 253 311 388
#
# _framework density 26.070073000000001
#
# number of rings (size 3 to 8) (size 9 to 14) (size 15 to 20)
#    1.200    0.800    0.000    2.400    0.000   13.600 
#    0.000    0.000    0.000    3.600    0.000    0.000 
#    0.000    0.000    0.000    0.000    0.000    0.000 
#
# Total GULP energy -247784.893461 kJ/mol
# GULP energy per Si atom -12389.244673 kJ/mol
# Density = 2.601074 g / cm^3
# Si number density = 26.070073 Si / 1000 Ang^3
#
#
#
# Elastic Constant Matrix: (Units=GPa)
#
#
# Indices 1 2 3 4 5 6 
#
# 1 148.2057 20.5666 16.9473 0.0006 -0.0011 0.0005
# 2 20.5666 42.8247 -4.7525 0.0009 -0.0008 0.0003
# 3 16.9473 -4.7525 101.5256 0.0033 -0.0023 0.0013
# 4 0.0006 0.0009 0.0033 5.7335 -0.0004 0.0001
# 5 -0.0011 -0.0008 -0.0023 -0.0004 24.3583 -0.0003
# 6 0.0005 0.0003 0.0013 0.0001 -0.0003 39.9478
#
#
#
# Elastic Compliance Matrix: (Units=1/GPa)
#
#
# Indices 1 2 3 4 5 6 
#
# 1 0.007426 -0.003723 -0.001414 0.000001 0.000000 0.000000
# 2 -0.003723 0.025340 0.001808 -0.000005 0.000001 0.000000
# 3 -0.001414 0.001808 0.010170 -0.000006 0.000001 0.000000
# 4 0.000001 -0.000005 -0.000006 0.174415 0.000003 -0.000001
# 5 0.000000 0.000001 0.000001 0.000003 0.041054 0.000000
# 6 0.000000 0.000000 0.000000 -0.000001 0.000000 0.025033
#
#
# Mechanical properties :
#
#
# Convention : Reuss Voigt Hill
#
# Bulk Modulus (GPa) = 27.56554 39.78653 33.67603
# Shear Modulus (GPa) = 16.54601 31.32754 23.93677
#
# Velocity S-wave (km/s) = 2.52201 3.47027 3.03342
# Velocity P-wave (km/s) = 4.36776 5.59924 5.02139
#
# Compressibility (1/GPa) = 0.03627718
#
# Stress axis : x y z
#
# Youngs Moduli (GPa) = 134.66725 39.46381 98.32493
#
# Poissons Ratio (x) = 0.14693 0.13901
# Poissons Ratio (y) = 0.50138 -0.17774
# Poissons Ratio (z) = 0.19040 -0.07134
#
# Static dielectric constant tensor:
#      x y z
#    x 5.335000 0.000000 0.000000 
#    y 0.000000 4.142940 0.000000 
#    z 0.000000 0.000000 4.416000 
# 
# 
# High freq. dielectric constant tensor:
#      x y z
#    x 2.059750 0.000000 0.000000 
#    y 0.000000 2.014330 0.000000 
#    z 0.000000 0.000000 2.038960 
# 
# From -- ./inp_files/592.got.cif
#   From: 2010.03.12/outbox.cif.g09.slc.cpg/sg45_1_cif.got.tgz:592.got - 2010.04.14 02:50:11.
