data_PCOD8190370
_publ_section_title
;
Structure prediction by ZEFSAII (Michael W. Deem and Ramdas Pophale) SiO2 
 PCOD8190370
Probable space group: I B A 2
;
_chemical_formula_sum "Si O2"
_cell_formula_units_Z 56
_cell_length_a 21.024752
_cell_length_b 14.805848
_cell_length_c 9.098570
_cell_angle_alpha 90.000000
_cell_angle_beta 90.000000
_cell_angle_gamma 90.000000
_cell_volume 2832.287326
_symmetry_space_group_name_H-M "I B A 2"
_symmetry_group_IT_number 45
_symmetry_cell_setting 'orthorhombic'
loop_
_space_group_symop_operation_xyz
x,y,z
-x,-y,z
-x,y,1/2+z
x,-y,1/2+z
1/2+x,1/2+y,1/2+z
1/2-x,1/2-y,1/2+z
1/2-x,1/2+y,z
1/2+x,1/2-y,z
loop_
_atom_site_type_symbol
_atom_site_label
_atom_site_fract_x
_atom_site_fract_y
_atom_site_fract_z
Si Si1 0.074196 0.570725 0.328910
Si Si2 0.747717 0.143466 0.239692
Si Si3 0.635233 0.275440 0.243271
Si Si4 0.820104 0.898607 0.470006
Si Si5 0.312272 0.594633 0.021702
Si Si6 0.453453 0.887773 0.174523
Si Si7 0.288109 0.053570 0.241790
O O1 0.057935 0.586470 0.502538
O O2 0.069687 0.464858 0.288006
O O3 0.146184 0.601180 0.291148
O O4 0.028035 0.625063 0.216417
O O5 0.703049 0.228041 0.270054
O O6 0.802713 0.132430 0.359801
O O7 0.703040 0.054651 0.223161
O O8 0.788510 0.163037 0.094193
O O9 0.625508 0.340145 0.386340
O O10 0.578688 0.206094 0.218367
O O11 0.638964 0.338171 0.100312
O O12 0.764885 0.927989 0.360572
O O13 0.845546 0.995038 0.531162
O O14 0.240338 0.592584 0.090063
#
# Coordination Sequence:
#
# PCOD8190370 Si02
#       7
#     8   8   8   8   8   8   8
#     4  11  22  39  55  83 120 158 206 240 307 349
#     4  10  17  29  49  80 114 153 197 231 283 355
#     4  11  20  35  54  84 117 151 198 241 294 358
#     4   9  19  34  53  83 119 154 188 239 298 358
#     4   9  20  33  53  83 120 158 189 239 299 355
#     4  11  24  38  61  83 117 163 201 254 291 363
#     4   9  18  32  54  76 118 164 190 228 298 361
#
# _framework density 19.772006000000001
#
# number of rings (size 3 to 8) (size 9 to 14) (size 15 to 20)
#    0.000    2.000    1.429    4.286    4.000    2.286 
#    0.000    2.857    0.000    0.000    0.000    3.000 
#    0.000    0.000    0.000    0.000    0.000    0.000 
#
# Total GULP energy -346961.461076 kJ/mol
# GULP energy per Si atom -12391.480753 kJ/mol
# Density = 1.972700 g / cm^3
# Si number density = 19.772006 Si / 1000 Ang^3
#
#
#
# Elastic Constant Matrix: (Units=GPa)
#
#
# Indices 1 2 3 4 5 6 
#
# 1 67.3862 43.6595 26.3672 0.0000 0.0000 0.0000
# 2 43.6595 107.7426 34.1564 0.0000 0.0000 0.0000
# 3 26.3672 34.1564 104.2251 0.0000 0.0000 0.0000
# 4 0.0000 0.0000 0.0000 23.3779 0.0000 0.0000
# 5 0.0000 0.0000 0.0000 0.0000 19.9388 0.0000
# 6 0.0000 0.0000 0.0000 0.0000 0.0000 35.1934
#
#
#
# Elastic Compliance Matrix: (Units=1/GPa)
#
#
# Indices 1 2 3 4 5 6 
#
# 1 0.020827 -0.007554 -0.002793 0.000000 0.000000 0.000000
# 2 -0.007554 0.013097 -0.002381 0.000000 0.000000 0.000000
# 3 -0.002793 -0.002381 0.011082 0.000000 0.000000 0.000000
# 4 0.000000 0.000000 0.000000 0.042775 0.000000 0.000000
# 5 0.000000 0.000000 0.000000 0.000000 0.050153 0.000000
# 6 0.000000 0.000000 0.000000 0.000000 0.000000 0.028414
#
#
# Mechanical properties :
#
#
# Convention : Reuss Voigt Hill
#
# Bulk Modulus (GPa) = 51.15355 54.19112 52.67234
# Shear Modulus (GPa) = 25.21146 27.38009 26.29577
#
# Velocity S-wave (km/s) = 3.57474 3.72531 3.65080
# Velocity P-wave (km/s) = 6.55486 6.78023 6.66850
#
# Compressibility (1/GPa) = 0.01954898
#
# Stress axis : x y z
#
# Youngs Moduli (GPa) = 48.01446 76.35166 90.23941
#
# Poissons Ratio (x) = 0.57676 0.25207
# Poissons Ratio (y) = 0.36270 0.21488
# Poissons Ratio (z) = 0.13412 0.18181
#
# Static dielectric constant tensor:
#      x y z
#    x 3.324980 0.000000 0.000000 
#    y 0.000000 3.837880 0.000000 
#    z 0.000000 0.000000 4.213170 
# 
# 
# High freq. dielectric constant tensor:
#      x y z
#    x 1.716320 0.000000 0.000000 
#    y 0.000000 1.768190 0.000000 
#    z 0.000000 0.000000 1.789350 
# 
# From -- ./inp_files/2330.got.cif
#   From: 2010.03.12/outbox.cif.g09.slc.cpg/sg45_2_cif.got.tgz:2330.got - 2010.04.14 02:50:11.
