data_PCOD8190157
_publ_section_title
;
Structure prediction by ZEFSAII (Michael W. Deem and Ramdas Pophale) SiO2 
 PCOD8190157
Probable space group: I M M 2
;
_chemical_formula_sum "Si O2"
_cell_formula_units_Z 38
_cell_length_a 7.673529
_cell_length_b 24.308711
_cell_length_c 9.892755
_cell_angle_alpha 90.000000
_cell_angle_beta 90.000000
_cell_angle_gamma 90.000000
_cell_volume 1845.331192
_symmetry_space_group_name_H-M "I M M 2"
_symmetry_group_IT_number 44
_symmetry_cell_setting 'orthorhombic'
loop_
_space_group_symop_operation_xyz
x,y,z
-x,-y,z
-x,y,z
x,-y,z
1/2+x,1/2+y,1/2+z
1/2-x,1/2-y,1/2+z
1/2-x,1/2+y,1/2+z
1/2+x,1/2-y,1/2+z
loop_
_atom_site_type_symbol
_atom_site_label
_atom_site_fract_x
_atom_site_fract_y
_atom_site_fract_z
Si Si1 0.699535 0.193937 0.723560
Si Si2 0.802729 0.500000 0.002349
Si Si3 0.000000 0.000000 0.707066
Si Si4 0.304471 0.092750 0.292700
Si Si5 0.500000 0.617149 0.320971
Si Si6 0.703609 0.294609 0.918820
Si Si7 0.000000 0.935359 0.092886
O O1 0.500000 0.174703 0.744214
O O2 0.827186 0.143739 0.756967
O O3 0.748363 0.241802 0.828518
O O4 0.722741 0.214545 0.569597
O O5 0.760208 0.554429 0.918708
O O6 0.000000 0.500000 0.055640
O O7 0.677739 0.500000 0.126923
O O8 0.000000 0.947052 0.797382
O O9 0.500000 0.081539 0.239004
O O10 0.293640 0.154903 0.343851
O O11 0.174083 0.077172 0.174911
O O12 0.500000 0.614121 0.482824
O O13 0.500000 0.306374 0.927579
O O14 0.000000 0.000000 0.047388
#
# Coordination Sequence:
#
# PCOD8190157 Si02
#       7
#     8   4   2   8   4   8   4
#     4  11  27  46  69 100 141 179 229 282 343 410
#     4  10  22  39  65 101 135 172 229 288 342 411
#     4  12  24  42  70  94 130 188 224 286 354 406
#     4  11  23  40  69 102 137 176 229 283 343 411
#     4  12  28  47  68  99 140 178 236 284 345 414
#     4  11  24  43  70 103 135 185 227 279 344 407
#     4  12  25  46  70  98 137 186 230 287 347 411
#
# _framework density 20.592509
#
# number of rings (size 3 to 8) (size 9 to 14) (size 15 to 20)
#    0.000    0.842    3.684    2.526    5.895    3.368 
#    0.000    0.000    0.000    0.000    0.000    0.000 
#    0.000    0.000    0.000    0.000    0.000    0.000 
#
# Total GULP energy -235617.210498 kJ/mol
# GULP energy per Si atom -12400.905816 kJ/mol
# Density = 2.054564 g / cm^3
# Si number density = 20.592509 Si / 1000 Ang^3
#
#
#
# Elastic Constant Matrix: (Units=GPa)
#
#
# Indices 1 2 3 4 5 6 
#
# 1 108.0715 39.8628 40.8317 0.0007 0.0001 -0.0001
# 2 39.8628 118.8454 35.7247 -0.0004 -0.0004 0.0000
# 3 40.8317 35.7247 85.1927 0.0056 0.0043 -0.0012
# 4 0.0007 -0.0004 0.0056 36.3012 0.0016 -0.0005
# 5 0.0001 -0.0004 0.0043 0.0016 34.4849 -0.0001
# 6 -0.0001 0.0000 -0.0012 -0.0005 -0.0001 40.0155
#
#
#
# Elastic Compliance Matrix: (Units=1/GPa)
#
#
# Indices 1 2 3 4 5 6 
#
# 1 0.011973 -0.002621 -0.004639 0.000000 0.000000 0.000000
# 2 -0.002621 0.010202 -0.003022 0.000001 0.000001 0.000000
# 3 -0.004639 -0.003022 0.015229 -0.000002 -0.000002 0.000000
# 4 0.000000 0.000001 -0.000002 0.027547 -0.000001 0.000000
# 5 0.000000 0.000001 -0.000002 -0.000001 0.028998 0.000000
# 6 0.000000 0.000000 0.000000 0.000000 0.000000 0.024990
#
#
# Mechanical properties :
#
#
# Convention : Reuss Voigt Hill
#
# Bulk Modulus (GPa) = 59.38604 60.54977 59.96791
# Shear Modulus (GPa) = 34.45509 35.20636 34.83072
#
# Velocity S-wave (km/s) = 4.09490 4.13930 4.11716
# Velocity P-wave (km/s) = 7.15953 7.23275 7.19623
#
# Compressibility (1/GPa) = 0.01683897
#
# Stress axis : x y z
#
# Youngs Moduli (GPa) = 83.52254 98.02146 65.66560
#
# Poissons Ratio (x) = 0.25695 0.30463
# Poissons Ratio (y) = 0.21894 0.19842
# Poissons Ratio (z) = 0.38747 0.29619
#
# Static dielectric constant tensor:
#      x y z
#    x 3.870540 0.000000 0.000000 
#    y 0.000000 3.915680 0.000000 
#    z 0.000000 0.000000 3.741030 
# 
# 
# High freq. dielectric constant tensor:
#      x y z
#    x 1.824090 0.000000 0.000000 
#    y 0.000000 1.815350 0.000000 
#    z 0.000000 0.000000 1.805750 
# 
# From -- ./inp_files/4508.got.cif
#   From: 2010.03.12/outbox.cif.g09.slc.cpg/sg44_3_cif.got.tgz:4508.got - 2010.04.14 02:36:11.
