data_PCOD8190079
_publ_section_title
;
Structure prediction by ZEFSAII (Michael W. Deem and Ramdas Pophale) SiO2 
 PCOD8190079
Probable space group: I M M 2
;
_chemical_formula_sum "Si O2"
_cell_formula_units_Z 48
_cell_length_a 9.034109
_cell_length_b 16.703171
_cell_length_c 16.742386
_cell_angle_alpha 90.000000
_cell_angle_beta 90.000000
_cell_angle_gamma 90.000000
_cell_volume 2526.397041
_symmetry_space_group_name_H-M "I M M 2"
_symmetry_group_IT_number 44
_symmetry_cell_setting 'orthorhombic'
loop_
_space_group_symop_operation_xyz
x,y,z
-x,-y,z
-x,y,z
x,-y,z
1/2+x,1/2+y,1/2+z
1/2-x,1/2-y,1/2+z
1/2-x,1/2+y,1/2+z
1/2+x,1/2-y,1/2+z
loop_
_atom_site_type_symbol
_atom_site_label
_atom_site_fract_x
_atom_site_fract_y
_atom_site_fract_z
Si Si1 0.672775 0.316811 0.066880
Si Si2 0.325663 0.343822 0.529161
Si Si3 0.826851 0.000000 0.128210
Si Si4 0.825747 0.500000 0.798148
Si Si5 0.170058 0.406296 0.205643
Si Si6 0.828957 0.679241 0.366340
Si Si7 0.668719 0.639045 0.888953
O O1 0.500000 0.299363 0.076534
O O2 0.755436 0.232241 0.073598
O O3 0.727608 0.376413 0.134538
O O4 0.706292 0.359474 0.982783
O O5 0.500000 0.331613 0.525773
O O6 0.280365 0.422189 0.578277
O O7 0.266278 0.353853 0.439558
O O8 0.741329 0.000000 0.210688
O O9 0.000000 0.000000 0.147486
O O10 0.777732 0.578576 0.845913
O O11 0.000000 0.500000 0.790590
O O12 0.192151 0.500000 0.215591
O O13 0.224438 0.365500 0.287149
O O14 0.000000 0.383708 0.187414
O O15 0.804016 0.773394 0.352208
O O16 0.000000 0.661502 0.386256
O O17 0.500000 0.611176 0.874631
#
# Coordination Sequence:
#
# PCOD8190079 Si02
#       7
#     8   8   4   4   8   8   8
#     4  10  22  40  62  88 117 155 198 241 294 350
#     4  10  21  39  63  88 116 154 197 241 291 347
#     4  10  24  42  60  85 120 159 192 231 294 359
#     4  12  26  38  58  91 118 145 196 251 290 335
#     4  10  22  38  59  90 124 157 195 240 290 343
#     4   9  20  39  62  88 118 156 194 235 291 350
#     4   9  20  40  61  81 115 158 195 231 291 357
#
# _framework density 18.999388
#
# number of rings (size 3 to 8) (size 9 to 14) (size 15 to 20)
#    0.000    2.167    0.000    2.750    4.667    5.667 
#    0.000    0.000    0.000    0.000    0.000    0.000 
#    0.000    0.000    0.000    0.000    0.000    0.000 
#
# Total GULP energy -297710.396564 kJ/mol
# GULP energy per Si atom -12404.599857 kJ/mol
# Density = 1.895614 g / cm^3
# Si number density = 18.999388 Si / 1000 Ang^3
#
#
#
# Elastic Constant Matrix: (Units=GPa)
#
#
# Indices 1 2 3 4 5 6 
#
# 1 70.3831 51.6913 55.5897 0.0000 0.0000 0.0000
# 2 51.6913 114.4266 80.5836 0.0000 0.0000 0.0000
# 3 55.5897 80.5836 127.4753 0.0000 0.0000 0.0000
# 4 0.0000 0.0000 0.0000 29.9760 0.0000 0.0000
# 5 0.0000 0.0000 0.0000 0.0000 35.3720 0.0000
# 6 0.0000 0.0000 0.0000 0.0000 0.0000 28.1731
#
#
#
# Elastic Compliance Matrix: (Units=1/GPa)
#
#
# Indices 1 2 3 4 5 6 
#
# 1 0.023908 -0.006233 -0.006486 0.000000 0.000000 0.000000
# 2 -0.006233 0.017376 -0.008267 0.000000 0.000000 0.000000
# 3 -0.006486 -0.008267 0.015899 0.000000 0.000000 0.000000
# 4 0.000000 0.000000 0.000000 0.033360 0.000000 0.000000
# 5 0.000000 0.000000 0.000000 0.000000 0.028271 0.000000
# 6 0.000000 0.000000 0.000000 0.000000 0.000000 0.035495
#
#
# Mechanical properties :
#
#
# Convention : Reuss Voigt Hill
#
# Bulk Modulus (GPa) = 65.73329 76.44603 71.08966
# Shear Modulus (GPa) = 24.83236 26.99893 25.91565
#
# Velocity S-wave (km/s) = 3.61918 3.77376 3.69728
# Velocity P-wave (km/s) = 7.22062 7.70141 7.46489
#
# Compressibility (1/GPa) = 0.01521299
#
# Stress axis : x y z
#
# Youngs Moduli (GPa) = 41.82690 57.54928 62.89799
#
# Poissons Ratio (x) = 0.35868 0.40795
# Poissons Ratio (y) = 0.26069 0.51995
# Poissons Ratio (z) = 0.27129 0.47573
#
# Static dielectric constant tensor:
#      x y z
#    x 3.467440 0.000000 0.000000 
#    y 0.000000 3.540040 0.000000 
#    z 0.000000 0.000000 3.569980 
# 
# 
# High freq. dielectric constant tensor:
#      x y z
#    x 1.737490 0.000000 0.000000 
#    y 0.000000 1.747590 0.000000 
#    z 0.000000 0.000000 1.745970 
# 
# From -- ./inp_files/16221.got.cif
#   From: 2010.03.12/outbox.cif.g09.slc.cpg/sg44_9_cif.got.tgz:16221.got - 2010.04.14 02:36:11.
