data_PCOD8190523
_publ_section_title
;
Structure prediction by ZEFSAII (Michael W. Deem and Ramdas Pophale) SiO2 
 PCOD8190523
Probable space group: I B A 2
;
_chemical_formula_sum "Si O2"
_cell_formula_units_Z 60
_cell_length_a 12.438643
_cell_length_b 24.449357
_cell_length_c 8.714976
_cell_angle_alpha 90.000000
_cell_angle_beta 90.000000
_cell_angle_gamma 90.000000
_cell_volume 2650.370816
_symmetry_space_group_name_H-M "I B A 2"
_symmetry_group_IT_number 45
_symmetry_cell_setting 'orthorhombic'
loop_
_space_group_symop_operation_xyz
x,y,z
-x,-y,z
-x,y,1/2+z
x,-y,1/2+z
1/2+x,1/2+y,1/2+z
1/2-x,1/2-y,1/2+z
1/2-x,1/2+y,z
1/2+x,1/2-y,z
loop_
_atom_site_type_symbol
_atom_site_label
_atom_site_fract_x
_atom_site_fract_y
_atom_site_fract_z
Si Si1 0.976351 0.918968 0.302010
Si Si2 0.341577 0.454887 0.092210
Si Si3 0.652066 0.042486 0.620052
Si Si4 0.273007 0.339577 0.048866
Si Si5 0.784401 0.140221 0.691675
Si Si6 0.450257 0.696874 0.771425
Si Si7 0.366966 0.741511 0.069219
Si Si8 0.500000 0.000000 0.875005
O O1 0.911909 0.950627 0.436022
O O2 0.890858 0.898884 0.171393
O O3 0.069811 0.958128 0.229661
O O4 0.029641 0.861475 0.357935
O O5 0.259813 0.505718 0.094224
O O6 0.265006 0.401670 0.111488
O O7 0.682827 0.105264 0.639325
O O8 0.591603 0.028859 0.777036
O O9 0.567080 0.041314 0.481892
O O10 0.376489 0.310976 0.122522
O O11 0.171980 0.303171 0.100565
O O12 0.282571 0.340036 0.866973
O O13 0.777376 0.193394 0.582436
O O14 0.554928 0.725904 0.706728
O O15 0.407119 0.739690 0.895048
#
# Coordination Sequence:
#
# PCOD8190523 Si02
#       8
#     8   8   8   8   8   8   8   4
#     4   9  18  36  60  92 131 161 191 247 322 383
#     4  10  21  39  63  92 127 163 201 253 317 384
#     4  11  24  45  68  92 124 169 218 263 315 372
#     4  10  21  40  62  89 124 166 210 254 309 376
#     4  10  21  40  64  92 126 163 207 258 316 385
#     4  10  20  36  60  90 131 169 200 258 324 369
#     4  11  21  38  61  89 125 166 208 255 315 376
#     4  10  24  46  68  86 124 172 214 274 324 348
#
# _framework density 22.638341
#
# number of rings (size 3 to 8) (size 9 to 14) (size 15 to 20)
#    0.000    1.867    0.000    6.400    0.000    3.733 
#    0.000   17.333    0.000    0.000    0.000    0.000 
#    0.000    0.000    0.000    0.000    0.000    0.000 
#
# Total GULP energy -371731.489098 kJ/mol
# GULP energy per Si atom -12391.049637 kJ/mol
# Density = 2.258681 g / cm^3
# Si number density = 22.638341 Si / 1000 Ang^3
#
#
#
# Elastic Constant Matrix: (Units=GPa)
#
#
# Indices 1 2 3 4 5 6 
#
# 1 83.4839 48.8112 54.4633 -0.0012 0.0003 -0.0003
# 2 48.8112 86.7415 53.6719 -0.0015 0.0002 -0.0004
# 3 54.4633 53.6719 111.5561 -0.0037 0.0010 -0.0008
# 4 -0.0012 -0.0015 -0.0037 18.7212 0.0005 -0.0002
# 5 0.0003 0.0002 0.0010 0.0005 26.7386 -0.0002
# 6 -0.0003 -0.0004 -0.0008 -0.0002 -0.0002 25.3599
#
#
#
# Elastic Compliance Matrix: (Units=1/GPa)
#
#
# Indices 1 2 3 4 5 6 
#
# 1 0.020617 -0.007651 -0.006384 -0.000001 0.000000 0.000000
# 2 -0.007651 0.019255 -0.005528 0.000000 0.000000 0.000000
# 3 -0.006384 -0.005528 0.014741 0.000002 0.000000 0.000000
# 4 -0.000001 0.000000 0.000002 0.053415 -0.000001 0.000000
# 5 0.000000 0.000000 0.000000 -0.000001 0.037399 0.000000
# 6 0.000000 0.000000 0.000000 0.000000 0.000000 0.039432
#
#
# Mechanical properties :
#
#
# Convention : Reuss Voigt Hill
#
# Bulk Modulus (GPa) = 64.58030 66.18604 65.38317
# Shear Modulus (GPa) = 21.81991 22.48629 22.15310
#
# Velocity S-wave (km/s) = 3.10796 3.15506 3.13160
# Velocity P-wave (km/s) = 6.43957 6.52474 6.48230
#
# Compressibility (1/GPa) = 0.01548460
#
# Stress axis : x y z
#
# Youngs Moduli (GPa) = 48.50410 51.93528 67.83878
#
# Poissons Ratio (x) = 0.39737 0.43310
# Poissons Ratio (y) = 0.37111 0.37504
# Poissons Ratio (z) = 0.30966 0.28712
#
# Static dielectric constant tensor:
#      x y z
#    x 4.190610 0.000000 0.000000 
#    y 0.000000 4.119880 0.000000 
#    z 0.000000 0.000000 3.952340 
# 
# 
# High freq. dielectric constant tensor:
#      x y z
#    x 1.884310 0.000000 0.000000 
#    y 0.000000 1.883170 0.000000 
#    z 0.000000 0.000000 1.895160 
# 
# From -- ./inp_files/1451.got.cif
#   From: 2010.03.12/outbox.cif.g09.slc.cpg/sg45_1_cif.got.tgz:1451.got - 2010.04.14 02:50:11.
