data_PCOD8190406
_publ_section_title
;
Structure prediction by ZEFSAII (Michael W. Deem and Ramdas Pophale) SiO2 
 PCOD8190406
Probable space group: I B A 2
;
_chemical_formula_sum "Si O2"
_cell_formula_units_Z 64
_cell_length_a 11.308388
_cell_length_b 19.200407
_cell_length_c 14.182020
_cell_angle_alpha 90.000000
_cell_angle_beta 90.000000
_cell_angle_gamma 90.000000
_cell_volume 3079.280341
_symmetry_space_group_name_H-M "I B A 2"
_symmetry_group_IT_number 45
_symmetry_cell_setting 'orthorhombic'
loop_
_space_group_symop_operation_xyz
x,y,z
-x,-y,z
-x,y,1/2+z
x,-y,1/2+z
1/2+x,1/2+y,1/2+z
1/2-x,1/2-y,1/2+z
1/2-x,1/2+y,z
1/2+x,1/2-y,z
loop_
_atom_site_type_symbol
_atom_site_label
_atom_site_fract_x
_atom_site_fract_y
_atom_site_fract_z
Si Si1 0.021471 0.078602 0.683850
Si Si2 0.518872 0.821712 0.590824
Si Si3 0.207048 0.360894 0.955365
Si Si4 0.445467 0.574406 0.465728
Si Si5 0.386342 0.662545 0.838630
Si Si6 0.659028 0.310110 0.156463
Si Si7 0.383404 0.809404 0.770041
Si Si8 0.204134 0.705706 0.977932
O O1 0.054761 0.087104 0.576431
O O2 0.124824 0.110310 0.749811
O O3 0.902868 0.122725 0.703314
O O4 0.000000 0.000000 0.715689
O O5 0.620840 0.872008 0.547217
O O6 0.565871 0.748578 0.628834
O O7 0.454013 0.850322 0.685869
O O8 0.433024 0.808145 0.500725
O O9 0.305265 0.421155 0.942204
O O10 0.130086 0.360677 0.859259
O O11 0.272865 0.287945 0.973768
O O12 0.500000 0.500000 0.437348
O O13 0.519804 0.633989 0.414526
O O14 0.441845 0.736848 0.805438
O O15 0.254153 0.670616 0.882021
O O16 0.755261 0.284274 0.231928
O O17 0.723760 0.332536 0.060723
#
# Coordination Sequence:
#
# PCOD8190406 Si02
#       8
#     8   8   8   8   8   8   8   8
#     4  11  22  36  61  90 125 168 211 257 309 379
#     4  10  20  36  57  87 127 164 201 261 322 379
#     4  10  22  35  59  90 127 166 215 255 322 382
#     4  11  24  42  62  90 127 166 211 268 309 380
#     4  11  21  36  58  89 126 163 209 255 325 379
#     4  10  18  36  55  83 128 162 206 256 318 372
#     4  10  22  32  58  93 122 171 199 263 323 389
#     4   9  20  33  56  84 124 168 197 263 316 375
#
# _framework density 20.784078000000001
#
# number of rings (size 3 to 8) (size 9 to 14) (size 15 to 20)
#    0.000    1.750    2.500    1.875    7.000    1.000 
#    0.000    0.000    0.000    0.750    0.000    3.500 
#    0.000    0.000    0.000    0.000    0.000    0.000 
#
# Total GULP energy -396527.152565 kJ/mol
# GULP energy per Si atom -12391.473518 kJ/mol
# Density = 2.073677 g / cm^3
# Si number density = 20.784078 Si / 1000 Ang^3
#
#
#
# Elastic Constant Matrix: (Units=GPa)
#
#
# Indices 1 2 3 4 5 6 
#
# 1 102.4690 38.7516 43.0412 0.0001 0.0000 0.0000
# 2 38.7516 67.7706 40.2864 0.0003 0.0000 0.0000
# 3 43.0412 40.2864 120.8791 0.0003 0.0000 0.0000
# 4 0.0001 0.0003 0.0003 23.9849 0.0000 0.0000
# 5 0.0000 0.0000 0.0000 0.0000 25.2508 0.0000
# 6 0.0000 0.0000 0.0000 0.0000 0.0000 28.6242
#
#
#
# Elastic Compliance Matrix: (Units=1/GPa)
#
#
# Indices 1 2 3 4 5 6 
#
# 1 0.013126 -0.005895 -0.002709 0.000000 0.000000 0.000000
# 2 -0.005895 0.021049 -0.004916 0.000000 0.000000 0.000000
# 3 -0.002709 -0.004916 0.010876 0.000000 0.000000 0.000000
# 4 0.000000 0.000000 0.000000 0.041693 0.000000 0.000000
# 5 0.000000 0.000000 0.000000 0.000000 0.039603 0.000000
# 6 0.000000 0.000000 0.000000 0.000000 0.000000 0.034936
#
#
# Mechanical properties :
#
#
# Convention : Reuss Voigt Hill
#
# Bulk Modulus (GPa) = 55.52399 59.47523 57.49961
# Shear Modulus (GPa) = 25.72986 26.84129 26.28557
#
# Velocity S-wave (km/s) = 3.52228 3.59755 3.56012
# Velocity P-wave (km/s) = 6.58139 6.77749 6.68016
#
# Compressibility (1/GPa) = 0.01801023
#
# Stress axis : x y z
#
# Youngs Moduli (GPa) = 76.18184 47.50818 91.94750
#
# Poissons Ratio (x) = 0.28008 0.24910
# Poissons Ratio (y) = 0.44912 0.45202
# Poissons Ratio (z) = 0.20639 0.23355
#
# Static dielectric constant tensor:
#      x y z
#    x 3.892590 0.000000 0.000000 
#    y 0.000000 3.329610 0.000000 
#    z 0.000000 0.000000 4.161350 
# 
# 
# High freq. dielectric constant tensor:
#      x y z
#    x 1.807180 0.000000 0.000000 
#    y 0.000000 1.751810 0.000000 
#    z 0.000000 0.000000 1.843450 
# 
# From -- ./inp_files/6305.got.cif
#   From: 2010.03.12/outbox.cif.g09.slc.cpg/sg45_4_cif.got.tgz:6305.got - 2010.04.14 02:50:11.
