data_PCOD8190359
_publ_section_title
;
Structure prediction by ZEFSAII (Michael W. Deem and Ramdas Pophale) SiO2 
 PCOD8190359
Probable space group: I B A 2
;
_chemical_formula_sum "Si O2"
_cell_formula_units_Z 48
_cell_length_a 20.910297
_cell_length_b 20.908058
_cell_length_c 5.236568
_cell_angle_alpha 90.000000
_cell_angle_beta 90.000000
_cell_angle_gamma 90.000000
_cell_volume 2289.394552
_symmetry_space_group_name_H-M "I B A 2"
_symmetry_group_IT_number 45
_symmetry_cell_setting 'orthorhombic'
loop_
_space_group_symop_operation_xyz
x,y,z
-x,-y,z
-x,y,1/2+z
x,-y,1/2+z
1/2+x,1/2+y,1/2+z
1/2-x,1/2-y,1/2+z
1/2-x,1/2+y,z
1/2+x,1/2-y,z
loop_
_atom_site_type_symbol
_atom_site_label
_atom_site_fract_x
_atom_site_fract_y
_atom_site_fract_z
Si Si1 0.027954 0.071300 0.936000
Si Si2 0.040553 0.327358 0.930909
Si Si3 0.173844 0.958490 0.439650
Si Si4 0.741383 0.835314 0.974385
Si Si5 0.823128 0.289357 0.474279
Si Si6 0.929330 0.527050 0.900344
O O1 0.103909 0.072666 0.960442
O O2 0.004339 0.107143 0.678165
O O3 0.000000 0.000000 0.907440
O O4 0.100486 0.280259 0.963015
O O5 0.069321 0.398239 0.952778
O O6 0.009321 0.314818 0.656688
O O7 0.226667 0.904294 0.468543
O O8 0.182849 0.009480 0.664439
O O9 0.796128 0.781888 0.970252
O O10 0.695880 0.827124 0.730135
O O11 0.700166 0.830133 0.231415
O O12 0.893460 0.509334 0.634212
O O13 0.000000 0.500000 0.844032
#
# Coordination Sequence:
#
# PCOD8190359 Si02
#       6
#     8   8   8   8   8   8
#     4  10  16  30  49  80 115 164 189 219 304 396
#     4  12  21  35  63  90 119 148 198 256 303 352
#     4  12  21  35  63  90 125 154 203 260 307 356
#     4  10  23  45  65  84 119 172 212 245 300 359
#     4  10  23  45  66  84 118 170 215 245 300 362
#     4  10  16  30  48  76 112 158 179 209 296 381
#
# _framework density 20.966242000000001
#
# number of rings (size 3 to 8) (size 9 to 14) (size 15 to 20)
#    0.000    1.333    6.667    2.000    0.000    0.000 
#    0.000    6.667    0.000    0.000    0.000    0.000 
#    0.000    0.000    0.000    0.000    0.000    0.000 
#
# Total GULP energy -297593.032321 kJ/mol
# GULP energy per Si atom -12399.709680 kJ/mol
# Density = 2.091852 g / cm^3
# Si number density = 20.966242 Si / 1000 Ang^3
#
#
#
# Elastic Constant Matrix: (Units=GPa)
#
#
# Indices 1 2 3 4 5 6 
#
# 1 73.4142 22.3556 13.4088 0.0000 0.0000 0.0000
# 2 22.3556 31.7506 9.3496 0.0000 0.0000 0.0000
# 3 13.4088 9.3496 152.9598 0.0000 0.0000 0.0000
# 4 0.0000 0.0000 0.0000 9.0167 0.0000 0.0000
# 5 0.0000 0.0000 0.0000 0.0000 20.1398 0.0000
# 6 0.0000 0.0000 0.0000 0.0000 0.0000 16.4894
#
#
#
# Elastic Compliance Matrix: (Units=1/GPa)
#
#
# Indices 1 2 3 4 5 6 
#
# 1 0.017433 -0.012041 -0.000792 0.000000 0.000000 0.000000
# 2 -0.012041 0.040390 -0.001413 0.000000 0.000000 0.000000
# 3 -0.000792 -0.001413 0.006693 0.000000 0.000000 0.000000
# 4 0.000000 0.000000 0.000000 0.110905 0.000000 0.000000
# 5 0.000000 0.000000 0.000000 0.000000 0.049653 0.000000
# 6 0.000000 0.000000 0.000000 0.000000 0.000000 0.060645
#
#
# Mechanical properties :
#
#
# Convention : Reuss Voigt Hill
#
# Bulk Modulus (GPa) = 27.76015 38.70585 33.23300
# Shear Modulus (GPa) = 15.32709 23.32990 19.32849
#
# Velocity S-wave (km/s) = 2.70670 3.33939 3.03955
# Velocity P-wave (km/s) = 4.79974 5.77666 5.31071
#
# Compressibility (1/GPa) = 0.03602287
#
# Stress axis : x y z
#
# Youngs Moduli (GPa) = 57.36351 24.75879 149.39879
#
# Poissons Ratio (x) = 0.29812 0.11835
# Poissons Ratio (y) = 0.69072 0.21114
# Poissons Ratio (z) = 0.04544 0.03499
#
# Static dielectric constant tensor:
#      x y z
#    x 3.657030 0.000000 0.000000 
#    y 0.000000 3.429210 0.000000 
#    z 0.000000 0.000000 5.175700 
# 
# 
# High freq. dielectric constant tensor:
#      x y z
#    x 1.806420 0.000000 0.000000 
#    y 0.000000 1.785720 0.000000 
#    z 0.000000 0.000000 1.857720 
# 
# From -- ./inp_files/392.got.cif
#   From: 2010.03.12/outbox.cif.g09.slc.cpg/sg45_1_cif.got.tgz:392.got - 2010.04.14 02:50:11.
