data_PCOD8190461
_publ_section_title
;
Structure prediction by ZEFSAII (Michael W. Deem and Ramdas Pophale) SiO2 
 PCOD8190461
Probable space group: I B A 2
;
_chemical_formula_sum "Si O2"
_cell_formula_units_Z 64
_cell_length_a 29.849513
_cell_length_b 12.616547
_cell_length_c 8.944292
_cell_angle_alpha 90.000000
_cell_angle_beta 90.000000
_cell_angle_gamma 90.000000
_cell_volume 3368.400544
_symmetry_space_group_name_H-M "I B A 2"
_symmetry_group_IT_number 45
_symmetry_cell_setting 'orthorhombic'
loop_
_space_group_symop_operation_xyz
x,y,z
-x,-y,z
-x,y,1/2+z
x,-y,1/2+z
1/2+x,1/2+y,1/2+z
1/2-x,1/2-y,1/2+z
1/2-x,1/2+y,z
1/2+x,1/2-y,z
loop_
_atom_site_type_symbol
_atom_site_label
_atom_site_fract_x
_atom_site_fract_y
_atom_site_fract_z
Si Si1 0.701834 0.381778 0.843320
Si Si2 0.403564 0.828867 0.828442
Si Si3 0.601675 0.596101 0.389337
Si Si4 0.194144 0.628244 0.345610
Si Si5 0.255654 0.999221 0.594303
Si Si6 0.452913 0.777433 0.551713
Si Si7 0.450571 0.545371 0.599604
Si Si8 0.997554 0.617937 0.801281
O O1 0.652221 0.432939 0.842888
O O2 0.702454 0.254279 0.838835
O O3 0.724622 0.425785 0.694278
O O4 0.726674 0.420550 0.992353
O O5 0.398902 0.720763 0.921963
O O6 0.359042 0.897873 0.852674
O O7 0.408244 0.807920 0.646687
O O8 0.449330 0.882231 0.889597
O O9 0.586775 0.533719 0.536319
O O10 0.564200 0.569282 0.267220
O O11 0.213345 0.574404 0.196900
O O12 0.215126 0.578375 0.493859
O O13 0.451425 0.654561 0.504141
O O14 0.460432 0.849282 0.404742
O O15 0.495223 0.799371 0.663446
O O16 0.500000 0.500000 0.599767
O O17 0.000000 0.500000 0.735817
#
# Coordination Sequence:
#
# PCOD8190461 Si02
#       8
#     8   8   8   8   8   8   8   8
#     4  10  20  38  59  83 115 147 187 232 279 351
#     4   8  20  36  52  78 109 141 183 230 274 324
#     4  10  20  35  55  78 109 151 173 227 280 325
#     4  10  20  38  59  81 120 142 185 239 290 337
#     4  10  21  35  60  89 106 150 189 226 294 351
#     4   9  21  35  53  79 107 142 191 225 272 325
#     4  11  21  33  54  79 114 143 182 225 276 327
#     4  10  19  36  56  75 103 148 189 225 271 321
#
# _framework density 19.000115000000001
#
# number of rings (size 3 to 8) (size 9 to 14) (size 15 to 20)
#    0.750    1.500    0.000    3.000    1.750    1.000 
#    0.000    0.000    0.000    3.000    0.000    0.000 
#    0.000    0.000    0.000    0.000    0.000    0.000 
#
# Total GULP energy -396514.027716 kJ/mol
# GULP energy per Si atom -12391.063366 kJ/mol
# Density = 1.895687 g / cm^3
# Si number density = 19.000115 Si / 1000 Ang^3
#
#
#
# Elastic Constant Matrix: (Units=GPa)
#
#
# Indices 1 2 3 4 5 6 
#
# 1 107.5918 41.4122 19.8870 0.0000 0.0000 0.0000
# 2 41.4122 78.9557 21.0555 0.0000 0.0000 0.0000
# 3 19.8870 21.0555 61.0687 0.0000 0.0000 0.0000
# 4 0.0000 0.0000 0.0000 21.9971 0.0000 0.0000
# 5 0.0000 0.0000 0.0000 0.0000 15.2756 0.0000
# 6 0.0000 0.0000 0.0000 0.0000 0.0000 25.0988
#
#
#
# Elastic Compliance Matrix: (Units=1/GPa)
#
#
# Indices 1 2 3 4 5 6 
#
# 1 0.011840 -0.005706 -0.001888 0.000000 0.000000 0.000000
# 2 -0.005706 0.016698 -0.003899 0.000000 0.000000 0.000000
# 3 -0.001888 -0.003899 0.018334 0.000000 0.000000 0.000000
# 4 0.000000 0.000000 0.000000 0.045461 0.000000 0.000000
# 5 0.000000 0.000000 0.000000 0.000000 0.065464 0.000000
# 6 0.000000 0.000000 0.000000 0.000000 0.000000 0.039843
#
#
# Mechanical properties :
#
#
# Convention : Reuss Voigt Hill
#
# Bulk Modulus (GPa) = 41.86724 45.81397 43.84060
# Shear Modulus (GPa) = 21.87344 23.49173 22.68259
#
# Velocity S-wave (km/s) = 3.39665 3.52006 3.45891
# Velocity P-wave (km/s) = 6.12096 6.37855 6.25108
#
# Compressibility (1/GPa) = 0.02388503
#
# Stress axis : x y z
#
# Youngs Moduli (GPa) = 84.46084 59.88701 54.54302
#
# Poissons Ratio (x) = 0.34174 0.10298
# Poissons Ratio (y) = 0.48197 0.21266
# Poissons Ratio (z) = 0.15947 0.23350
#
# Static dielectric constant tensor:
#      x y z
#    x 3.524740 0.000000 0.000000 
#    y 0.000000 3.486060 0.000000 
#    z 0.000000 0.000000 3.256250 
# 
# 
# High freq. dielectric constant tensor:
#      x y z
#    x 1.736230 0.000000 0.000000 
#    y 0.000000 1.743140 0.000000 
#    z 0.000000 0.000000 1.724790 
# 
# From -- ./inp_files/2778.got.cif
#   From: 2010.03.12/outbox.cif.g09.slc.cpg/sg45_2_cif.got.tgz:2778.got - 2010.04.14 02:50:11.
