data_PCOD8190076
_publ_section_title
;
Structure prediction by ZEFSAII (Michael W. Deem and Ramdas Pophale) SiO2 
 PCOD8190076
Probable space group: I M M 2
;
_chemical_formula_sum "Si O2"
_cell_formula_units_Z 48
_cell_length_a 8.608386
_cell_length_b 14.471434
_cell_length_c 20.183265
_cell_angle_alpha 90.000000
_cell_angle_beta 90.000000
_cell_angle_gamma 90.000000
_cell_volume 2514.344161
_symmetry_space_group_name_H-M "I M M 2"
_symmetry_group_IT_number 44
_symmetry_cell_setting 'orthorhombic'
loop_
_space_group_symop_operation_xyz
x,y,z
-x,-y,z
-x,y,z
x,-y,z
1/2+x,1/2+y,1/2+z
1/2-x,1/2-y,1/2+z
1/2-x,1/2+y,1/2+z
1/2+x,1/2-y,1/2+z
loop_
_atom_site_type_symbol
_atom_site_label
_atom_site_fract_x
_atom_site_fract_y
_atom_site_fract_z
Si Si1 0.317059 0.500000 0.288510
Si Si2 0.680717 0.192344 0.754904
Si Si3 0.183392 0.000000 0.335963
Si Si4 0.817870 0.689681 0.872826
Si Si5 0.318157 0.809239 0.988092
Si Si6 0.683343 0.500000 0.443143
Si Si7 0.318934 0.691023 0.625991
Si Si8 0.815601 0.000000 0.187398
O O1 0.500000 0.500000 0.277172
O O2 0.243014 0.588551 0.253655
O O3 0.274652 0.500000 0.365856
O O4 0.500000 0.194456 0.773467
O O5 0.769621 0.252067 0.809016
O O6 0.711814 0.234255 0.682859
O O7 0.238837 0.090010 0.374823
O O8 0.253713 0.000000 0.261655
O O9 0.000000 0.000000 0.333425
O O10 0.770922 0.741723 0.939140
O O11 0.000000 0.676300 0.871334
O O12 0.500000 0.803520 0.973824
O O13 0.257666 0.912474 0.978290
O O14 0.279947 0.777625 0.062672
O O15 0.500000 0.500000 0.455279
O O16 0.500000 0.685811 0.607179
O O17 0.257023 0.590959 0.649593
O O18 0.000000 0.000000 0.192686
#
# Coordination Sequence:
#
# PCOD8190076 Si02
#       8
#     4   8   4   8   8   4   8   4
#     4  11  23  38  61  92 125 161 201 255 308 358
#     4  11  22  39  65  92 121 161 206 252 302 364
#     4  11  21  40  65  94 124 158 204 254 301 356
#     4  12  24  40  62  91 125 163 203 251 305 362
#     4  12  25  40  61  91 124 164 208 255 304 362
#     4  11  22  38  61  91 126 163 198 251 314 367
#     4  10  21  39  62  90 125 164 200 246 309 369
#     4   9  17  34  61  91 123 158 193 238 303 367
#
# _framework density 19.090465999999999
#
# number of rings (size 3 to 8) (size 9 to 14) (size 15 to 20)
#    0.000    1.000    3.333    4.750    0.000    2.667 
#    0.000    0.833    0.000    3.000    0.000    0.000 
#    0.000    0.000    0.000    0.000    0.000    0.000 
#
# Total GULP energy -297753.801025 kJ/mol
# GULP energy per Si atom -12406.408376 kJ/mol
# Density = 1.904701 g / cm^3
# Si number density = 19.090466 Si / 1000 Ang^3
#
#
#
# Elastic Constant Matrix: (Units=GPa)
#
#
# Indices 1 2 3 4 5 6 
#
# 1 83.0104 29.3618 31.8542 0.0000 0.0000 0.0000
# 2 29.3618 133.3431 42.1994 0.0000 0.0000 0.0000
# 3 31.8542 42.1994 100.3573 0.0000 0.0000 0.0000
# 4 0.0000 0.0000 0.0000 24.7112 0.0000 0.0000
# 5 0.0000 0.0000 0.0000 0.0000 32.3569 0.0000
# 6 0.0000 0.0000 0.0000 0.0000 0.0000 37.7983
#
#
#
# Elastic Compliance Matrix: (Units=1/GPa)
#
#
# Indices 1 2 3 4 5 6 
#
# 1 0.014145 -0.001954 -0.003668 0.000000 0.000000 0.000000
# 2 -0.001954 0.008921 -0.003131 0.000000 0.000000 0.000000
# 3 -0.003668 -0.003131 0.012445 0.000000 0.000000 0.000000
# 4 0.000000 0.000000 0.000000 0.040467 0.000000 0.000000
# 5 0.000000 0.000000 0.000000 0.000000 0.030905 0.000000
# 6 0.000000 0.000000 0.000000 0.000000 0.000000 0.026456
#
#
# Mechanical properties :
#
#
# Convention : Reuss Voigt Hill
#
# Bulk Modulus (GPa) = 55.53949 58.17130 56.85540
# Shear Modulus (GPa) = 31.87803 33.19298 32.53550
#
# Velocity S-wave (km/s) = 4.09080 4.17432 4.13277
# Velocity P-wave (km/s) = 7.17418 7.33286 7.25395
#
# Compressibility (1/GPa) = 0.01800521
#
# Stress axis : x y z
#
# Youngs Moduli (GPa) = 70.69402 112.10115 80.35204
#
# Poissons Ratio (x) = 0.21903 0.29475
# Poissons Ratio (y) = 0.13813 0.25157
# Poissons Ratio (z) = 0.25933 0.35097
#
# Static dielectric constant tensor:
#      x y z
#    x 3.516270 0.000000 0.000000 
#    y 0.000000 3.634230 0.000000 
#    z 0.000000 0.000000 3.543430 
# 
# 
# High freq. dielectric constant tensor:
#      x y z
#    x 1.746020 0.000000 0.000000 
#    y 0.000000 1.748500 0.000000 
#    z 0.000000 0.000000 1.743850 
# 
# From -- ./inp_files/20392.got.cif
#   From: 2010.03.12/outbox.cif.g09.slc.cpg/sg44_11_cif.got.tgz:20392.got - 2010.04.14 02:36:11.
