data_PCOD8190138
_publ_section_title
;
Structure prediction by ZEFSAII (Michael W. Deem and Ramdas Pophale) SiO2 
 PCOD8190138
Probable space group: I M M 2
;
_chemical_formula_sum "Si O2"
_cell_formula_units_Z 64
_cell_length_a 13.520857
_cell_length_b 19.381816
_cell_length_c 12.203104
_cell_angle_alpha 90.000000
_cell_angle_beta 90.000000
_cell_angle_gamma 90.000000
_cell_volume 3197.930333
_symmetry_space_group_name_H-M "I M M 2"
_symmetry_group_IT_number 44
_symmetry_cell_setting 'orthorhombic'
loop_
_space_group_symop_operation_xyz
x,y,z
-x,-y,z
-x,y,z
x,-y,z
1/2+x,1/2+y,1/2+z
1/2-x,1/2-y,1/2+z
1/2-x,1/2+y,1/2+z
1/2+x,1/2-y,1/2+z
loop_
_atom_site_type_symbol
_atom_site_label
_atom_site_fract_x
_atom_site_fract_y
_atom_site_fract_z
Si Si1 0.387179 0.652018 0.020450
Si Si2 0.882731 0.223809 0.740781
Si Si3 0.290426 0.421282 0.644983
Si Si4 0.199549 0.422763 0.000535
Si Si5 0.386667 0.692089 0.784649
Si Si6 0.383296 0.878765 0.268848
Si Si7 0.613325 0.331723 0.466476
Si Si8 0.887519 0.702738 0.115521
O O1 0.500000 0.626842 0.038433
O O2 0.344885 0.694288 0.124516
O O3 0.318675 0.586077 0.994305
O O4 0.378697 0.702463 0.914985
O O5 0.841498 0.300461 0.762889
O O6 0.852886 0.172111 0.839553
O O7 0.000000 0.230590 0.736513
O O8 0.328163 0.500000 0.642516
O O9 0.340210 0.380328 0.746088
O O10 0.172537 0.419793 0.670969
O O11 0.316172 0.385490 0.529285
O O12 0.175526 0.500000 0.039227
O O13 0.165024 0.369326 0.092725
O O14 0.144521 0.409693 0.886382
O O15 0.500000 0.688526 0.744378
O O16 0.339283 0.758874 0.722517
O O17 0.500000 0.885529 0.249446
O O18 0.500000 0.357343 0.477774
O O19 0.623128 0.254131 0.512584
O O20 0.000000 0.683266 0.138886
#
# Coordination Sequence:
#
# PCOD8190138 Si02
#       8
#     8   8   8   8   8   8   8   8
#     4  10  22  38  58  88 122 154 197 246 298 358
#     4   9  19  37  61  88 115 151 198 246 296 347
#     4  11  22  35  55  88 122 154 192 236 299 361
#     4  12  24  36  56  85 118 161 202 238 296 360
#     4   9  19  36  58  86 119 154 194 243 296 348
#     4  11  23  38  57  85 121 156 198 251 302 355
#     4   9  18  36  61  89 118 151 194 242 294 350
#     4   9  18  35  58  83 115 149 190 245 295 339
#
# _framework density 20.012944000000001
#
# number of rings (size 3 to 8) (size 9 to 14) (size 15 to 20)
#    0.000    2.000    2.500    1.875    3.500    3.000 
#    0.000    1.875    0.000    2.250    0.000    1.750 
#    0.000   14.000    0.000    0.000    0.000    0.000 
#
# Total GULP energy -396696.282974 kJ/mol
# GULP energy per Si atom -12396.758843 kJ/mol
# Density = 1.996739 g / cm^3
# Si number density = 20.012944 Si / 1000 Ang^3
#
#
#
# Elastic Constant Matrix: (Units=GPa)
#
#
# Indices 1 2 3 4 5 6 
#
# 1 67.3169 48.7589 30.6095 0.0001 0.0000 0.0000
# 2 48.7589 142.4747 59.8336 0.0002 0.0001 0.0000
# 3 30.6095 59.8336 137.2064 0.0008 0.0002 0.0001
# 4 0.0001 0.0002 0.0008 18.5597 0.0001 0.0000
# 5 0.0000 0.0001 0.0002 0.0001 26.7478 0.0000
# 6 0.0000 0.0000 0.0001 0.0000 0.0000 16.3392
#
#
#
# Elastic Compliance Matrix: (Units=1/GPa)
#
#
# Indices 1 2 3 4 5 6 
#
# 1 0.020115 -0.006120 -0.001819 0.000000 0.000000 0.000000
# 2 -0.006120 0.010455 -0.003194 0.000000 0.000000 0.000000
# 3 -0.001819 -0.003194 0.009087 0.000000 0.000000 0.000000
# 4 0.000000 0.000000 0.000000 0.053880 0.000000 0.000000
# 5 0.000000 0.000000 0.000000 0.000000 0.037386 0.000000
# 6 0.000000 0.000000 0.000000 0.000000 0.000000 0.061202
#
#
# Mechanical properties :
#
#
# Convention : Reuss Voigt Hill
#
# Bulk Modulus (GPa) = 57.49988 69.48911 63.49450
# Shear Modulus (GPa) = 22.70794 26.18240 24.44517
#
# Velocity S-wave (km/s) = 3.37213 3.62093 3.49874
# Velocity P-wave (km/s) = 6.62989 7.23042 6.93666
#
# Compressibility (1/GPa) = 0.01739134
#
# Stress axis : x y z
#
# Youngs Moduli (GPa) = 49.71415 95.65245 110.05079
#
# Poissons Ratio (x) = 0.58541 0.20013
# Poissons Ratio (y) = 0.30426 0.35147
# Poissons Ratio (z) = 0.09041 0.30548
#
# Static dielectric constant tensor:
#      x y z
#    x 3.817110 0.000000 0.000000 
#    y 0.000000 3.397920 0.000000 
#    z 0.000000 0.000000 3.686830 
# 
# 
# High freq. dielectric constant tensor:
#      x y z
#    x 1.796150 0.000000 0.000000 
#    y 0.000000 1.748850 0.000000 
#    z 0.000000 0.000000 1.772520 
# 
# From -- ./inp_files/13414.got.cif
#   From: 2010.03.12/outbox.cif.g09.slc.cpg/sg44_7_cif.got.tgz:13414.got - 2010.04.14 02:36:11.
