data_PCOD8190397
_publ_section_title
;
Structure prediction by ZEFSAII (Michael W. Deem and Ramdas Pophale) SiO2 
 PCOD8190397
Probable space group: I B A 2
;
_chemical_formula_sum "Si O2"
_cell_formula_units_Z 64
_cell_length_a 5.238794
_cell_length_b 28.142056
_cell_length_c 21.413085
_cell_angle_alpha 90.000000
_cell_angle_beta 90.000000
_cell_angle_gamma 90.000000
_cell_volume 3156.940417
_symmetry_space_group_name_H-M "I B A 2"
_symmetry_group_IT_number 45
_symmetry_cell_setting 'orthorhombic'
loop_
_space_group_symop_operation_xyz
x,y,z
-x,-y,z
-x,y,1/2+z
x,-y,1/2+z
1/2+x,1/2+y,1/2+z
1/2-x,1/2-y,1/2+z
1/2-x,1/2+y,z
1/2+x,1/2-y,z
loop_
_atom_site_type_symbol
_atom_site_label
_atom_site_fract_x
_atom_site_fract_y
_atom_site_fract_z
Si Si1 0.742596 0.027531 0.198970
Si Si2 0.749813 0.736130 0.782433
Si Si3 0.247243 0.224140 0.645090
Si Si4 0.999568 0.445937 0.437647
Si Si5 0.888238 0.882305 0.632799
Si Si6 0.148972 0.869417 0.754737
Si Si7 0.506024 0.555228 0.515177
Si Si8 0.146410 0.413375 0.305776
O O1 0.710203 0.078793 0.166297
O O2 0.737173 0.036697 0.274102
O O3 0.500000 0.000000 0.173239
O O4 0.000000 0.000000 0.180131
O O5 0.500874 0.750547 0.822347
O O6 0.761030 0.770250 0.720543
O O7 0.762091 0.681797 0.766498
O O8 0.497389 0.249696 0.616768
O O9 0.252833 0.168584 0.624863
O O10 0.211513 0.435838 0.489574
O O11 0.088035 0.414508 0.379039
O O12 0.000000 0.500000 0.414996
O O13 0.716752 0.434349 0.464128
O O14 0.979382 0.905225 0.568338
O O15 0.124315 0.874445 0.680063
O O16 0.369499 0.904873 0.775304
O O17 0.877998 0.876434 0.791249
O O18 0.500000 0.500000 0.538911
#
# Coordination Sequence:
#
# PCOD8190397 Si02
#       8
#     8   8   8   8   8   8   8   8
#     4  11  24  37  54  85 126 163 186 233 305 372
#     4  10  18  33  53  80 127 147 190 227 289 362
#     4  10  21  34  56  83 121 154 195 235 288 357
#     4  10  22  42  61  80 111 156 215 257 280 340
#     4  11  23  38  60  90 129 155 196 243 307 376
#     4  11  22  34  58  94 123 151 185 249 306 370
#     4  10  23  39  60  85 116 162 203 250 297 342
#     4  11  23  37  60  85 117 158 202 242 298 345
#
# _framework density 20.272791999999999
#
# number of rings (size 3 to 8) (size 9 to 14) (size 15 to 20)
#    0.000    1.500    2.500    3.750    5.250    8.000 
#    0.000    0.000    0.000    0.000    0.000   17.500 
#    0.000    0.000    0.000    0.000    0.000    0.000 
#
# Total GULP energy -396433.254551 kJ/mol
# GULP energy per Si atom -12388.539205 kJ/mol
# Density = 2.022665 g / cm^3
# Si number density = 20.272792 Si / 1000 Ang^3
#
#
#
# Elastic Constant Matrix: (Units=GPa)
#
#
# Indices 1 2 3 4 5 6 
#
# 1 152.2290 40.8745 11.2136 0.0000 0.0000 0.0000
# 2 40.8745 116.9344 20.0462 0.0000 0.0000 0.0000
# 3 11.2136 20.0462 58.7624 0.0000 0.0000 0.0000
# 4 0.0000 0.0000 0.0000 -9.5463 0.0000 0.0000
# 5 0.0000 0.0000 0.0000 0.0000 15.9760 0.0000
# 6 0.0000 0.0000 0.0000 0.0000 0.0000 25.7454
#
#
#
# Elastic Compliance Matrix: (Units=1/GPa)
#
#
# Indices 1 2 3 4 5 6 
#
# 1 0.007266 -0.002445 -0.000552 0.000000 0.000000 0.000000
# 2 -0.002445 0.009906 -0.002913 0.000000 0.000000 0.000000
# 3 -0.000552 -0.002913 0.018117 0.000000 0.000000 0.000000
# 4 0.000000 0.000000 0.000000 -0.104752 0.000000 0.000000
# 5 0.000000 0.000000 0.000000 0.000000 0.062594 0.000000
# 6 0.000000 0.000000 0.000000 0.000000 0.000000 0.038842
#
#
# Mechanical properties :
#
#
# Convention : Reuss Voigt Hill
#
# Bulk Modulus (GPa) = 42.61088 52.46604 47.53846
# Shear Modulus (GPa) = 96.86995 23.48779 60.17887
#
# Velocity S-wave (km/s) = 6.92004 3.40749 5.45426
# Velocity P-wave (km/s) = 9.21486 6.43565 7.94768
#
# Compressibility (1/GPa) = 0.02346819
#
# Stress axis : x y z
#
# Youngs Moduli (GPa) = 137.62147 100.95040 55.19761
#
# Poissons Ratio (x) = 0.24685 0.03049
# Poissons Ratio (y) = 0.33652 0.16077
# Poissons Ratio (z) = 0.07603 0.29403
#
# Static dielectric constant tensor:
#      x y z
#    x 4.443300 0.000000 0.000000 
#    y 0.000000 3.968170 0.000000 
#    z 0.000000 0.000000 3.291550 
# 
# 
# High freq. dielectric constant tensor:
#      x y z
#    x 1.820580 0.000000 0.000000 
#    y 0.000000 1.792480 0.000000 
#    z 0.000000 0.000000 1.733610 
# 
# From -- ./inp_files/8737.got.cif
#   From: 2010.03.12/outbox.cif.g09.slc.cpg/sg45_5_cif.got.tgz:8737.got - 2010.04.14 02:50:11.
