data_PCOD8190089
_publ_section_title
;
Structure prediction by ZEFSAII (Michael W. Deem and Ramdas Pophale) SiO2 
 PCOD8190089
Probable space group: I M M 2
;
_chemical_formula_sum "Si O2"
_cell_formula_units_Z 48
_cell_length_a 8.621944
_cell_length_b 16.976724
_cell_length_c 16.446884
_cell_angle_alpha 90.000000
_cell_angle_beta 90.000000
_cell_angle_gamma 90.000000
_cell_volume 2407.369285
_symmetry_space_group_name_H-M "I M M 2"
_symmetry_group_IT_number 44
_symmetry_cell_setting 'orthorhombic'
loop_
_space_group_symop_operation_xyz
x,y,z
-x,-y,z
-x,y,z
x,-y,z
1/2+x,1/2+y,1/2+z
1/2-x,1/2-y,1/2+z
1/2-x,1/2+y,1/2+z
1/2+x,1/2-y,1/2+z
loop_
_atom_site_type_symbol
_atom_site_label
_atom_site_fract_x
_atom_site_fract_y
_atom_site_fract_z
Si Si1 0.679119 0.306001 0.319840
Si Si2 0.679849 0.908889 0.681716
Si Si3 0.817737 0.000000 0.085155
Si Si4 0.821041 0.500000 0.760620
Si Si5 0.181800 0.157633 0.002257
Si Si6 0.179670 0.820145 0.535085
Si Si7 0.178902 0.144799 0.349316
O O1 0.500000 0.281947 0.314378
O O2 0.718528 0.368201 0.250798
O O3 0.717520 0.345656 0.406369
O O4 0.779641 0.227318 0.306558
O O5 0.500000 0.895940 0.701324
O O6 0.718418 0.873242 0.594177
O O7 0.725378 0.000000 0.680398
O O8 0.779748 0.000000 0.179595
O O9 0.750202 0.922122 0.041683
O O10 0.000000 0.000000 0.072573
O O11 0.784334 0.576664 0.813182
O O12 0.000000 0.500000 0.736277
O O13 0.271858 0.229310 0.044605
O O14 0.000000 0.168590 0.019786
O O15 0.215457 0.850171 0.444681
O O16 0.000000 0.828866 0.557796
O O17 0.000000 0.125217 0.332274
#
# Coordination Sequence:
#
# PCOD8190089 Si02
#       7
#     8   8   4   4   8   8   8
#     4  10  21  39  65  93 121 157 201 250 301 356
#     4  11  25  41  60  89 124 163 202 244 301 360
#     4  10  22  40  62  89 122 161 200 245 300 361
#     4  12  26  40  60  91 124 159 204 255 300 355
#     4   9  20  39  64  90 120 158 200 245 301 361
#     4  10  22  40  64  90 119 156 201 251 305 357
#     4  10  22  42  65  89 121 161 201 248 307 365
#
# _framework density 19.938777000000002
#
# number of rings (size 3 to 8) (size 9 to 14) (size 15 to 20)
#    0.000    1.833    0.000    2.750    4.667    4.667 
#    0.000    0.000    0.000    0.000    0.000    0.000 
#    0.000    0.000    0.000    0.000    0.000    0.000 
#
# Total GULP energy -297748.116430 kJ/mol
# GULP energy per Si atom -12406.171518 kJ/mol
# Density = 1.989340 g / cm^3
# Si number density = 19.938777 Si / 1000 Ang^3
#
#
#
# Elastic Constant Matrix: (Units=GPa)
#
#
# Indices 1 2 3 4 5 6 
#
# 1 34.0750 16.8275 16.4169 0.0000 0.0000 0.0000
# 2 16.8275 130.9419 59.2536 0.0000 0.0000 0.0000
# 3 16.4169 59.2536 85.6706 0.0000 0.0000 0.0000
# 4 0.0000 0.0000 0.0000 33.7629 0.0000 0.0000
# 5 0.0000 0.0000 0.0000 0.0000 28.8719 0.0000
# 6 0.0000 0.0000 0.0000 0.0000 0.0000 31.4683
#
#
#
# Elastic Compliance Matrix: (Units=1/GPa)
#
#
# Indices 1 2 3 4 5 6 
#
# 1 0.032684 -0.001988 -0.004888 0.000000 0.000000 0.000000
# 2 -0.001988 0.011237 -0.007391 0.000000 0.000000 0.000000
# 3 -0.004888 -0.007391 0.017721 0.000000 0.000000 0.000000
# 4 0.000000 0.000000 0.000000 0.029618 0.000000 0.000000
# 5 0.000000 0.000000 0.000000 0.000000 0.034636 0.000000
# 6 0.000000 0.000000 0.000000 0.000000 0.000000 0.031778
#
#
# Mechanical properties :
#
#
# Convention : Reuss Voigt Hill
#
# Bulk Modulus (GPa) = 30.20454 48.40928 39.30691
# Shear Modulus (GPa) = 25.34920 29.36659 27.35790
#
# Velocity S-wave (km/s) = 3.56947 3.84192 3.70820
# Velocity P-wave (km/s) = 5.67183 6.63416 6.17178
#
# Compressibility (1/GPa) = 0.03310760
#
# Stress axis : x y z
#
# Youngs Moduli (GPa) = 30.59609 88.99106 56.42944
#
# Poissons Ratio (x) = 0.17695 0.27582
# Poissons Ratio (y) = 0.06084 0.41707
# Poissons Ratio (z) = 0.14955 0.65774
#
# Static dielectric constant tensor:
#      x y z
#    x 3.568900 0.000000 0.000000 
#    y 0.000000 3.766770 0.000000 
#    z 0.000000 0.000000 3.589660 
# 
# 
# High freq. dielectric constant tensor:
#      x y z
#    x 1.780070 0.000000 0.000000 
#    y 0.000000 1.787380 0.000000 
#    z 0.000000 0.000000 1.782410 
# 
# From -- ./inp_files/16205.got.cif
#   From: 2010.03.12/outbox.cif.g09.slc.cpg/sg44_9_cif.got.tgz:16205.got - 2010.04.14 02:36:11.
