data_PCOD8190706
_publ_section_title
;
Structure prediction by ZEFSAII (Michael W. Deem and Ramdas Pophale) SiO2 
 PCOD8190706
Probable space group: I B A 2
;
_chemical_formula_sum "Si O2"
_cell_formula_units_Z 64
_cell_length_a 21.825349
_cell_length_b 9.479733
_cell_length_c 13.678972
_cell_angle_alpha 90.000000
_cell_angle_beta 90.000000
_cell_angle_gamma 90.000000
_cell_volume 2830.158531
_symmetry_space_group_name_H-M "I B A 2"
_symmetry_group_IT_number 45
_symmetry_cell_setting 'orthorhombic'
loop_
_space_group_symop_operation_xyz
x,y,z
-x,-y,z
-x,y,1/2+z
x,-y,1/2+z
1/2+x,1/2+y,1/2+z
1/2-x,1/2-y,1/2+z
1/2-x,1/2+y,z
1/2+x,1/2-y,z
loop_
_atom_site_type_symbol
_atom_site_label
_atom_site_fract_x
_atom_site_fract_y
_atom_site_fract_z
Si Si1 0.633972 0.736479 0.849810
Si Si2 0.006446 0.333683 0.408858
Si Si3 0.792648 0.857131 0.530218
Si Si4 0.394821 0.245782 0.293946
Si Si5 0.051633 0.394814 0.603879
Si Si6 0.196055 0.492936 0.788995
Si Si7 0.672003 0.505081 0.728714
Si Si8 0.182921 0.463441 0.567484
O O1 0.562057 0.765866 0.849173
O O2 0.670077 0.884398 0.858971
O O3 0.645498 0.662871 0.744076
O O4 0.659491 0.640739 0.940057
O O5 0.016582 0.301025 0.523448
O O6 0.000000 0.500000 0.387914
O O7 0.944109 0.257314 0.379493
O O8 0.817533 0.959702 0.616896
O O9 0.787454 0.695358 0.568635
O O10 0.725549 0.927665 0.502785
O O11 0.423777 0.196011 0.191980
O O12 0.376252 0.405911 0.282175
O O13 0.335151 0.153763 0.320943
O O14 0.109914 0.460665 0.541277
O O15 0.000000 0.500000 0.646405
O O16 0.268496 0.490832 0.798396
O O17 0.181592 0.526297 0.676360
#
# Coordination Sequence:
#
# PCOD8190706 Si02
#       8
#     8   8   8   8   8   8   8   8
#     4  12  25  41  69 100 140 184 238 285 351 414
#     4  11  22  40  66  96 131 177 232 285 331 416
#     4  11  24  46  66 104 143 182 226 299 354 423
#     4  11  21  43  70  98 137 181 229 286 351 410
#     4  10  21  40  66 100 129 178 233 288 330 409
#     4  10  22  41  68 100 131 184 227 286 345 424
#     4  11  24  43  67  99 145 180 225 292 359 416
#     4  10  22  43  70  96 139 178 229 287 359 407
#
# _framework density 22.613572999999999
#
# number of rings (size 3 to 8) (size 9 to 14) (size 15 to 20)
#    0.000    1.250    5.000    1.125    8.750    0.500 
#    4.500    1.250    0.000    3.000    0.000    0.000 
#    0.000    0.000    0.000    0.000    0.000    0.000 
#
# Total GULP energy -396566.549164 kJ/mol
# GULP energy per Si atom -12392.704661 kJ/mol
# Density = 2.256210 g / cm^3
# Si number density = 22.613573 Si / 1000 Ang^3
#
#
#
# Elastic Constant Matrix: (Units=GPa)
#
#
# Indices 1 2 3 4 5 6 
#
# 1 127.3252 30.5875 23.2459 0.0000 0.0000 0.0000
# 2 30.5875 74.5902 8.8239 0.0000 0.0000 0.0000
# 3 23.2459 8.8239 58.6144 0.0000 0.0000 0.0000
# 4 0.0000 0.0000 0.0000 17.5511 0.0000 0.0000
# 5 0.0000 0.0000 0.0000 0.0000 35.0786 0.0000
# 6 0.0000 0.0000 0.0000 0.0000 0.0000 8.9359
#
#
#
# Elastic Compliance Matrix: (Units=1/GPa)
#
#
# Indices 1 2 3 4 5 6 
#
# 1 0.009252 -0.003421 -0.003154 0.000000 0.000000 0.000000
# 2 -0.003421 0.014914 -0.000889 0.000000 0.000000 0.000000
# 3 -0.003154 -0.000889 0.018445 0.000000 0.000000 0.000000
# 4 0.000000 0.000000 0.000000 0.056976 0.000000 0.000000
# 5 0.000000 0.000000 0.000000 0.000000 0.028507 0.000000
# 6 0.000000 0.000000 0.000000 0.000000 0.000000 0.111908
#
#
# Mechanical properties :
#
#
# Convention : Reuss Voigt Hill
#
# Bulk Modulus (GPa) = 36.12138 42.87160 39.49649
# Shear Modulus (GPa) = 18.92806 25.50463 22.21634
#
# Velocity S-wave (km/s) = 2.89627 3.36199 3.13778
# Velocity P-wave (km/s) = 5.21464 5.83696 5.53456
#
# Compressibility (1/GPa) = 0.02768443
#
# Stress axis : x y z
#
# Youngs Moduli (GPa) = 108.09056 67.04906 54.21431
#
# Poissons Ratio (x) = 0.22935 0.17100
# Poissons Ratio (y) = 0.36974 0.04818
# Poissons Ratio (z) = 0.34093 0.05958
#
# Static dielectric constant tensor:
#      x y z
#    x 4.572110 0.000000 0.000000 
#    y 0.000000 3.953430 0.000000 
#    z 0.000000 0.000000 3.999210 
# 
# 
# High freq. dielectric constant tensor:
#      x y z
#    x 1.902320 0.000000 0.000000 
#    y 0.000000 1.865700 0.000000 
#    z 0.000000 0.000000 1.896250 
# 
# From -- ./inp_files/7070.got.cif
#   From: 2010.03.12/outbox.cif.g09.slc.cpg/sg45_4_cif.got.tgz:7070.got - 2010.04.14 02:50:11.
