data_PCOD8190577
_publ_section_title
;
Structure prediction by ZEFSAII (Michael W. Deem and Ramdas Pophale) SiO2 
 PCOD8190577
Probable space group: I B A 2
;
_chemical_formula_sum "Si O2"
_cell_formula_units_Z 64
_cell_length_a 8.135191
_cell_length_b 24.125744
_cell_length_c 15.869741
_cell_angle_alpha 90.000000
_cell_angle_beta 90.000000
_cell_angle_gamma 90.000000
_cell_volume 3114.714954
_symmetry_space_group_name_H-M "I B A 2"
_symmetry_group_IT_number 45
_symmetry_cell_setting 'orthorhombic'
loop_
_space_group_symop_operation_xyz
x,y,z
-x,-y,z
-x,y,1/2+z
x,-y,1/2+z
1/2+x,1/2+y,1/2+z
1/2-x,1/2-y,1/2+z
1/2-x,1/2+y,z
1/2+x,1/2-y,z
loop_
_atom_site_type_symbol
_atom_site_label
_atom_site_fract_x
_atom_site_fract_y
_atom_site_fract_z
Si Si1 0.828090 0.525191 0.535870
Si Si2 0.342993 0.198111 0.070566
Si Si3 0.668418 0.100759 0.696262
Si Si4 0.999710 0.062551 0.704304
Si Si5 0.197512 0.123721 0.939086
Si Si6 0.600688 0.419209 0.526166
Si Si7 0.179601 0.376013 0.256737
Si Si8 0.203049 0.316063 0.091070
O O1 0.835871 0.549164 0.630855
O O2 0.813950 0.574425 0.469087
O O3 0.690364 0.478281 0.517442
O O4 0.000000 0.500000 0.512477
O O5 0.317970 0.161138 0.153850
O O6 0.317460 0.262824 0.086189
O O7 0.532262 0.193363 0.042675
O O8 0.219530 0.177490 0.998031
O O9 0.504994 0.097244 0.755294
O O10 0.841377 0.092911 0.747975
O O11 0.971732 0.072758 0.603554
O O12 0.181997 0.081337 0.726914
O O13 0.000000 0.000000 0.733032
O O14 0.259312 0.143700 0.847905
O O15 0.009218 0.100083 0.945332
O O16 0.725844 0.370149 0.546217
O O17 0.177635 0.325274 0.191170
#
# Coordination Sequence:
#
# PCOD8190577 Si02
#       8
#     8   8   8   8   8   8   8   8
#     4  11  20  36  64  90 122 170 217 257 300 368
#     4  10  20  39  66  87 115 159 212 255 309 373
#     4  10  21  38  63  88 121 165 211 263 301 372
#     4  11  19  36  62  90 118 170 214 249 298 372
#     4  11  22  41  59  91 131 160 200 263 320 373
#     4  11  19  36  64  90 123 165 218 252 302 375
#     4  10  25  41  57  96 132 157 205 262 326 372
#     4  10  22  40  66  90 115 160 210 260 305 378
#
# _framework density 20.547626999999999
#
# number of rings (size 3 to 8) (size 9 to 14) (size 15 to 20)
#    0.000    1.500    3.750    4.125    1.750    1.000 
#    6.750    5.000    0.000    0.000    0.000    0.000 
#    0.000    0.000    0.000    0.000    0.000    0.000 
#
# Total GULP energy -396501.055652 kJ/mol
# GULP energy per Si atom -12390.657989 kJ/mol
# Density = 2.050086 g / cm^3
# Si number density = 20.547627 Si / 1000 Ang^3
#
#
#
# Elastic Constant Matrix: (Units=GPa)
#
#
# Indices 1 2 3 4 5 6 
#
# 1 102.2658 7.1182 4.5526 0.0001 0.0000 0.0000
# 2 7.1182 90.4623 5.1282 0.0000 0.0000 0.0000
# 3 4.5526 5.1282 58.1333 -0.0003 0.0000 0.0001
# 4 0.0001 0.0000 -0.0003 9.2140 0.0000 0.0001
# 5 0.0000 0.0000 0.0000 0.0000 22.5163 0.0000
# 6 0.0000 0.0000 0.0001 0.0001 0.0000 30.9149
#
#
#
# Elastic Compliance Matrix: (Units=1/GPa)
#
#
# Indices 1 2 3 4 5 6 
#
# 1 0.009861 -0.000736 -0.000707 0.000000 0.000000 0.000000
# 2 -0.000736 0.011165 -0.000927 0.000000 0.000000 0.000000
# 3 -0.000707 -0.000927 0.017339 0.000001 0.000000 0.000000
# 4 0.000000 0.000000 0.000001 0.108530 0.000000 0.000000
# 5 0.000000 0.000000 0.000000 0.000000 0.044412 0.000000
# 6 0.000000 0.000000 0.000000 0.000000 0.000000 0.032347
#
#
# Mechanical properties :
#
#
# Convention : Reuss Voigt Hill
#
# Bulk Modulus (GPa) = 29.74061 31.60660 30.67360
# Shear Modulus (GPa) = 20.86784 28.13320 24.50052
#
# Velocity S-wave (km/s) = 3.19028 3.70424 3.45683
# Velocity P-wave (km/s) = 5.29867 5.80610 5.55818
#
# Compressibility (1/GPa) = 0.03362406
#
# Stress axis : x y z
#
# Youngs Moduli (GPa) = 101.40803 89.56721 57.67331
#
# Poissons Ratio (x) = 0.06591 0.04080
# Poissons Ratio (y) = 0.07462 0.05348
# Poissons Ratio (z) = 0.07173 0.08305
#
# Static dielectric constant tensor:
#      x y z
#    x 4.115340 0.000000 0.000000 
#    y 0.000000 3.650710 0.000000 
#    z 0.000000 0.000000 3.445810 
# 
# 
# High freq. dielectric constant tensor:
#      x y z
#    x 1.834540 0.000000 0.000000 
#    y 0.000000 1.801150 0.000000 
#    z 0.000000 0.000000 1.751180 
# 
# From -- ./inp_files/5869.got.cif
#   From: 2010.03.12/outbox.cif.g09.slc.cpg/sg45_3_cif.got.tgz:5869.got - 2010.04.14 02:50:11.
