data_PCOD8190767
_publ_section_title
;
Structure prediction by ZEFSAII (Michael W. Deem and Ramdas Pophale) SiO2 
 PCOD8190767
Probable space group: I B A 2
;
_chemical_formula_sum "Si O2"
_cell_formula_units_Z 48
_cell_length_a 29.079652
_cell_length_b 5.107855
_cell_length_c 15.140392
_cell_angle_alpha 90.000000
_cell_angle_beta 90.000000
_cell_angle_gamma 90.000000
_cell_volume 2248.872764
_symmetry_space_group_name_H-M "I B A 2"
_symmetry_group_IT_number 45
_symmetry_cell_setting 'orthorhombic'
loop_
_space_group_symop_operation_xyz
x,y,z
-x,-y,z
-x,y,1/2+z
x,-y,1/2+z
1/2+x,1/2+y,1/2+z
1/2-x,1/2-y,1/2+z
1/2-x,1/2+y,z
1/2+x,1/2-y,z
loop_
_atom_site_type_symbol
_atom_site_label
_atom_site_fract_x
_atom_site_fract_y
_atom_site_fract_z
Si Si1 0.348169 0.553238 0.294140
Si Si2 0.719474 0.362804 0.941537
Si Si3 0.220530 0.895584 0.641732
Si Si4 0.000000 0.000000 0.590057
Si Si5 0.064440 0.320475 0.337547
Si Si6 0.000000 0.500000 0.984044
Si Si7 0.437414 0.671207 0.739491
O O1 0.321473 0.406767 0.372579
O O2 0.316092 0.671917 0.217667
O O3 0.379762 0.784405 0.337942
O O4 0.381816 0.347809 0.244144
O O5 0.758969 0.577968 0.924552
O O6 0.700095 0.373129 0.042158
O O7 0.261853 0.690792 0.654974
O O8 0.981296 0.249022 0.536484
O O9 0.043867 0.108678 0.642976
O O10 0.045021 0.402657 0.431747
O O11 0.047823 0.540083 0.268044
O O12 0.041147 0.048708 0.305840
#
# Coordination Sequence:
#
# PCOD8190767 Si02
#       7
#     8   8   8   4   8   4   8
#     4  10  24  38  68  89 126 169 213 262 320 378
#     4  10  22  39  61  91 127 165 209 261 316 380
#     4  10  22  39  61  90 125 164 210 261 315 379
#     4  12  24  42  66  92 126 166 210 268 324 388
#     4  10  23  41  63  90 124 165 211 265 316 385
#     4  12  24  42  66  92 126 166 210 264 330 386
#     4  10  23  41  63  90 124 165 211 263 316 387
#
# _framework density 21.344024999999998
#
# number of rings (size 3 to 8) (size 9 to 14) (size 15 to 20)
#    1.000    0.667    0.000    4.000    4.667    1.333 
#    0.000    0.000    0.000    0.000    0.000    0.000 
#    0.000    0.000    0.000    0.000    0.000    0.000 
#
# Total GULP energy -297440.777629 kJ/mol
# GULP energy per Si atom -12393.365735 kJ/mol
# Density = 2.129545 g / cm^3
# Si number density = 21.344025 Si / 1000 Ang^3
#
#
#
# Elastic Constant Matrix: (Units=GPa)
#
#
# Indices 1 2 3 4 5 6 
#
# 1 97.8941 17.5380 68.0867 0.0000 0.0000 0.0000
# 2 17.5380 63.3674 5.0520 0.0000 0.0000 0.0000
# 3 68.0867 5.0520 111.4252 0.0000 0.0000 0.0000
# 4 0.0000 0.0000 0.0000 31.1756 0.0000 0.0000
# 5 0.0000 0.0000 0.0000 0.0000 -14.6575 0.0000
# 6 0.0000 0.0000 0.0000 0.0000 0.0000 21.1240
#
#
#
# Elastic Compliance Matrix: (Units=1/GPa)
#
#
# Indices 1 2 3 4 5 6 
#
# 1 0.018874 -0.004320 -0.011337 0.000000 0.000000 0.000000
# 2 -0.004320 0.016827 0.001877 0.000000 0.000000 0.000000
# 3 -0.011337 0.001877 0.015817 0.000000 0.000000 0.000000
# 4 0.000000 0.000000 0.000000 0.032076 0.000000 0.000000
# 5 0.000000 0.000000 0.000000 0.000000 -0.068224 0.000000
# 6 0.000000 0.000000 0.000000 0.000000 0.000000 0.047340
#
#
# Mechanical properties :
#
#
# Convention : Reuss Voigt Hill
#
# Bulk Modulus (GPa) = 41.74046 50.44887 46.09466
# Shear Modulus (GPa) = 50.88689 19.66240 35.27465
#
# Velocity S-wave (km/s) = 4.88805 3.03844 4.06972
# Velocity P-wave (km/s) = 7.17328 5.99974 6.61259
#
# Compressibility (1/GPa) = 0.02395757
#
# Stress axis : x y z
#
# Youngs Moduli (GPa) = 52.98204 59.42841 63.22209
#
# Poissons Ratio (x) = 0.25673 0.71677
# Poissons Ratio (y) = 0.22888 -0.11865
# Poissons Ratio (z) = 0.60068 -0.11153
#
# Static dielectric constant tensor:
#      x y z
#    x 3.685060 0.000000 0.000000 
#    y 0.000000 4.045270 0.000000 
#    z 0.000000 0.000000 3.856650 
# 
# 
# High freq. dielectric constant tensor:
#      x y z
#    x 1.823090 0.000000 0.000000 
#    y 0.000000 1.851010 0.000000 
#    z 0.000000 0.000000 1.834430 
# 
# From -- ./inp_files/7122.got.cif
#   From: 2010.03.12/outbox.cif.g09.slc.cpg/sg45_4_cif.got.tgz:7122.got - 2010.04.14 02:50:11.
