data_PCOD8190086
_publ_section_title
;
Structure prediction by ZEFSAII (Michael W. Deem and Ramdas Pophale) SiO2 
 PCOD8190086
Probable space group: I M M 2
;
_chemical_formula_sum "Si O2"
_cell_formula_units_Z 48
_cell_length_a 16.474323
_cell_length_b 8.847230
_cell_length_c 16.888089
_cell_angle_alpha 90.000000
_cell_angle_beta 90.000000
_cell_angle_gamma 90.000000
_cell_volume 2461.474853
_symmetry_space_group_name_H-M "I M M 2"
_symmetry_group_IT_number 44
_symmetry_cell_setting 'orthorhombic'
loop_
_space_group_symop_operation_xyz
x,y,z
-x,-y,z
-x,y,z
x,-y,z
1/2+x,1/2+y,1/2+z
1/2-x,1/2-y,1/2+z
1/2-x,1/2+y,1/2+z
1/2+x,1/2-y,1/2+z
loop_
_atom_site_type_symbol
_atom_site_label
_atom_site_fract_x
_atom_site_fract_y
_atom_site_fract_z
Si Si1 0.405506 0.676082 0.569610
Si Si2 0.170589 0.324305 0.222043
Si Si3 0.500000 0.822736 0.980686
Si Si4 0.352722 0.325825 0.260635
Si Si5 0.173924 0.674980 0.920088
Si Si6 0.500000 0.675336 0.147495
Si Si7 0.140672 0.824581 0.383058
O O1 0.500000 0.715100 0.562988
O O2 0.390361 0.500000 0.584685
O O3 0.367312 0.769229 0.640816
O O4 0.362401 0.723737 0.489016
O O5 0.152152 0.500000 0.232851
O O6 0.266532 0.290679 0.220067
O O7 0.128627 0.237896 0.294668
O O8 0.419456 0.757387 0.941996
O O9 0.500000 0.000000 0.969403
O O10 0.500000 0.782119 0.072391
O O11 0.358796 0.500000 0.287338
O O12 0.367185 0.223152 0.337606
O O13 0.420678 0.283857 0.197493
O O14 0.155048 0.500000 0.936651
O O15 0.269568 0.707222 0.915402
O O16 0.500000 0.500000 0.121505
O O17 0.119437 0.000000 0.381429
#
# Coordination Sequence:
#
# PCOD8190086 Si02
#       7
#     8   8   4   8   8   4   8
#     4  11  25  41  60  87 122 163 203 245 301 361
#     4  10  21  39  63  91 121 156 201 250 299 356
#     4  12  26  40  60  93 124 157 202 254 298 347
#     4   9  20  39  63  89 121 160 198 239 297 362
#     4  10  22  40  64  91 120 156 200 250 302 353
#     4  10  22  40  62  89 124 163 198 240 294 361
#     4  10  22  42  65  88 120 162 200 243 305 367
#
# _framework density 19.500502999999998
#
# number of rings (size 3 to 8) (size 9 to 14) (size 15 to 20)
#    0.000    1.833    0.000    2.750    4.667    4.667 
#    0.000    0.000    0.000    0.000    0.000    0.000 
#    0.000    0.000    0.000    0.000    0.000    0.000 
#
# Total GULP energy -297745.542957 kJ/mol
# GULP energy per Si atom -12406.064290 kJ/mol
# Density = 1.945612 g / cm^3
# Si number density = 19.500503 Si / 1000 Ang^3
#
#
#
# Elastic Constant Matrix: (Units=GPa)
#
#
# Indices 1 2 3 4 5 6 
#
# 1 88.3858 52.5363 65.7799 0.0000 0.0000 0.0000
# 2 52.5363 99.0395 55.2106 0.0000 0.0000 0.0000
# 3 65.7799 55.2106 126.9721 0.0000 0.0000 0.0000
# 4 0.0000 0.0000 0.0000 5.7517 0.0000 0.0000
# 5 0.0000 0.0000 0.0000 0.0000 33.3013 0.0000
# 6 0.0000 0.0000 0.0000 0.0000 0.0000 31.3473
#
#
#
# Elastic Compliance Matrix: (Units=1/GPa)
#
#
# Indices 1 2 3 4 5 6 
#
# 1 0.021426 -0.006834 -0.008128 0.000000 0.000000 0.000000
# 2 -0.006834 0.015508 -0.003202 0.000000 0.000000 0.000000
# 3 -0.008128 -0.003202 0.013479 0.000000 0.000000 0.000000
# 4 0.000000 0.000000 0.000000 0.173861 0.000000 0.000000
# 5 0.000000 0.000000 0.000000 0.000000 0.030029 0.000000
# 6 0.000000 0.000000 0.000000 0.000000 0.000000 0.031901
#
#
# Mechanical properties :
#
#
# Convention : Reuss Voigt Hill
#
# Bulk Modulus (GPa) = 71.00997 73.49456 72.25226
# Shear Modulus (GPa) = 15.27992 23.47143 19.37568
#
# Velocity S-wave (km/s) = 2.80226 3.47310 3.15556
# Velocity P-wave (km/s) = 6.85301 7.33850 7.09991
#
# Compressibility (1/GPa) = 0.01408253
#
# Stress axis : x y z
#
# Youngs Moduli (GPa) = 46.67316 64.48491 74.18846
#
# Poissons Ratio (x) = 0.44071 0.60302
# Poissons Ratio (y) = 0.31898 0.23758
# Poissons Ratio (z) = 0.37937 0.20651
#
# Static dielectric constant tensor:
#      x y z
#    x 3.587670 0.000000 0.000000 
#    y 0.000000 4.051710 0.000000 
#    z 0.000000 0.000000 3.583400 
# 
# 
# High freq. dielectric constant tensor:
#      x y z
#    x 1.767750 0.000000 0.000000 
#    y 0.000000 1.769020 0.000000 
#    z 0.000000 0.000000 1.768000 
# 
# From -- ./inp_files/18833.got.cif
#   From: 2010.03.12/outbox.cif.g09.slc.cpg/sg44_10_cif.got.tgz:18833.got - 2010.04.14 02:36:11.
