data_PCOD8190267
_publ_section_title
;
Structure prediction by ZEFSAII (Michael W. Deem and Ramdas Pophale) SiO2 
 PCOD8190267
Probable space group: I M M 2
;
_chemical_formula_sum "Si O2"
_cell_formula_units_Z 48
_cell_length_a 8.376751
_cell_length_b 28.385950
_cell_length_c 10.336185
_cell_angle_alpha 90.000000
_cell_angle_beta 90.000000
_cell_angle_gamma 90.000000
_cell_volume 2457.759104
_symmetry_space_group_name_H-M "I M M 2"
_symmetry_group_IT_number 44
_symmetry_cell_setting 'orthorhombic'
loop_
_space_group_symop_operation_xyz
x,y,z
-x,-y,z
-x,y,z
x,-y,z
1/2+x,1/2+y,1/2+z
1/2-x,1/2-y,1/2+z
1/2-x,1/2+y,1/2+z
1/2+x,1/2-y,1/2+z
loop_
_atom_site_type_symbol
_atom_site_label
_atom_site_fract_x
_atom_site_fract_y
_atom_site_fract_z
Si Si1 0.685663 0.698146 0.876310
Si Si2 0.184192 0.351541 0.632199
Si Si3 0.815338 0.552543 0.510572
Si Si4 0.813398 0.050907 0.732826
Si Si5 0.314172 0.300733 0.384490
Si Si6 0.810161 0.146308 0.630057
O O1 0.500000 0.710690 0.894207
O O2 0.706769 0.668224 0.746357
O O3 0.788399 0.745218 0.872670
O O4 0.753264 0.667840 0.996564
O O5 0.228181 0.406931 0.614137
O O6 0.214675 0.322375 0.501931
O O7 0.000000 0.345293 0.670737
O O8 0.777542 0.500000 0.566715
O O9 0.712992 0.562624 0.383127
O O10 0.000000 0.556614 0.471094
O O11 0.741548 0.092965 0.645198
O O12 0.000000 0.047918 0.708372
O O13 0.734571 0.000000 0.697320
O O14 0.500000 0.311637 0.406889
O O15 0.249544 0.322959 0.251078
O O16 0.000000 0.145472 0.630510
#
# Coordination Sequence:
#
# PCOD8190267 Si02
#       6
#     8   8   8   8   8   8
#     4  11  23  38  55  78 113 151 186 228 277 331
#     4  11  22  37  56  82 114 148 187 230 276 331
#     4   9  18  33  54  80 109 141 180 228 276 323
#     4   9  16  30  55  82 105 133 174 223 276 331
#     4  11  21  37  60  83 108 141 186 234 280 334
#     4   9  19  35  54  79 109 138 173 223 277 324
#
# _framework density 19.529985
#
# number of rings (size 3 to 8) (size 9 to 14) (size 15 to 20)
#    0.000    2.000    1.667    2.500    0.000    2.000 
#    0.000    5.000    0.000    1.000    0.000    0.000 
#    0.000    0.000    0.000    0.000    0.000    0.000 
#
# Total GULP energy -297564.166354 kJ/mol
# GULP energy per Si atom -12398.506931 kJ/mol
# Density = 1.948553 g / cm^3
# Si number density = 19.529985 Si / 1000 Ang^3
#
#
#
# Elastic Constant Matrix: (Units=GPa)
#
#
# Indices 1 2 3 4 5 6 
#
# 1 25.7523 9.2938 3.0085 0.0011 0.0004 0.0002
# 2 9.2938 162.3962 61.8844 0.0023 0.0001 0.0001
# 3 3.0085 61.8844 114.4449 -0.0006 -0.0022 -0.0006
# 4 0.0011 0.0023 -0.0006 5.5147 -0.0012 -0.0005
# 5 0.0004 0.0001 -0.0022 -0.0012 18.6712 0.0003
# 6 0.0002 0.0001 -0.0006 -0.0005 0.0003 22.6545
#
#
#
# Elastic Compliance Matrix: (Units=1/GPa)
#
#
# Indices 1 2 3 4 5 6 
#
# 1 0.039655 -0.002358 0.000233 -0.000007 -0.000001 0.000000
# 2 -0.002358 0.007896 -0.004208 -0.000003 0.000000 0.000000
# 3 0.000233 -0.004208 0.011007 0.000003 0.000001 0.000000
# 4 -0.000007 -0.000003 0.000003 0.181333 0.000012 0.000004
# 5 -0.000001 0.000000 0.000001 0.000012 0.053558 -0.000001
# 6 0.000000 0.000000 0.000000 0.000004 -0.000001 0.044141
#
#
# Mechanical properties :
#
#
# Convention : Reuss Voigt Hill
#
# Bulk Modulus (GPa) = 21.79028 50.10743 35.94886
# Shear Modulus (GPa) = 13.67782 24.59519 19.13651
#
# Velocity S-wave (km/s) = 2.64928 3.55259 3.13366
# Velocity P-wave (km/s) = 4.53209 6.52229 5.61605
#
# Compressibility (1/GPa) = 0.04589203
#
# Stress axis : x y z
#
# Youngs Moduli (GPa) = 25.21733 126.64341 90.85128
#
# Poissons Ratio (x) = 0.29864 -0.02114
# Poissons Ratio (y) = 0.05947 0.38228
# Poissons Ratio (z) = -0.00587 0.53288
#
# Static dielectric constant tensor:
#      x y z
#    x 3.294870 0.000000 0.000000 
#    y 0.000000 4.117880 0.000000 
#    z 0.000000 0.000000 3.457990 
# 
# 
# High freq. dielectric constant tensor:
#      x y z
#    x 1.742740 0.000000 0.000000 
#    y 0.000000 1.783710 0.000000 
#    z 0.000000 0.000000 1.737930 
# 
# From -- ./inp_files/4904.got.cif
#   From: 2010.03.12/outbox.cif.g09.slc.cpg/sg44_3_cif.got.tgz:4904.got - 2010.04.14 02:36:11.
