data_PCOD8190848
_publ_section_title
;
Structure prediction by ZEFSAII (Michael W. Deem and Ramdas Pophale) SiO2 
 PCOD8190848
Probable space group: I B A 2
;
_chemical_formula_sum "Si O2"
_cell_formula_units_Z 60
_cell_length_a 17.952571
_cell_length_b 17.970828
_cell_length_c 9.358309
_cell_angle_alpha 90.000000
_cell_angle_beta 90.000000
_cell_angle_gamma 90.000000
_cell_volume 3019.201659
_symmetry_space_group_name_H-M "I B A 2"
_symmetry_group_IT_number 45
_symmetry_cell_setting 'orthorhombic'
loop_
_space_group_symop_operation_xyz
x,y,z
-x,-y,z
-x,y,1/2+z
x,-y,1/2+z
1/2+x,1/2+y,1/2+z
1/2-x,1/2-y,1/2+z
1/2-x,1/2+y,z
1/2+x,1/2-y,z
loop_
_atom_site_type_symbol
_atom_site_label
_atom_site_fract_x
_atom_site_fract_y
_atom_site_fract_z
Si Si1 0.477966 0.741565 0.133390
Si Si2 0.560237 0.404290 0.591975
Si Si3 0.472577 0.840652 0.869373
Si Si4 0.714680 0.667411 0.022830
Si Si5 0.846565 0.561628 0.986673
Si Si6 0.183689 0.269157 0.255399
Si Si7 0.380404 0.921513 0.307444
Si Si8 0.000000 0.000000 0.838097
O O1 0.494347 0.655047 0.111609
O O2 0.534027 0.782448 0.241062
O O3 0.392140 0.746412 0.177009
O O4 0.497106 0.787224 0.994515
O O5 0.637462 0.360548 0.588092
O O6 0.548244 0.446782 0.441614
O O7 0.557398 0.457181 0.732108
O O8 0.534202 0.904836 0.847307
O O9 0.394229 0.880125 0.894358
O O10 0.763680 0.593844 0.996873
O O11 0.752014 0.724007 0.136031
O O12 0.705118 0.708833 0.872630
O O13 0.881359 0.551282 0.143527
O O14 0.844579 0.482626 0.909926
O O15 0.171176 0.349156 0.329129
#
# Coordination Sequence:
#
# PCOD8190848 Si02
#       8
#     8   8   8   8   8   8   8   4
#     4  11  22  40  66  93 126 164 221 263 316 377
#     4  11  23  41  69  94 125 170 212 270 326 379
#     4  11  20  38  61  91 124 163 212 265 298 380
#     4  11  24  42  65  93 130 166 216 264 331 376
#     4  11  24  40  58  93 129 167 209 260 313 388
#     4  10  23  44  59  97 128 165 219 268 309 395
#     4  10  23  40  59  86 129 166 214 251 315 374
#     4  10  24  44  64  96 126 160 226 268 318 386
#
# _framework density 19.872803000000001
#
# number of rings (size 3 to 8) (size 9 to 14) (size 15 to 20)
#    0.000    1.333    4.000    3.600    3.733    5.333 
#    0.000    1.333    0.000    0.000    0.000    0.000 
#    0.000    0.000    0.000    0.000    0.000    0.000 
#
# Total GULP energy -372013.696561 kJ/mol
# GULP energy per Si atom -12400.456552 kJ/mol
# Density = 1.982757 g / cm^3
# Si number density = 19.872803 Si / 1000 Ang^3
#
#
#
# Elastic Constant Matrix: (Units=GPa)
#
#
# Indices 1 2 3 4 5 6 
#
# 1 97.1651 38.8838 55.9866 0.0000 0.0000 0.0000
# 2 38.8838 118.8170 65.5494 0.0000 0.0000 0.0000
# 3 55.9866 65.5494 143.7305 0.0000 0.0000 0.0000
# 4 0.0000 0.0000 0.0000 46.2155 0.0000 0.0000
# 5 0.0000 0.0000 0.0000 0.0000 21.7207 0.0000
# 6 0.0000 0.0000 0.0000 0.0000 0.0000 19.6185
#
#
#
# Elastic Compliance Matrix: (Units=1/GPa)
#
#
# Indices 1 2 3 4 5 6 
#
# 1 0.013633 -0.002047 -0.004377 0.000000 0.000000 0.000000
# 2 -0.002047 0.011553 -0.004472 0.000000 0.000000 0.000000
# 3 -0.004377 -0.004472 0.010702 0.000000 0.000000 0.000000
# 4 0.000000 0.000000 0.000000 0.021638 0.000000 0.000000
# 5 0.000000 0.000000 0.000000 0.000000 0.046039 0.000000
# 6 0.000000 0.000000 0.000000 0.000000 0.000000 0.050972
#
#
# Mechanical properties :
#
#
# Convention : Reuss Voigt Hill
#
# Bulk Modulus (GPa) = 70.93690 75.61691 73.27690
# Shear Modulus (GPa) = 27.62034 30.79714 29.20874
#
# Velocity S-wave (km/s) = 3.73212 3.94091 3.83794
# Velocity P-wave (km/s) = 7.37188 7.67077 7.52281
#
# Compressibility (1/GPa) = 0.01409704
#
# Stress axis : x y z
#
# Youngs Moduli (GPa) = 73.35248 86.55741 93.44355
#
# Poissons Ratio (x) = 0.17717 0.40899
# Poissons Ratio (y) = 0.15014 0.41784
# Poissons Ratio (z) = 0.32105 0.38705
#
# Static dielectric constant tensor:
#      x y z
#    x 3.488170 0.000000 0.000000 
#    y 0.000000 3.741580 0.000000 
#    z 0.000000 0.000000 3.785460 
# 
# 
# High freq. dielectric constant tensor:
#      x y z
#    x 1.765160 0.000000 0.000000 
#    y 0.000000 1.782360 0.000000 
#    z 0.000000 0.000000 1.791170 
# 
# From -- ./inp_files/2141.got.cif
#   From: 2010.03.12/outbox.cif.g09.slc.cpg/sg45_2_cif.got.tgz:2141.got - 2010.04.14 02:50:11.
