data_PCOD8190164
_publ_section_title
;
Structure prediction by ZEFSAII (Michael W. Deem and Ramdas Pophale) SiO2 
 PCOD8190164
Probable space group: I M M 2
;
_chemical_formula_sum "Si O2"
_cell_formula_units_Z 40
_cell_length_a 7.617287
_cell_length_b 9.053830
_cell_length_c 29.465543
_cell_angle_alpha 90.000000
_cell_angle_beta 90.000000
_cell_angle_gamma 90.000000
_cell_volume 2032.109488
_symmetry_space_group_name_H-M "I M M 2"
_symmetry_group_IT_number 44
_symmetry_cell_setting 'orthorhombic'
loop_
_space_group_symop_operation_xyz
x,y,z
-x,-y,z
-x,y,z
x,-y,z
1/2+x,1/2+y,1/2+z
1/2-x,1/2-y,1/2+z
1/2-x,1/2+y,1/2+z
1/2+x,1/2-y,1/2+z
loop_
_atom_site_type_symbol
_atom_site_label
_atom_site_fract_x
_atom_site_fract_y
_atom_site_fract_z
Si Si1 0.500000 0.828836 0.073830
Si Si2 0.198626 0.837881 0.216811
Si Si3 0.794563 0.326223 0.911931
Si Si4 0.000000 0.329980 0.467075
Si Si5 0.793578 0.672425 0.129440
Si Si6 0.804756 0.675247 0.812563
O O1 0.678401 0.754382 0.091791
O O2 0.500000 0.000000 0.087917
O O3 0.500000 0.806735 0.020395
O O4 0.275941 0.728877 0.178731
O O5 0.205922 0.766527 0.267510
O O6 0.000000 0.862487 0.203355
O O7 0.293507 0.000000 0.215601
O O8 0.764710 0.500000 0.918054
O O9 0.677554 0.242591 0.948344
O O10 0.729528 0.273367 0.861444
O O11 0.000000 0.287260 0.918967
O O12 0.000000 0.500000 0.453073
O O13 0.753952 0.500000 0.126952
O O14 0.000000 0.704935 0.120820
O O15 0.799804 0.500000 0.813154
O O16 0.000000 0.736440 0.807959
#
# Coordination Sequence:
#
# PCOD8190164 Si02
#       6
#     4   8   8   4   8   8
#     4  11  25  43  63  85 111 149 201 249 292 349
#     4   9  17  29  50  81 113 150 194 232 275 333
#     4   9  19  37  61  87 117 153 195 242 287 339
#     4  11  25  41  59  87 117 151 193 243 304 355
#     4  10  22  40  60  85 120 153 186 237 297 354
#     4   8  15  28  49  80 112 145 191 237 274 321
#
# _framework density 19.683979000000001
#
# number of rings (size 3 to 8) (size 9 to 14) (size 15 to 20)
#    0.000    2.600    0.000    2.400    2.800    4.000 
#    0.000    5.000    0.000    1.200    0.000    0.000 
#    0.000    0.000    0.000    0.000    0.000    0.000 
#
# Total GULP energy -247796.291562 kJ/mol
# GULP energy per Si atom -12389.814578 kJ/mol
# Density = 1.963918 g / cm^3
# Si number density = 19.683979 Si / 1000 Ang^3
#
#
#
# Elastic Constant Matrix: (Units=GPa)
#
#
# Indices 1 2 3 4 5 6 
#
# 1 89.0451 55.2556 58.0570 0.0000 0.0000 0.0000
# 2 55.2556 97.8257 69.6818 0.0000 0.0000 0.0000
# 3 58.0570 69.6818 128.4978 0.0000 0.0000 0.0000
# 4 0.0000 0.0000 0.0000 29.1851 0.0000 0.0000
# 5 0.0000 0.0000 0.0000 0.0000 34.7880 0.0000
# 6 0.0000 0.0000 0.0000 0.0000 0.0000 21.4257
#
#
#
# Elastic Compliance Matrix: (Units=1/GPa)
#
#
# Indices 1 2 3 4 5 6 
#
# 1 0.018726 -0.007415 -0.004440 0.000000 0.000000 0.000000
# 2 -0.007415 0.019592 -0.007274 0.000000 0.000000 0.000000
# 3 -0.004440 -0.007274 0.013733 0.000000 0.000000 0.000000
# 4 0.000000 0.000000 0.000000 0.034264 0.000000 0.000000
# 5 0.000000 0.000000 0.000000 0.000000 0.028746 0.000000
# 6 0.000000 0.000000 0.000000 0.000000 0.000000 0.046673
#
#
# Mechanical properties :
#
#
# Convention : Reuss Voigt Hill
#
# Bulk Modulus (GPa) = 72.49894 75.70639 74.10266
# Shear Modulus (GPa) = 24.43932 25.90472 25.17202
#
# Velocity S-wave (km/s) = 3.52743 3.63165 3.57992
# Velocity P-wave (km/s) = 7.31449 7.49197 7.40376
#
# Compressibility (1/GPa) = 0.01379331
#
# Stress axis : x y z
#
# Youngs Moduli (GPa) = 53.40144 51.04180 72.81794
#
# Poissons Ratio (x) = 0.37846 0.32330
# Poissons Ratio (y) = 0.39595 0.52969
# Poissons Ratio (z) = 0.23710 0.37129
#
# Static dielectric constant tensor:
#      x y z
#    x 3.543260 0.000000 0.000000 
#    y 0.000000 3.445170 0.000000 
#    z 0.000000 0.000000 3.792540 
# 
# 
# High freq. dielectric constant tensor:
#      x y z
#    x 1.764900 0.000000 0.000000 
#    y 0.000000 1.736730 0.000000 
#    z 0.000000 0.000000 1.776550 
# 
# From -- ./inp_files/25955.got.cif
#   From: 2010.03.12/outbox.cif.g09.slc.cpg/sg44_13_cif.got.tgz:25955.got - 2010.04.14 02:36:11.
