data_PCOD8190175
_publ_section_title
;
Structure prediction by ZEFSAII (Michael W. Deem and Ramdas Pophale) SiO2 
 PCOD8190175
Probable space group: I M M 2
;
_chemical_formula_sum "Si O2"
_cell_formula_units_Z 64
_cell_length_a 8.629929
_cell_length_b 30.835260
_cell_length_c 11.967013
_cell_angle_alpha 90.000000
_cell_angle_beta 90.000000
_cell_angle_gamma 90.000000
_cell_volume 3184.495212
_symmetry_space_group_name_H-M "I M M 2"
_symmetry_group_IT_number 44
_symmetry_cell_setting 'orthorhombic'
loop_
_space_group_symop_operation_xyz
x,y,z
-x,-y,z
-x,y,z
x,-y,z
1/2+x,1/2+y,1/2+z
1/2-x,1/2-y,1/2+z
1/2-x,1/2+y,1/2+z
1/2+x,1/2-y,1/2+z
loop_
_atom_site_type_symbol
_atom_site_label
_atom_site_fract_x
_atom_site_fract_y
_atom_site_fract_z
Si Si1 0.180839 0.297072 0.554600
Si Si2 0.319132 0.329868 0.337693
Si Si3 0.181785 0.198885 0.594915
Si Si4 0.683857 0.952053 0.589824
Si Si5 0.681770 0.373320 0.698345
Si Si6 0.677840 0.452276 0.546010
Si Si7 0.182466 0.373077 0.942645
Si Si8 0.319054 0.078613 0.832628
O O1 0.222185 0.301340 0.424557
O O2 0.230270 0.248874 0.588927
O O3 0.277669 0.330565 0.628661
O O4 0.000000 0.305702 0.574706
O O5 0.500000 0.320001 0.354001
O O6 0.260629 0.318126 0.214373
O O7 0.284412 0.379774 0.359967
O O8 0.263363 0.171525 0.498403
O O9 0.000000 0.192680 0.579072
O O10 0.500000 0.952098 0.583228
O O11 0.753005 0.915203 0.507317
O O12 0.736272 0.942296 0.716470
O O13 0.747228 0.000000 0.556238
O O14 0.500000 0.374464 0.720995
O O15 0.738563 0.416064 0.632238
O O16 0.768339 0.373318 0.815172
O O17 0.500000 0.442511 0.513458
O O18 0.693914 0.500000 0.601692
O O19 0.782712 0.453517 0.434490
O O20 0.000000 0.374948 0.950504
O O21 0.500000 0.090813 0.828802
#
# Coordination Sequence:
#
# PCOD8190175 Si02
#       8
#     8   8   8   8   8   8   8   8
#     4  11  24  42  64  93 122 157 204 251 300 361
#     4  11  22  39  63  91 125 162 197 247 305 360
#     4  10  24  43  63  90 125 160 199 248 303 362
#     4   9  19  36  58  88 123 156 195 246 302 353
#     4  11  24  42  62  87 122 163 201 248 307 360
#     4  10  22  40  61  87 121 160 202 249 303 363
#     4  11  23  40  63  89 120 160 206 253 299 354
#     4  11  20  35  61  92 124 159 199 248 299 357
#
# _framework density 20.097376000000001
#
# number of rings (size 3 to 8) (size 9 to 14) (size 15 to 20)
#    0.000    1.500    2.500    2.250    1.750    3.250 
#    0.000    0.000    0.000    3.375    0.000    0.000 
#    0.000    0.000    0.000    0.000    0.000    0.000 
#
# Total GULP energy -396899.410881 kJ/mol
# GULP energy per Si atom -12403.106590 kJ/mol
# Density = 2.005163 g / cm^3
# Si number density = 20.097376 Si / 1000 Ang^3
#
#
#
# Elastic Constant Matrix: (Units=GPa)
#
#
# Indices 1 2 3 4 5 6 
#
# 1 26.9931 33.8532 16.2765 -0.0019 -0.0002 0.0003
# 2 33.8532 134.7784 56.8924 -0.0004 -0.0003 0.0001
# 3 16.2765 56.8924 126.6125 -0.0030 -0.0013 0.0007
# 4 -0.0019 -0.0004 -0.0030 22.9475 -0.0012 0.0010
# 5 -0.0002 -0.0003 -0.0013 -0.0012 33.6479 -0.0002
# 6 0.0003 0.0001 0.0007 0.0010 -0.0002 23.4925
#
#
#
# Elastic Compliance Matrix: (Units=1/GPa)
#
#
# Indices 1 2 3 4 5 6 
#
# 1 0.054196 -0.013170 -0.001049 0.000004 0.000000 -0.000001
# 2 -0.013170 0.012357 -0.003859 -0.000001 0.000000 0.000000
# 3 -0.001049 -0.003859 0.009767 0.000001 0.000000 0.000000
# 4 0.000004 -0.000001 0.000001 0.043578 0.000002 -0.000002
# 5 0.000000 0.000000 0.000000 0.000002 0.029720 0.000000
# 6 -0.000001 0.000000 0.000000 -0.000002 0.000000 0.042567
#
#
# Mechanical properties :
#
#
# Convention : Reuss Voigt Hill
#
# Bulk Modulus (GPa) = 24.89858 55.82536 40.36197
# Shear Modulus (GPa) = 20.68433 28.10838 24.39636
#
# Velocity S-wave (km/s) = 3.21160 3.74386 3.48790
# Velocity P-wave (km/s) = 5.11551 6.82102 6.02888
#
# Compressibility (1/GPa) = 0.04016294
#
# Stress axis : x y z
#
# Youngs Moduli (GPa) = 18.45146 80.92804 102.38382
#
# Poissons Ratio (x) = 1.06581 0.10743
# Poissons Ratio (y) = 0.24300 0.39513
# Poissons Ratio (z) = 0.01936 0.31233
#
# Static dielectric constant tensor:
#      x y z
#    x 3.474410 0.000000 0.000000 
#    y 0.000000 3.860980 0.000000 
#    z 0.000000 0.000000 3.737090 
# 
# 
# High freq. dielectric constant tensor:
#      x y z
#    x 1.772800 0.000000 0.000000 
#    y 0.000000 1.797770 0.000000 
#    z 0.000000 0.000000 1.788390 
# 
# From -- ./inp_files/11574.got.cif
#   From: 2010.03.12/outbox.cif.g09.slc.cpg/sg44_6_cif.got.tgz:11574.got - 2010.04.14 02:36:11.
