data_PCOD8190284
_publ_section_title
;
Structure prediction by ZEFSAII (Michael W. Deem and Ramdas Pophale) SiO2 
 PCOD8190284
Probable space group: I M M 2
;
_chemical_formula_sum "Si O2"
_cell_formula_units_Z 48
_cell_length_a 8.665547
_cell_length_b 17.997720
_cell_length_c 14.859819
_cell_angle_alpha 90.000000
_cell_angle_beta 90.000000
_cell_angle_gamma 90.000000
_cell_volume 2317.538687
_symmetry_space_group_name_H-M "I M M 2"
_symmetry_group_IT_number 44
_symmetry_cell_setting 'orthorhombic'
loop_
_space_group_symop_operation_xyz
x,y,z
-x,-y,z
-x,y,z
x,-y,z
1/2+x,1/2+y,1/2+z
1/2-x,1/2-y,1/2+z
1/2-x,1/2+y,1/2+z
1/2+x,1/2-y,1/2+z
loop_
_atom_site_type_symbol
_atom_site_label
_atom_site_fract_x
_atom_site_fract_y
_atom_site_fract_z
Si Si1 0.325429 0.269173 0.245930
Si Si2 0.817672 0.344847 0.082350
Si Si3 0.680741 0.769903 0.938257
Si Si4 0.176057 0.000000 0.315243
Si Si5 0.826564 0.393723 0.686636
Si Si6 0.677137 0.500000 0.026899
Si Si7 0.822751 0.082400 0.003578
O O1 0.500000 0.296183 0.265869
O O2 0.238645 0.328634 0.183895
O O3 0.238724 0.252725 0.338517
O O4 0.325935 0.194530 0.188010
O O5 0.761273 0.427282 0.062514
O O6 0.000000 0.341494 0.079244
O O7 0.756780 0.285334 0.010022
O O8 0.500000 0.755806 0.943636
O O9 0.715640 0.856431 0.956932
O O10 0.261747 0.073540 0.279617
O O11 0.189677 0.000000 0.420798
O O12 0.000000 0.000000 0.282932
O O13 0.715754 0.422656 0.608621
O O14 0.000000 0.422839 0.670063
O O15 0.500000 0.500000 0.059207
O O16 0.000000 0.106377 0.991197
O O17 0.794492 0.000000 0.961359
#
# Coordination Sequence:
#
# PCOD8190284 Si02
#       7
#     8   8   8   4   8   4   8
#     4  11  24  43  67  96 128 170 221 271 329 389
#     4  12  25  44  70  98 133 174 220 273 331 394
#     4  12  25  43  68  98 132 173 221 272 328 390
#     4  11  23  37  59  92 129 168 211 263 325 388
#     4  11  22  36  61  92 127 165 208 262 323 385
#     4  11  25  45  67  94 131 172 219 273 329 388
#     4  11  23  40  64  93 129 169 212 263 325 386
#
# _framework density 20.711627
#
# number of rings (size 3 to 8) (size 9 to 14) (size 15 to 20)
#    0.000    0.667    2.500    6.000    0.000    7.000 
#    1.500    0.000    0.000    0.000    0.000    0.000 
#    0.000    0.000    0.000    0.000    0.000    0.000 
#
# Total GULP energy -297672.134442 kJ/mol
# GULP energy per Si atom -12403.005602 kJ/mol
# Density = 2.066449 g / cm^3
# Si number density = 20.711627 Si / 1000 Ang^3
#
#
#
# Elastic Constant Matrix: (Units=GPa)
#
#
# Indices 1 2 3 4 5 6 
#
# 1 150.7263 47.5398 31.9713 0.0001 0.0000 0.0000
# 2 47.5398 116.9518 26.2213 0.0000 0.0000 0.0000
# 3 31.9713 26.2213 74.0613 -0.0001 0.0000 0.0000
# 4 0.0001 0.0000 -0.0001 30.8946 0.0000 0.0000
# 5 0.0000 0.0000 0.0000 0.0000 36.6623 0.0000
# 6 0.0000 0.0000 0.0000 0.0000 0.0000 36.3221
#
#
#
# Elastic Compliance Matrix: (Units=1/GPa)
#
#
# Indices 1 2 3 4 5 6 
#
# 1 0.008017 -0.002697 -0.002506 0.000000 0.000000 0.000000
# 2 -0.002697 0.010195 -0.002445 0.000000 0.000000 0.000000
# 3 -0.002506 -0.002445 0.015450 0.000000 0.000000 0.000000
# 4 0.000000 0.000000 0.000000 0.032368 0.000000 0.000000
# 5 0.000000 0.000000 0.000000 0.000000 0.027276 0.000000
# 6 0.000000 0.000000 0.000000 0.000000 0.000000 0.027531
#
#
# Mechanical properties :
#
#
# Convention : Reuss Voigt Hill
#
# Bulk Modulus (GPa) = 54.45018 61.46712 57.95865
# Shear Modulus (GPa) = 35.14814 36.50961 35.82887
#
# Velocity S-wave (km/s) = 4.12396 4.20308 4.16371
# Velocity P-wave (km/s) = 7.00163 7.30045 7.15260
#
# Compressibility (1/GPa) = 0.01836541
#
# Stress axis : x y z
#
# Youngs Moduli (GPa) = 124.73986 98.08690 64.72551
#
# Poissons Ratio (x) = 0.26453 0.16219
# Poissons Ratio (y) = 0.33641 0.15828
# Poissons Ratio (z) = 0.31258 0.23986
#
# Static dielectric constant tensor:
#      x y z
#    x 3.961020 0.000000 0.000000 
#    y 0.000000 4.211950 0.000000 
#    z 0.000000 0.000000 3.664380 
# 
# 
# High freq. dielectric constant tensor:
#      x y z
#    x 1.827700 0.000000 0.000000 
#    y 0.000000 1.821720 0.000000 
#    z 0.000000 0.000000 1.804460 
# 
# From -- ./inp_files/16190.got.cif
#   From: 2010.03.12/outbox.cif.g09.slc.cpg/sg44_9_cif.got.tgz:16190.got - 2010.04.14 02:36:11.
