data_PCOD8190097
_publ_section_title
;
Structure prediction by ZEFSAII (Michael W. Deem and Ramdas Pophale) SiO2 
 PCOD8190097
Probable space group: I M M 2
;
_chemical_formula_sum "Si O2"
_cell_formula_units_Z 64
_cell_length_a 19.177621
_cell_length_b 14.328986
_cell_length_c 11.586432
_cell_angle_alpha 90.000000
_cell_angle_beta 90.000000
_cell_angle_gamma 90.000000
_cell_volume 3183.903578
_symmetry_space_group_name_H-M "I M M 2"
_symmetry_group_IT_number 44
_symmetry_cell_setting 'orthorhombic'
loop_
_space_group_symop_operation_xyz
x,y,z
-x,-y,z
-x,y,z
x,-y,z
1/2+x,1/2+y,1/2+z
1/2-x,1/2-y,1/2+z
1/2-x,1/2+y,1/2+z
1/2+x,1/2-y,1/2+z
loop_
_atom_site_type_symbol
_atom_site_label
_atom_site_fract_x
_atom_site_fract_y
_atom_site_fract_z
Si Si1 0.580764 0.607701 0.362720
Si Si2 0.286428 0.606228 0.725500
Si Si3 0.370080 0.898750 0.142953
Si Si4 0.651649 0.736679 0.547291
Si Si5 0.079728 0.397514 0.161111
Si Si6 0.078694 0.207762 0.629455
Si Si7 0.165613 0.398730 0.388483
Si Si8 0.208174 0.208685 0.456930
O O1 0.500000 0.623411 0.396363
O O2 0.602375 0.500000 0.381976
O O3 0.629282 0.675004 0.438288
O O4 0.593056 0.632066 0.228422
O O5 0.309684 0.500000 0.709325
O O6 0.210148 0.623131 0.672590
O O7 0.341886 0.669227 0.657559
O O8 0.289174 0.629143 0.860757
O O9 0.416118 0.811898 0.187470
O O10 0.392727 0.000000 0.196084
O O11 0.380149 0.902501 0.005014
O O12 0.594763 0.816745 0.568871
O O13 0.722846 0.796744 0.534154
O O14 0.100499 0.500000 0.111204
O O15 0.117548 0.377509 0.280706
O O16 0.000000 0.394646 0.193640
O O17 0.136800 0.196197 0.529618
O O18 0.000000 0.194362 0.579654
O O19 0.204490 0.500000 0.374945
O O20 0.217327 0.311157 0.397716
#
# Coordination Sequence:
#
# PCOD8190097 Si02
#       8
#     8   8   8   8   8   8   8   8
#     4  10  23  42  63  87 115 157 212 257 296 353
#     4  11  22  38  58  88 125 160 197 252 306 354
#     4   9  18  35  57  85 122 156 194 242 298 360
#     4  12  22  38  66  87 123 161 200 251 308 361
#     4  10  22  39  60  91 127 160 198 247 306 366
#     4  10  21  40  63  87 120 159 202 253 304 358
#     4   9  17  32  55  82 116 156 194 237 287 347
#     4  11  23  38  59  91 124 157 204 248 303 366
#
# _framework density 20.101111
#
# number of rings (size 3 to 8) (size 9 to 14) (size 15 to 20)
#    0.000    1.750    3.750    1.500    0.000    3.750 
#    0.000    4.375    0.000    2.250    0.000    0.000 
#    0.000    0.000    0.000    0.000    0.000    0.000 
#
# Total GULP energy -396586.539537 kJ/mol
# GULP energy per Si atom -12393.329361 kJ/mol
# Density = 2.005536 g / cm^3
# Si number density = 20.101111 Si / 1000 Ang^3
#
#
#
# Elastic Constant Matrix: (Units=GPa)
#
#
# Indices 1 2 3 4 5 6 
#
# 1 63.8518 20.5744 32.1250 0.0000 0.0000 0.0000
# 2 20.5744 84.1339 40.4977 0.0000 0.0000 0.0000
# 3 32.1250 40.4977 79.2277 0.0000 0.0000 0.0000
# 4 0.0000 0.0000 0.0000 33.6565 0.0000 0.0000
# 5 0.0000 0.0000 0.0000 0.0000 23.3206 0.0000
# 6 0.0000 0.0000 0.0000 0.0000 0.0000 25.3489
#
#
#
# Elastic Compliance Matrix: (Units=1/GPa)
#
#
# Indices 1 2 3 4 5 6 
#
# 1 0.019781 -0.001295 -0.007359 0.000000 0.000000 0.000000
# 2 -0.001295 0.015849 -0.007576 0.000000 0.000000 0.000000
# 3 -0.007359 -0.007576 0.019478 0.000000 0.000000 0.000000
# 4 0.000000 0.000000 0.000000 0.029712 0.000000 0.000000
# 5 0.000000 0.000000 0.000000 0.000000 0.042881 0.000000
# 6 0.000000 0.000000 0.000000 0.000000 0.000000 0.039449
#
#
# Mechanical properties :
#
#
# Convention : Reuss Voigt Hill
#
# Bulk Modulus (GPa) = 44.15360 45.95638 45.05499
# Shear Modulus (GPa) = 24.13589 25.39961 24.76775
#
# Velocity S-wave (km/s) = 3.46891 3.55856 3.51402
# Velocity P-wave (km/s) = 6.16910 6.30846 6.23917
#
# Compressibility (1/GPa) = 0.02264821
#
# Stress axis : x y z
#
# Youngs Moduli (GPa) = 50.55387 63.09384 51.33920
#
# Poissons Ratio (x) = 0.08172 0.37779
# Poissons Ratio (y) = 0.06548 0.38896
# Poissons Ratio (z) = 0.37201 0.47802
#
# Static dielectric constant tensor:
#      x y z
#    x 3.464300 0.000000 0.000000 
#    y 0.000000 4.067170 0.000000 
#    z 0.000000 0.000000 3.457370 
# 
# 
# High freq. dielectric constant tensor:
#      x y z
#    x 1.765610 0.000000 0.000000 
#    y 0.000000 1.801570 0.000000 
#    z 0.000000 0.000000 1.770490 
# 
# From -- ./inp_files/14011.got.cif
#   From: 2010.03.12/outbox.cif.g09.slc.cpg/sg44_8_cif.got.tgz:14011.got - 2010.04.14 02:36:11.
