data_PCOD8190694
_publ_section_title
;
Structure prediction by ZEFSAII (Michael W. Deem and Ramdas Pophale) SiO2 
 PCOD8190694
Probable space group: I B A 2
;
_chemical_formula_sum "Si O2"
_cell_formula_units_Z 52
_cell_length_a 9.062715
_cell_length_b 22.915687
_cell_length_c 13.735864
_cell_angle_alpha 90.000000
_cell_angle_beta 90.000000
_cell_angle_gamma 90.000000
_cell_volume 2852.641438
_symmetry_space_group_name_H-M "I B A 2"
_symmetry_group_IT_number 45
_symmetry_cell_setting 'orthorhombic'
loop_
_space_group_symop_operation_xyz
x,y,z
-x,-y,z
-x,y,1/2+z
x,-y,1/2+z
1/2+x,1/2+y,1/2+z
1/2-x,1/2-y,1/2+z
1/2-x,1/2+y,z
1/2+x,1/2-y,z
loop_
_atom_site_type_symbol
_atom_site_label
_atom_site_fract_x
_atom_site_fract_y
_atom_site_fract_z
Si Si1 0.424967 0.176134 0.255770
Si Si2 0.861527 0.606571 0.578606
Si Si3 0.755662 0.790696 0.742676
Si Si4 0.151844 0.196401 0.528620
Si Si5 0.500000 0.000000 0.502558
Si Si6 0.176685 0.811188 0.458767
Si Si7 0.384107 0.883361 0.951376
O O1 0.356428 0.124628 0.190355
O O2 0.580841 0.203458 0.222186
O O3 0.295726 0.223464 0.259939
O O4 0.452487 0.147680 0.358807
O O5 0.723542 0.630130 0.516187
O O6 0.881390 0.536346 0.568000
O O7 0.009564 0.638102 0.538283
O O8 0.842940 0.812569 0.646100
O O9 0.805191 0.823296 0.842522
O O10 0.232314 0.255662 0.496803
O O11 0.220964 0.138803 0.477260
O O12 0.990020 0.201958 0.486319
O O13 0.401427 0.045867 0.439295
#
# Coordination Sequence:
#
# PCOD8190694 Si02
#       7
#     8   8   8   8   4   8   8
#     4  12  22  33  62  87 123 152 204 235 310 360
#     4  10  21  40  58  85 113 160 201 248 288 348
#     4  12  22  34  54  87 122 159 184 246 304 365
#     4  12  23  37  57  88 127 155 194 246 304 363
#     4   8  20  42  62  76 122 156 214 248 288 336
#     4  12  23  37  57  88 127 155 194 246 304 363
#     4  10  21  40  58  85 113 160 201 248 288 348
#
# _framework density 18.228719000000002
#
# number of rings (size 3 to 8) (size 9 to 14) (size 15 to 20)
#    0.923    0.000    6.154    2.769    0.000    0.615 
#    0.000    0.769    0.000    0.000    0.000    6.462 
#    0.000    0.000    0.000    0.000    0.000    0.000 
#
# Total GULP energy -322124.576807 kJ/mol
# GULP energy per Si atom -12389.406800 kJ/mol
# Density = 1.818723 g / cm^3
# Si number density = 18.228719 Si / 1000 Ang^3
#
#
#
# Elastic Constant Matrix: (Units=GPa)
#
#
# Indices 1 2 3 4 5 6 
#
# 1 91.8778 31.1580 16.4069 0.0002 0.0000 0.0000
# 2 31.1580 103.7995 9.8390 0.0004 0.0000 0.0000
# 3 16.4069 9.8390 82.8316 0.0013 -0.0001 0.0000
# 4 0.0002 0.0004 0.0013 -1.6385 -0.0001 0.0000
# 5 0.0000 0.0000 -0.0001 -0.0001 25.5779 0.0000
# 6 0.0000 0.0000 0.0000 0.0000 0.0000 32.6765
#
#
#
# Elastic Compliance Matrix: (Units=1/GPa)
#
#
# Indices 1 2 3 4 5 6 
#
# 1 0.012451 -0.003544 -0.002045 -0.000001 0.000000 0.000000
# 2 -0.003544 0.010752 -0.000575 0.000002 0.000000 0.000000
# 3 -0.002045 -0.000575 0.012546 0.000009 0.000000 0.000000
# 4 -0.000001 0.000002 0.000009 -0.610317 -0.000002 0.000000
# 5 0.000000 0.000000 0.000000 -0.000002 0.039096 0.000000
# 6 0.000000 0.000000 0.000000 0.000000 0.000000 0.030603
#
#
# Mechanical properties :
#
#
# Convention : Reuss Voigt Hill
#
# Bulk Modulus (GPa) = 42.69685 43.70186 43.19935
# Shear Modulus (GPa) = -10.31496 26.06352 7.87428
#
# Velocity S-wave (km/s) = -2.38137 3.78538 2.08065
# Velocity P-wave (km/s) = 3.98904 6.56747 5.43342
#
# Compressibility (1/GPa) = 0.02342093
#
# Stress axis : x y z
#
# Youngs Moduli (GPa) = 80.31498 93.00434 79.70571
#
# Poissons Ratio (x) = 0.32957 0.16302
# Poissons Ratio (y) = 0.28460 0.04585
# Poissons Ratio (z) = 0.16427 0.05350
#
# Static dielectric constant tensor:
#      x y z
#    x 3.296860 0.000000 0.000000 
#    y 0.000000 3.212980 0.000000 
#    z 0.000000 0.000000 3.587460 
# 
# 
# High freq. dielectric constant tensor:
#      x y z
#    x 1.697670 0.000000 0.000000 
#    y 0.000000 1.678810 0.000000 
#    z 0.000000 0.000000 1.719030 
# 
# From -- ./inp_files/5794.got.cif
#   From: 2010.03.12/outbox.cif.g09.slc.cpg/sg45_3_cif.got.tgz:5794.got - 2010.04.14 02:50:11.
