data_PCOD8190827
_publ_section_title
;
Structure prediction by ZEFSAII (Michael W. Deem and Ramdas Pophale) SiO2 
 PCOD8190827
Probable space group: I B A 2
;
_chemical_formula_sum "Si O2"
_cell_formula_units_Z 60
_cell_length_a 9.486483
_cell_length_b 14.233457
_cell_length_c 20.330713
_cell_angle_alpha 90.000000
_cell_angle_beta 90.000000
_cell_angle_gamma 90.000000
_cell_volume 2745.163628
_symmetry_space_group_name_H-M "I B A 2"
_symmetry_group_IT_number 45
_symmetry_cell_setting 'orthorhombic'
loop_
_space_group_symop_operation_xyz
x,y,z
-x,-y,z
-x,y,1/2+z
x,-y,1/2+z
1/2+x,1/2+y,1/2+z
1/2-x,1/2-y,1/2+z
1/2-x,1/2+y,z
1/2+x,1/2-y,z
loop_
_atom_site_type_symbol
_atom_site_label
_atom_site_fract_x
_atom_site_fract_y
_atom_site_fract_z
Si Si1 0.218972 0.757171 0.219890
Si Si2 0.781813 0.652070 0.993418
Si Si3 0.158766 0.397541 0.128932
Si Si4 0.834865 0.604307 0.610347
Si Si5 0.948113 0.721501 0.431202
Si Si6 0.000000 0.000000 0.881796
Si Si7 0.240021 0.558845 0.966986
Si Si8 0.042219 0.182863 0.302328
O O1 0.317603 0.843375 0.196751
O O2 0.208308 0.687556 0.158220
O O3 0.299867 0.704914 0.278141
O O4 0.071042 0.801677 0.243760
O O5 0.645501 0.691170 0.956431
O O6 0.916543 0.716411 0.978134
O O7 0.745845 0.648976 0.071177
O O8 0.821035 0.546142 0.971287
O O9 0.203708 0.504682 0.143528
O O10 0.001952 0.390708 0.099646
O O11 0.754906 0.609394 0.539476
O O12 0.862881 0.624173 0.424557
O O13 0.002153 0.743564 0.358337
O O14 0.056240 0.921459 0.831617
O O15 0.889051 0.948173 0.929885
#
# Coordination Sequence:
#
# PCOD8190827 Si02
#       8
#     8   8   8   8   8   4   8   8
#     4  12  25  48  66 101 136 194 235 282 346 423
#     4  11  23  41  71 105 136 175 228 296 363 415
#     4  10  22  43  70 101 134 178 233 291 348 420
#     4  10  22  46  71  99 138 177 233 291 351 424
#     4  12  23  44  69 101 140 183 229 288 354 428
#     4  12  26  48  68 108 144 180 236 308 350 420
#     4  11  23  45  73 104 141 177 233 302 367 418
#     4  12  28  45  69  97 144 189 238 279 344 431
#
# _framework density 21.856618999999998
#
# number of rings (size 3 to 8) (size 9 to 14) (size 15 to 20)
#    0.000    0.800    4.000    3.600    1.867    0.000 
#    4.800    0.000    0.000    0.000    0.000    0.000 
#    0.000    0.000    0.000    0.000    0.000    0.000 
#
# Total GULP energy -371959.629737 kJ/mol
# GULP energy per Si atom -12398.654325 kJ/mol
# Density = 2.180687 g / cm^3
# Si number density = 21.856619 Si / 1000 Ang^3
#
#
#
# Elastic Constant Matrix: (Units=GPa)
#
#
# Indices 1 2 3 4 5 6 
#
# 1 66.1534 10.9906 21.3701 0.0000 0.0000 0.0000
# 2 10.9906 88.2397 55.0260 0.0000 0.0000 0.0000
# 3 21.3701 55.0260 87.6122 0.0000 0.0000 0.0000
# 4 0.0000 0.0000 0.0000 42.5673 0.0000 0.0000
# 5 0.0000 0.0000 0.0000 0.0000 41.1103 0.0000
# 6 0.0000 0.0000 0.0000 0.0000 0.0000 34.9266
#
#
#
# Elastic Compliance Matrix: (Units=1/GPa)
#
#
# Indices 1 2 3 4 5 6 
#
# 1 0.016439 0.000745 -0.004477 0.000000 0.000000 0.000000
# 2 0.000745 0.018663 -0.011903 0.000000 0.000000 0.000000
# 3 -0.004477 -0.011903 0.019982 0.000000 0.000000 0.000000
# 4 0.000000 0.000000 0.000000 0.023492 0.000000 0.000000
# 5 0.000000 0.000000 0.000000 0.000000 0.024325 0.000000
# 6 0.000000 0.000000 0.000000 0.000000 0.000000 0.028632
#
#
# Mechanical properties :
#
#
# Convention : Reuss Voigt Hill
#
# Bulk Modulus (GPa) = 41.99566 46.30876 44.15221
# Shear Modulus (GPa) = 29.28412 34.02873 31.65642
#
# Velocity S-wave (km/s) = 3.66434 3.95005 3.80987
# Velocity P-wave (km/s) = 6.09582 6.48362 6.29271
#
# Compressibility (1/GPa) = 0.02381198
#
# Stress axis : x y z
#
# Youngs Moduli (GPa) = 60.83079 53.58288 50.04542
#
# Poissons Ratio (x) = -0.03989 0.22407
# Poissons Ratio (y) = -0.04529 0.59569
# Poissons Ratio (z) = 0.27236 0.63779
#
# Static dielectric constant tensor:
#      x y z
#    x 3.760100 0.000000 0.000000 
#    y 0.000000 4.181650 0.000000 
#    z 0.000000 0.000000 3.910220 
# 
# 
# High freq. dielectric constant tensor:
#      x y z
#    x 1.847100 0.000000 0.000000 
#    y 0.000000 1.879200 0.000000 
#    z 0.000000 0.000000 1.857430 
# 
# From -- ./inp_files/9585.got.cif
#   From: 2010.03.12/outbox.cif.g09.slc.cpg/sg45_5_cif.got.tgz:9585.got - 2010.04.14 02:50:11.
