data_PCOD8190826
_publ_section_title
;
Structure prediction by ZEFSAII (Michael W. Deem and Ramdas Pophale) SiO2 
 PCOD8190826
Probable space group: I B A 2
;
_chemical_formula_sum "Si O2"
_cell_formula_units_Z 48
_cell_length_a 14.832237
_cell_length_b 8.261969
_cell_length_c 16.465025
_cell_angle_alpha 90.000000
_cell_angle_beta 90.000000
_cell_angle_gamma 90.000000
_cell_volume 2017.681500
_symmetry_space_group_name_H-M "I B A 2"
_symmetry_group_IT_number 45
_symmetry_cell_setting 'orthorhombic'
loop_
_space_group_symop_operation_xyz
x,y,z
-x,-y,z
-x,y,1/2+z
x,-y,1/2+z
1/2+x,1/2+y,1/2+z
1/2-x,1/2-y,1/2+z
1/2-x,1/2+y,z
1/2+x,1/2-y,z
loop_
_atom_site_type_symbol
_atom_site_label
_atom_site_fract_x
_atom_site_fract_y
_atom_site_fract_z
Si Si1 0.470806 0.322171 0.419360
Si Si2 0.788115 0.306931 0.437379
Si Si3 0.638097 0.874533 0.868841
Si Si4 0.703939 0.184431 0.604845
Si Si5 0.659901 0.867509 0.687660
Si Si6 0.997280 0.688128 0.586731
O O1 0.500000 0.500000 0.391124
O O2 0.367310 0.296358 0.393335
O O3 0.535200 0.180171 0.384032
O O4 0.466443 0.303260 0.516228
O O5 0.698875 0.286178 0.382407
O O6 0.824248 0.493635 0.434692
O O7 0.762808 0.240774 0.527113
O O8 0.648883 0.941489 0.777570
O O9 0.760219 0.236375 0.684942
O O10 0.602822 0.256542 0.605242
O O11 0.690102 0.993367 0.617314
O O12 0.562443 0.790728 0.664570
O O13 0.000000 0.500000 0.559132
#
# Coordination Sequence:
#
# PCOD8190826 Si02
#       6
#     8   8   8   8   8   8
#     4  12  26  43  70 105 140 192 249 301 364 446
#     4  12  24  43  74 102 142 196 240 302 363 446
#     4  12  26  46  71 108 150 188 244 310 375 435
#     4  11  23  41  72 100 141 189 244 288 359 449
#     4  11  25  44  70 106 143 189 238 307 368 428
#     4  10  22  43  69  99 139 189 239 292 363 439
#
# _framework density 23.789680000000001
#
# number of rings (size 3 to 8) (size 9 to 14) (size 15 to 20)
#    0.000    0.667    3.333    4.500    2.333    5.333 
#    0.000    0.833    0.000    0.000    0.000    0.000 
#    0.000    0.000    0.000    0.000    0.000    0.000 
#
# Total GULP energy -297379.409896 kJ/mol
# GULP energy per Si atom -12390.808746 kJ/mol
# Density = 2.373553 g / cm^3
# Si number density = 23.789680 Si / 1000 Ang^3
#
#
#
# Elastic Constant Matrix: (Units=GPa)
#
#
# Indices 1 2 3 4 5 6 
#
# 1 150.4047 23.5089 38.2641 0.0000 0.0000 0.0000
# 2 23.5089 70.5357 22.5020 0.0000 0.0000 0.0000
# 3 38.2641 22.5020 106.1446 0.0000 0.0000 0.0000
# 4 0.0000 0.0000 0.0000 30.0593 0.0000 0.0000
# 5 0.0000 0.0000 0.0000 0.0000 26.9279 0.0000
# 6 0.0000 0.0000 0.0000 0.0000 0.0000 40.3959
#
#
#
# Elastic Compliance Matrix: (Units=1/GPa)
#
#
# Indices 1 2 3 4 5 6 
#
# 1 0.007518 -0.001760 -0.002337 0.000000 0.000000 0.000000
# 2 -0.001760 0.015618 -0.002676 0.000000 0.000000 0.000000
# 3 -0.002337 -0.002676 0.010831 0.000000 0.000000 0.000000
# 4 0.000000 0.000000 0.000000 0.033268 0.000000 0.000000
# 5 0.000000 0.000000 0.000000 0.000000 0.037136 0.000000
# 6 0.000000 0.000000 0.000000 0.000000 0.000000 0.024755
#
#
# Mechanical properties :
#
#
# Convention : Reuss Voigt Hill
#
# Bulk Modulus (GPa) = 48.97229 55.07054 52.02142
# Shear Modulus (GPa) = 33.44932 35.66396 34.55664
#
# Velocity S-wave (km/s) = 3.75379 3.87607 3.81542
# Velocity P-wave (km/s) = 6.27839 6.57503 6.42842
#
# Compressibility (1/GPa) = 0.02041971
#
# Stress axis : x y z
#
# Youngs Moduli (GPa) = 133.00609 64.03007 92.32761
#
# Poissons Ratio (x) = 0.11271 0.21579
# Poissons Ratio (y) = 0.23412 0.24710
# Poissons Ratio (z) = 0.31086 0.17136
#
# Static dielectric constant tensor:
#      x y z
#    x 4.859380 0.000000 0.000000 
#    y 0.000000 4.035590 0.000000 
#    z 0.000000 0.000000 3.893280 
# 
# 
# High freq. dielectric constant tensor:
#      x y z
#    x 1.973210 0.000000 0.000000 
#    y 0.000000 1.921500 0.000000 
#    z 0.000000 0.000000 1.919190 
# 
# From -- ./inp_files/7582.got.cif
#   From: 2010.03.12/outbox.cif.g09.slc.cpg/sg45_4_cif.got.tgz:7582.got - 2010.04.14 02:50:11.
