data_PCOD8190197
_publ_section_title
;
Structure prediction by ZEFSAII (Michael W. Deem and Ramdas Pophale) SiO2 
 PCOD8190197
Probable space group: I M M 2
;
_chemical_formula_sum "Si O2"
_cell_formula_units_Z 64
_cell_length_a 15.177595
_cell_length_b 18.764835
_cell_length_c 11.486323
_cell_angle_alpha 90.000000
_cell_angle_beta 90.000000
_cell_angle_gamma 90.000000
_cell_volume 3271.362979
_symmetry_space_group_name_H-M "I M M 2"
_symmetry_group_IT_number 44
_symmetry_cell_setting 'orthorhombic'
loop_
_space_group_symop_operation_xyz
x,y,z
-x,-y,z
-x,y,z
x,-y,z
1/2+x,1/2+y,1/2+z
1/2-x,1/2-y,1/2+z
1/2-x,1/2+y,1/2+z
1/2+x,1/2-y,1/2+z
loop_
_atom_site_type_symbol
_atom_site_label
_atom_site_fract_x
_atom_site_fract_y
_atom_site_fract_z
Si Si1 0.331978 0.420311 0.011160
Si Si2 0.243768 0.827154 0.137906
Si Si3 0.741805 0.919305 0.912657
Si Si4 0.901257 0.081003 0.264715
Si Si5 0.600133 0.215426 0.292672
Si Si6 0.401050 0.918673 0.723385
Si Si7 0.325778 0.182630 0.538841
Si Si8 0.598825 0.620064 0.258037
O O1 0.291927 0.500000 0.009505
O O2 0.384362 0.410283 0.130295
O O3 0.398096 0.408952 0.903854
O O4 0.254161 0.364723 0.993609
O O5 0.164449 0.866815 0.200449
O O6 0.331114 0.831076 0.217898
O O7 0.267198 0.865294 0.018100
O O8 0.212446 0.746897 0.115591
O O9 0.666794 0.895222 0.822617
O O10 0.836688 0.915013 0.851784
O O11 0.726349 0.000000 0.956059
O O12 0.000000 0.099740 0.223809
O O13 0.876949 0.000000 0.230075
O O14 0.500000 0.188874 0.269132
O O15 0.619614 0.211382 0.429696
O O16 0.612415 0.295919 0.252278
O O17 0.500000 0.911297 0.772347
O O18 0.390320 0.866178 0.614901
O O19 0.381696 0.000000 0.683831
O O20 0.500000 0.600030 0.296906
#
# Coordination Sequence:
#
# PCOD8190197 Si02
#       8
#     8   8   8   8   8   8   8   8
#     4  11  21  37  65  93 121 159 202 255 311 362
#     4  12  24  41  64  88 126 169 206 244 303 369
#     4  11  23  40  62  91 123 159 201 246 301 368
#     4  10  23  42  64  93 125 159 203 256 311 367
#     4  11  24  42  63  91 128 164 206 259 306 358
#     4  10  22  41  65  91 119 152 198 257 308 351
#     4  12  22  40  65  90 121 162 206 254 299 364
#     4  11  22  39  62  92 125 160 201 252 312 369
#
# _framework density 19.56371
#
# number of rings (size 3 to 8) (size 9 to 14) (size 15 to 20)
#    0.000    1.000    5.000    1.875    0.000    3.500 
#    0.000    0.000    0.000    3.375    0.000    0.000 
#    0.000    0.000    0.000    0.000    0.000    0.000 
#
# Total GULP energy -396915.753305 kJ/mol
# GULP energy per Si atom -12403.617291 kJ/mol
# Density = 1.951918 g / cm^3
# Si number density = 19.563710 Si / 1000 Ang^3
#
#
#
# Elastic Constant Matrix: (Units=GPa)
#
#
# Indices 1 2 3 4 5 6 
#
# 1 139.9200 47.2182 46.9215 0.0000 0.0000 0.0000
# 2 47.2182 90.0318 32.5887 0.0000 0.0000 0.0000
# 3 46.9215 32.5887 97.3227 0.0000 0.0000 0.0000
# 4 0.0000 0.0000 0.0000 19.5740 0.0000 0.0000
# 5 0.0000 0.0000 0.0000 0.0000 20.2152 0.0000
# 6 0.0000 0.0000 0.0000 0.0000 0.0000 29.1608
#
#
#
# Elastic Compliance Matrix: (Units=1/GPa)
#
#
# Indices 1 2 3 4 5 6 
#
# 1 0.009546 -0.003802 -0.003330 0.000000 0.000000 0.000000
# 2 -0.003802 0.014153 -0.002906 0.000000 0.000000 0.000000
# 3 -0.003330 -0.002906 0.012854 0.000000 0.000000 0.000000
# 4 0.000000 0.000000 0.000000 0.051088 0.000000 0.000000
# 5 0.000000 0.000000 0.000000 0.000000 0.049468 0.000000
# 6 0.000000 0.000000 0.000000 0.000000 0.000000 0.034293
#
#
# Mechanical properties :
#
#
# Convention : Reuss Voigt Hill
#
# Bulk Modulus (GPa) = 60.68695 64.52569 62.60632
# Shear Modulus (GPa) = 25.38469 27.15973 26.27221
#
# Velocity S-wave (km/s) = 3.60605 3.72999 3.66854
# Velocity P-wave (km/s) = 6.95885 7.18362 7.07213
#
# Compressibility (1/GPa) = 0.01647801
#
# Stress axis : x y z
#
# Youngs Moduli (GPa) = 104.75170 70.65670 77.79942
#
# Poissons Ratio (x) = 0.26860 0.25904
# Poissons Ratio (y) = 0.39821 0.22611
# Poissons Ratio (z) = 0.34878 0.20535
#
# Static dielectric constant tensor:
#      x y z
#    x 3.654340 0.000000 0.000000 
#    y 0.000000 3.636110 0.000000 
#    z 0.000000 0.000000 3.518480 
# 
# 
# High freq. dielectric constant tensor:
#      x y z
#    x 1.769760 0.000000 0.000000 
#    y 0.000000 1.768740 0.000000 
#    z 0.000000 0.000000 1.761880 
# 
# From -- ./inp_files/13417.got.cif
#   From: 2010.03.12/outbox.cif.g09.slc.cpg/sg44_7_cif.got.tgz:13417.got - 2010.04.14 02:36:11.
