data_PCOD8190628
_publ_section_title
;
Structure prediction by ZEFSAII (Michael W. Deem and Ramdas Pophale) SiO2 
 PCOD8190628
Probable space group: I B A 2
;
_chemical_formula_sum "Si O2"
_cell_formula_units_Z 60
_cell_length_a 31.962617
_cell_length_b 5.106049
_cell_length_c 18.022967
_cell_angle_alpha 90.000000
_cell_angle_beta 90.000000
_cell_angle_gamma 90.000000
_cell_volume 2941.396670
_symmetry_space_group_name_H-M "I B A 2"
_symmetry_group_IT_number 45
_symmetry_cell_setting 'orthorhombic'
loop_
_space_group_symop_operation_xyz
x,y,z
-x,-y,z
-x,y,1/2+z
x,-y,1/2+z
1/2+x,1/2+y,1/2+z
1/2-x,1/2-y,1/2+z
1/2-x,1/2+y,z
1/2+x,1/2-y,z
loop_
_atom_site_type_symbol
_atom_site_label
_atom_site_fract_x
_atom_site_fract_y
_atom_site_fract_z
Si Si1 0.775193 0.024369 0.558790
Si Si2 0.095136 0.584917 0.307256
Si Si3 0.273039 0.502469 0.383458
Si Si4 0.636841 0.622990 0.632638
Si Si5 0.855047 0.088789 0.799537
Si Si6 0.523341 0.756944 0.405736
Si Si7 0.500000 0.000000 0.050043
Si Si8 0.081576 0.612022 0.140495
O O1 0.745320 0.256600 0.589267
O O2 0.776833 0.002006 0.471139
O O3 0.823010 0.067642 0.582408
O O4 0.110187 0.293761 0.330887
O O5 0.069834 0.722030 0.374132
O O6 0.071502 0.569990 0.227940
O O7 0.133460 0.783734 0.298952
O O8 0.237706 0.710079 0.356410
O O9 0.315033 0.618255 0.350151
O O10 0.654308 0.671203 0.715194
O O11 0.604102 0.386648 0.626157
O O12 0.611620 0.883613 0.608119
O O13 0.500000 0.500000 0.377270
O O14 0.500000 0.000000 0.366904
O O15 0.520792 0.779224 0.495730
O O16 0.463238 0.120554 0.099876
#
# Coordination Sequence:
#
# PCOD8190628 Si02
#       8
#     8   8   8   8   8   8   4   8
#     4  10  21  37  59  84 116 152 190 230 288 352
#     4  10  21  40  59  84 114 153 195 239 292 347
#     4  10  21  36  55  84 116 150 191 235 284 344
#     4  10  22  39  58  87 117 148 196 239 291 346
#     4  10  21  37  59  85 113 150 193 240 288 343
#     4  10  23  39  58  86 116 146 191 246 280 352
#     4  10  26  38  62  86 122 152 202 240 298 348
#     4  10  23  39  60  84 118 155 194 244 291 348
#
# _framework density 20.398472999999999
#
# number of rings (size 3 to 8) (size 9 to 14) (size 15 to 20)
#    0.400    1.600    0.000    2.400    2.800    3.200 
#    0.000    0.000    0.000    0.000    0.000    0.000 
#    0.000    0.000    0.000    0.000    0.000    0.000 
#
# Total GULP energy -371820.973872 kJ/mol
# GULP energy per Si atom -12394.032462 kJ/mol
# Density = 2.035204 g / cm^3
# Si number density = 20.398473 Si / 1000 Ang^3
#
#
#
# Elastic Constant Matrix: (Units=GPa)
#
#
# Indices 1 2 3 4 5 6 
#
# 1 102.0579 32.5675 51.6267 0.0000 0.0000 0.0000
# 2 32.5675 129.5458 34.5099 0.0000 0.0000 0.0000
# 3 51.6267 34.5099 55.6308 0.0000 0.0000 0.0000
# 4 0.0000 0.0000 0.0000 44.5746 0.0000 0.0000
# 5 0.0000 0.0000 0.0000 0.0000 39.5063 0.0000
# 6 0.0000 0.0000 0.0000 0.0000 0.0000 33.5510
#
#
#
# Elastic Compliance Matrix: (Units=1/GPa)
#
#
# Indices 1 2 3 4 5 6 
#
# 1 0.018469 -0.000092 -0.017082 0.000000 0.000000 0.000000
# 2 -0.000092 0.009248 -0.005651 0.000000 0.000000 0.000000
# 3 -0.017082 -0.005651 0.037334 0.000000 0.000000 0.000000
# 4 0.000000 0.000000 0.000000 0.022434 0.000000 0.000000
# 5 0.000000 0.000000 0.000000 0.000000 0.025312 0.000000
# 6 0.000000 0.000000 0.000000 0.000000 0.000000 0.029805
#
#
# Mechanical properties :
#
#
# Convention : Reuss Voigt Hill
#
# Bulk Modulus (GPa) = 51.54824 58.29363 54.92093
# Shear Modulus (GPa) = 25.67770 34.76173 30.21972
#
# Velocity S-wave (km/s) = 3.55181 4.13259 3.85316
# Velocity P-wave (km/s) = 6.49199 7.17012 6.83947
#
# Compressibility (1/GPa) = 0.01939931
#
# Stress axis : x y z
#
# Youngs Moduli (GPa) = 54.14440 108.13248 26.78517
#
# Poissons Ratio (x) = 0.01000 0.45756
# Poissons Ratio (y) = 0.00501 0.15136
# Poissons Ratio (z) = 0.92492 0.61106
#
# Static dielectric constant tensor:
#      x y z
#    x 3.463870 0.000000 0.000000 
#    y 0.000000 3.786380 0.000000 
#    z 0.000000 0.000000 3.551200 
# 
# 
# High freq. dielectric constant tensor:
#      x y z
#    x 1.789230 0.000000 0.000000 
#    y 0.000000 1.815690 0.000000 
#    z 0.000000 0.000000 1.781900 
# 
# From -- ./inp_files/8555.got.cif
#   From: 2010.03.12/outbox.cif.g09.slc.cpg/sg45_5_cif.got.tgz:8555.got - 2010.04.14 02:50:11.
