data_PCOD8190324
_publ_section_title
;
Structure prediction by ZEFSAII (Michael W. Deem and Ramdas Pophale) SiO2 
 PCOD8190324
Probable space group: I M M 2
;
_chemical_formula_sum "Si O2"
_cell_formula_units_Z 48
_cell_length_a 9.713291
_cell_length_b 9.595620
_cell_length_c 31.159472
_cell_angle_alpha 90.000000
_cell_angle_beta 90.000000
_cell_angle_gamma 90.000000
_cell_volume 2904.220127
_symmetry_space_group_name_H-M "I M M 2"
_symmetry_group_IT_number 44
_symmetry_cell_setting 'orthorhombic'
loop_
_space_group_symop_operation_xyz
x,y,z
-x,-y,z
-x,y,z
x,-y,z
1/2+x,1/2+y,1/2+z
1/2-x,1/2-y,1/2+z
1/2-x,1/2+y,1/2+z
1/2+x,1/2-y,1/2+z
loop_
_atom_site_type_symbol
_atom_site_label
_atom_site_fract_x
_atom_site_fract_y
_atom_site_fract_z
Si Si1 0.663817 0.342368 0.600800
Si Si2 0.153137 0.834231 0.442156
Si Si3 0.663701 0.843183 0.677851
Si Si4 0.160506 0.338063 0.019997
Si Si5 0.836095 0.845333 0.348210
Si Si6 0.336269 0.844370 0.772997
O O1 0.500000 0.345364 0.602610
O O2 0.722382 0.500000 0.598732
O O3 0.723906 0.265088 0.643023
O O4 0.712812 0.254764 0.559600
O O5 0.258682 0.782620 0.478297
O O6 0.203206 0.781952 0.395050
O O7 0.000000 0.776648 0.452713
O O8 0.148364 0.000000 0.440309
O O9 0.500000 0.845512 0.674852
O O10 0.710079 0.793769 0.725478
O O11 0.718371 0.000000 0.668480
O O12 0.192714 0.500000 0.030083
O O13 0.000000 0.315735 0.010910
O O14 0.771743 0.752522 0.310043
O O15 0.000000 0.851042 0.344856
O O16 0.774349 0.000000 0.342631
O O17 0.500000 0.841925 0.775733
O O18 0.281314 0.000000 0.780941
#
# Coordination Sequence:
#
# PCOD8190324 Si02
#       6
#     8   8   8   8   8   8
#     4   9  16  24  34  50  73  99 125 155 192 230
#     4   8  14  25  40  57  77 101 129 160 191 223
#     4   8  13  21  32  46  67  96 126 152 181 223
#     4   9  16  26  41  58  75  99 131 162 190 223
#     4   8  13  21  33  48  67  93 122 149 180 220
#     4   8  13  20  30  46  69  95 121 150 184 221
#
# _framework density 16.527674000000001
#
# number of rings (size 3 to 8) (size 9 to 14) (size 15 to 20)
#    0.000    3.667    0.000    2.500    0.000    2.667 
#    0.000    4.167    0.000    1.500    0.000    0.000 
#    0.000    1.333    0.000    7.667    0.000   12.000 
#
# Total GULP energy -297374.127648 kJ/mol
# GULP energy per Si atom -12390.588652 kJ/mol
# Density = 1.649006 g / cm^3
# Si number density = 16.527674 Si / 1000 Ang^3
#
#
#
# Elastic Constant Matrix: (Units=GPa)
#
#
# Indices 1 2 3 4 5 6 
#
# 1 17.4331 16.1576 30.5122 0.0000 0.0000 0.0000
# 2 16.1576 90.1495 85.4050 0.0000 0.0000 0.0000
# 3 30.5122 85.4050 185.4504 0.0000 0.0000 0.0000
# 4 0.0000 0.0000 0.0000 30.4020 0.0000 0.0000
# 5 0.0000 0.0000 0.0000 0.0000 16.3105 0.0000
# 6 0.0000 0.0000 0.0000 0.0000 0.0000 5.4797
#
#
#
# Elastic Compliance Matrix: (Units=1/GPa)
#
#
# Indices 1 2 3 4 5 6 
#
# 1 0.081132 -0.003362 -0.011800 0.000000 0.000000 0.000000
# 2 -0.003362 0.019817 -0.008573 0.000000 0.000000 0.000000
# 3 -0.011800 -0.008573 0.011282 0.000000 0.000000 0.000000
# 4 0.000000 0.000000 0.000000 0.032893 0.000000 0.000000
# 5 0.000000 0.000000 0.000000 0.000000 0.061310 0.000000
# 6 0.000000 0.000000 0.000000 0.000000 0.000000 0.182492
#
#
# Mechanical properties :
#
#
# Convention : Reuss Voigt Hill
#
# Bulk Modulus (GPa) = 15.44168 61.90917 38.67543
# Shear Modulus (GPa) = 10.91741 21.16899 16.04320
#
# Velocity S-wave (km/s) = 2.57291 3.58274 3.11897
# Velocity P-wave (km/s) = 4.26494 7.39283 6.03505
#
# Compressibility (1/GPa) = 0.06475980
#
# Stress axis : x y z
#
# Youngs Moduli (GPa) = 12.32562 50.46081 88.63676
#
# Poissons Ratio (x) = 0.16966 1.04594
# Poissons Ratio (y) = 0.04144 0.75991
# Poissons Ratio (z) = 0.14545 0.43261
#
# Static dielectric constant tensor:
#      x y z
#    x 2.479710 0.000000 0.000000 
#    y 0.000000 3.194350 0.000000 
#    z 0.000000 0.000000 3.551130 
# 
# 
# High freq. dielectric constant tensor:
#      x y z
#    x 1.553610 0.000000 0.000000 
#    y 0.000000 1.620080 0.000000 
#    z 0.000000 0.000000 1.655960 
# 
# From -- ./inp_files/25403.got.cif
#   From: 2010.03.12/outbox.cif.g09.slc.cpg/sg44_13_cif.got.tgz:25403.got - 2010.04.14 02:36:11.
