data_PCOD8190368
_publ_section_title
;
Structure prediction by ZEFSAII (Michael W. Deem and Ramdas Pophale) SiO2 
 PCOD8190368
Probable space group: I B A 2
;
_chemical_formula_sum "Si O2"
_cell_formula_units_Z 56
_cell_length_a 20.778012
_cell_length_b 26.608269
_cell_length_c 5.365219
_cell_angle_alpha 90.000000
_cell_angle_beta 90.000000
_cell_angle_gamma 90.000000
_cell_volume 2966.252171
_symmetry_space_group_name_H-M "I B A 2"
_symmetry_group_IT_number 45
_symmetry_cell_setting 'orthorhombic'
loop_
_space_group_symop_operation_xyz
x,y,z
-x,-y,z
-x,y,1/2+z
x,-y,1/2+z
1/2+x,1/2+y,1/2+z
1/2-x,1/2-y,1/2+z
1/2-x,1/2+y,z
1/2+x,1/2-y,z
loop_
_atom_site_type_symbol
_atom_site_label
_atom_site_fract_x
_atom_site_fract_y
_atom_site_fract_z
Si Si1 0.039621 0.385312 0.582650
Si Si2 0.141595 0.530214 0.082651
Si Si3 0.039332 0.269806 0.582648
Si Si4 0.501247 0.396315 0.082651
Si Si5 0.858084 0.136368 0.582651
Si Si6 0.708576 0.530117 0.582652
Si Si7 0.378928 0.676876 0.582651
O O1 0.104177 0.417583 0.582651
O O2 0.061685 0.327529 0.582650
O O3 0.000000 0.398195 0.332650
O O4 0.122755 0.500000 0.332651
O O5 0.216517 0.543950 0.082651
O O6 0.102829 0.235491 0.582652
O O7 0.000001 0.257404 0.332645
O O8 0.500000 0.430606 0.332651
O O9 0.564532 0.362148 0.082651
O O10 0.442039 0.358094 0.082651
O O11 0.832614 0.080135 0.582651
O O12 0.835964 0.164895 0.329480
O O13 0.835964 0.164895 0.835822
O O14 0.689925 0.500000 0.332652
#
# Coordination Sequence:
#
# PCOD8190368 Si02
#       7
#     8   8   8   8   8   8   8
#     4  10  21  34  53  83 112 135 160 201 255 303
#     4  10  21  37  57  77 101 136 173 208 250 303
#     4  10  18  30  48  75 109 138 165 199 247 305
#     4   8  14  23  39  62  86 113 150 194 236 276
#     4  10  18  29  49  71  94 127 173 214 246 293
#     4  10  21  37  54  72  95 130 176 219 257 298
#     4  10  17  28  48  72  99 131 167 207 247 297
#
# _framework density 18.879044
#
# number of rings (size 3 to 8) (size 9 to 14) (size 15 to 20)
#    0.000    2.286    0.000    5.143    0.000    1.714 
#    0.000    0.000    0.000   24.857    0.000    0.000 
#    0.000    0.000    0.000    0.000    0.000    0.000 
#
# Total GULP energy -346883.373046 kJ/mol
# GULP energy per Si atom -12388.691894 kJ/mol
# Density = 1.883607 g / cm^3
# Si number density = 18.879044 Si / 1000 Ang^3
#
#
#
# Elastic Constant Matrix: (Units=GPa)
#
#
# Indices 1 2 3 4 5 6 
#
# 1 22.2264 25.8191 19.7604 0.0000 0.0000 0.0000
# 2 25.8191 89.4867 49.0050 0.0000 0.0000 0.0000
# 3 19.7604 49.0050 241.2396 0.0000 0.0000 0.0000
# 4 0.0000 0.0000 0.0000 19.3926 0.0000 0.0000
# 5 0.0000 0.0000 0.0000 0.0000 10.9974 0.0000
# 6 0.0000 0.0000 0.0000 0.0000 0.0000 5.8642
#
#
#
# Elastic Compliance Matrix: (Units=1/GPa)
#
#
# Indices 1 2 3 4 5 6 
#
# 1 0.068355 -0.018741 -0.001792 0.000000 0.000000 0.000000
# 2 -0.018741 0.017712 -0.002063 0.000000 0.000000 0.000000
# 3 -0.001792 -0.002063 0.004711 0.000000 0.000000 0.000000
# 4 0.000000 0.000000 0.000000 0.051566 0.000000 0.000000
# 5 0.000000 0.000000 0.000000 0.000000 0.090931 0.000000
# 6 0.000000 0.000000 0.000000 0.000000 0.000000 0.170528
#
#
# Mechanical properties :
#
#
# Convention : Reuss Voigt Hill
#
# Bulk Modulus (GPa) = 21.93640 60.23574 41.08607
# Shear Modulus (GPa) = 10.77149 24.47538 17.62343
#
# Velocity S-wave (km/s) = 2.39122 3.60450 3.05862
# Velocity P-wave (km/s) = 4.38960 7.02130 5.85522
#
# Compressibility (1/GPa) = 0.04558634
#
# Stress axis : x y z
#
# Youngs Moduli (GPa) = 14.62956 56.46015 212.26493
#
# Poissons Ratio (x) = 1.05810 0.38041
# Poissons Ratio (y) = 0.27417 0.43787
# Poissons Ratio (z) = 0.02622 0.11647
#
# Static dielectric constant tensor:
#      x y z
#    x 3.025350 0.000000 0.000000 
#    y 0.000000 3.188390 0.000000 
#    z 0.000000 0.000000 4.762010 
# 
# 
# High freq. dielectric constant tensor:
#      x y z
#    x 1.686210 0.000000 0.000000 
#    y 0.000000 1.709560 0.000000 
#    z 0.000000 0.000000 1.782080 
# 
# From -- ./inp_files/432.got.cif
#   From: 2010.03.12/outbox.cif.g09.slc.cpg/sg45_1_cif.got.tgz:432.got - 2010.04.14 02:50:11.
