data_PCOD8190645
_publ_section_title
;
Structure prediction by ZEFSAII (Michael W. Deem and Ramdas Pophale) SiO2 
 PCOD8190645
Probable space group: I B A 2
;
_chemical_formula_sum "Si O2"
_cell_formula_units_Z 60
_cell_length_a 20.469664
_cell_length_b 9.159294
_cell_length_c 13.470104
_cell_angle_alpha 90.000000
_cell_angle_beta 90.000000
_cell_angle_gamma 90.000000
_cell_volume 2525.478422
_symmetry_space_group_name_H-M "I B A 2"
_symmetry_group_IT_number 45
_symmetry_cell_setting 'orthorhombic'
loop_
_space_group_symop_operation_xyz
x,y,z
-x,-y,z
-x,y,1/2+z
x,-y,1/2+z
1/2+x,1/2+y,1/2+z
1/2-x,1/2-y,1/2+z
1/2-x,1/2+y,z
1/2+x,1/2-y,z
loop_
_atom_site_type_symbol
_atom_site_label
_atom_site_fract_x
_atom_site_fract_y
_atom_site_fract_z
Si Si1 0.793580 0.526516 0.913330
Si Si2 0.550608 0.275899 0.277418
Si Si3 0.826148 0.792834 0.401991
Si Si4 0.885178 0.500825 0.743191
Si Si5 0.700594 0.198517 0.113284
Si Si6 0.648391 0.272134 0.622886
Si Si7 0.500000 0.500000 0.427291
Si Si8 0.595625 0.563038 0.601174
O O1 0.784463 0.354040 0.914162
O O2 0.725006 0.583274 0.873026
O O3 0.856284 0.568987 0.845002
O O4 0.803948 0.584831 0.023588
O O5 0.624474 0.303148 0.312177
O O6 0.503677 0.352920 0.358072
O O7 0.542802 0.349490 0.168827
O O8 0.547961 0.096250 0.264704
O O9 0.864529 0.802102 0.506223
O O10 0.831246 0.385567 0.705083
O O11 0.893964 0.635331 0.666052
O O12 0.774264 0.244332 0.143980
O O13 0.660904 0.342777 0.081912
O O14 0.616756 0.420469 0.666000
O O15 0.563290 0.526793 0.494975
#
# Coordination Sequence:
#
# PCOD8190645 Si02
#       8
#     8   8   8   8   8   8   4   8
#     4  10  22  34  58  94 140 183 219 270 343 421
#     4  10  24  44  67  98 135 174 243 291 349 415
#     4  10  21  37  58  93 140 181 223 281 338 414
#     4  10  22  38  62  96 141 185 224 283 352 427
#     4  10  22  39  60 100 145 177 229 283 356 433
#     4  11  21  37  64  99 140 179 220 280 358 427
#     4  12  24  48  74  96 134 180 250 308 338 408
#     4  11  25  41  72 102 130 189 234 293 351 423
#
# _framework density 23.757876
#
# number of rings (size 3 to 8) (size 9 to 14) (size 15 to 20)
#    0.000    1.600    2.667    1.200   13.067    1.067 
#    0.000    0.000    0.000   28.000    0.000    0.000 
#    0.000    0.000    0.000    0.000    0.000    0.000 
#
# Total GULP energy -371676.277395 kJ/mol
# GULP energy per Si atom -12389.209247 kJ/mol
# Density = 2.370380 g / cm^3
# Si number density = 23.757876 Si / 1000 Ang^3
#
#
#
# Elastic Constant Matrix: (Units=GPa)
#
#
# Indices 1 2 3 4 5 6 
#
# 1 47.5102 49.7696 10.9154 0.0000 0.0000 0.0000
# 2 49.7696 129.6258 23.4722 0.0000 0.0000 0.0000
# 3 10.9154 23.4722 74.3552 0.0000 0.0000 0.0000
# 4 0.0000 0.0000 0.0000 41.5014 0.0000 0.0000
# 5 0.0000 0.0000 0.0000 0.0000 -5.2180 0.0000
# 6 0.0000 0.0000 0.0000 0.0000 0.0000 42.0178
#
#
#
# Elastic Compliance Matrix: (Units=1/GPa)
#
#
# Indices 1 2 3 4 5 6 
#
# 1 0.035274 -0.013370 -0.000958 0.000000 0.000000 0.000000
# 2 -0.013370 0.013250 -0.002220 0.000000 0.000000 0.000000
# 3 -0.000958 -0.002220 0.014290 0.000000 0.000000 0.000000
# 4 0.000000 0.000000 0.000000 0.024096 0.000000 0.000000
# 5 0.000000 0.000000 0.000000 0.000000 -0.191643 0.000000
# 6 0.000000 0.000000 0.000000 0.000000 0.000000 0.023799
#
#
# Mechanical properties :
#
#
# Convention : Reuss Voigt Hill
#
# Bulk Modulus (GPa) = 33.64852 46.64506 40.14679
# Shear Modulus (GPa) = -131.81213 26.81583 -52.49815
#
# Velocity S-wave (km/s) = -7.45667 3.36328 -4.70586
# Velocity P-wave (km/s) = 7.74222 5.89562 3.54850
#
# Compressibility (1/GPa) = 0.02971899
#
# Stress axis : x y z
#
# Youngs Moduli (GPa) = 28.34960 75.47257 69.97742
#
# Poissons Ratio (x) = 1.00906 0.06701
# Poissons Ratio (y) = 0.37903 0.15535
# Poissons Ratio (z) = 0.02715 0.16755
#
# Static dielectric constant tensor:
#      x y z
#    x 4.939480 0.000000 0.000000 
#    y 0.000000 4.643810 0.000000 
#    z 0.000000 0.000000 4.357840 
# 
# 
# High freq. dielectric constant tensor:
#      x y z
#    x 1.911420 0.000000 0.000000 
#    y 0.000000 1.957190 0.000000 
#    z 0.000000 0.000000 1.948640 
# 
# From -- ./inp_files/5831.got.cif
#   From: 2010.03.12/outbox.cif.g09.slc.cpg/sg45_3_cif.got.tgz:5831.got - 2010.04.14 02:50:11.
