data_PCOD8190297
_publ_section_title
;
Structure prediction by ZEFSAII (Michael W. Deem and Ramdas Pophale) SiO2 
 PCOD8190297
Probable space group: I M M 2
;
_chemical_formula_sum "Si O2"
_cell_formula_units_Z 48
_cell_length_a 7.651527
_cell_length_b 9.119969
_cell_length_c 35.049909
_cell_angle_alpha 90.000000
_cell_angle_beta 90.000000
_cell_angle_gamma 90.000000
_cell_volume 2445.841851
_symmetry_space_group_name_H-M "I M M 2"
_symmetry_group_IT_number 44
_symmetry_cell_setting 'orthorhombic'
loop_
_space_group_symop_operation_xyz
x,y,z
-x,-y,z
-x,y,z
x,-y,z
1/2+x,1/2+y,1/2+z
1/2-x,1/2-y,1/2+z
1/2-x,1/2+y,1/2+z
1/2+x,1/2-y,1/2+z
loop_
_atom_site_type_symbol
_atom_site_label
_atom_site_fract_x
_atom_site_fract_y
_atom_site_fract_z
Si Si1 0.300929 0.327127 0.341570
Si Si2 0.500000 0.175228 0.699780
Si Si3 0.797832 0.163596 0.988934
Si Si4 0.500000 0.173349 0.786262
Si Si5 0.707632 0.836625 0.417479
Si Si6 0.794610 0.661351 0.569070
Si Si7 0.202486 0.674646 0.652395
O O1 0.500000 0.281342 0.331416
O O2 0.286220 0.500000 0.347890
O O3 0.233828 0.252703 0.380314
O O4 0.175291 0.271293 0.307625
O O5 0.500000 0.232076 0.743264
O O6 0.675959 0.239294 0.681583
O O7 0.500000 0.000000 0.696249
O O8 0.768773 0.243256 0.030386
O O9 0.000000 0.150228 0.979853
O O10 0.712775 0.000000 0.989040
O O11 0.711768 0.259742 0.955285
O O12 0.500000 0.000000 0.785764
O O13 0.500000 0.841962 0.420087
O O14 0.785559 0.000000 0.414957
O O15 0.708312 0.500000 0.567556
O O16 0.742302 0.732684 0.609801
O O17 0.000000 0.648088 0.568695
O O18 0.232284 0.500000 0.655266
O O19 0.000000 0.712560 0.661283
#
# Coordination Sequence:
#
# PCOD8190297 Si02
#       7
#     8   4   8   4   8   8   8
#     4   9  17  33  57  77  96 130 174 219 261 305
#     4  11  23  37  57  87 119 149 181 227 289 353
#     4   9  16  26  45  72  97 128 173 220 260 304
#     4   9  20  37  55  81 109 133 175 223 267 323
#     4   9  17  30  47  69 101 137 168 204 257 317
#     4   8  15  29  49  73  99 130 175 225 267 306
#     4   9  19  37  60  83 110 148 191 235 281 331
#
# _framework density 19.625145
#
# number of rings (size 3 to 8) (size 9 to 14) (size 15 to 20)
#    0.000    3.000    0.000    1.750    1.167    3.000 
#    1.500    4.583    0.000    3.000    0.000    0.000 
#    0.000    0.000    0.000    0.000    0.000    0.000 
#
# Total GULP energy -297378.443261 kJ/mol
# GULP energy per Si atom -12390.768469 kJ/mol
# Density = 1.958048 g / cm^3
# Si number density = 19.625145 Si / 1000 Ang^3
#
#
#
# Elastic Constant Matrix: (Units=GPa)
#
#
# Indices 1 2 3 4 5 6 
#
# 1 77.6629 30.2801 69.6004 0.0000 0.0000 0.0000
# 2 30.2801 62.5135 58.5101 0.0000 0.0000 0.0000
# 3 69.6004 58.5101 208.5267 0.0000 0.0000 0.0000
# 4 0.0000 0.0000 0.0000 20.0140 0.0000 0.0000
# 5 0.0000 0.0000 0.0000 0.0000 17.8841 0.0000
# 6 0.0000 0.0000 0.0000 0.0000 0.0000 15.3654
#
#
#
# Elastic Compliance Matrix: (Units=1/GPa)
#
#
# Indices 1 2 3 4 5 6 
#
# 1 0.019259 -0.004492 -0.005168 0.000000 0.000000 0.000000
# 2 -0.004492 0.022741 -0.004882 0.000000 0.000000 0.000000
# 3 -0.005168 -0.004882 0.007890 0.000000 0.000000 0.000000
# 4 0.000000 0.000000 0.000000 0.049965 0.000000 0.000000
# 5 0.000000 0.000000 0.000000 0.000000 0.055916 0.000000
# 6 0.000000 0.000000 0.000000 0.000000 0.000000 0.065081
#
#
# Mechanical properties :
#
#
# Convention : Reuss Voigt Hill
#
# Bulk Modulus (GPa) = 48.05873 73.94270 61.00071
# Shear Modulus (GPa) = 19.46509 23.34021 21.40265
#
# Velocity S-wave (km/s) = 3.15277 3.45237 3.30596
# Velocity P-wave (km/s) = 6.14775 7.32469 6.76187
#
# Compressibility (1/GPa) = 0.02080787
#
# Stress axis : x y z
#
# Youngs Moduli (GPa) = 51.92474 43.97277 126.74051
#
# Poissons Ratio (x) = 0.19751 0.65495
# Poissons Ratio (y) = 0.23323 0.61871
# Poissons Ratio (z) = 0.26833 0.21466
#
# Static dielectric constant tensor:
#      x y z
#    x 3.408540 0.000000 0.000000 
#    y 0.000000 3.441460 0.000000 
#    z 0.000000 0.000000 3.940290 
# 
# 
# High freq. dielectric constant tensor:
#      x y z
#    x 1.756350 0.000000 0.000000 
#    y 0.000000 1.721560 0.000000 
#    z 0.000000 0.000000 1.775440 
# 
# From -- ./inp_files/26987.got.cif
#   From: 2010.03.12/outbox.cif.g09.slc.cpg/sg44_14_cif.got.tgz:26987.got - 2010.04.14 02:36:11.
