data_PCOD8190186
_publ_section_title
;
Structure prediction by ZEFSAII (Michael W. Deem and Ramdas Pophale) SiO2 
 PCOD8190186
Probable space group: I M M 2
;
_chemical_formula_sum "Si O2"
_cell_formula_units_Z 48
_cell_length_a 25.816521
_cell_length_b 14.616530
_cell_length_c 6.331956
_cell_angle_alpha 90.000000
_cell_angle_beta 90.000000
_cell_angle_gamma 90.000000
_cell_volume 2389.350639
_symmetry_space_group_name_H-M "I M M 2"
_symmetry_group_IT_number 44
_symmetry_cell_setting 'orthorhombic'
loop_
_space_group_symop_operation_xyz
x,y,z
-x,-y,z
-x,y,z
x,-y,z
1/2+x,1/2+y,1/2+z
1/2-x,1/2-y,1/2+z
1/2-x,1/2+y,1/2+z
1/2+x,1/2-y,1/2+z
loop_
_atom_site_type_symbol
_atom_site_label
_atom_site_fract_x
_atom_site_fract_y
_atom_site_fract_z
Si Si1 0.361887 0.401241 0.879320
Si Si2 0.059868 0.106102 0.739037
Si Si3 0.845128 0.396944 0.258559
Si Si4 0.254649 0.636591 0.014801
Si Si5 0.626298 0.730040 0.506502
Si Si6 0.194620 0.308374 0.652529
O O1 0.376821 0.500000 0.783072
O O2 0.349066 0.329731 0.695134
O O3 0.408526 0.367066 0.028450
O O4 0.309714 0.414237 0.019394
O O5 0.000000 0.121008 0.687395
O O6 0.071206 0.000000 0.803172
O O7 0.074816 0.176126 0.929398
O O8 0.867708 0.500000 0.249564
O O9 0.784103 0.397947 0.196202
O O10 0.880640 0.332484 0.105903
O O11 0.845988 0.359192 0.498335
O O12 0.264319 0.746144 0.025771
O O13 0.225337 0.617252 0.792017
O O14 0.663852 0.738335 0.306632
#
# Coordination Sequence:
#
# PCOD8190186 Si02
#       6
#     8   8   8   8   8   8
#     4  11  22  36  57  86 119 160 200 243 301 365
#     4  10  22  40  63  94 127 157 196 248 308 372
#     4  11  24  37  55  84 120 163 210 258 300 352
#     4  11  19  35  53  81 113 160 204 243 293 353
#     4  11  21  39  60  83 118 159 201 249 301 362
#     4  11  20  35  56  76 117 159 204 249 296 351
#
# _framework density 20.089137999999998
#
# number of rings (size 3 to 8) (size 9 to 14) (size 15 to 20)
#    0.000    1.167    5.000    2.000    0.000    4.000 
#    0.000    1.667    0.000    0.500    0.000    0.000 
#    0.000    0.000    0.000    0.000    0.000    0.000 
#
# Total GULP energy -297388.034309 kJ/mol
# GULP energy per Si atom -12391.168096 kJ/mol
# Density = 2.004341 g / cm^3
# Si number density = 20.089138 Si / 1000 Ang^3
#
#
#
# Elastic Constant Matrix: (Units=GPa)
#
#
# Indices 1 2 3 4 5 6 
#
# 1 93.7538 26.5974 38.4721 0.0000 0.0000 0.0000
# 2 26.5974 130.0444 51.3245 0.0000 0.0000 0.0000
# 3 38.4721 51.3245 99.0958 0.0000 0.0000 0.0000
# 4 0.0000 0.0000 0.0000 26.1384 0.0000 0.0000
# 5 0.0000 0.0000 0.0000 0.0000 27.2387 0.0000
# 6 0.0000 0.0000 0.0000 0.0000 0.0000 18.2626
#
#
#
# Elastic Compliance Matrix: (Units=1/GPa)
#
#
# Indices 1 2 3 4 5 6 
#
# 1 0.012757 -0.000823 -0.004527 0.000000 0.000000 0.000000
# 2 -0.000823 0.009718 -0.004714 0.000000 0.000000 0.000000
# 3 -0.004527 -0.004714 0.014290 0.000000 0.000000 0.000000
# 4 0.000000 0.000000 0.000000 0.038258 0.000000 0.000000
# 5 0.000000 0.000000 0.000000 0.000000 0.036713 0.000000
# 6 0.000000 0.000000 0.000000 0.000000 0.000000 0.054757
#
#
# Mechanical properties :
#
#
# Convention : Reuss Voigt Hill
#
# Bulk Modulus (GPa) = 60.09968 61.74246 60.92107
# Shear Modulus (GPa) = 26.01916 28.09458 27.05687
#
# Velocity S-wave (km/s) = 3.60277 3.74370 3.67391
# Velocity P-wave (km/s) = 6.87663 7.03478 6.95615
#
# Compressibility (1/GPa) = 0.01663902
#
# Stress axis : x y z
#
# Youngs Moduli (GPa) = 78.38751 102.89722 69.97805
#
# Poissons Ratio (x) = 0.08465 0.31677
# Poissons Ratio (y) = 0.06448 0.32988
# Poissons Ratio (z) = 0.35483 0.48507
#
# Static dielectric constant tensor:
#      x y z
#    x 3.259770 0.000000 0.000000 
#    y 0.000000 3.650830 0.000000 
#    z 0.000000 0.000000 3.722640 
# 
# 
# High freq. dielectric constant tensor:
#      x y z
#    x 1.733850 0.000000 0.000000 
#    y 0.000000 1.780690 0.000000 
#    z 0.000000 0.000000 1.792820 
# 
# From -- ./inp_files/3012.got.cif
#   From: 2010.03.12/outbox.cif.g09.slc.cpg/sg44_2_cif.got.tgz:3012.got - 2010.04.14 02:36:11.
