data_PCOD8190540
_publ_section_title
;
Structure prediction by ZEFSAII (Michael W. Deem and Ramdas Pophale) SiO2 
 PCOD8190540
Probable space group: I B A 2
;
_chemical_formula_sum "Si O2"
_cell_formula_units_Z 48
_cell_length_a 8.840261
_cell_length_b 29.397053
_cell_length_c 9.033459
_cell_angle_alpha 90.000000
_cell_angle_beta 90.000000
_cell_angle_gamma 90.000000
_cell_volume 2347.593836
_symmetry_space_group_name_H-M "I B A 2"
_symmetry_group_IT_number 45
_symmetry_cell_setting 'orthorhombic'
loop_
_space_group_symop_operation_xyz
x,y,z
-x,-y,z
-x,y,1/2+z
x,-y,1/2+z
1/2+x,1/2+y,1/2+z
1/2-x,1/2-y,1/2+z
1/2-x,1/2+y,z
1/2+x,1/2-y,z
loop_
_atom_site_type_symbol
_atom_site_label
_atom_site_fract_x
_atom_site_fract_y
_atom_site_fract_z
Si Si1 0.554980 0.885067 0.852880
Si Si2 0.288421 0.118907 0.551222
Si Si3 0.197597 0.720196 0.570238
Si Si4 0.598423 0.214443 0.399212
Si Si5 0.653037 0.527251 0.105093
Si Si6 0.343203 0.020016 0.878655
O O1 0.580027 0.888719 0.675576
O O2 0.634970 0.839233 0.913080
O O3 0.636108 0.927879 0.928651
O O4 0.375514 0.886027 0.893586
O O5 0.222642 0.170110 0.569276
O O6 0.151429 0.081990 0.569481
O O7 0.314301 0.759138 0.527850
O O8 0.129961 0.731806 0.732419
O O9 0.076094 0.721758 0.438392
O O10 0.500000 0.500000 0.064577
O O11 0.696415 0.517277 0.273321
O O12 0.799302 0.509218 0.019480
O O13 0.500000 0.000000 0.810861
#
# Coordination Sequence:
#
# PCOD8190540 Si02
#       6
#     8   8   8   8   8   8
#     4   9  19  34  58  86 111 146 203 250 280 342
#     4   9  19  36  58  83 117 151 197 247 292 353
#     4  10  20  37  61  86 117 158 197 249 299 360
#     4  10  20  37  59  85 119 153 198 247 303 353
#     4  11  23  38  56  86 124 154 190 251 308 351
#     4  11  21  37  62  85 112 156 207 243 286 360
#
# _framework density 20.446467999999999
#
# number of rings (size 3 to 8) (size 9 to 14) (size 15 to 20)
#    0.000    2.000    1.667    2.000    2.333    1.333 
#    3.000    0.000    0.000    0.000    0.000    0.000 
#    0.000    0.000    0.000    0.000    0.000    0.000 
#
# Total GULP energy -297380.977246 kJ/mol
# GULP energy per Si atom -12390.874052 kJ/mol
# Density = 2.039993 g / cm^3
# Si number density = 20.446468 Si / 1000 Ang^3
#
#
#
# Elastic Constant Matrix: (Units=GPa)
#
#
# Indices 1 2 3 4 5 6 
#
# 1 75.4425 50.8748 18.9429 0.0001 0.0002 -0.0001
# 2 50.8748 136.0080 35.8321 -0.0001 0.0003 0.0000
# 3 18.9429 35.8321 57.6842 0.0010 0.0010 0.0001
# 4 0.0001 -0.0001 0.0010 28.3496 0.0003 0.0003
# 5 0.0002 0.0003 0.0010 0.0003 29.7528 0.0001
# 6 -0.0001 0.0000 0.0001 0.0003 0.0001 36.1337
#
#
#
# Elastic Compliance Matrix: (Units=1/GPa)
#
#
# Indices 1 2 3 4 5 6 
#
# 1 0.017929 -0.006164 -0.002059 0.000000 0.000000 0.000000
# 2 -0.006164 0.010910 -0.004753 0.000000 0.000000 0.000000
# 3 -0.002059 -0.004753 0.020964 -0.000001 -0.000001 0.000000
# 4 0.000000 0.000000 -0.000001 0.035274 0.000000 0.000000
# 5 0.000000 0.000000 -0.000001 0.000000 0.033610 0.000000
# 6 0.000000 0.000000 0.000000 0.000000 0.000000 0.027675
#
#
# Mechanical properties :
#
#
# Convention : Reuss Voigt Hill
#
# Bulk Modulus (GPa) = 41.92533 53.38160 47.65347
# Shear Modulus (GPa) = 27.73694 29.74620 28.74157
#
# Velocity S-wave (km/s) = 3.68715 3.81837 3.75333
# Velocity P-wave (km/s) = 6.21902 6.75311 6.49156
#
# Compressibility (1/GPa) = 0.02385193
#
# Stress axis : x y z
#
# Youngs Moduli (GPa) = 55.77632 91.65531 47.70006
#
# Poissons Ratio (x) = 0.56497 0.09820
# Poissons Ratio (y) = 0.34381 0.22672
# Poissons Ratio (z) = 0.11482 0.43565
#
# Static dielectric constant tensor:
#      x y z
#    x 3.183090 0.000000 0.000000 
#    y 0.000000 4.061750 0.000000 
#    z 0.000000 0.000000 3.648210 
# 
# 
# High freq. dielectric constant tensor:
#      x y z
#    x 1.754670 0.000000 0.000000 
#    y 0.000000 1.817890 0.000000 
#    z 0.000000 0.000000 1.800120 
# 
# From -- ./inp_files/1058.got.cif
#   From: 2010.03.12/outbox.cif.g09.slc.cpg/sg45_1_cif.got.tgz:1058.got - 2010.04.14 02:50:11.
