data_PCOD8190777
_publ_section_title
;
Structure prediction by ZEFSAII (Michael W. Deem and Ramdas Pophale) SiO2 
 PCOD8190777
Probable space group: I B A 2
;
_chemical_formula_sum "Si O2"
_cell_formula_units_Z 64
_cell_length_a 14.919972
_cell_length_b 20.831565
_cell_length_c 9.707648
_cell_angle_alpha 90.000000
_cell_angle_beta 90.000000
_cell_angle_gamma 90.000000
_cell_volume 3017.198802
_symmetry_space_group_name_H-M "I B A 2"
_symmetry_group_IT_number 45
_symmetry_cell_setting 'orthorhombic'
loop_
_space_group_symop_operation_xyz
x,y,z
-x,-y,z
-x,y,1/2+z
x,-y,1/2+z
1/2+x,1/2+y,1/2+z
1/2-x,1/2-y,1/2+z
1/2-x,1/2+y,z
1/2+x,1/2-y,z
loop_
_atom_site_type_symbol
_atom_site_label
_atom_site_fract_x
_atom_site_fract_y
_atom_site_fract_z
Si Si1 0.510622 0.923960 0.168940
Si Si2 0.089887 0.887533 0.052532
Si Si3 0.953112 0.932992 0.838612
Si Si4 0.165014 0.749232 0.011331
Si Si5 0.309773 0.797207 0.818059
Si Si6 0.004171 0.340365 0.409298
Si Si7 0.790558 0.432415 0.255039
Si Si8 0.708116 0.491720 0.983556
O O1 0.456050 0.883576 0.283836
O O2 0.611835 0.911273 0.210009
O O3 0.500000 0.000000 0.167947
O O4 0.482289 0.893176 0.025427
O O5 0.051034 0.887766 0.206353
O O6 0.138857 0.822387 0.024056
O O7 0.156313 0.946833 0.037504
O O8 0.007457 0.893586 0.950085
O O9 0.854592 0.944257 0.898387
O O10 0.000000 0.000000 0.797578
O O11 0.191563 0.725083 0.160866
O O12 0.252331 0.747075 0.910936
O O13 0.082187 0.708561 0.951126
O O14 0.412187 0.801901 0.875652
O O15 0.254664 0.865277 0.818258
O O16 0.785999 0.486037 0.376087
O O17 0.742222 0.454653 0.116662
#
# Coordination Sequence:
#
# PCOD8190777 Si02
#       8
#     8   8   8   8   8   8   8   8
#     4  11  26  44  75 100 134 182 231 297 363 409
#     4  11  24  39  65  99 132 185 231 271 352 422
#     4  10  22  40  62  97 140 178 223 286 351 413
#     4  12  27  49  73 101 143 195 236 295 355 428
#     4  11  28  49  71 104 141 189 245 294 358 430
#     4  11  25  51  68 107 144 181 242 295 359 433
#     4  11  24  44  66 103 137 177 233 289 359 416
#     4  11  22  42  67  98 143 173 228 300 347 419
#
# _framework density 21.211728000000001
#
# number of rings (size 3 to 8) (size 9 to 14) (size 15 to 20)
#    0.000    1.000    5.000    1.500   10.500    1.000 
#    0.000    0.000    0.000    0.000    0.000    0.000 
#    0.000    0.000    0.000    0.000    0.000    0.000 
#
# Total GULP energy -396667.968366 kJ/mol
# GULP energy per Si atom -12395.874011 kJ/mol
# Density = 2.116345 g / cm^3
# Si number density = 21.211728 Si / 1000 Ang^3
#
#
#
# Elastic Constant Matrix: (Units=GPa)
#
#
# Indices 1 2 3 4 5 6 
#
# 1 84.9805 52.2633 51.0512 0.0000 0.0000 0.0000
# 2 52.2633 136.4606 66.9619 0.0000 0.0000 0.0000
# 3 51.0512 66.9619 128.6969 0.0000 0.0000 0.0000
# 4 0.0000 0.0000 0.0000 41.3299 0.0000 0.0000
# 5 0.0000 0.0000 0.0000 0.0000 38.2198 0.0000
# 6 0.0000 0.0000 0.0000 0.0000 0.0000 34.4273
#
#
#
# Elastic Compliance Matrix: (Units=1/GPa)
#
#
# Indices 1 2 3 4 5 6 
#
# 1 0.017173 -0.004343 -0.004552 0.000000 0.000000 0.000000
# 2 -0.004343 0.010939 -0.003969 0.000000 0.000000 0.000000
# 3 -0.004552 -0.003969 0.011641 0.000000 0.000000 0.000000
# 4 0.000000 0.000000 0.000000 0.024196 0.000000 0.000000
# 5 0.000000 0.000000 0.000000 0.000000 0.026164 0.000000
# 6 0.000000 0.000000 0.000000 0.000000 0.000000 0.029047
#
#
# Mechanical properties :
#
#
# Convention : Reuss Voigt Hill
#
# Bulk Modulus (GPa) = 71.30434 76.74343 74.02389
# Shear Modulus (GPa) = 33.43046 34.78617 34.10831
#
# Velocity S-wave (km/s) = 3.97424 4.05402 4.01433
# Velocity P-wave (km/s) = 7.39919 7.62704 7.51398
#
# Compressibility (1/GPa) = 0.01402439
#
# Stress axis : x y z
#
# Youngs Moduli (GPa) = 58.22950 91.41527 85.90310
#
# Poissons Ratio (x) = 0.39705 0.39107
# Poissons Ratio (y) = 0.25291 0.34093
# Poissons Ratio (z) = 0.26509 0.36281
#
# Static dielectric constant tensor:
#      x y z
#    x 3.952140 0.000000 0.000000 
#    y 0.000000 4.286410 0.000000 
#    z 0.000000 0.000000 4.088750 
# 
# 
# High freq. dielectric constant tensor:
#      x y z
#    x 1.823920 0.000000 0.000000 
#    y 0.000000 1.834810 0.000000 
#    z 0.000000 0.000000 1.855840 
# 
# From -- ./inp_files/1940.got.cif
#   From: 2010.03.12/outbox.cif.g09.slc.cpg/sg45_1_cif.got.tgz:1940.got - 2010.04.14 02:50:11.
