data_PCOD8190238
_publ_section_title
;
Structure prediction by ZEFSAII (Michael W. Deem and Ramdas Pophale) SiO2 
 PCOD8190238
Probable space group: I M M 2
;
_chemical_formula_sum "Si O2"
_cell_formula_units_Z 48
_cell_length_a 10.230101
_cell_length_b 12.563893
_cell_length_c 19.277467
_cell_angle_alpha 90.000000
_cell_angle_beta 90.000000
_cell_angle_gamma 90.000000
_cell_volume 2477.730797
_symmetry_space_group_name_H-M "I M M 2"
_symmetry_group_IT_number 44
_symmetry_cell_setting 'orthorhombic'
loop_
_space_group_symop_operation_xyz
x,y,z
-x,-y,z
-x,y,z
x,-y,z
1/2+x,1/2+y,1/2+z
1/2-x,1/2-y,1/2+z
1/2-x,1/2+y,1/2+z
1/2+x,1/2-y,1/2+z
loop_
_atom_site_type_symbol
_atom_site_label
_atom_site_fract_x
_atom_site_fract_y
_atom_site_fract_z
Si Si1 0.000000 0.375868 0.385280
Si Si2 0.846479 0.623997 0.984117
Si Si3 0.269453 0.277847 0.586596
Si Si4 0.848601 0.120568 0.225489
Si Si5 0.500000 0.618562 0.346225
Si Si6 0.000000 0.623253 0.548586
Si Si7 0.752605 0.254284 0.849582
Si Si8 0.500000 0.385008 0.509356
O O1 0.872464 0.321848 0.353343
O O2 0.000000 0.500000 0.365444
O O3 0.000000 0.359118 0.467144
O O4 0.823983 0.500000 0.972169
O O5 0.777635 0.688107 0.922362
O O6 0.000000 0.653962 0.984760
O O7 0.779406 0.655787 0.058516
O O8 0.321557 0.295427 0.663913
O O9 0.124416 0.322135 0.582931
O O10 0.364622 0.333062 0.531278
O O11 0.767198 0.154001 0.292692
O O12 0.000000 0.125296 0.244770
O O13 0.807927 0.000000 0.204042
O O14 0.500000 0.500000 0.312546
O O15 0.372427 0.682879 0.322635
O O16 0.500000 0.606050 0.427949
O O17 0.000000 0.500000 0.568738
O O18 0.500000 0.500000 0.545549
#
# Coordination Sequence:
#
# PCOD8190238 Si02
#       8
#     4   8   8   8   4   4   8   4
#     4  11  22  37  62  94 128 161 201 250 304 359
#     4  11  22  40  65  92 121 162 210 254 301 358
#     4  12  21  40  61  92 121 159 202 254 303 357
#     4  11  24  40  63  91 122 162 205 252 305 365
#     4  11  22  37  64  96 122 157 207 254 304 357
#     4  11  22  35  58  94 130 153 189 254 316 357
#     4  12  21  42  60  91 129 163 204 248 305 360
#     4  11  18  33  64  90 116 155 203 248 296 353
#
# _framework density 19.372564000000001
#
# number of rings (size 3 to 8) (size 9 to 14) (size 15 to 20)
#    0.000    0.667    6.667    2.500    0.000    3.333 
#    0.000    3.750    0.000    0.000    0.000    0.000 
#    0.000    0.000    0.000    0.000    0.000    0.000 
#
# Total GULP energy -297607.689556 kJ/mol
# GULP energy per Si atom -12400.320398 kJ/mol
# Density = 1.932847 g / cm^3
# Si number density = 19.372564 Si / 1000 Ang^3
#
#
#
# Elastic Constant Matrix: (Units=GPa)
#
#
# Indices 1 2 3 4 5 6 
#
# 1 135.0208 50.3599 18.7977 0.0000 0.0000 0.0000
# 2 50.3599 98.5403 40.4936 0.0000 0.0000 0.0000
# 3 18.7977 40.4936 83.3343 0.0000 0.0000 0.0000
# 4 0.0000 0.0000 0.0000 26.7487 0.0000 0.0000
# 5 0.0000 0.0000 0.0000 0.0000 -45.6195 0.0000
# 6 0.0000 0.0000 0.0000 0.0000 0.0000 16.8486
#
#
#
# Elastic Compliance Matrix: (Units=1/GPa)
#
#
# Indices 1 2 3 4 5 6 
#
# 1 0.009155 -0.004786 0.000260 0.000000 0.000000 0.000000
# 2 -0.004786 0.015182 -0.006298 0.000000 0.000000 0.000000
# 3 0.000260 -0.006298 0.015001 0.000000 0.000000 0.000000
# 4 0.000000 0.000000 0.000000 0.037385 0.000000 0.000000
# 5 0.000000 0.000000 0.000000 0.000000 -0.021920 0.000000
# 6 0.000000 0.000000 0.000000 0.000000 0.000000 0.059352
#
#
# Mechanical properties :
#
#
# Convention : Reuss Voigt Hill
#
# Bulk Modulus (GPa) = 56.52224 59.57753 58.04988
# Shear Modulus (GPa) = 35.28630 13.41184 24.34907
#
# Velocity S-wave (km/s) = 4.27248 2.63403 3.54910
# Velocity P-wave (km/s) = 7.31974 6.33018 6.84287
#
# Compressibility (1/GPa) = 0.01769215
#
# Stress axis : x y z
#
# Youngs Moduli (GPa) = 109.22992 65.86825 66.66122
#
# Poissons Ratio (x) = 0.31523 -0.01736
# Poissons Ratio (y) = 0.52275 0.41981
# Poissons Ratio (z) = -0.02844 0.41481
#
# Static dielectric constant tensor:
#      x y z
#    x 3.832590 0.000000 0.000000 
#    y 0.000000 3.892180 0.000000 
#    z 0.000000 0.000000 3.354190 
# 
# 
# High freq. dielectric constant tensor:
#      x y z
#    x 1.763310 0.000000 0.000000 
#    y 0.000000 1.761030 0.000000 
#    z 0.000000 0.000000 1.736430 
# 
# From -- ./inp_files/20365.got.cif
#   From: 2010.03.12/outbox.cif.g09.slc.cpg/sg44_11_cif.got.tgz:20365.got - 2010.04.14 02:36:11.
