data_PCOD8190747
_publ_section_title
;
Structure prediction by ZEFSAII (Michael W. Deem and Ramdas Pophale) SiO2 
 PCOD8190747
Probable space group: I B A 2
;
_chemical_formula_sum "Si O2"
_cell_formula_units_Z 64
_cell_length_a 30.545342
_cell_length_b 11.078295
_cell_length_c 8.831395
_cell_angle_alpha 90.000000
_cell_angle_beta 90.000000
_cell_angle_gamma 90.000000
_cell_volume 2988.458488
_symmetry_space_group_name_H-M "I B A 2"
_symmetry_group_IT_number 45
_symmetry_cell_setting 'orthorhombic'
loop_
_space_group_symop_operation_xyz
x,y,z
-x,-y,z
-x,y,1/2+z
x,-y,1/2+z
1/2+x,1/2+y,1/2+z
1/2-x,1/2-y,1/2+z
1/2-x,1/2+y,z
1/2+x,1/2-y,z
loop_
_atom_site_type_symbol
_atom_site_label
_atom_site_fract_x
_atom_site_fract_y
_atom_site_fract_z
Si Si1 0.848191 0.517166 0.378540
Si Si2 0.795216 0.157593 0.117246
Si Si3 0.459315 0.626246 0.014202
Si Si4 0.833007 0.974726 0.348330
Si Si5 0.875417 0.328485 0.142831
Si Si6 0.130782 0.154469 0.077670
Si Si7 0.953720 0.866338 0.662910
Si Si8 0.304051 0.855922 0.104626
O O1 0.877418 0.417269 0.288901
O O2 0.880538 0.593741 0.488375
O O3 0.809077 0.462832 0.482612
O O4 0.824208 0.607248 0.264992
O O5 0.827043 0.269651 0.147988
O O6 0.744608 0.195176 0.127638
O O7 0.802497 0.053450 0.239953
O O8 0.801625 0.108567 0.947929
O O9 0.465587 0.612484 0.836366
O O10 0.417704 0.711172 0.055737
O O11 0.446177 0.495620 0.084696
O O12 0.502615 0.687854 0.084135
O O13 0.864649 0.891513 0.248574
O O14 0.865667 0.048740 0.454001
O O15 0.912440 0.224341 0.145680
O O16 0.167893 0.248301 0.033987
#
# Coordination Sequence:
#
# PCOD8190747 Si02
#       8
#     8   8   8   8   8   8   8   8
#     4  10  24  42  60  83 119 167 220 257 291 356
#     4  11  22  37  59  89 123 159 202 255 316 373
#     4  11  22  38  64 100 129 155 193 246 318 396
#     4  10  22  36  57  88 123 156 195 244 306 383
#     4  11  24  43  64  88 122 166 213 259 304 358
#     4  11  22  38  59  85 119 156 195 246 307 367
#     4  11  23  40  66  97 131 162 192 247 322 387
#     4  11  23  38  59  85 118 163 208 256 308 357
#
# _framework density 21.415724000000001
#
# number of rings (size 3 to 8) (size 9 to 14) (size 15 to 20)
#    0.000    1.250    0.000    7.500    0.000   11.000 
#    0.000    0.000    0.000   12.750    0.000    0.000 
#    0.000    0.000    0.000    0.000    0.000    0.000 
#
# Total GULP energy -396735.639575 kJ/mol
# GULP energy per Si atom -12397.988737 kJ/mol
# Density = 2.136698 g / cm^3
# Si number density = 21.415724 Si / 1000 Ang^3
#
#
#
# Elastic Constant Matrix: (Units=GPa)
#
#
# Indices 1 2 3 4 5 6 
#
# 1 153.8628 33.7373 37.0120 0.0000 0.0000 0.0000
# 2 33.7373 71.4288 34.7165 0.0000 0.0000 0.0000
# 3 37.0120 34.7165 153.8036 -0.0001 0.0000 0.0000
# 4 0.0000 0.0000 -0.0001 -27.6596 0.0000 0.0000
# 5 0.0000 0.0000 0.0000 0.0000 22.2800 0.0000
# 6 0.0000 0.0000 0.0000 0.0000 0.0000 27.2456
#
#
#
# Elastic Compliance Matrix: (Units=1/GPa)
#
#
# Indices 1 2 3 4 5 6 
#
# 1 0.007417 -0.002961 -0.001117 0.000000 0.000000 0.000000
# 2 -0.002961 0.016907 -0.003104 0.000000 0.000000 0.000000
# 3 -0.001117 -0.003104 0.007471 0.000000 0.000000 0.000000
# 4 0.000000 0.000000 0.000000 -0.036154 0.000000 0.000000
# 5 0.000000 0.000000 0.000000 0.000000 0.044883 0.000000
# 6 0.000000 0.000000 0.000000 0.000000 0.000000 0.036703
#
#
# Mechanical properties :
#
#
# Convention : Reuss Voigt Hill
#
# Bulk Modulus (GPa) = 57.36205 65.55853 61.46029
# Shear Modulus (GPa) = 51.33450 22.61517 36.97484
#
# Velocity S-wave (km/s) = 4.90128 3.25315 4.15966
# Velocity P-wave (km/s) = 7.67289 6.69249 7.19940
#
# Compressibility (1/GPa) = 0.01743313
#
# Stress axis : x y z
#
# Youngs Moduli (GPa) = 134.82448 59.14781 133.84927
#
# Poissons Ratio (x) = 0.17511 0.14946
# Poissons Ratio (y) = 0.39915 0.41544
# Poissons Ratio (z) = 0.15055 0.18358
#
# Static dielectric constant tensor:
#      x y z
#    x 3.921320 0.000000 0.000000 
#    y 0.000000 3.883070 0.000000 
#    z 0.000000 0.000000 4.221160 
# 
# 
# High freq. dielectric constant tensor:
#      x y z
#    x 1.829500 0.000000 0.000000 
#    y 0.000000 1.819860 0.000000 
#    z 0.000000 0.000000 1.871350 
# 
# From -- ./inp_files/2787.got.cif
#   From: 2010.03.12/outbox.cif.g09.slc.cpg/sg45_2_cif.got.tgz:2787.got - 2010.04.14 02:50:11.
