data_PCOD8190648
_publ_section_title
;
Structure prediction by ZEFSAII (Michael W. Deem and Ramdas Pophale) SiO2 
 PCOD8190648
Probable space group: I B A 2
;
_chemical_formula_sum "Si O2"
_cell_formula_units_Z 64
_cell_length_a 19.236849
_cell_length_b 18.108022
_cell_length_c 8.750476
_cell_angle_alpha 90.000000
_cell_angle_beta 90.000000
_cell_angle_gamma 90.000000
_cell_volume 3048.152053
_symmetry_space_group_name_H-M "I B A 2"
_symmetry_group_IT_number 45
_symmetry_cell_setting 'orthorhombic'
loop_
_space_group_symop_operation_xyz
x,y,z
-x,-y,z
-x,y,1/2+z
x,-y,1/2+z
1/2+x,1/2+y,1/2+z
1/2-x,1/2-y,1/2+z
1/2-x,1/2+y,z
1/2+x,1/2-y,z
loop_
_atom_site_type_symbol
_atom_site_label
_atom_site_fract_x
_atom_site_fract_y
_atom_site_fract_z
Si Si1 0.675393 0.149437 0.049300
Si Si2 0.224321 0.797462 0.633312
Si Si3 0.207372 0.057085 0.930689
Si Si4 0.941903 0.347241 0.977622
Si Si5 0.360067 0.042351 0.806931
Si Si6 0.342710 0.277317 0.953488
Si Si7 0.921767 0.386297 0.303881
Si Si8 0.173386 0.914158 0.104225
O O1 0.667228 0.236427 0.083080
O O2 0.631018 0.096820 0.162091
O O3 0.753499 0.124851 0.074009
O O4 0.651309 0.139248 0.875465
O O5 0.213308 0.875634 0.549204
O O6 0.300813 0.769660 0.583130
O O7 0.211257 0.800617 0.816764
O O8 0.280286 0.026820 0.858810
O O9 0.159558 0.078941 0.785717
O O10 0.168324 0.992799 0.022230
O O11 0.892581 0.417243 0.951318
O O12 0.907837 0.273585 0.901145
O O13 0.018737 0.367684 0.925346
O O14 0.942942 0.337759 0.159329
O O15 0.408076 0.972318 0.766774
O O16 0.376651 0.352480 0.026547
#
# Coordination Sequence:
#
# PCOD8190648 Si02
#       8
#     8   8   8   8   8   8   8   8
#     4  10  21  37  60  87 120 167 213 261 321 375
#     4  11  21  37  62  85 125 162 213 266 330 390
#     4  11  21  36  61  94 129 162 207 260 329 396
#     4  12  26  41  60  87 125 172 228 259 317 367
#     4  11  21  40  56  90 123 171 217 263 306 377
#     4  11  23  39  61  88 125 164 217 269 329 390
#     4  12  26  39  62  81 128 173 222 268 307 368
#     4  10  22  35  59  93 127 162 203 260 332 388
#
# _framework density 20.996327999999998
#
# number of rings (size 3 to 8) (size 9 to 14) (size 15 to 20)
#    0.000    1.000    3.750    4.125    7.000    1.000 
#    0.000    0.000    0.000    0.000    0.000    0.875 
#    0.000    0.000    0.000    0.000    0.000    0.000 
#
# Total GULP energy -396476.503433 kJ/mol
# GULP energy per Si atom -12389.890732 kJ/mol
# Density = 2.094854 g / cm^3
# Si number density = 20.996328 Si / 1000 Ang^3
#
#
#
# Elastic Constant Matrix: (Units=GPa)
#
#
# Indices 1 2 3 4 5 6 
#
# 1 36.6046 18.9391 -0.1564 0.0000 0.0000 0.0000
# 2 18.9391 143.3964 21.1770 0.0000 0.0000 0.0000
# 3 -0.1564 21.1770 89.8457 0.0000 0.0000 0.0000
# 4 0.0000 0.0000 0.0000 36.1880 0.0000 0.0000
# 5 0.0000 0.0000 0.0000 0.0000 21.2950 0.0000
# 6 0.0000 0.0000 0.0000 0.0000 0.0000 25.6216
#
#
#
# Elastic Compliance Matrix: (Units=1/GPa)
#
#
# Indices 1 2 3 4 5 6 
#
# 1 0.029410 -0.004032 0.001002 0.000000 0.000000 0.000000
# 2 -0.004032 0.007778 -0.001840 0.000000 0.000000 0.000000
# 3 0.001002 -0.001840 0.011566 0.000000 0.000000 0.000000
# 4 0.000000 0.000000 0.000000 0.027633 0.000000 0.000000
# 5 0.000000 0.000000 0.000000 0.000000 0.046959 0.000000
# 6 0.000000 0.000000 0.000000 0.000000 0.000000 0.039030
#
#
# Mechanical properties :
#
#
# Convention : Reuss Voigt Hill
#
# Bulk Modulus (GPa) = 25.63355 38.86292 32.24823
# Shear Modulus (GPa) = 27.00931 31.94671 29.47801
#
# Velocity S-wave (km/s) = 3.59051 3.90492 3.75101
# Velocity P-wave (km/s) = 5.42440 6.23545 5.84401
#
# Compressibility (1/GPa) = 0.03901138
#
# Stress axis : x y z
#
# Youngs Moduli (GPa) = 34.00259 128.56757 86.46249
#
# Poissons Ratio (x) = 0.51841 -0.08660
# Poissons Ratio (y) = 0.13710 0.15912
# Poissons Ratio (z) = -0.03406 0.23661
#
# Static dielectric constant tensor:
#      x y z
#    x 3.416070 0.000000 0.000000 
#    y 0.000000 4.399500 0.000000 
#    z 0.000000 0.000000 4.120640 
# 
# 
# High freq. dielectric constant tensor:
#      x y z
#    x 1.757520 0.000000 0.000000 
#    y 0.000000 1.833400 0.000000 
#    z 0.000000 0.000000 1.842580 
# 
# From -- ./inp_files/2383.got.cif
#   From: 2010.03.12/outbox.cif.g09.slc.cpg/sg45_2_cif.got.tgz:2383.got - 2010.04.14 02:50:11.
