data_PCOD8190399
_publ_section_title
;
Structure prediction by ZEFSAII (Michael W. Deem and Ramdas Pophale) SiO2 
 PCOD8190399
Probable space group: I B A 2
;
_chemical_formula_sum "Si O2"
_cell_formula_units_Z 64
_cell_length_a 19.539220
_cell_length_b 14.292186
_cell_length_c 13.213136
_cell_angle_alpha 90.000000
_cell_angle_beta 90.000000
_cell_angle_gamma 90.000000
_cell_volume 3689.876134
_symmetry_space_group_name_H-M "I B A 2"
_symmetry_group_IT_number 45
_symmetry_cell_setting 'orthorhombic'
loop_
_space_group_symop_operation_xyz
x,y,z
-x,-y,z
-x,y,1/2+z
x,-y,1/2+z
1/2+x,1/2+y,1/2+z
1/2-x,1/2-y,1/2+z
1/2-x,1/2+y,z
1/2+x,1/2-y,z
loop_
_atom_site_type_symbol
_atom_site_label
_atom_site_fract_x
_atom_site_fract_y
_atom_site_fract_z
Si Si1 0.077276 0.823097 0.982500
Si Si2 0.576436 0.330752 0.920960
Si Si3 0.826032 0.679606 0.856401
Si Si4 0.300579 0.211702 0.935546
Si Si5 0.762013 0.490437 0.912199
Si Si6 0.862941 0.986864 0.046199
Si Si7 0.845312 0.934423 0.752720
Si Si8 0.663111 0.748459 0.147358
O O1 0.130623 0.769550 0.907178
O O2 0.002979 0.810893 0.936226
O O3 0.088646 0.775545 0.094466
O O4 0.094400 0.933019 0.987747
O O5 0.610459 0.228239 0.913135
O O6 0.592509 0.392715 0.820731
O O7 0.607223 0.385794 0.016878
O O8 0.761404 0.747203 0.871614
O O9 0.813291 0.577662 0.902719
O O10 0.841898 0.673143 0.735353
O O11 0.308733 0.102174 0.910432
O O12 0.285663 0.220749 0.057114
O O13 0.708898 0.490590 0.819493
O O14 0.717186 0.496091 0.015033
O O15 0.872688 0.994718 0.167100
O O16 0.808494 0.847442 0.696590
#
# Coordination Sequence:
#
# PCOD8190399 Si02
#       8
#     8   8   8   8   8   8   8   8
#     4   9  19  35  56  76 114 153 179 231 285 332
#     4  10  20  35  55  82 116 148 196 226 275 353
#     4  11  19  35  58  84 115 149 191 233 279 340
#     4  10  19  36  58  81 113 152 186 234 287 338
#     4  11  20  32  57  92 112 145 191 237 283 340
#     4  10  18  34  56  84 116 147 181 237 293 335
#     4   9  18  33  56  82 114 145 185 233 286 340
#     4   8  18  34  56  78 111 151 178 231 288 327
#
# _framework density 17.344756
#
# number of rings (size 3 to 8) (size 9 to 14) (size 15 to 20)
#    0.750    1.500    5.000    0.375    1.750    0.000 
#    0.000   14.375    8.250    0.000    6.500    0.000 
#    0.000    0.000    0.000    0.000    0.000    0.000 
#
# Total GULP energy -396470.695829 kJ/mol
# GULP energy per Si atom -12389.709245 kJ/mol
# Density = 1.730528 g / cm^3
# Si number density = 17.344756 Si / 1000 Ang^3
#
#
#
# Elastic Constant Matrix: (Units=GPa)
#
#
# Indices 1 2 3 4 5 6 
#
# 1 85.0855 28.0224 32.0485 0.0000 0.0000 0.0000
# 2 28.0224 80.4302 27.1491 0.0000 0.0000 0.0000
# 3 32.0485 27.1491 81.8247 0.0000 0.0000 0.0000
# 4 0.0000 0.0000 0.0000 25.3252 0.0000 0.0000
# 5 0.0000 0.0000 0.0000 0.0000 18.6286 0.0000
# 6 0.0000 0.0000 0.0000 0.0000 0.0000 25.8461
#
#
#
# Elastic Compliance Matrix: (Units=1/GPa)
#
#
# Indices 1 2 3 4 5 6 
#
# 1 0.014641 -0.003565 -0.004552 0.000000 0.000000 0.000000
# 2 -0.003565 0.014869 -0.003537 0.000000 0.000000 0.000000
# 3 -0.004552 -0.003537 0.015178 0.000000 0.000000 0.000000
# 4 0.000000 0.000000 0.000000 0.039486 0.000000 0.000000
# 5 0.000000 0.000000 0.000000 0.000000 0.053681 0.000000
# 6 0.000000 0.000000 0.000000 0.000000 0.000000 0.038691
#
#
# Mechanical properties :
#
#
# Convention : Reuss Voigt Hill
#
# Bulk Modulus (GPa) = 46.77157 46.86448 46.81802
# Shear Modulus (GPa) = 24.15683 24.63467 24.39575
#
# Velocity S-wave (km/s) = 3.73600 3.77277 3.75443
# Velocity P-wave (km/s) = 6.75534 6.78649 6.77093
#
# Compressibility (1/GPa) = 0.02138051
#
# Stress axis : x y z
#
# Youngs Moduli (GPa) = 68.29936 67.25351 65.88577
#
# Poissons Ratio (x) = 0.23974 0.29991
# Poissons Ratio (y) = 0.24346 0.23306
# Poissons Ratio (z) = 0.31089 0.23790
#
# Static dielectric constant tensor:
#      x y z
#    x 2.886120 0.000000 0.000000 
#    y 0.000000 3.246190 0.000000 
#    z 0.000000 0.000000 3.395700 
# 
# 
# High freq. dielectric constant tensor:
#      x y z
#    x 1.630060 0.000000 0.000000 
#    y 0.000000 1.665110 0.000000 
#    z 0.000000 0.000000 1.670850 
# 
# From -- ./inp_files/6852.got.cif
#   From: 2010.03.12/outbox.cif.g09.slc.cpg/sg45_4_cif.got.tgz:6852.got - 2010.04.14 02:50:11.
