data_PCOD8190143
_publ_section_title
;
Structure prediction by ZEFSAII (Michael W. Deem and Ramdas Pophale) SiO2 
 PCOD8190143
Probable space group: I M M 2
;
_chemical_formula_sum "Si O2"
_cell_formula_units_Z 44
_cell_length_a 13.180138
_cell_length_b 11.582018
_cell_length_c 14.906598
_cell_angle_alpha 90.000000
_cell_angle_beta 90.000000
_cell_angle_gamma 90.000000
_cell_volume 2275.530876
_symmetry_space_group_name_H-M "I M M 2"
_symmetry_group_IT_number 44
_symmetry_cell_setting 'orthorhombic'
loop_
_space_group_symop_operation_xyz
x,y,z
-x,-y,z
-x,y,z
x,-y,z
1/2+x,1/2+y,1/2+z
1/2-x,1/2-y,1/2+z
1/2-x,1/2+y,1/2+z
1/2+x,1/2-y,1/2+z
loop_
_atom_site_type_symbol
_atom_site_label
_atom_site_fract_x
_atom_site_fract_y
_atom_site_fract_z
Si Si1 0.885631 0.000000 0.678550
Si Si2 0.500000 0.134597 0.156351
Si Si3 0.781913 0.000000 0.505244
Si Si4 0.214091 0.726642 0.929150
Si Si5 0.500000 0.860888 0.361509
Si Si6 0.219554 0.363449 0.599586
Si Si7 0.886142 0.500000 0.155869
Si Si8 0.265935 0.812625 0.741825
O O1 0.879859 0.000000 0.569916
O O2 0.833844 0.884837 0.715645
O O3 0.000000 0.000000 0.711688
O O4 0.500000 0.184015 0.258246
O O5 0.400321 0.170315 0.099691
O O6 0.500000 0.000000 0.171591
O O7 0.781173 0.887548 0.443598
O O8 0.682209 0.000000 0.567806
O O9 0.266175 0.792893 0.847421
O O10 0.097835 0.692452 0.910652
O O11 0.222444 0.809926 0.014854
O O12 0.500000 0.000000 0.369277
O O13 0.237488 0.500000 0.601600
O O14 0.267278 0.309409 0.689868
O O15 0.865155 0.386308 0.215605
O O16 0.000000 0.500000 0.121533
#
# Coordination Sequence:
#
# PCOD8190143 Si02
#       8
#     4   4   4   8   4   8   4   8
#     4  10  22  42  64  89 126 168 206 262 327 370
#     4   9  20  40  62  93 118 165 211 260 308 371
#     4  10  22  38  62  96 119 162 212 267 307 364
#     4  12  23  39  62  97 128 157 210 265 311 371
#     4  11  22  36  71  96 117 162 225 261 311 368
#     4  11  23  40  62  92 133 165 205 261 323 375
#     4  10  22  46  66  83 119 172 218 253 306 376
#     4  10  23  40  61  95 123 164 210 260 314 368
#
# _framework density 19.336147
#
# number of rings (size 3 to 8) (size 9 to 14) (size 15 to 20)
#    0.000    1.636    6.364    0.000    7.636    0.000 
#    1.636    0.455    0.000    0.000    0.000    0.000 
#    0.000    0.000    0.000    0.000    0.000    0.000 
#
# Total GULP energy -272757.680819 kJ/mol
# GULP energy per Si atom -12398.076401 kJ/mol
# Density = 1.929214 g / cm^3
# Si number density = 19.336147 Si / 1000 Ang^3
#
#
#
# Elastic Constant Matrix: (Units=GPa)
#
#
# Indices 1 2 3 4 5 6 
#
# 1 72.3603 19.9204 24.4896 0.0000 0.0000 0.0000
# 2 19.9204 113.4602 30.4778 0.0000 0.0000 0.0000
# 3 24.4896 30.4778 97.7431 0.0000 0.0000 0.0000
# 4 0.0000 0.0000 0.0000 38.1870 0.0000 0.0000
# 5 0.0000 0.0000 0.0000 0.0000 21.5612 0.0000
# 6 0.0000 0.0000 0.0000 0.0000 0.0000 17.5707
#
#
#
# Elastic Compliance Matrix: (Units=1/GPa)
#
#
# Indices 1 2 3 4 5 6 
#
# 1 0.015439 -0.001824 -0.003299 0.000000 0.000000 0.000000
# 2 -0.001824 0.009835 -0.002610 0.000000 0.000000 0.000000
# 3 -0.003299 -0.002610 0.011871 0.000000 0.000000 0.000000
# 4 0.000000 0.000000 0.000000 0.026187 0.000000 0.000000
# 5 0.000000 0.000000 0.000000 0.000000 0.046380 0.000000
# 6 0.000000 0.000000 0.000000 0.000000 0.000000 0.056913
#
#
# Mechanical properties :
#
#
# Convention : Reuss Voigt Hill
#
# Bulk Modulus (GPa) = 46.12897 48.14879 47.13888
# Shear Modulus (GPa) = 26.41074 29.37549 27.89312
#
# Velocity S-wave (km/s) = 3.69978 3.90192 3.80220
# Velocity P-wave (km/s) = 6.49302 6.72718 6.61114
#
# Compressibility (1/GPa) = 0.02167835
#
# Stress axis : x y z
#
# Youngs Moduli (GPa) = 64.77287 101.67809 84.23703
#
# Poissons Ratio (x) = 0.18549 0.27792
# Poissons Ratio (y) = 0.11817 0.21983
# Poissons Ratio (z) = 0.21370 0.26534
#
# Static dielectric constant tensor:
#      x y z
#    x 3.437240 0.000000 0.000000 
#    y 0.000000 3.708950 0.000000 
#    z 0.000000 0.000000 3.555110 
# 
# 
# High freq. dielectric constant tensor:
#      x y z
#    x 1.728880 0.000000 0.000000 
#    y 0.000000 1.765970 0.000000 
#    z 0.000000 0.000000 1.751660 
# 
# From -- ./inp_files/18362.got.cif
#   From: 2010.03.12/outbox.cif.g09.slc.cpg/sg44_10_cif.got.tgz:18362.got - 2010.04.14 02:36:11.
