data_PCOD8190228
_publ_section_title
;
Structure prediction by ZEFSAII (Michael W. Deem and Ramdas Pophale) SiO2 
 PCOD8190228
Probable space group: I M M 2
;
_chemical_formula_sum "Si O2"
_cell_formula_units_Z 48
_cell_length_a 13.664103
_cell_length_b 8.864412
_cell_length_c 18.646469
_cell_angle_alpha 90.000000
_cell_angle_beta 90.000000
_cell_angle_gamma 90.000000
_cell_volume 2258.539360
_symmetry_space_group_name_H-M "I M M 2"
_symmetry_group_IT_number 44
_symmetry_cell_setting 'orthorhombic'
loop_
_space_group_symop_operation_xyz
x,y,z
-x,-y,z
-x,y,z
x,-y,z
1/2+x,1/2+y,1/2+z
1/2-x,1/2-y,1/2+z
1/2-x,1/2+y,1/2+z
1/2+x,1/2-y,1/2+z
loop_
_atom_site_type_symbol
_atom_site_label
_atom_site_fract_x
_atom_site_fract_y
_atom_site_fract_z
Si Si1 0.888469 0.678404 0.078770
Si Si2 0.889823 0.675802 0.350748
Si Si3 0.250268 0.826450 0.977771
Si Si4 0.302053 0.322987 0.719751
Si Si5 0.606758 0.335784 0.067198
Si Si6 0.106642 0.169249 0.735428
O O1 0.882469 0.500000 0.082115
O O2 0.822990 0.743184 0.143716
O O3 0.000000 0.735277 0.086038
O O4 0.846925 0.734425 0.001205
O O5 0.873257 0.500000 0.333988
O O6 0.806060 0.732826 0.406441
O O7 0.881973 0.769231 0.277260
O O8 0.000000 0.702133 0.381021
O O9 0.221548 0.000000 0.970627
O O10 0.326857 0.802512 0.042255
O O11 0.308602 0.500000 0.707520
O O12 0.196383 0.279099 0.754430
O O13 0.500000 0.316605 0.032141
O O14 0.651161 0.500000 0.043900
O O15 0.596361 0.331877 0.151190
O O16 0.000000 0.222740 0.767020
O O17 0.129639 0.000000 0.764215
#
# Coordination Sequence:
#
# PCOD8190228 Si02
#       6
#     8   8   8   8   8   8
#     4  11  24  42  64  88 119 163 208 251 305 369
#     4  10  23  43  64  88 123 167 207 245 301 371
#     4  11  22  37  60  91 121 152 197 253 305 358
#     4  12  24  38  61  94 127 160 204 259 310 358
#     4   9  17  30  52  82 116 154 192 232 284 348
#     4   9  18  34  57  85 118 158 200 240 291 356
#
# _framework density 21.252673000000001
#
# number of rings (size 3 to 8) (size 9 to 14) (size 15 to 20)
#    0.000    1.667    1.667    4.500    0.000    6.333 
#    0.000    2.500    0.000    1.000    0.000    0.000 
#    0.000    0.000    0.000    0.000    0.000    0.000 
#
# Total GULP energy -297393.433315 kJ/mol
# GULP energy per Si atom -12391.393055 kJ/mol
# Density = 2.120430 g / cm^3
# Si number density = 21.252673 Si / 1000 Ang^3
#
#
#
# Elastic Constant Matrix: (Units=GPa)
#
#
# Indices 1 2 3 4 5 6 
#
# 1 120.6339 31.1067 25.8316 0.0000 0.0000 0.0000
# 2 31.1067 81.2621 27.3439 0.0000 0.0000 0.0000
# 3 25.8316 27.3439 70.1264 0.0000 0.0000 0.0000
# 4 0.0000 0.0000 0.0000 28.1133 0.0000 0.0000
# 5 0.0000 0.0000 0.0000 0.0000 29.5314 0.0000
# 6 0.0000 0.0000 0.0000 0.0000 0.0000 28.7259
#
#
#
# Elastic Compliance Matrix: (Units=1/GPa)
#
#
# Indices 1 2 3 4 5 6 
#
# 1 0.009537 -0.002842 -0.002405 0.000000 0.000000 0.000000
# 2 -0.002842 0.015011 -0.004806 0.000000 0.000000 0.000000
# 3 -0.002405 -0.004806 0.017020 0.000000 0.000000 0.000000
# 4 0.000000 0.000000 0.000000 0.035570 0.000000 0.000000
# 5 0.000000 0.000000 0.000000 0.000000 0.033862 0.000000
# 6 0.000000 0.000000 0.000000 0.000000 0.000000 0.034812
#
#
# Mechanical properties :
#
#
# Convention : Reuss Voigt Hill
#
# Bulk Modulus (GPa) = 46.59384 48.95411 47.77398
# Shear Modulus (GPa) = 28.88958 29.79013 29.33985
#
# Velocity S-wave (km/s) = 3.69092 3.74801 3.71957
# Velocity P-wave (km/s) = 6.33524 6.46641 6.40116
#
# Compressibility (1/GPa) = 0.02146206
#
# Stress axis : x y z
#
# Youngs Moduli (GPa) = 104.85167 66.61837 58.75425
#
# Poissons Ratio (x) = 0.18930 0.14131
# Poissons Ratio (y) = 0.29794 0.28240
# Poissons Ratio (z) = 0.25219 0.32019
#
# Static dielectric constant tensor:
#      x y z
#    x 4.445460 0.000000 0.000000 
#    y 0.000000 3.754040 0.000000 
#    z 0.000000 0.000000 3.598110 
# 
# 
# High freq. dielectric constant tensor:
#      x y z
#    x 1.849180 0.000000 0.000000 
#    y 0.000000 1.817690 0.000000 
#    z 0.000000 0.000000 1.804940 
# 
# From -- ./inp_files/24019.got.cif
#   From: 2010.03.12/outbox.cif.g09.slc.cpg/sg44_13_cif.got.tgz:24019.got - 2010.04.14 02:36:11.
