data_PCOD8190606
_publ_section_title
;
Structure prediction by ZEFSAII (Michael W. Deem and Ramdas Pophale) SiO2 
 PCOD8190606
Probable space group: I B A 2
;
_chemical_formula_sum "Si O2"
_cell_formula_units_Z 56
_cell_length_a 21.602506
_cell_length_b 10.033405
_cell_length_c 12.711805
_cell_angle_alpha 90.000000
_cell_angle_beta 90.000000
_cell_angle_gamma 90.000000
_cell_volume 2755.241679
_symmetry_space_group_name_H-M "I B A 2"
_symmetry_group_IT_number 45
_symmetry_cell_setting 'orthorhombic'
loop_
_space_group_symop_operation_xyz
x,y,z
-x,-y,z
-x,y,1/2+z
x,-y,1/2+z
1/2+x,1/2+y,1/2+z
1/2-x,1/2-y,1/2+z
1/2-x,1/2+y,z
1/2+x,1/2-y,z
loop_
_atom_site_type_symbol
_atom_site_label
_atom_site_fract_x
_atom_site_fract_y
_atom_site_fract_z
Si Si1 0.090136 0.329471 0.906600
Si Si2 0.282206 0.585673 0.775232
Si Si3 0.668817 0.634774 0.061508
Si Si4 0.500000 0.500000 0.253708
Si Si5 0.902172 0.042805 0.408250
Si Si6 0.000000 0.500000 0.538907
Si Si7 0.439456 0.230622 0.172687
Si Si8 0.231396 0.340616 0.886217
O O1 0.066087 0.182675 0.944599
O O2 0.076552 0.340142 0.782443
O O3 0.162959 0.339324 0.934950
O O4 0.055915 0.449315 0.965777
O O5 0.291079 0.560450 0.651237
O O6 0.348059 0.586523 0.830724
O O7 0.237277 0.479614 0.826915
O O8 0.253822 0.730711 0.797527
O O9 0.626273 0.749464 0.112770
O O10 0.620437 0.532220 0.010942
O O11 0.717589 0.687156 0.976313
O O12 0.553773 0.452075 0.334852
O O13 0.476834 0.372299 0.185548
O O14 0.019918 0.374052 0.608324
#
# Coordination Sequence:
#
# PCOD8190606 Si02
#       8
#     8   8   8   4   8   4   8   8
#     4  10  23  48  61  96 142 164 218 276 317 401
#     4  10  21  43  59  95 130 162 212 276 313 391
#     4  11  22  40  69  96 125 172 224 270 332 385
#     4  10  20  42  70  92 132 168 216 290 314 378
#     4   9  21  39  64  94 127 167 220 272 320 377
#     4  12  28  40  70  98 136 184 210 264 344 412
#     4  11  25  44  67  95 135 171 221 268 334 392
#     4  10  23  40  68  91 130 171 215 268 331 381
#
# _framework density 20.324895000000001
#
# number of rings (size 3 to 8) (size 9 to 14) (size 15 to 20)
#    0.000    1.714    4.286    0.429    8.000    4.571 
#    0.000    1.429    0.000    0.000    0.000    0.000 
#    0.000    0.000    0.000    0.000    0.000    0.000 
#
# Total GULP energy -347022.568262 kJ/mol
# GULP energy per Si atom -12393.663152 kJ/mol
# Density = 2.027863 g / cm^3
# Si number density = 20.324895 Si / 1000 Ang^3
#
#
#
# Elastic Constant Matrix: (Units=GPa)
#
#
# Indices 1 2 3 4 5 6 
#
# 1 96.8829 54.2731 45.7762 0.0000 0.0000 0.0000
# 2 54.2731 101.3853 52.5221 0.0000 0.0000 0.0000
# 3 45.7762 52.5221 125.4551 0.0000 0.0000 0.0000
# 4 0.0000 0.0000 0.0000 29.9024 0.0000 0.0000
# 5 0.0000 0.0000 0.0000 0.0000 29.7744 0.0000
# 6 0.0000 0.0000 0.0000 0.0000 0.0000 29.5857
#
#
#
# Elastic Compliance Matrix: (Units=1/GPa)
#
#
# Indices 1 2 3 4 5 6 
#
# 1 0.015467 -0.006839 -0.002780 0.000000 0.000000 0.000000
# 2 -0.006839 0.015619 -0.004044 0.000000 0.000000 0.000000
# 3 -0.002780 -0.004044 0.010678 0.000000 0.000000 0.000000
# 4 0.000000 0.000000 0.000000 0.033442 0.000000 0.000000
# 5 0.000000 0.000000 0.000000 0.000000 0.033586 0.000000
# 6 0.000000 0.000000 0.000000 0.000000 0.000000 0.033800
#
#
# Mechanical properties :
#
#
# Convention : Reuss Voigt Hill
#
# Bulk Modulus (GPa) = 69.26087 69.87401 69.56744
# Shear Modulus (GPa) = 28.61540 29.26263 28.93902
#
# Velocity S-wave (km/s) = 3.75627 3.79851 3.77745
# Velocity P-wave (km/s) = 7.27761 7.32744 7.30257
#
# Compressibility (1/GPa) = 0.01443817
#
# Stress axis : x y z
#
# Youngs Moduli (GPa) = 64.65514 64.02354 93.64819
#
# Poissons Ratio (x) = 0.43787 0.26036
# Poissons Ratio (y) = 0.44219 0.37867
# Poissons Ratio (z) = 0.17976 0.25888
#
# Static dielectric constant tensor:
#      x y z
#    x 3.781040 0.000000 0.000000 
#    y 0.000000 3.846170 0.000000 
#    z 0.000000 0.000000 3.770110 
# 
# 
# High freq. dielectric constant tensor:
#      x y z
#    x 1.797210 0.000000 0.000000 
#    y 0.000000 1.785980 0.000000 
#    z 0.000000 0.000000 1.797830 
# 
# From -- ./inp_files/4645.got.cif
#   From: 2010.03.12/outbox.cif.g09.slc.cpg/sg45_3_cif.got.tgz:4645.got - 2010.04.14 02:50:11.
