data_PCOD8190567
_publ_section_title
;
Structure prediction by ZEFSAII (Michael W. Deem and Ramdas Pophale) SiO2 
 PCOD8190567
Probable space group: I B A 2
;
_chemical_formula_sum "Si O2"
_cell_formula_units_Z 56
_cell_length_a 18.009691
_cell_length_b 14.308106
_cell_length_c 9.373052
_cell_angle_alpha 90.000000
_cell_angle_beta 90.000000
_cell_angle_gamma 90.000000
_cell_volume 2415.290854
_symmetry_space_group_name_H-M "I B A 2"
_symmetry_group_IT_number 45
_symmetry_cell_setting 'orthorhombic'
loop_
_space_group_symop_operation_xyz
x,y,z
-x,-y,z
-x,y,1/2+z
x,-y,1/2+z
1/2+x,1/2+y,1/2+z
1/2-x,1/2-y,1/2+z
1/2-x,1/2+y,z
1/2+x,1/2-y,z
loop_
_atom_site_type_symbol
_atom_site_label
_atom_site_fract_x
_atom_site_fract_y
_atom_site_fract_z
Si Si1 0.755457 0.716137 0.032010
Si Si2 0.391169 0.615727 0.502089
Si Si3 0.164997 0.594343 0.040514
Si Si4 0.966378 0.291484 0.114239
Si Si5 0.882863 0.950581 0.814910
Si Si6 0.283157 0.066983 0.747390
Si Si7 0.910879 0.755590 0.921957
O O1 0.718536 0.816193 0.064653
O O2 0.783014 0.671792 0.181715
O O3 0.694935 0.642237 0.973842
O O4 0.824496 0.723192 0.921517
O O5 0.437292 0.710321 0.507513
O O6 0.417188 0.547806 0.374173
O O7 0.405086 0.562174 0.651048
O O8 0.079802 0.614913 0.082881
O O9 0.196462 0.509152 0.130505
O O10 0.158006 0.565465 0.875386
O O11 0.955517 0.274802 0.281158
O O12 0.052297 0.293139 0.062982
O O13 0.794345 0.954952 0.824756
O O14 0.912023 0.868350 0.919868
#
# Coordination Sequence:
#
# PCOD8190567 Si02
#       7
#     8   8   8   8   8   8   8
#     4  10  23  40  70  98 136 173 228 289 347 405
#     4   9  21  40  64 100 131 168 224 282 346 407
#     4  11  25  43  71 106 138 175 235 290 356 412
#     4  10  26  44  66  93 137 187 227 275 348 425
#     4  10  20  38  64 100 131 165 223 279 344 401
#     4  11  23  40  70 107 130 175 226 287 354 404
#     4  11  24  45  64  94 136 185 227 279 344 420
#
# _framework density 23.185614000000001
#
# number of rings (size 3 to 8) (size 9 to 14) (size 15 to 20)
#    0.000    1.714    1.429    2.571    6.000    2.857 
#    0.000    3.571    0.000    0.000    0.000    0.000 
#    0.000    0.000    0.000    0.000    0.000    0.000 
#
# Total GULP energy -347053.307388 kJ/mol
# GULP energy per Si atom -12394.760978 kJ/mol
# Density = 2.313284 g / cm^3
# Si number density = 23.185614 Si / 1000 Ang^3
#
#
#
# Elastic Constant Matrix: (Units=GPa)
#
#
# Indices 1 2 3 4 5 6 
#
# 1 56.1392 3.9064 12.0726 0.0000 0.0000 0.0000
# 2 3.9064 85.8647 46.0850 0.0000 0.0000 0.0000
# 3 12.0726 46.0850 88.6195 0.0000 0.0000 0.0000
# 4 0.0000 0.0000 0.0000 33.1681 0.0000 0.0000
# 5 0.0000 0.0000 0.0000 0.0000 36.1950 0.0000
# 6 0.0000 0.0000 0.0000 0.0000 0.0000 26.9771
#
#
#
# Elastic Compliance Matrix: (Units=1/GPa)
#
#
# Indices 1 2 3 4 5 6 
#
# 1 0.018381 0.000704 -0.002870 0.000000 0.000000 0.000000
# 2 0.000704 0.016182 -0.008511 0.000000 0.000000 0.000000
# 3 -0.002870 -0.008511 0.016101 0.000000 0.000000 0.000000
# 4 0.000000 0.000000 0.000000 0.030149 0.000000 0.000000
# 5 0.000000 0.000000 0.000000 0.000000 0.027628 0.000000
# 6 0.000000 0.000000 0.000000 0.000000 0.000000 0.037068
#
#
# Mechanical properties :
#
#
# Convention : Reuss Voigt Hill
#
# Bulk Modulus (GPa) = 34.11778 39.41682 36.76730
# Shear Modulus (GPa) = 28.30688 30.50534 29.40611
#
# Velocity S-wave (km/s) = 3.49790 3.63119 3.56517
# Velocity P-wave (km/s) = 5.57322 5.88373 5.73058
#
# Compressibility (1/GPa) = 0.02931023
#
# Stress axis : x y z
#
# Youngs Moduli (GPa) = 54.40362 61.79579 62.10651
#
# Poissons Ratio (x) = -0.04352 0.17827
# Poissons Ratio (y) = -0.03832 0.52861
# Poissons Ratio (z) = 0.15616 0.52596
#
# Static dielectric constant tensor:
#      x y z
#    x 4.192550 0.000000 0.000000 
#    y 0.000000 4.157890 0.000000 
#    z 0.000000 0.000000 3.989060 
# 
# 
# High freq. dielectric constant tensor:
#      x y z
#    x 1.905600 0.000000 0.000000 
#    y 0.000000 1.909670 0.000000 
#    z 0.000000 0.000000 1.911770 
# 
# From -- ./inp_files/2327.got.cif
#   From: 2010.03.12/outbox.cif.g09.slc.cpg/sg45_2_cif.got.tgz:2327.got - 2010.04.14 02:50:11.
