data_PCOD8190503
_publ_section_title
;
Structure prediction by ZEFSAII (Michael W. Deem and Ramdas Pophale) SiO2 
 PCOD8190503
Probable space group: I B A 2
;
_chemical_formula_sum "Si O2"
_cell_formula_units_Z 64
_cell_length_a 9.963360
_cell_length_b 19.135871
_cell_length_c 17.814318
_cell_angle_alpha 90.000000
_cell_angle_beta 90.000000
_cell_angle_gamma 90.000000
_cell_volume 3396.434611
_symmetry_space_group_name_H-M "I B A 2"
_symmetry_group_IT_number 45
_symmetry_cell_setting 'orthorhombic'
loop_
_space_group_symop_operation_xyz
x,y,z
-x,-y,z
-x,y,1/2+z
x,-y,1/2+z
1/2+x,1/2+y,1/2+z
1/2-x,1/2-y,1/2+z
1/2-x,1/2+y,z
1/2+x,1/2-y,z
loop_
_atom_site_type_symbol
_atom_site_label
_atom_site_fract_x
_atom_site_fract_y
_atom_site_fract_z
Si Si1 0.614670 0.057404 0.757690
Si Si2 0.355576 0.527497 0.685630
Si Si3 0.343627 0.699302 0.516825
Si Si4 0.184624 0.186439 0.693396
Si Si5 0.610213 0.056501 0.924694
Si Si6 0.870508 0.042300 0.009496
Si Si7 0.987552 0.694745 0.190929
Si Si8 0.549082 0.810017 0.512860
O O1 0.651310 0.083420 0.841850
O O2 0.562155 0.124147 0.713147
O O3 0.500000 0.000000 0.755532
O O4 0.746171 0.024894 0.719217
O O5 0.500000 0.500000 0.710772
O O6 0.343250 0.606453 0.716823
O O7 0.339767 0.526945 0.596094
O O8 0.334453 0.698992 0.605776
O O9 0.396826 0.623642 0.491661
O O10 0.440104 0.756744 0.479527
O O11 0.195305 0.717180 0.487541
O O12 0.073786 0.240634 0.725700
O O13 0.335537 0.203470 0.722224
O O14 0.500000 0.000000 0.910170
O O15 0.738347 0.020367 0.963832
O O16 0.537327 0.113674 0.977043
O O17 0.000000 0.000000 0.980896
O O18 0.973749 0.688926 0.101512
#
# Coordination Sequence:
#
# PCOD8190503 Si02
#       8
#     8   8   8   8   8   8   8   8
#     4  11  23  39  57  81 119 157 190 241 297 353
#     4  10  21  36  61  90 117 150 201 247 291 349
#     4   8  16  31  52  81 110 137 177 232 277 321
#     4   9  18  34  53  85 114 142 189 240 287 340
#     4  10  23  37  55  82 115 148 192 232 283 357
#     4   9  19  36  58  86 114 143 190 242 282 343
#     4  10  20  34  59  83 115 151 190 240 294 344
#     4   9  18  34  55  80 108 145 185 231 275 339
#
# _framework density 18.843291000000001
#
# number of rings (size 3 to 8) (size 9 to 14) (size 15 to 20)
#    0.000    2.500    1.250    0.750    3.500    1.500 
#    4.500    2.500    2.750    0.000    0.000    0.000 
#    0.000    0.000    0.000    0.000    0.000    0.000 
#
# Total GULP energy -396550.024873 kJ/mol
# GULP energy per Si atom -12392.188277 kJ/mol
# Density = 1.880040 g / cm^3
# Si number density = 18.843291 Si / 1000 Ang^3
#
#
#
# Elastic Constant Matrix: (Units=GPa)
#
#
# Indices 1 2 3 4 5 6 
#
# 1 162.6107 88.0671 36.1256 0.0000 0.0000 0.0000
# 2 88.0671 110.8127 23.2675 0.0000 0.0000 0.0000
# 3 36.1256 23.2675 39.7147 0.0000 0.0000 0.0000
# 4 0.0000 0.0000 0.0000 5.1933 0.0000 0.0000
# 5 0.0000 0.0000 0.0000 0.0000 23.0503 0.0000
# 6 0.0000 0.0000 0.0000 0.0000 0.0000 49.5282
#
#
#
# Elastic Compliance Matrix: (Units=1/GPa)
#
#
# Indices 1 2 3 4 5 6 
#
# 1 0.011949 -0.008226 -0.006050 0.000000 0.000000 0.000000
# 2 -0.008226 0.015953 -0.001864 0.000000 0.000000 0.000000
# 3 -0.006050 -0.001864 0.031774 0.000000 0.000000 0.000000
# 4 0.000000 0.000000 0.000000 0.192557 0.000000 0.000000
# 5 0.000000 0.000000 0.000000 0.000000 0.043383 0.000000
# 6 0.000000 0.000000 0.000000 0.000000 0.000000 0.020190
#
#
# Mechanical properties :
#
#
# Convention : Reuss Voigt Hill
#
# Bulk Modulus (GPa) = 36.49975 67.56207 52.03091
# Shear Modulus (GPa) = 13.99708 26.59957 20.29833
#
# Velocity S-wave (km/s) = 2.72842 3.76123 3.28566
# Velocity P-wave (km/s) = 5.41645 7.40237 6.48587
#
# Compressibility (1/GPa) = 0.02739745
#
# Stress axis : x y z
#
# Youngs Moduli (GPa) = 83.69246 62.68457 31.47190
#
# Poissons Ratio (x) = 0.51562 0.19039
# Poissons Ratio (y) = 0.68843 0.05866
# Poissons Ratio (z) = 0.50630 0.11684
#
# Static dielectric constant tensor:
#      x y z
#    x 3.856070 0.000000 0.000000 
#    y 0.000000 3.636510 0.000000 
#    z 0.000000 0.000000 3.210230 
# 
# 
# High freq. dielectric constant tensor:
#      x y z
#    x 1.746050 0.000000 0.000000 
#    y 0.000000 1.733710 0.000000 
#    z 0.000000 0.000000 1.698250 
# 
# From -- ./inp_files/8989.got.cif
#   From: 2010.03.12/outbox.cif.g09.slc.cpg/sg45_5_cif.got.tgz:8989.got - 2010.04.14 02:50:11.
