data_PCOD8190737
_publ_section_title
;
Structure prediction by ZEFSAII (Michael W. Deem and Ramdas Pophale) SiO2 
 PCOD8190737
Probable space group: I B A 2
;
_chemical_formula_sum "Si O2"
_cell_formula_units_Z 48
_cell_length_a 9.205432
_cell_length_b 15.320029
_cell_length_c 15.857990
_cell_angle_alpha 90.000000
_cell_angle_beta 90.000000
_cell_angle_gamma 90.000000
_cell_volume 2236.412450
_symmetry_space_group_name_H-M "I B A 2"
_symmetry_group_IT_number 45
_symmetry_cell_setting 'orthorhombic'
loop_
_space_group_symop_operation_xyz
x,y,z
-x,-y,z
-x,y,1/2+z
x,-y,1/2+z
1/2+x,1/2+y,1/2+z
1/2-x,1/2-y,1/2+z
1/2-x,1/2+y,z
1/2+x,1/2-y,z
loop_
_atom_site_type_symbol
_atom_site_label
_atom_site_fract_x
_atom_site_fract_y
_atom_site_fract_z
Si Si1 0.749862 0.228229 0.956730
Si Si2 0.996338 0.260433 0.577964
Si Si3 0.198844 0.923873 0.837397
Si Si4 0.881314 0.577278 0.668609
Si Si5 0.410162 0.578192 0.084561
Si Si6 0.112402 0.103532 0.891820
O O1 0.734342 0.137236 0.909030
O O2 0.698148 0.305015 0.892773
O O3 0.908149 0.252965 0.992306
O O4 0.660981 0.215144 0.042491
O O5 0.041367 0.331535 0.646798
O O6 0.973272 0.167521 0.625633
O O7 0.288997 0.908992 0.752846
O O8 0.028332 0.896179 0.829757
O O9 0.218260 0.025575 0.861926
O O10 0.761736 0.560332 0.596053
O O11 0.000000 0.500000 0.673873
O O12 0.500000 0.500000 0.127205
O O13 0.444558 0.583036 0.985530
#
# Coordination Sequence:
#
# PCOD8190737 Si02
#       6
#     8   8   8   8   8   8
#     4  11  21  43  75 103 134 186 245 295 343 428
#     4  11  23  44  70 106 138 186 242 285 359 428
#     4  11  24  46  66 105 143 182 234 294 364 416
#     4  12  30  45  65 112 150 186 235 300 368 426
#     4  11  22  45  75  99 134 192 238 291 351 431
#     4  10  21  43  73  99 132 185 242 279 349 431
#
# _framework density 21.462945000000001
#
# number of rings (size 3 to 8) (size 9 to 14) (size 15 to 20)
#    0.000    1.000    8.333    0.000    7.000    2.667 
#    3.000    0.000    0.000    0.000    0.000    0.000 
#    0.000    0.000    0.000    0.000    0.000    0.000 
#
# Total GULP energy -297449.460312 kJ/mol
# GULP energy per Si atom -12393.727513 kJ/mol
# Density = 2.141409 g / cm^3
# Si number density = 21.462945 Si / 1000 Ang^3
#
#
#
# Elastic Constant Matrix: (Units=GPa)
#
#
# Indices 1 2 3 4 5 6 
#
# 1 71.7269 70.6843 13.0986 0.0000 0.0000 0.0000
# 2 70.6843 171.6513 55.7641 0.0000 0.0000 0.0000
# 3 13.0986 55.7641 66.7025 0.0000 0.0000 0.0000
# 4 0.0000 0.0000 0.0000 26.0897 0.0000 0.0000
# 5 0.0000 0.0000 0.0000 0.0000 29.2172 0.0000
# 6 0.0000 0.0000 0.0000 0.0000 0.0000 43.4026
#
#
#
# Elastic Compliance Matrix: (Units=1/GPa)
#
#
# Indices 1 2 3 4 5 6 
#
# 1 0.024620 -0.011762 0.004999 0.000000 0.000000 0.000000
# 2 -0.011762 0.013617 -0.009074 0.000000 0.000000 0.000000
# 3 0.004999 -0.009074 0.021597 0.000000 0.000000 0.000000
# 4 0.000000 0.000000 0.000000 0.038329 0.000000 0.000000
# 5 0.000000 0.000000 0.000000 0.000000 0.034226 0.000000
# 6 0.000000 0.000000 0.000000 0.000000 0.000000 0.023040
#
#
# Mechanical properties :
#
#
# Convention : Reuss Voigt Hill
#
# Bulk Modulus (GPa) = 35.51377 65.46386 50.48882
# Shear Modulus (GPa) = 25.44627 31.11080 28.27853
#
# Velocity S-wave (km/s) = 3.44698 3.81138 3.63375
# Velocity P-wave (km/s) = 5.69427 7.06653 6.41719
#
# Compressibility (1/GPa) = 0.02815809
#
# Stress axis : x y z
#
# Youngs Moduli (GPa) = 40.61698 73.43562 46.30329
#
# Poissons Ratio (x) = 0.86377 -0.23145
# Poissons Ratio (y) = 0.47775 0.42018
# Poissons Ratio (z) = -0.20303 0.66639
#
# Static dielectric constant tensor:
#      x y z
#    x 3.951640 0.000000 0.000000 
#    y 0.000000 4.289530 0.000000 
#    z 0.000000 0.000000 3.521860 
# 
# 
# High freq. dielectric constant tensor:
#      x y z
#    x 1.845670 0.000000 0.000000 
#    y 0.000000 1.860290 0.000000 
#    z 0.000000 0.000000 1.813630 
# 
# From -- ./inp_files/7567.got.cif
#   From: 2010.03.12/outbox.cif.g09.slc.cpg/sg45_4_cif.got.tgz:7567.got - 2010.04.14 02:50:11.
