data_PCOD8190442
_publ_section_title
;
Structure prediction by ZEFSAII (Michael W. Deem and Ramdas Pophale) SiO2 
 PCOD8190442
Probable space group: I B A 2
;
_chemical_formula_sum "Si O2"
_cell_formula_units_Z 52
_cell_length_a 8.124544
_cell_length_b 15.895954
_cell_length_c 18.597333
_cell_angle_alpha 90.000000
_cell_angle_beta 90.000000
_cell_angle_gamma 90.000000
_cell_volume 2401.796789
_symmetry_space_group_name_H-M "I B A 2"
_symmetry_group_IT_number 45
_symmetry_cell_setting 'orthorhombic'
loop_
_space_group_symop_operation_xyz
x,y,z
-x,-y,z
-x,y,1/2+z
x,-y,1/2+z
1/2+x,1/2+y,1/2+z
1/2-x,1/2-y,1/2+z
1/2-x,1/2+y,z
1/2+x,1/2-y,z
loop_
_atom_site_type_symbol
_atom_site_label
_atom_site_fract_x
_atom_site_fract_y
_atom_site_fract_z
Si Si1 0.204736 0.729382 0.709250
Si Si2 0.076046 0.875081 0.289439
Si Si3 0.880135 0.623036 0.925069
Si Si4 0.267396 0.033839 0.288004
Si Si5 0.097311 0.378251 0.659276
Si Si6 0.397243 0.260669 0.876561
Si Si7 0.000000 0.500000 0.539915
O O1 0.380724 0.680603 0.718406
O O2 0.248903 0.813058 0.663643
O O3 0.159447 0.748440 0.793055
O O4 0.074617 0.672154 0.666734
O O5 0.906021 0.921208 0.274752
O O6 0.060754 0.819344 0.363110
O O7 0.232734 0.935667 0.299646
O O8 0.865871 0.564884 0.856240
O O9 0.728403 0.688644 0.927605
O O10 0.049863 0.676150 0.917959
O O11 0.880637 0.559761 0.992583
O O12 0.386816 0.052365 0.221707
O O13 0.105631 0.433574 0.586785
#
# Coordination Sequence:
#
# PCOD8190442 Si02
#       7
#     8   8   8   8   8   8   4
#     4  12  19  38  71 100 123 168 226 291 321 382
#     4  10  19  33  63 111 123 153 215 291 346 358
#     4  11  24  43  66  98 133 173 222 270 338 388
#     4  10  20  38  67  97 133 163 221 294 313 390
#     4  12  23  44  65 102 135 177 227 266 345 388
#     4  11  19  40  69 102 121 166 227 287 321 381
#     4  12  32  42  56 100 148 190 210 262 342 422
#
# _framework density 21.650458
#
# number of rings (size 3 to 8) (size 9 to 14) (size 15 to 20)
#    0.000    0.923    7.692    0.923    2.154    1.846 
#    0.000    0.000    0.000   24.000    0.000    0.000 
#    0.000    0.000    0.000    0.000    0.000    0.000 
#
# Total GULP energy -322136.438794 kJ/mol
# GULP energy per Si atom -12389.863031 kJ/mol
# Density = 2.160118 g / cm^3
# Si number density = 21.650458 Si / 1000 Ang^3
#
#
#
# Elastic Constant Matrix: (Units=GPa)
#
#
# Indices 1 2 3 4 5 6 
#
# 1 71.7442 48.5925 47.2251 0.0000 0.0000 0.0000
# 2 48.5925 139.2219 71.4043 0.0000 0.0000 0.0000
# 3 47.2251 71.4043 115.9842 0.0000 0.0000 0.0000
# 4 0.0000 0.0000 0.0000 54.4794 0.0000 0.0000
# 5 0.0000 0.0000 0.0000 0.0000 4.8522 0.0000
# 6 0.0000 0.0000 0.0000 0.0000 0.0000 50.9081
#
#
#
# Elastic Compliance Matrix: (Units=1/GPa)
#
#
# Indices 1 2 3 4 5 6 
#
# 1 0.020612 -0.004223 -0.005792 0.000000 0.000000 0.000000
# 2 -0.004223 0.011363 -0.005276 0.000000 0.000000 0.000000
# 3 -0.005792 -0.005276 0.014228 0.000000 0.000000 0.000000
# 4 0.000000 0.000000 0.000000 0.018356 0.000000 0.000000
# 5 0.000000 0.000000 0.000000 0.000000 0.206093 0.000000
# 6 0.000000 0.000000 0.000000 0.000000 0.000000 0.019643
#
#
# Mechanical properties :
#
#
# Convention : Reuss Voigt Hill
#
# Bulk Modulus (GPa) = 64.02121 73.48824 68.75473
# Shear Modulus (GPa) = 15.33348 32.69649 24.01499
#
# Velocity S-wave (km/s) = 2.66414 3.89034 3.33410
# Velocity P-wave (km/s) = 6.25285 7.36182 6.82988
#
# Compressibility (1/GPa) = 0.01561982
#
# Stress axis : x y z
#
# Youngs Moduli (GPa) = 48.51625 88.00788 70.28255
#
# Poissons Ratio (x) = 0.37168 0.40711
# Poissons Ratio (y) = 0.20490 0.37079
# Poissons Ratio (z) = 0.28103 0.46430
#
# Static dielectric constant tensor:
#      x y z
#    x 4.089110 0.000000 0.000000 
#    y 0.000000 4.867380 0.000000 
#    z 0.000000 0.000000 3.487150 
# 
# 
# High freq. dielectric constant tensor:
#      x y z
#    x 1.859050 0.000000 0.000000 
#    y 0.000000 1.888480 0.000000 
#    z 0.000000 0.000000 1.789540 
# 
# From -- ./inp_files/7650.got.cif
#   From: 2010.03.12/outbox.cif.g09.slc.cpg/sg45_4_cif.got.tgz:7650.got - 2010.04.14 02:50:11.
