data_PCOD8191543
_publ_section_title
;
Structure prediction by ZEFSAII (Michael W. Deem and Ramdas Pophale) SiO2 
 PCOD8191543
Probable space group: I M A 2
;
_chemical_formula_sum "Si O2"
_cell_formula_units_Z 64
_cell_length_a 8.988586
_cell_length_b 24.890965
_cell_length_c 15.181566
_cell_angle_alpha 90.000000
_cell_angle_beta 90.000000
_cell_angle_gamma 90.000000
_cell_volume 3396.641286
_symmetry_space_group_name_H-M "I M A 2"
_symmetry_group_IT_number 46
_symmetry_cell_setting 'orthorhombic'
loop_
_space_group_symop_operation_xyz
x,y,z
-x,-y,z
1/2-x,y,z
1/2+x,-y,z
1/2+x,1/2+y,1/2+z
1/2-x,1/2-y,1/2+z
-x,1/2+y,1/2+z
x,1/2-y,1/2+z
loop_
_atom_site_type_symbol
_atom_site_label
_atom_site_fract_x
_atom_site_fract_y
_atom_site_fract_z
Si Si1 0.426534 0.354979 0.078300
Si Si2 0.925190 0.834268 0.382746
Si Si3 0.576303 0.389919 0.375173
Si Si4 0.073388 0.942397 0.057130
Si Si5 0.424521 0.132675 0.197059
Si Si6 0.076461 0.263459 0.596800
Si Si7 0.924575 0.444349 0.195572
Si Si8 0.074168 0.283833 0.404150
O O1 0.250000 0.363612 0.089815
O O2 0.482546 0.296859 0.115452
O O3 0.514637 0.399579 0.130413
O O4 0.477100 0.359415 0.975485
O O5 0.750000 0.827787 0.386859
O O6 0.969780 0.872396 0.300296
O O7 0.985138 0.773440 0.367737
O O8 0.750000 0.379376 0.381341
O O9 0.516583 0.415204 0.466609
O O10 0.535384 0.430286 0.296417
O O11 0.499624 0.333223 0.352706
O O12 0.250000 0.948527 0.058349
O O13 0.022911 0.907770 0.140964
O O14 0.000000 0.000000 0.066068
O O15 0.250000 0.120632 0.180560
O O16 0.463145 0.194602 0.173142
O O17 0.250000 0.255606 0.583415
O O18 0.017331 0.287810 0.505117
O O19 0.750000 0.449663 0.181384
O O20 0.000000 0.500000 0.170061
O O21 0.250000 0.290205 0.393084
#
# Coordination Sequence:
#
# PCOD8191543 Si02
#       8
#     8   8   8   8   8   8   8   8
#     4   9  18  36  58  83 112 145 184 229 274 322
#     4   8  17  32  55  84 116 148 183 223 266 321
#     4  10  22  37  53  79 114 144 177 224 280 333
#     4  11  23  39  57  79 109 147 187 230 277 330
#     4  10  18  33  56  84 115 148 184 226 269 320
#     4   8  15  28  51  83 114 143 178 217 262 319
#     4  11  24  41  58  80 107 142 187 234 282 333
#     4   9  16  30  53  82 112 147 186 217 257 320
#
# _framework density 18.842144000000001
#
# number of rings (size 3 to 8) (size 9 to 14) (size 15 to 20)
#    0.000    2.500    1.250    2.625    1.750    1.500 
#    0.000    5.000    0.000    0.000    0.000    0.000 
#    0.000    0.000    0.000    0.000    0.000    0.000 
#
# Total GULP energy -396642.357095 kJ/mol
# GULP energy per Si atom -12395.073659 kJ/mol
# Density = 1.879926 g / cm^3
# Si number density = 18.842144 Si / 1000 Ang^3
#
#
#
# Elastic Constant Matrix: (Units=GPa)
#
#
# Indices 1 2 3 4 5 6 
#
# 1 47.9288 45.8017 38.4192 0.0001 0.0000 0.0000
# 2 45.8017 125.3091 56.1899 0.0001 0.0000 0.0000
# 3 38.4192 56.1899 104.3659 0.0007 0.0000 -0.0001
# 4 0.0001 0.0001 0.0007 26.1568 0.0000 0.0000
# 5 0.0000 0.0000 0.0000 0.0000 23.7597 0.0001
# 6 0.0000 0.0000 -0.0001 0.0000 0.0001 29.9703
#
#
#
# Elastic Compliance Matrix: (Units=1/GPa)
#
#
# Indices 1 2 3 4 5 6 
#
# 1 0.036834 -0.009733 -0.008319 0.000000 0.000000 0.000000
# 2 -0.009733 0.013092 -0.003466 0.000000 0.000000 0.000000
# 3 -0.008319 -0.003466 0.014510 0.000000 0.000000 0.000000
# 4 0.000000 0.000000 0.000000 0.038231 0.000000 0.000000
# 5 0.000000 0.000000 0.000000 0.000000 0.042088 0.000000
# 6 0.000000 0.000000 0.000000 0.000000 0.000000 0.033366
#
#
# Mechanical properties :
#
#
# Convention : Reuss Voigt Hill
#
# Bulk Modulus (GPa) = 46.72840 62.04726 54.38783
# Shear Modulus (GPa) = 21.90205 25.12356 23.51280
#
# Velocity S-wave (km/s) = 3.41309 3.65550 3.53637
# Velocity P-wave (km/s) = 6.35500 7.12870 6.75294
#
# Compressibility (1/GPa) = 0.02140026
#
# Stress axis : x y z
#
# Youngs Moduli (GPa) = 27.14916 76.38428 68.91772
#
# Poissons Ratio (x) = 0.74342 0.57334
# Poissons Ratio (y) = 0.26423 0.23885
# Poissons Ratio (z) = 0.22586 0.26473
#
# Static dielectric constant tensor:
#      x y z
#    x 3.123010 0.000000 0.000000 
#    y 0.000000 3.448410 0.000000 
#    z 0.000000 0.000000 3.700470 
# 
# 
# High freq. dielectric constant tensor:
#      x y z
#    x 1.698880 0.000000 0.000000 
#    y 0.000000 1.729910 0.000000 
#    z 0.000000 0.000000 1.736660 
# 
# From -- ./inp_files/14503.got.cif
#   From: 2010.03.12/outbox.cif.g09.slc.cpg/sg46_8_cif.got.tgz:14503.got - 2010.04.14 02:56:35.
