data_PCOD8191957
_publ_section_title
;
Structure prediction by ZEFSAII (Michael W. Deem and Ramdas Pophale) SiO2 
 PCOD8191957
Probable space group: I M A 2
;
_chemical_formula_sum "Si O2"
_cell_formula_units_Z 64
_cell_length_a 9.003304
_cell_length_b 19.554007
_cell_length_c 20.426912
_cell_angle_alpha 90.000000
_cell_angle_beta 90.000000
_cell_angle_gamma 90.000000
_cell_volume 3596.171532
_symmetry_space_group_name_H-M "I M A 2"
_symmetry_group_IT_number 46
_symmetry_cell_setting 'orthorhombic'
loop_
_space_group_symop_operation_xyz
x,y,z
-x,-y,z
1/2-x,y,z
1/2+x,-y,z
1/2+x,1/2+y,1/2+z
1/2-x,1/2-y,1/2+z
-x,1/2+y,1/2+z
x,1/2-y,1/2+z
loop_
_atom_site_type_symbol
_atom_site_label
_atom_site_fract_x
_atom_site_fract_y
_atom_site_fract_z
Si Si1 0.578167 0.933310 0.585240
Si Si2 0.574719 0.569672 0.624018
Si Si3 0.577045 0.714224 0.043112
Si Si4 0.923565 0.790333 0.911431
Si Si5 0.575744 0.202599 0.781793
Si Si6 0.424766 0.704895 0.658475
Si Si7 0.574467 0.931177 0.735085
Si Si8 0.076897 0.431956 0.472967
O O1 0.750000 0.949570 0.582740
O O2 0.536593 0.866054 0.544140
O O3 0.526492 0.920863 0.659734
O O4 0.500000 0.000000 0.554542
O O5 0.500000 0.500000 0.649854
O O6 0.750000 0.565958 0.635488
O O7 0.506981 0.632389 0.664692
O O8 0.532538 0.581499 0.548194
O O9 0.750000 0.726950 0.060922
O O10 0.479073 0.754098 0.095319
O O11 0.539350 0.739726 0.970862
O O12 0.750000 0.787948 0.893894
O O13 0.020327 0.764632 0.850010
O O14 0.973936 0.866897 0.931002
O O15 0.750000 0.188103 0.783253
O O16 0.532700 0.253346 0.723358
O O17 0.488087 0.131844 0.775659
O O18 0.250000 0.692605 0.652430
O O19 0.750000 0.935285 0.744786
O O20 0.500000 0.000000 0.762888
O O21 0.250000 0.444186 0.466904
O O22 0.000000 0.500000 0.445042
#
# Coordination Sequence:
#
# PCOD8191957 Si02
#       8
#     8   8   8   8   8   8   8   8
#     4   9  18  31  53  81 109 138 173 220 270 322
#     4  10  19  34  56  83 113 141 177 224 273 323
#     4  10  19  36  58  81 107 141 183 226 272 327
#     4  10  21  37  55  76 106 144 186 225 270 325
#     4  11  24  38  52  77 112 147 187 228 269 321
#     4  11  22  35  55  82 110 143 183 227 272 320
#     4  10  19  33  54  78 108 146 184 221 269 322
#     4   9  18  32  51  76 106 140 176 216 258 315
#
# _framework density 17.796703000000001
#
# number of rings (size 3 to 8) (size 9 to 14) (size 15 to 20)
#    0.000    2.000    2.500    1.500    0.000    4.500 
#    0.000    1.250    0.000    0.750    0.000    3.500 
#    0.000    0.000    0.000    0.000    0.000    0.000 
#
# Total GULP energy -396896.585201 kJ/mol
# GULP energy per Si atom -12403.018288 kJ/mol
# Density = 1.775620 g / cm^3
# Si number density = 17.796703 Si / 1000 Ang^3
#
#
#
# Elastic Constant Matrix: (Units=GPa)
#
#
# Indices 1 2 3 4 5 6 
#
# 1 69.0845 50.2965 39.2251 0.0000 0.0000 0.0000
# 2 50.2965 121.6729 54.6018 0.0000 0.0000 0.0000
# 3 39.2251 54.6018 84.4457 0.0000 0.0000 0.0000
# 4 0.0000 0.0000 0.0000 20.6341 0.0000 0.0000
# 5 0.0000 0.0000 0.0000 0.0000 22.1385 0.0000
# 6 0.0000 0.0000 0.0000 0.0000 0.0000 34.4509
#
#
#
# Elastic Compliance Matrix: (Units=1/GPa)
#
#
# Indices 1 2 3 4 5 6 
#
# 1 0.022901 -0.006611 -0.006363 0.000000 0.000000 0.000000
# 2 -0.006611 0.013487 -0.005650 0.000000 0.000000 0.000000
# 3 -0.006363 -0.005650 0.018450 0.000000 0.000000 0.000000
# 4 0.000000 0.000000 0.000000 0.048463 0.000000 0.000000
# 5 0.000000 0.000000 0.000000 0.000000 0.045170 0.000000
# 6 0.000000 0.000000 0.000000 0.000000 0.000000 0.029027
#
#
# Mechanical properties :
#
#
# Convention : Reuss Voigt Hill
#
# Bulk Modulus (GPa) = 56.84694 62.60556 59.72625
# Shear Modulus (GPa) = 22.66443 24.18335 23.42389
#
# Velocity S-wave (km/s) = 3.57251 3.69028 3.63187
# Velocity P-wave (km/s) = 7.00206 7.30836 7.15685
#
# Compressibility (1/GPa) = 0.01759110
#
# Stress axis : x y z
#
# Youngs Moduli (GPa) = 43.66613 74.14517 54.19940
#
# Poissons Ratio (x) = 0.49020 0.34485
# Poissons Ratio (y) = 0.28869 0.30620
# Poissons Ratio (z) = 0.27783 0.41889
#
# Static dielectric constant tensor:
#      x y z
#    x 3.280840 0.000000 0.000000 
#    y 0.000000 3.460300 0.000000 
#    z 0.000000 0.000000 3.146890 
# 
# 
# High freq. dielectric constant tensor:
#      x y z
#    x 1.692430 0.000000 0.000000 
#    y 0.000000 1.693490 0.000000 
#    z 0.000000 0.000000 1.664140 
# 
# From -- ./inp_files/18560.got.cif
#   From: 2010.03.12/outbox.cif.g09.slc.cpg/sg46_10_cif.got.tgz:18560.got - 2010.04.14 02:56:35.
