data_PCOD8191778
_publ_section_title
;
Structure prediction by ZEFSAII (Michael W. Deem and Ramdas Pophale) SiO2 
 PCOD8191778
Probable space group: I M A 2
;
_chemical_formula_sum "Si O2"
_cell_formula_units_Z 52
_cell_length_a 13.785880
_cell_length_b 22.124895
_cell_length_c 8.737824
_cell_angle_alpha 90.000000
_cell_angle_beta 90.000000
_cell_angle_gamma 90.000000
_cell_volume 2665.133725
_symmetry_space_group_name_H-M "I M A 2"
_symmetry_group_IT_number 46
_symmetry_cell_setting 'orthorhombic'
loop_
_space_group_symop_operation_xyz
x,y,z
-x,-y,z
1/2-x,y,z
1/2+x,-y,z
1/2+x,1/2+y,1/2+z
1/2-x,1/2-y,1/2+z
-x,1/2+y,1/2+z
x,1/2-y,1/2+z
loop_
_atom_site_type_symbol
_atom_site_label
_atom_site_fract_x
_atom_site_fract_y
_atom_site_fract_z
Si Si1 0.516190 0.250453 0.836820
Si Si2 0.638009 0.546713 0.180692
Si Si3 0.533057 0.660400 0.087770
Si Si4 0.354869 0.802454 0.085449
Si Si5 0.862829 0.423652 0.997152
Si Si6 0.000000 0.000000 0.926166
Si Si7 0.355173 0.563528 0.650301
O O1 0.457367 0.197478 0.747936
O O2 0.564618 0.293441 0.713441
O O3 0.448990 0.292292 0.947468
O O4 0.605408 0.221780 0.926533
O O5 0.750000 0.549198 0.233558
O O6 0.613546 0.607310 0.083649
O O7 0.564638 0.545768 0.324417
O O8 0.618008 0.486790 0.082212
O O9 0.425837 0.630126 0.072944
O O10 0.250000 0.771410 0.119521
O O11 0.338283 0.872813 0.072001
O O12 0.750000 0.404155 0.005941
O O13 0.896922 0.432422 0.822314
O O14 0.072195 0.967431 0.037523
O O15 0.250000 0.529911 0.655590
#
# Coordination Sequence:
#
# PCOD8191778 Si02
#       7
#     8   8   8   8   8   4   8
#     4  10  22  33  55  84 113 161 208 236 301 359
#     4  11  24  42  65  92 118 159 210 256 312 367
#     4  11  21  41  60  87 122 161 201 256 305 360
#     4  10  19  32  48  77 116 153 192 242 289 352
#     4  10  21  38  62  91 125 164 204 247 306 377
#     4  12  22  36  62  88 124 156 196 256 308 366
#     4  10  22  36  54  86 123 158 197 244 304 369
#
# _framework density 19.511215
#
# number of rings (size 3 to 8) (size 9 to 14) (size 15 to 20)
#    0.000    1.538    3.077    1.846    2.154    3.077 
#    0.000    0.769    0.000    0.000    0.000    0.000 
#    0.000    0.000    0.000    0.000    0.000    0.000 
#
# Total GULP energy -322235.960114 kJ/mol
# GULP energy per Si atom -12393.690774 kJ/mol
# Density = 1.946681 g / cm^3
# Si number density = 19.511215 Si / 1000 Ang^3
#
#
#
# Elastic Constant Matrix: (Units=GPa)
#
#
# Indices 1 2 3 4 5 6 
#
# 1 72.1789 27.6394 32.7668 -0.0001 0.0001 0.0000
# 2 27.6394 91.5423 44.9219 -0.0001 0.0000 0.0000
# 3 32.7668 44.9219 82.6252 0.0006 0.0003 0.0003
# 4 -0.0001 -0.0001 0.0006 28.7424 0.0001 0.0000
# 5 0.0001 0.0000 0.0003 0.0001 29.3852 0.0001
# 6 0.0000 0.0000 0.0003 0.0000 0.0001 28.2970
#
#
#
# Elastic Compliance Matrix: (Units=1/GPa)
#
#
# Indices 1 2 3 4 5 6 
#
# 1 0.017317 -0.002535 -0.005489 0.000000 0.000000 0.000000
# 2 -0.002535 0.015270 -0.007297 0.000000 0.000000 0.000000
# 3 -0.005489 -0.007297 0.018247 0.000000 0.000000 0.000000
# 4 0.000000 0.000000 0.000000 0.034792 0.000000 0.000000
# 5 0.000000 0.000000 0.000000 0.000000 0.034031 0.000000
# 6 0.000000 0.000000 0.000000 0.000000 0.000000 0.035339
#
#
# Mechanical properties :
#
#
# Convention : Reuss Voigt Hill
#
# Bulk Modulus (GPa) = 49.52436 50.77808 50.15122
# Shear Modulus (GPa) = 25.99179 26.68613 26.33896
#
# Velocity S-wave (km/s) = 3.65382 3.70230 3.67814
# Velocity P-wave (km/s) = 6.57557 6.66015 6.61800
#
# Compressibility (1/GPa) = 0.02019208
#
# Stress axis : x y z
#
# Youngs Moduli (GPa) = 57.74646 65.48811 54.80386
#
# Poissons Ratio (x) = 0.16600 0.30084
# Poissons Ratio (y) = 0.14638 0.39989
# Poissons Ratio (z) = 0.31699 0.47785
#
# Static dielectric constant tensor:
#      x y z
#    x 3.160160 0.000000 0.000000 
#    y 0.000000 3.511260 0.000000 
#    z 0.000000 0.000000 3.759370 
# 
# 
# High freq. dielectric constant tensor:
#      x y z
#    x 1.738010 0.000000 0.000000 
#    y 0.000000 1.759380 0.000000 
#    z 0.000000 0.000000 1.766470 
# 
# From -- ./inp_files/5861.got.cif
#   From: 2010.03.12/outbox.cif.g09.slc.cpg/sg46_3_cif.got.tgz:5861.got - 2010.04.14 02:56:35.
