data_PCOD8191007
_publ_section_title
;
Structure prediction by ZEFSAII (Michael W. Deem and Ramdas Pophale) SiO2 
 PCOD8191007
Probable space group: I B A 2
;
_chemical_formula_sum "Si O2"
_cell_formula_units_Z 64
_cell_length_a 28.615676
_cell_length_b 13.549224
_cell_length_c 8.656267
_cell_angle_alpha 90.000000
_cell_angle_beta 90.000000
_cell_angle_gamma 90.000000
_cell_volume 3356.209607
_symmetry_space_group_name_H-M "I B A 2"
_symmetry_group_IT_number 45
_symmetry_cell_setting 'orthorhombic'
loop_
_space_group_symop_operation_xyz
x,y,z
-x,-y,z
-x,y,1/2+z
x,-y,1/2+z
1/2+x,1/2+y,1/2+z
1/2-x,1/2-y,1/2+z
1/2-x,1/2+y,z
1/2+x,1/2-y,z
loop_
_atom_site_type_symbol
_atom_site_label
_atom_site_fract_x
_atom_site_fract_y
_atom_site_fract_z
Si Si1 0.283088 0.703901 0.739830
Si Si2 0.945721 0.913067 0.736102
Si Si3 0.859363 0.882641 0.544401
Si Si4 0.684799 0.586703 0.534848
Si Si5 0.878738 0.218716 0.739311
Si Si6 0.814099 0.611889 0.292994
Si Si7 0.713377 0.082404 0.636109
Si Si8 0.461621 0.376721 0.595941
O O1 0.310494 0.668575 0.587513
O O2 0.229431 0.672782 0.724450
O O3 0.285870 0.822400 0.747862
O O4 0.306815 0.655663 0.888320
O O5 0.894131 0.876643 0.691202
O O6 0.984437 0.852411 0.635907
O O7 0.948158 0.028590 0.698022
O O8 0.954804 0.897566 0.916188
O O9 0.885314 0.822900 0.411008
O O10 0.848488 0.994837 0.490237
O O11 0.660564 0.650671 0.664534
O O12 0.733738 0.546130 0.602779
O O13 0.861450 0.332101 0.742185
O O14 0.927827 0.213064 0.647526
O O15 0.814914 0.502143 0.224620
O O16 0.812726 0.607591 0.477705
#
# Coordination Sequence:
#
# PCOD8191007 Si02
#       8
#     8   8   8   8   8   8   8   8
#     4  11  23  39  56  85 121 163 210 251 306 357
#     4  11  22  38  59  88 122 164 193 244 304 374
#     4  12  22  38  57  89 122 161 205 247 300 372
#     4  11  23  34  59  83 118 169 203 253 300 363
#     4  12  23  37  57  89 120 160 206 248 302 371
#     4  11  25  39  60  84 118 164 207 261 305 358
#     4  11  24  41  58  81 120 163 211 261 305 351
#     4  11  22  38  59  87 123 160 196 243 303 374
#
# _framework density 19.069130999999999
#
# number of rings (size 3 to 8) (size 9 to 14) (size 15 to 20)
#    0.000    0.750    5.000    4.500    3.500    0.000 
#    0.000    0.000    0.000    0.000    0.000    0.875 
#    0.000    0.000    0.000    0.000    0.000    0.000 
#
# Total GULP energy -396887.976325 kJ/mol
# GULP energy per Si atom -12402.749260 kJ/mol
# Density = 1.902573 g / cm^3
# Si number density = 19.069131 Si / 1000 Ang^3
#
#
#
# Elastic Constant Matrix: (Units=GPa)
#
#
# Indices 1 2 3 4 5 6 
#
# 1 88.2820 41.2966 31.1117 0.0000 0.0000 0.0000
# 2 41.2966 115.4396 34.2050 0.0000 0.0000 0.0000
# 3 31.1117 34.2050 91.6935 0.0000 0.0000 0.0000
# 4 0.0000 0.0000 0.0000 12.8145 0.0000 0.0000
# 5 0.0000 0.0000 0.0000 0.0000 30.9725 0.0000
# 6 0.0000 0.0000 0.0000 0.0000 0.0000 30.0851
#
#
#
# Elastic Compliance Matrix: (Units=1/GPa)
#
#
# Indices 1 2 3 4 5 6 
#
# 1 0.014463 -0.004182 -0.003347 0.000000 0.000000 0.000000
# 2 -0.004182 0.010948 -0.002665 0.000000 0.000000 0.000000
# 3 -0.003347 -0.002665 0.013036 0.000000 0.000000 0.000000
# 4 0.000000 0.000000 0.000000 0.078037 0.000000 0.000000
# 5 0.000000 0.000000 0.000000 0.000000 0.032287 0.000000
# 6 0.000000 0.000000 0.000000 0.000000 0.000000 0.033239
#
#
# Mechanical properties :
#
#
# Convention : Reuss Voigt Hill
#
# Bulk Modulus (GPa) = 55.37632 56.51574 55.94603
# Shear Modulus (GPa) = 23.99017 27.36119 25.67568
#
# Velocity S-wave (km/s) = 3.55077 3.79204 3.67338
# Velocity P-wave (km/s) = 6.77594 6.99102 6.88432
#
# Compressibility (1/GPa) = 0.01805826
#
# Stress axis : x y z
#
# Youngs Moduli (GPa) = 69.14037 91.33814 76.71170
#
# Poissons Ratio (x) = 0.38199 0.25678
# Poissons Ratio (y) = 0.28916 0.20444
# Poissons Ratio (z) = 0.23143 0.24343
#
# Static dielectric constant tensor:
#      x y z
#    x 3.669000 0.000000 0.000000 
#    y 0.000000 3.392830 0.000000 
#    z 0.000000 0.000000 3.552300 
# 
# 
# High freq. dielectric constant tensor:
#      x y z
#    x 1.729830 0.000000 0.000000 
#    y 0.000000 1.710830 0.000000 
#    z 0.000000 0.000000 1.756390 
# 
# From -- ./inp_files/2779.got.cif
#   From: 2010.03.12/outbox.cif.g09.slc.cpg/sg45_2_cif.got.tgz:2779.got - 2010.04.14 02:50:11.
