data_PCOD8191108
_publ_section_title
;
Structure prediction by ZEFSAII (Michael W. Deem and Ramdas Pophale) SiO2 
 PCOD8191108
Probable space group: I B A 2
;
_chemical_formula_sum "Si O2"
_cell_formula_units_Z 64
_cell_length_a 22.149325
_cell_length_b 13.547081
_cell_length_c 9.649021
_cell_angle_alpha 90.000000
_cell_angle_beta 90.000000
_cell_angle_gamma 90.000000
_cell_volume 2895.272696
_symmetry_space_group_name_H-M "I B A 2"
_symmetry_group_IT_number 45
_symmetry_cell_setting 'orthorhombic'
loop_
_space_group_symop_operation_xyz
x,y,z
-x,-y,z
-x,y,1/2+z
x,-y,1/2+z
1/2+x,1/2+y,1/2+z
1/2-x,1/2-y,1/2+z
1/2-x,1/2+y,z
1/2+x,1/2-y,z
loop_
_atom_site_type_symbol
_atom_site_label
_atom_site_fract_x
_atom_site_fract_y
_atom_site_fract_z
Si Si1 0.137342 0.409042 0.805420
Si Si2 0.878138 0.081666 0.473366
Si Si3 0.492841 0.811447 0.842016
Si Si4 0.874784 0.363162 0.806317
Si Si5 0.994474 0.826113 0.092825
Si Si6 0.387150 0.587145 0.656293
Si Si7 0.679473 0.223372 0.576997
Si Si8 0.315452 0.223306 0.539082
O O1 0.148907 0.525617 0.812210
O O2 0.167410 0.377237 0.660504
O O3 0.066685 0.377397 0.814727
O O4 0.177275 0.362386 0.926796
O O5 0.893200 0.050554 0.315522
O O6 0.832870 0.173004 0.469946
O O7 0.935280 0.110966 0.566618
O O8 0.849525 0.990298 0.560601
O O9 0.553044 0.875206 0.819842
O O10 0.496904 0.713218 0.749210
O O11 0.493478 0.771952 0.998577
O O12 0.858599 0.306393 0.665707
O O13 0.844068 0.294866 0.922461
O O14 0.049492 0.902044 0.074316
O O15 0.357823 0.694224 0.657818
O O16 0.746968 0.263948 0.584651
#
# Coordination Sequence:
#
# PCOD8191108 Si02
#       8
#     8   8   8   8   8   8   8   8
#     4  12  24  49  71 104 145 178 234 298 354 418
#     4  12  27  45  70 102 138 183 235 292 353 418
#     4  12  21  42  73 102 140 182 225 292 367 422
#     4  12  26  41  79 108 131 186 238 284 360 430
#     4  12  21  42  69  94 144 182 221 286 359 408
#     4  12  27  45  70 102 138 183 235 292 353 418
#     4  12  26  49  69  98 145 186 230 291 349 417
#     4  12  26  49  69  98 145 186 230 291 349 417
#
# _framework density 22.104998999999999
#
# number of rings (size 3 to 8) (size 9 to 14) (size 15 to 20)
#    0.000    0.000    7.500    2.250    3.500    3.000 
#    0.000    3.750    0.000    0.000    0.000    0.000 
#    0.000    0.000    0.000    0.000    0.000    0.000 
#
# Total GULP energy -396836.124975 kJ/mol
# GULP energy per Si atom -12401.128905 kJ/mol
# Density = 2.205469 g / cm^3
# Si number density = 22.104999 Si / 1000 Ang^3
#
#
#
# Elastic Constant Matrix: (Units=GPa)
#
#
# Indices 1 2 3 4 5 6 
#
# 1 70.0575 7.0866 12.8876 0.0000 0.0000 0.0000
# 2 7.0866 98.2082 27.2693 0.0000 0.0000 0.0000
# 3 12.8876 27.2693 102.6745 0.0000 0.0000 0.0000
# 4 0.0000 0.0000 0.0000 37.7343 0.0000 0.0000
# 5 0.0000 0.0000 0.0000 0.0000 25.3440 0.0000
# 6 0.0000 0.0000 0.0000 0.0000 0.0000 13.6542
#
#
#
# Elastic Compliance Matrix: (Units=1/GPa)
#
#
# Indices 1 2 3 4 5 6 
#
# 1 0.014643 -0.000590 -0.001681 0.000000 0.000000 0.000000
# 2 -0.000590 0.011017 -0.002852 0.000000 0.000000 0.000000
# 3 -0.001681 -0.002852 0.010708 0.000000 0.000000 0.000000
# 4 0.000000 0.000000 0.000000 0.026501 0.000000 0.000000
# 5 0.000000 0.000000 0.000000 0.000000 0.039457 0.000000
# 6 0.000000 0.000000 0.000000 0.000000 0.000000 0.073238
#
#
# Mechanical properties :
#
#
# Convention : Reuss Voigt Hill
#
# Bulk Modulus (GPa) = 38.28228 40.60303 39.44265
# Shear Modulus (GPa) = 25.70468 30.25960 27.98214
#
# Velocity S-wave (km/s) = 3.41375 3.70388 3.56177
# Velocity P-wave (km/s) = 5.73535 6.05804 5.89890
#
# Compressibility (1/GPa) = 0.02612175
#
# Stress axis : x y z
#
# Youngs Moduli (GPa) = 68.29227 90.76966 93.38811
#
# Poissons Ratio (x) = 0.05353 0.15702
# Poissons Ratio (y) = 0.04028 0.26634
# Poissons Ratio (z) = 0.11482 0.25887
#
# Static dielectric constant tensor:
#      x y z
#    x 4.016400 0.000000 0.000000 
#    y 0.000000 3.991100 0.000000 
#    z 0.000000 0.000000 4.008050 
# 
# 
# High freq. dielectric constant tensor:
#      x y z
#    x 1.863580 0.000000 0.000000 
#    y 0.000000 1.873480 0.000000 
#    z 0.000000 0.000000 1.884060 
# 
# From -- ./inp_files/2545.got.cif
#   From: 2010.03.12/outbox.cif.g09.slc.cpg/sg45_2_cif.got.tgz:2545.got - 2010.04.14 02:50:11.
