data_PCOD8191441
_publ_section_title
;
Structure prediction by ZEFSAII (Michael W. Deem and Ramdas Pophale) SiO2 
 PCOD8191441
Probable space group: I M A 2
;
_chemical_formula_sum "Si O2"
_cell_formula_units_Z 64
_cell_length_a 8.807809
_cell_length_b 29.910786
_cell_length_c 14.414358
_cell_angle_alpha 90.000000
_cell_angle_beta 90.000000
_cell_angle_gamma 90.000000
_cell_volume 3797.440851
_symmetry_space_group_name_H-M "I M A 2"
_symmetry_group_IT_number 46
_symmetry_cell_setting 'orthorhombic'
loop_
_space_group_symop_operation_xyz
x,y,z
-x,-y,z
1/2-x,y,z
1/2+x,-y,z
1/2+x,1/2+y,1/2+z
1/2-x,1/2-y,1/2+z
-x,1/2+y,1/2+z
x,1/2-y,1/2+z
loop_
_atom_site_type_symbol
_atom_site_label
_atom_site_fract_x
_atom_site_fract_y
_atom_site_fract_z
Si Si1 0.073146 0.870902 0.484060
Si Si2 0.573391 0.775020 0.810578
Si Si3 0.080257 0.814685 0.308712
Si Si4 0.429893 0.953759 0.202958
Si Si5 0.419292 0.863693 0.120055
Si Si6 0.570267 0.546500 0.902096
Si Si7 0.428238 0.214955 0.020112
Si Si8 0.072519 0.702212 0.129308
O O1 0.250000 0.883404 0.477394
O O2 0.023465 0.838470 0.401207
O O3 0.033559 0.844097 0.577685
O O4 0.975385 0.916037 0.477663
O O5 0.750000 0.784921 0.802530
O O6 0.538634 0.723878 0.784608
O O7 0.489408 0.804973 0.733413
O O8 0.512230 0.784818 0.914044
O O9 0.250000 0.794570 0.322654
O O10 0.079836 0.849987 0.226960
O O11 0.250000 0.958511 0.218104
O O12 0.467050 0.916009 0.124981
O O13 0.504110 0.940883 0.301418
O O14 0.500000 0.000000 0.165228
O O15 0.250000 0.858046 0.078158
O O16 0.533791 0.834036 0.060105
O O17 0.500000 0.500000 0.937325
O O18 0.750000 0.542347 0.895521
O O19 0.250000 0.223030 0.023630
O O20 0.503579 0.254433 0.078787
O O21 0.250000 0.711544 0.131994
#
# Coordination Sequence:
#
# PCOD8191441 Si02
#       8
#     8   8   8   8   8   8   8   8
#     4  10  20  35  52  73 101 134 173 212 250 302
#     4  11  23  36  49  71 104 136 171 217 257 297
#     4  10  18  31  50  71 101 137 172 208 247 299
#     4  10  19  33  50  73 103 134 169 209 253 303
#     4  10  20  33  51  73 100 137 174 207 250 303
#     4  11  21  32  50  74 103 137 169 206 252 302
#     4  11  23  35  50  74 103 135 173 215 256 299
#     4  11  22  35  54  75  99 136 175 212 254 303
#
# _framework density 16.853456000000001
#
# number of rings (size 3 to 8) (size 9 to 14) (size 15 to 20)
#    0.000    1.500    3.750    3.375    0.000    4.000 
#    0.000    0.000    0.000    0.000    0.000    0.875 
#    0.000    4.000    0.000    0.000    0.000    0.000 
#
# Total GULP energy -396789.513736 kJ/mol
# GULP energy per Si atom -12399.672304 kJ/mol
# Density = 1.681510 g / cm^3
# Si number density = 16.853456 Si / 1000 Ang^3
#
#
#
# Elastic Constant Matrix: (Units=GPa)
#
#
# Indices 1 2 3 4 5 6 
#
# 1 82.8637 41.5640 33.7044 0.0000 0.0000 0.0000
# 2 41.5640 96.1869 31.7024 0.0001 0.0000 0.0000
# 3 33.7044 31.7024 82.0117 0.0005 -0.0001 -0.0001
# 4 0.0000 0.0001 0.0005 22.5363 0.0000 -0.0001
# 5 0.0000 0.0000 -0.0001 0.0000 23.6657 0.0001
# 6 0.0000 0.0000 -0.0001 -0.0001 0.0001 27.0312
#
#
#
# Elastic Compliance Matrix: (Units=1/GPa)
#
#
# Indices 1 2 3 4 5 6 
#
# 1 0.016860 -0.005732 -0.004713 0.000000 0.000000 0.000000
# 2 -0.005732 0.013863 -0.003003 0.000000 0.000000 0.000000
# 3 -0.004713 -0.003003 0.015291 0.000000 0.000000 0.000000
# 4 0.000000 0.000000 0.000000 0.044373 0.000000 0.000000
# 5 0.000000 0.000000 0.000000 0.000000 0.042255 0.000000
# 6 0.000000 0.000000 0.000000 0.000000 0.000000 0.036994
#
#
# Mechanical properties :
#
#
# Convention : Reuss Voigt Hill
#
# Bulk Modulus (GPa) = 52.30795 52.77823 52.54309
# Shear Modulus (GPa) = 24.64180 24.91940 24.78060
#
# Velocity S-wave (km/s) = 3.82792 3.84942 3.83868
# Velocity P-wave (km/s) = 7.11629 7.15132 7.13382
#
# Compressibility (1/GPa) = 0.01911755
#
# Stress axis : x y z
#
# Youngs Moduli (GPa) = 59.31073 72.13324 65.39660
#
# Poissons Ratio (x) = 0.41348 0.30823
# Poissons Ratio (y) = 0.33998 0.19640
# Poissons Ratio (z) = 0.27955 0.21663
#
# Static dielectric constant tensor:
#      x y z
#    x 3.191170 0.000000 0.000000 
#    y 0.000000 3.193720 0.000000 
#    z 0.000000 0.000000 3.132760 
# 
# 
# High freq. dielectric constant tensor:
#      x y z
#    x 1.657740 0.000000 0.000000 
#    y 0.000000 1.640800 0.000000 
#    z 0.000000 0.000000 1.624270 
# 
# From -- ./inp_files/14748.got.cif
#   From: 2010.03.12/outbox.cif.g09.slc.cpg/sg46_8_cif.got.tgz:14748.got - 2010.04.14 02:56:35.
