data_PCOD8191288
_publ_section_title
;
Structure prediction by ZEFSAII (Michael W. Deem and Ramdas Pophale) SiO2 
 PCOD8191288
Probable space group: I M A 2
;
_chemical_formula_sum "Si O2"
_cell_formula_units_Z 64
_cell_length_a 9.037420
_cell_length_b 18.654914
_cell_length_c 21.384160
_cell_angle_alpha 90.000000
_cell_angle_beta 90.000000
_cell_angle_gamma 90.000000
_cell_volume 3605.204566
_symmetry_space_group_name_H-M "I M A 2"
_symmetry_group_IT_number 46
_symmetry_cell_setting 'orthorhombic'
loop_
_space_group_symop_operation_xyz
x,y,z
-x,-y,z
1/2-x,y,z
1/2+x,-y,z
1/2+x,1/2+y,1/2+z
1/2-x,1/2-y,1/2+z
-x,1/2+y,1/2+z
x,1/2-y,1/2+z
loop_
_atom_site_type_symbol
_atom_site_label
_atom_site_fract_x
_atom_site_fract_y
_atom_site_fract_z
Si Si1 0.576837 0.070436 0.882580
Si Si2 0.579967 0.221201 0.835257
Si Si3 0.415541 0.432656 0.826608
Si Si4 0.576431 0.721830 0.954916
Si Si5 0.412997 0.431923 0.974208
Si Si6 0.920818 0.166691 0.242229
Si Si7 0.924972 0.924598 0.139952
Si Si8 0.422438 0.373741 0.502969
O O1 0.750000 0.056622 0.886805
O O2 0.535719 0.137246 0.837690
O O3 0.517674 0.083780 0.952478
O O4 0.500000 0.000000 0.853882
O O5 0.750000 0.230366 0.855851
O O6 0.486593 0.265137 0.886086
O O7 0.558181 0.249610 0.763335
O O8 0.500000 0.500000 0.796384
O O9 0.250000 0.426682 0.797530
O O10 0.404682 0.440140 0.900133
O O11 0.519953 0.367860 0.806349
O O12 0.750000 0.709747 0.944586
O O13 0.514690 0.647363 0.986320
O O14 0.541402 0.788618 0.000342
O O15 0.500000 0.500000 0.003299
O O16 0.250000 0.435957 0.004157
O O17 0.750000 0.148379 0.228622
O O18 0.018090 0.140095 0.184059
O O19 0.750000 0.931823 0.147510
O O20 0.970644 0.902946 0.070128
O O21 0.000000 0.000000 0.158072
O O22 0.250000 0.387231 0.489013
#
# Coordination Sequence:
#
# PCOD8191288 Si02
#       8
#     8   8   8   8   8   8   8   8
#     4  10  19  32  51  76 102 127 155 193 242 293
#     4   9  19  32  47  69  96 124 156 194 239 289
#     4  10  18  28  41  61  88 123 158 191 227 271
#     4   9  16  30  49  70  94 123 159 198 243 288
#     4   9  17  26  40  63  92 123 153 187 228 277
#     4  11  21  33  48  66  92 127 162 200 238 278
#     4  11  23  37  51  70  96 130 169 206 240 280
#     4   9  19  34  53  73  96 127 164 205 245 286
#
# _framework density 17.752113000000001
#
# number of rings (size 3 to 8) (size 9 to 14) (size 15 to 20)
#    0.000    2.250    1.250    2.250    0.000    4.000 
#    0.000    0.000    0.000    0.000    0.000    0.875 
#    0.000    6.000    0.000    0.000    0.000    0.125 
#
# Total GULP energy -396499.299478 kJ/mol
# GULP energy per Si atom -12390.603109 kJ/mol
# Density = 1.771171 g / cm^3
# Si number density = 17.752113 Si / 1000 Ang^3
#
#
#
# Elastic Constant Matrix: (Units=GPa)
#
#
# Indices 1 2 3 4 5 6 
#
# 1 68.5494 39.1337 21.6911 0.0000 0.0000 0.0000
# 2 39.1337 125.2509 28.3685 0.0000 0.0000 0.0000
# 3 21.6911 28.3685 55.2417 0.0000 0.0000 0.0000
# 4 0.0000 0.0000 0.0000 21.5340 0.0000 0.0000
# 5 0.0000 0.0000 0.0000 0.0000 16.4707 0.0000
# 6 0.0000 0.0000 0.0000 0.0000 0.0000 27.1961
#
#
#
# Elastic Compliance Matrix: (Units=1/GPa)
#
#
# Indices 1 2 3 4 5 6 
#
# 1 0.018885 -0.004777 -0.004962 0.000000 0.000000 0.000000
# 2 -0.004777 0.010243 -0.003385 0.000000 0.000000 0.000000
# 3 -0.004962 -0.003385 0.021789 0.000000 0.000000 0.000000
# 4 0.000000 0.000000 0.000000 0.046438 0.000000 0.000000
# 5 0.000000 0.000000 0.000000 0.000000 0.060714 0.000000
# 6 0.000000 0.000000 0.000000 0.000000 0.000000 0.036770
#
#
# Mechanical properties :
#
#
# Convention : Reuss Voigt Hill
#
# Bulk Modulus (GPa) = 40.53536 47.49209 44.01372
# Shear Modulus (GPa) = 21.80459 23.69674 22.75067
#
# Velocity S-wave (km/s) = 3.50849 3.65755 3.58379
# Velocity P-wave (km/s) = 6.26868 6.68191 6.47859
#
# Compressibility (1/GPa) = 0.02466982
#
# Stress axis : x y z
#
# Youngs Moduli (GPa) = 52.95165 97.62811 45.89491
#
# Poissons Ratio (x) = 0.46633 0.22775
# Poissons Ratio (y) = 0.25293 0.15533
# Poissons Ratio (z) = 0.26277 0.33043
#
# Static dielectric constant tensor:
#      x y z
#    x 3.424670 0.000000 0.000000 
#    y 0.000000 3.728560 0.000000 
#    z 0.000000 0.000000 2.881250 
# 
# 
# High freq. dielectric constant tensor:
#      x y z
#    x 1.692960 0.000000 0.000000 
#    y 0.000000 1.699760 0.000000 
#    z 0.000000 0.000000 1.632040 
# 
# From -- ./inp_files/23328.got.cif
#   From: 2010.03.12/outbox.cif.g09.slc.cpg/sg46_12_cif.got.tgz:23328.got - 2010.04.14 02:56:35.
