data_PCOD8191117
_publ_section_title
;
Structure prediction by ZEFSAII (Michael W. Deem and Ramdas Pophale) SiO2 
 PCOD8191117
Probable space group: I B A 2
;
_chemical_formula_sum "Si O2"
_cell_formula_units_Z 48
_cell_length_a 9.313309
_cell_length_b 14.240936
_cell_length_c 16.710235
_cell_angle_alpha 90.000000
_cell_angle_beta 90.000000
_cell_angle_gamma 90.000000
_cell_volume 2216.282435
_symmetry_space_group_name_H-M "I B A 2"
_symmetry_group_IT_number 45
_symmetry_cell_setting 'orthorhombic'
loop_
_space_group_symop_operation_xyz
x,y,z
-x,-y,z
-x,y,1/2+z
x,-y,1/2+z
1/2+x,1/2+y,1/2+z
1/2-x,1/2-y,1/2+z
1/2-x,1/2+y,z
1/2+x,1/2-y,z
loop_
_atom_site_type_symbol
_atom_site_label
_atom_site_fract_x
_atom_site_fract_y
_atom_site_fract_z
Si Si1 0.296999 0.652406 0.996780
Si Si2 0.967594 0.308127 0.741715
Si Si3 0.838306 0.169189 0.315548
Si Si4 0.293434 0.519897 0.601199
Si Si5 0.500000 0.500000 0.735655
Si Si6 0.000000 0.500000 0.677861
Si Si7 0.065145 0.221085 0.577878
O O1 0.269217 0.654541 0.902313
O O2 0.316719 0.544281 0.023267
O O3 0.165806 0.695954 0.046458
O O4 0.440074 0.711351 0.013031
O O5 0.796044 0.315612 0.755659
O O6 0.035852 0.411673 0.734168
O O7 0.055987 0.259244 0.813628
O O8 0.995578 0.246421 0.662824
O O9 0.938668 0.081721 0.291604
O O10 0.371739 0.467580 0.675965
O O11 0.352083 0.623270 0.585645
O O12 0.126992 0.530783 0.619641
#
# Coordination Sequence:
#
# PCOD8191117 Si02
#       7
#     8   8   8   8   4   4   8
#     4  12  26  46  69 106 147 185 233 299 362 422
#     4  12  24  47  72 104 137 188 243 288 347 432
#     4  12  28  44  70 107 145 182 230 301 366 411
#     4  12  24  45  73 105 133 192 245 288 347 425
#     4  12  24  44  72 102 134 186 242 280 348 420
#     4  12  24  42  72 100 134 180 246 292 328 424
#     4  12  24  45  76 101 140 191 242 285 348 436
#
# _framework density 21.657889999999998
#
# number of rings (size 3 to 8) (size 9 to 14) (size 15 to 20)
#    0.000    0.000    6.667    3.000    4.667    0.000 
#    3.000    0.000    0.000    0.000    0.000    0.000 
#    0.000    0.000    0.000    0.000    0.000    0.000 
#
# Total GULP energy -297676.423885 kJ/mol
# GULP energy per Si atom -12403.184329 kJ/mol
# Density = 2.160860 g / cm^3
# Si number density = 21.657890 Si / 1000 Ang^3
#
#
#
# Elastic Constant Matrix: (Units=GPa)
#
#
# Indices 1 2 3 4 5 6 
#
# 1 105.9607 24.1444 30.3767 0.0000 0.0000 0.0000
# 2 24.1444 135.4822 44.7443 0.0000 0.0000 0.0000
# 3 30.3767 44.7443 113.7959 0.0000 0.0000 0.0000
# 4 0.0000 0.0000 0.0000 22.9514 0.0000 0.0000
# 5 0.0000 0.0000 0.0000 0.0000 27.0480 0.0000
# 6 0.0000 0.0000 0.0000 0.0000 0.0000 35.7190
#
#
#
# Elastic Compliance Matrix: (Units=1/GPa)
#
#
# Indices 1 2 3 4 5 6 
#
# 1 0.010353 -0.001071 -0.002342 0.000000 0.000000 0.000000
# 2 -0.001071 0.008593 -0.003093 0.000000 0.000000 0.000000
# 3 -0.002342 -0.003093 0.010629 0.000000 0.000000 0.000000
# 4 0.000000 0.000000 0.000000 0.043570 0.000000 0.000000
# 5 0.000000 0.000000 0.000000 0.000000 0.036971 0.000000
# 6 0.000000 0.000000 0.000000 0.000000 0.000000 0.027996
#
#
# Mechanical properties :
#
#
# Convention : Reuss Voigt Hill
#
# Bulk Modulus (GPa) = 60.37860 61.52996 60.95428
# Shear Modulus (GPa) = 31.91874 34.20857 33.06365
#
# Velocity S-wave (km/s) = 3.84314 3.97860 3.91145
# Velocity P-wave (km/s) = 6.90158 7.04112 6.97170
#
# Compressibility (1/GPa) = 0.01656216
#
# Stress axis : x y z
#
# Youngs Moduli (GPa) = 96.58928 116.36764 94.08169
#
# Poissons Ratio (x) = 0.12468 0.22037
# Poissons Ratio (y) = 0.10349 0.29099
# Poissons Ratio (z) = 0.22625 0.35992
#
# Static dielectric constant tensor:
#      x y z
#    x 4.167010 0.000000 0.000000 
#    y 0.000000 4.074040 0.000000 
#    z 0.000000 0.000000 3.702610 
# 
# 
# High freq. dielectric constant tensor:
#      x y z
#    x 1.868980 0.000000 0.000000 
#    y 0.000000 1.862960 0.000000 
#    z 0.000000 0.000000 1.831480 
# 
# From -- ./inp_files/7584.got.cif
#   From: 2010.03.12/outbox.cif.g09.slc.cpg/sg45_4_cif.got.tgz:7584.got - 2010.04.14 02:50:11.
