data_PCOD8191715
_publ_section_title
;
Structure prediction by ZEFSAII (Michael W. Deem and Ramdas Pophale) SiO2 
 PCOD8191715
Probable space group: I M A 2
;
_chemical_formula_sum "Si O2"
_cell_formula_units_Z 64
_cell_length_a 8.924612
_cell_length_b 28.453225
_cell_length_c 14.243594
_cell_angle_alpha 90.000000
_cell_angle_beta 90.000000
_cell_angle_gamma 90.000000
_cell_volume 3616.932703
_symmetry_space_group_name_H-M "I M A 2"
_symmetry_group_IT_number 46
_symmetry_cell_setting 'orthorhombic'
loop_
_space_group_symop_operation_xyz
x,y,z
-x,-y,z
1/2-x,y,z
1/2+x,-y,z
1/2+x,1/2+y,1/2+z
1/2-x,1/2-y,1/2+z
-x,1/2+y,1/2+z
x,1/2-y,1/2+z
loop_
_atom_site_type_symbol
_atom_site_label
_atom_site_fract_x
_atom_site_fract_y
_atom_site_fract_z
Si Si1 0.422993 0.139901 0.781320
Si Si2 0.078902 0.183828 0.969841
Si Si3 0.575570 0.275107 0.180723
Si Si4 0.423346 0.721999 0.964411
Si Si5 0.428362 0.632981 0.848238
Si Si6 0.572533 0.678021 0.680126
Si Si7 0.572723 0.950916 0.460095
Si Si8 0.574989 0.951895 0.674845
O O1 0.250000 0.148167 0.751808
O O2 0.441272 0.141639 0.894721
O O3 0.525584 0.180117 0.738856
O O4 0.480384 0.089822 0.743147
O O5 0.250000 0.198828 0.981424
O O6 0.997069 0.229799 0.929387
O O7 0.019607 0.168392 0.072495
O O8 0.750000 0.264539 0.198565
O O9 0.482035 0.229576 0.212553
O O10 0.541375 0.286981 0.072970
O O11 0.250000 0.727681 0.943326
O O12 0.486792 0.677790 0.907264
O O13 0.250000 0.627822 0.849111
O O14 0.489447 0.638774 0.742424
O O15 0.501585 0.587369 0.892697
O O16 0.750000 0.673765 0.693426
O O17 0.750000 0.953053 0.445342
O O18 0.530164 0.939170 0.568018
O O19 0.500000 0.000000 0.430379
O O20 0.750000 0.959845 0.683968
O O21 0.500000 0.000000 0.708929
#
# Coordination Sequence:
#
# PCOD8191715 Si02
#       8
#     8   8   8   8   8   8   8   8
#     4  10  19  32  50  73  98 128 165 204 244 293
#     4   9  19  33  49  68  95 131 169 205 243 285
#     4  10  19  31  47  71 101 132 163 200 244 293
#     4   9  19  32  46  68 101 133 162 198 243 291
#     4  11  21  33  51  75 100 130 167 207 247 293
#     4  10  20  34  49  68  96 133 171 207 245 287
#     4  10  20  35  54  77 103 131 159 195 243 296
#     4   9  19  34  53  76 103 130 159 196 243 296
#
# _framework density 17.694552000000002
#
# number of rings (size 3 to 8) (size 9 to 14) (size 15 to 20)
#    0.000    2.250    0.000    3.000    0.000    5.500 
#    0.000    0.000    0.000    0.750    0.000    1.750 
#    0.000    0.000    0.000    0.000    0.000    0.000 
#
# Total GULP energy -396842.126041 kJ/mol
# GULP energy per Si atom -12401.316439 kJ/mol
# Density = 1.765428 g / cm^3
# Si number density = 17.694552 Si / 1000 Ang^3
#
#
#
# Elastic Constant Matrix: (Units=GPa)
#
#
# Indices 1 2 3 4 5 6 
#
# 1 59.0955 41.8681 37.4446 0.0001 0.0000 0.0000
# 2 41.8681 125.7749 80.2303 0.0002 0.0000 0.0000
# 3 37.4446 80.2303 95.5052 0.0006 0.0001 0.0002
# 4 0.0001 0.0002 0.0006 31.4545 0.0000 0.0000
# 5 0.0000 0.0000 0.0001 0.0000 22.6781 0.0000
# 6 0.0000 0.0000 0.0002 0.0000 0.0000 31.0450
#
#
#
# Elastic Compliance Matrix: (Units=1/GPa)
#
#
# Indices 1 2 3 4 5 6 
#
# 1 0.023498 -0.004191 -0.005692 0.000000 0.000000 0.000000
# 2 -0.004191 0.017878 -0.013375 0.000000 0.000000 0.000000
# 3 -0.005692 -0.013375 0.023938 0.000000 0.000000 0.000000
# 4 0.000000 0.000000 0.000000 0.031792 0.000000 0.000000
# 5 0.000000 0.000000 0.000000 0.000000 0.044095 0.000000
# 6 0.000000 0.000000 0.000000 0.000000 0.000000 0.032211
#
#
# Mechanical properties :
#
#
# Convention : Reuss Voigt Hill
#
# Bulk Modulus (GPa) = 53.19938 66.60683 59.90311
# Shear Modulus (GPa) = 22.10488 25.09103 23.59796
#
# Velocity S-wave (km/s) = 3.53830 3.76973 3.65585
# Velocity P-wave (km/s) = 6.84277 7.52809 7.19359
#
# Compressibility (1/GPa) = 0.01879721
#
# Stress axis : x y z
#
# Youngs Moduli (GPa) = 42.55742 55.93546 41.77425
#
# Poissons Ratio (x) = 0.23444 0.23777
# Poissons Ratio (y) = 0.17837 0.55874
# Poissons Ratio (z) = 0.24223 0.74815
#
# Static dielectric constant tensor:
#      x y z
#    x 3.277790 0.000000 0.000000 
#    y 0.000000 3.231230 0.000000 
#    z 0.000000 0.000000 3.471480 
# 
# 
# High freq. dielectric constant tensor:
#      x y z
#    x 1.688930 0.000000 0.000000 
#    y 0.000000 1.663880 0.000000 
#    z 0.000000 0.000000 1.687000 
# 
# From -- ./inp_files/14435.got.cif
#   From: 2010.03.12/outbox.cif.g09.slc.cpg/sg46_8_cif.got.tgz:14435.got - 2010.04.14 02:56:35.
