data_PCOD8191777
_publ_section_title
;
Structure prediction by ZEFSAII (Michael W. Deem and Ramdas Pophale) SiO2 
 PCOD8191777
Probable space group: I M A 2
;
_chemical_formula_sum "Si O2"
_cell_formula_units_Z 40
_cell_length_a 8.631278
_cell_length_b 15.461622
_cell_length_c 18.951788
_cell_angle_alpha 90.000000
_cell_angle_beta 90.000000
_cell_angle_gamma 90.000000
_cell_volume 2529.183536
_symmetry_space_group_name_H-M "I M A 2"
_symmetry_group_IT_number 46
_symmetry_cell_setting 'orthorhombic'
loop_
_space_group_symop_operation_xyz
x,y,z
-x,-y,z
1/2-x,y,z
1/2+x,-y,z
1/2+x,1/2+y,1/2+z
1/2-x,1/2-y,1/2+z
-x,1/2+y,1/2+z
x,1/2-y,1/2+z
loop_
_atom_site_type_symbol
_atom_site_label
_atom_site_fract_x
_atom_site_fract_y
_atom_site_fract_z
Si Si1 0.432753 0.407216 0.662840
Si Si2 0.924014 0.589272 0.247887
Si Si3 0.567077 0.093304 0.013679
Si Si4 0.075109 0.181485 0.884114
Si Si5 0.068338 0.737863 0.758025
O O1 0.500000 0.500000 0.684424
O O2 0.250000 0.414737 0.654420
O O3 0.504255 0.375012 0.588995
O O4 0.476076 0.340396 0.723482
O O5 0.750000 0.593586 0.217357
O O6 0.921485 0.596077 0.333656
O O7 0.000000 0.500000 0.223175
O O8 0.021559 0.671788 0.218648
O O9 0.750000 0.086820 0.016504
O O10 0.500000 0.000000 0.993651
O O11 0.516102 0.162944 0.955700
O O12 0.250000 0.211361 0.901845
O O13 0.985882 0.256975 0.840225
O O14 0.250000 0.721609 0.752042
#
# Coordination Sequence:
#
# PCOD8191777 Si02
#       5
#     8   8   8   8   8
#     4  11  21  35  51  70  98 132 167 205 246 294
#     4   9  17  27  43  66  94 125 156 192 237 284
#     4  11  20  30  46  70  98 130 162 198 245 298
#     4   9  18  30  45  67  96 127 159 195 238 287
#     4  10  19  32  48  69  96 128 165 204 243 291
#
# _framework density 15.815382
#
# number of rings (size 3 to 8) (size 9 to 14) (size 15 to 20)
#    1.200    0.800    0.000    7.800    0.000    1.600 
#    0.000    0.000    0.000    0.000    0.000    1.400 
#    0.000    0.000    0.000    0.000    0.000    0.000 
#
# Total GULP energy -247860.141493 kJ/mol
# GULP energy per Si atom -12393.007075 kJ/mol
# Density = 1.577939 g / cm^3
# Si number density = 15.815382 Si / 1000 Ang^3
#
#
#
# Elastic Constant Matrix: (Units=GPa)
#
#
# Indices 1 2 3 4 5 6 
#
# 1 138.8601 28.5274 28.9893 0.0000 0.0000 0.0000
# 2 28.5274 75.6596 42.7712 0.0000 0.0000 0.0000
# 3 28.9893 42.7712 74.3503 0.0000 0.0000 0.0000
# 4 0.0000 0.0000 0.0000 26.3569 0.0000 0.0000
# 5 0.0000 0.0000 0.0000 0.0000 24.8543 0.0000
# 6 0.0000 0.0000 0.0000 0.0000 0.0000 27.2763
#
#
#
# Elastic Compliance Matrix: (Units=1/GPa)
#
#
# Indices 1 2 3 4 5 6 
#
# 1 0.008012 -0.001860 -0.002054 0.000000 0.000000 0.000000
# 2 -0.001860 0.020019 -0.010791 0.000000 0.000000 0.000000
# 3 -0.002054 -0.010791 0.020458 0.000000 0.000000 0.000000
# 4 0.000000 0.000000 0.000000 0.037941 0.000000 0.000000
# 5 0.000000 0.000000 0.000000 0.000000 0.040234 0.000000
# 6 0.000000 0.000000 0.000000 0.000000 0.000000 0.036662
#
#
# Mechanical properties :
#
#
# Convention : Reuss Voigt Hill
#
# Bulk Modulus (GPa) = 52.41185 54.38289 53.39737
# Shear Modulus (GPa) = 25.11353 28.26963 26.69158
#
# Velocity S-wave (km/s) = 3.98919 4.23244 4.11262
# Velocity P-wave (km/s) = 7.37766 7.63842 7.50918
#
# Compressibility (1/GPa) = 0.01907966
#
# Stress axis : x y z
#
# Youngs Moduli (GPa) = 124.80626 49.95374 48.87980
#
# Poissons Ratio (x) = 0.09291 0.10041
# Poissons Ratio (y) = 0.23212 0.52745
# Poissons Ratio (z) = 0.25637 0.53904
#
# Static dielectric constant tensor:
#      x y z
#    x 3.129640 0.000000 0.000000 
#    y 0.000000 2.755760 0.000000 
#    z 0.000000 0.000000 2.779320 
# 
# 
# High freq. dielectric constant tensor:
#      x y z
#    x 1.633790 0.000000 0.000000 
#    y 0.000000 1.578960 0.000000 
#    z 0.000000 0.000000 1.575410 
# 
# From -- ./inp_files/18239.got.cif
#   From: 2010.03.12/outbox.cif.g09.slc.cpg/sg46_10_cif.got.tgz:18239.got - 2010.04.14 02:56:35.
