data_PCOD8191169
_publ_section_title
;
Structure prediction by ZEFSAII (Michael W. Deem and Ramdas Pophale) SiO2 
 PCOD8191169
Probable space group: I M A 2
;
_chemical_formula_sum "Si O2"
_cell_formula_units_Z 64
_cell_length_a 8.855005
_cell_length_b 30.423506
_cell_length_c 14.773694
_cell_angle_alpha 90.000000
_cell_angle_beta 90.000000
_cell_angle_gamma 90.000000
_cell_volume 3980.037562
_symmetry_space_group_name_H-M "I M A 2"
_symmetry_group_IT_number 46
_symmetry_cell_setting 'orthorhombic'
loop_
_space_group_symop_operation_xyz
x,y,z
-x,-y,z
1/2-x,y,z
1/2+x,-y,z
1/2+x,1/2+y,1/2+z
1/2-x,1/2-y,1/2+z
-x,1/2+y,1/2+z
x,1/2-y,1/2+z
loop_
_atom_site_type_symbol
_atom_site_label
_atom_site_fract_x
_atom_site_fract_y
_atom_site_fract_z
Si Si1 0.928908 0.628430 0.153970
Si Si2 0.070352 0.206483 0.173327
Si Si3 0.429648 0.293516 0.279001
Si Si4 0.929764 0.726320 0.476164
Si Si5 0.072140 0.546123 0.872494
Si Si6 0.071092 0.128430 0.298358
Si Si7 0.071113 0.176385 0.476164
Si Si8 0.927860 0.453877 0.079838
O O1 0.750000 0.621093 0.156016
O O2 0.983584 0.660503 0.234738
O O3 0.009971 0.581220 0.153155
O O4 0.987671 0.651671 0.063685
O O5 0.250000 0.209361 0.177979
O O6 0.007358 0.249999 0.226164
O O7 0.016416 0.160502 0.217589
O O8 0.012446 0.203860 0.069190
O O9 0.250000 0.290639 0.274349
O O10 0.487554 0.296139 0.383137
O O11 0.750000 0.726923 0.476164
O O12 0.997446 0.775102 0.476166
O O13 0.250000 0.542434 0.862734
O O14 0.000000 0.500000 0.844793
O O15 0.009973 0.581220 0.799177
O O16 0.025308 0.558353 0.976166
O O17 0.250000 0.121092 0.296313
O O18 0.012330 0.151673 0.388641
O O19 0.250000 0.179432 0.476165
O O20 0.750000 0.457566 0.089599
O O21 0.000000 0.500000 0.107539
#
# Coordination Sequence:
#
# PCOD8191169 Si02
#       8
#     8   8   8   8   8   8   8   8
#     4  10  17  26  42  65  90 120 153 183 219 259
#     4   9  15  22  36  61  91 121 153 187 221 255
#     4   9  15  22  36  61  91 121 153 187 221 255
#     4   9  14  22  34  58  93 122 153 192 221 246
#     4  10  20  32  46  65  89 116 145 179 221 269
#     4  10  17  26  42  65  90 120 153 183 219 259
#     4   9  14  20  36  60  89 118 147 184 216 246
#     4  10  20  32  46  65  89 116 145 179 221 269
#
# _framework density 16.080251000000001
#
# number of rings (size 3 to 8) (size 9 to 14) (size 15 to 20)
#    0.000    2.500    3.750    0.750    0.000    1.000 
#    0.000    0.000    0.000    0.750    0.000    1.750 
#    0.000    0.000    0.000    0.000    0.000    0.000 
#
# Total GULP energy -396523.084031 kJ/mol
# GULP energy per Si atom -12391.346376 kJ/mol
# Density = 1.604365 g / cm^3
# Si number density = 16.080251 Si / 1000 Ang^3
#
#
#
# Elastic Constant Matrix: (Units=GPa)
#
#
# Indices 1 2 3 4 5 6 
#
# 1 29.6211 32.6548 17.2339 0.0000 0.0000 0.0000
# 2 32.6548 141.8522 66.3533 0.0000 0.0000 0.0000
# 3 17.2339 66.3533 118.3440 -0.0001 -0.0003 -0.0001
# 4 0.0000 0.0000 -0.0001 20.4262 -0.0001 0.0000
# 5 0.0000 0.0000 -0.0003 -0.0001 8.1602 -0.0001
# 6 0.0000 0.0000 -0.0001 0.0000 -0.0001 18.6495
#
#
#
# Elastic Compliance Matrix: (Units=1/GPa)
#
#
# Indices 1 2 3 4 5 6 
#
# 1 0.045331 -0.009960 -0.001017 0.000000 0.000000 0.000000
# 2 -0.009960 0.011744 -0.005134 0.000000 0.000000 0.000000
# 3 -0.001017 -0.005134 0.011477 0.000000 0.000000 0.000000
# 4 0.000000 0.000000 0.000000 0.048957 0.000001 0.000000
# 5 0.000000 0.000000 0.000000 0.000001 0.122545 0.000000
# 6 0.000000 0.000000 0.000000 0.000000 0.000000 0.053621
#
#
# Mechanical properties :
#
#
# Convention : Reuss Voigt Hill
#
# Bulk Modulus (GPa) = 27.52566 58.03348 42.77957
# Shear Modulus (GPa) = 14.79262 21.01889 17.90575
#
# Velocity S-wave (km/s) = 3.03632 3.61934 3.34057
# Velocity P-wave (km/s) = 5.42652 7.32355 6.44521
#
# Compressibility (1/GPa) = 0.03632974
#
# Stress axis : x y z
#
# Youngs Moduli (GPa) = 22.05994 85.15045 87.13272
#
# Poissons Ratio (x) = 0.84806 0.08863
# Poissons Ratio (y) = 0.21971 0.44736
# Poissons Ratio (z) = 0.02244 0.43718
#
# Static dielectric constant tensor:
#      x y z
#    x 2.549010 0.000000 0.000000 
#    y 0.000000 3.112290 0.000000 
#    z 0.000000 0.000000 3.179750 
# 
# 
# High freq. dielectric constant tensor:
#      x y z
#    x 1.572320 0.000000 0.000000 
#    y 0.000000 1.617110 0.000000 
#    z 0.000000 0.000000 1.596800 
# 
# From -- ./inp_files/14725.got.cif
#   From: 2010.03.12/outbox.cif.g09.slc.cpg/sg46_8_cif.got.tgz:14725.got - 2010.04.14 02:56:35.
