data_PCOD8191798
_publ_section_title
;
Structure prediction by ZEFSAII (Michael W. Deem and Ramdas Pophale) SiO2 
 PCOD8191798
Probable space group: I M A 2
;
_chemical_formula_sum "Si O2"
_cell_formula_units_Z 64
_cell_length_a 9.010476
_cell_length_b 19.628722
_cell_length_c 20.418907
_cell_angle_alpha 90.000000
_cell_angle_beta 90.000000
_cell_angle_gamma 90.000000
_cell_volume 3611.372191
_symmetry_space_group_name_H-M "I M A 2"
_symmetry_group_IT_number 46
_symmetry_cell_setting 'orthorhombic'
loop_
_space_group_symop_operation_xyz
x,y,z
-x,-y,z
1/2-x,y,z
1/2+x,-y,z
1/2+x,1/2+y,1/2+z
1/2-x,1/2-y,1/2+z
-x,1/2+y,1/2+z
x,1/2-y,1/2+z
loop_
_atom_site_type_symbol
_atom_site_label
_atom_site_fract_x
_atom_site_fract_y
_atom_site_fract_z
Si Si1 0.077941 0.297275 0.882750
Si Si2 0.925442 0.212014 0.143749
Si Si3 0.923026 0.066476 0.725162
Si Si4 0.077514 0.567362 0.688204
Si Si5 0.919011 0.710283 0.031062
Si Si6 0.076179 0.931481 0.340326
Si Si7 0.078037 0.712539 0.273722
Si Si8 0.924723 0.932677 0.586597
O O1 0.250000 0.311011 0.867424
O O2 0.990122 0.367626 0.878132
O O3 0.015984 0.240507 0.833941
O O4 0.055113 0.268845 0.955980
O O5 0.750000 0.215537 0.142960
O O6 0.980767 0.133996 0.150059
O O7 0.983031 0.255439 0.205929
O O8 0.982366 0.241371 0.075780
O O9 0.750000 0.052066 0.712036
O O10 0.943530 0.131101 0.772573
O O11 0.002942 0.082222 0.656856
O O12 0.000000 0.000000 0.758039
O O13 0.250000 0.556653 0.677499
O O14 0.038730 0.578407 0.764091
O O15 0.000000 0.500000 0.659614
O O16 0.750000 0.721608 0.052811
O O17 0.961400 0.630927 0.040002
O O18 0.250000 0.936096 0.353898
O O19 0.000000 0.000000 0.367252
O O20 0.250000 0.732944 0.283876
O O21 0.750000 0.944868 0.594757
O O22 0.000000 0.000000 0.555175
#
# Coordination Sequence:
#
# PCOD8191798 Si02
#       8
#     8   8   8   8   8   8   8   8
#     4  11  23  37  53  77 110 146 184 224 270 320
#     4  10  19  35  57  80 106 138 178 221 268 318
#     4  10  19  32  53  80 109 136 171 218 268 317
#     4   9  18  32  52  79 108 135 170 217 262 314
#     4  10  23  38  51  76 110 142 181 224 265 317
#     4  10  19  34  53  77 110 145 183 223 264 317
#     4  10  20  36  56  80 108 139 178 224 269 320
#     4  10  19  32  50  73 105 141 178 215 256 309
#
# _framework density 17.721795
#
# number of rings (size 3 to 8) (size 9 to 14) (size 15 to 20)
#    0.000    2.000    2.500    2.250    0.000    4.500 
#    0.000    1.250    0.000    0.750    0.000    0.000 
#    0.000    0.000    0.000    0.000    0.000    0.000 
#
# Total GULP energy -396833.463964 kJ/mol
# GULP energy per Si atom -12401.045749 kJ/mol
# Density = 1.768146 g / cm^3
# Si number density = 17.721795 Si / 1000 Ang^3
#
#
#
# Elastic Constant Matrix: (Units=GPa)
#
#
# Indices 1 2 3 4 5 6 
#
# 1 82.6156 48.9885 39.0453 0.0000 0.0000 0.0000
# 2 48.9885 122.3524 49.6895 0.0000 0.0000 0.0000
# 3 39.0453 49.6895 75.4359 0.0000 0.0000 0.0000
# 4 0.0000 0.0000 0.0000 24.0381 0.0000 0.0000
# 5 0.0000 0.0000 0.0000 0.0000 24.7030 0.0000
# 6 0.0000 0.0000 0.0000 0.0000 0.0000 35.5177
#
#
#
# Elastic Compliance Matrix: (Units=1/GPa)
#
#
# Indices 1 2 3 4 5 6 
#
# 1 0.017742 -0.004606 -0.006149 0.000000 0.000000 0.000000
# 2 -0.004606 0.012354 -0.005753 0.000000 0.000000 0.000000
# 3 -0.006149 -0.005753 0.020229 0.000000 0.000000 0.000000
# 4 0.000000 0.000000 0.000000 0.041601 0.000000 0.000000
# 5 0.000000 0.000000 0.000000 0.000000 0.040481 0.000000
# 6 0.000000 0.000000 0.000000 0.000000 0.000000 0.028155
#
#
# Mechanical properties :
#
#
# Convention : Reuss Voigt Hill
#
# Bulk Modulus (GPa) = 57.77924 61.76117 59.77021
# Shear Modulus (GPa) = 25.08191 26.36380 25.72286
#
# Velocity S-wave (km/s) = 3.76615 3.86119 3.81396
# Velocity P-wave (km/s) = 7.18235 7.40300 7.29351
#
# Compressibility (1/GPa) = 0.01730725
#
# Stress axis : x y z
#
# Youngs Moduli (GPa) = 56.36423 80.94542 49.43506
#
# Poissons Ratio (x) = 0.37287 0.30397
# Poissons Ratio (y) = 0.25964 0.28441
# Poissons Ratio (z) = 0.34657 0.46570
#
# Static dielectric constant tensor:
#      x y z
#    x 3.316240 0.000000 0.000000 
#    y 0.000000 3.511170 0.000000 
#    z 0.000000 0.000000 2.992210 
# 
# 
# High freq. dielectric constant tensor:
#      x y z
#    x 1.691850 0.000000 0.000000 
#    y 0.000000 1.693780 0.000000 
#    z 0.000000 0.000000 1.653790 
# 
# From -- ./inp_files/18596.got.cif
#   From: 2010.03.12/outbox.cif.g09.slc.cpg/sg46_10_cif.got.tgz:18596.got - 2010.04.14 02:56:35.
