data_PCOD8191076
_publ_section_title
;
Structure prediction by ZEFSAII (Michael W. Deem and Ramdas Pophale) SiO2 
 PCOD8191076
Probable space group: I B A 2
;
_chemical_formula_sum "Si O2"
_cell_formula_units_Z 36
_cell_length_a 9.480301
_cell_length_b 20.089558
_cell_length_c 9.172578
_cell_angle_alpha 90.000000
_cell_angle_beta 90.000000
_cell_angle_gamma 90.000000
_cell_volume 1746.963864
_symmetry_space_group_name_H-M "I B A 2"
_symmetry_group_IT_number 45
_symmetry_cell_setting 'orthorhombic'
loop_
_space_group_symop_operation_xyz
x,y,z
-x,-y,z
-x,y,1/2+z
x,-y,1/2+z
1/2+x,1/2+y,1/2+z
1/2-x,1/2-y,1/2+z
1/2-x,1/2+y,z
1/2+x,1/2-y,z
loop_
_atom_site_type_symbol
_atom_site_label
_atom_site_fract_x
_atom_site_fract_y
_atom_site_fract_z
Si Si1 0.718615 0.951483 0.257750
Si Si2 0.000000 0.000000 0.851594
Si Si3 0.650238 0.193042 0.820806
Si Si4 0.640563 0.788129 0.972563
Si Si5 0.262566 0.930925 0.441327
O O1 0.666102 0.886301 0.343324
O O2 0.891006 0.955129 0.257544
O O3 0.658120 0.020210 0.326616
O O4 0.663877 0.946860 0.094248
O O5 0.904917 0.948786 0.947319
O O6 0.516552 0.216863 0.912129
O O7 0.643737 0.213097 0.649324
O O8 0.782223 0.225376 0.902549
O O9 0.715498 0.853744 0.905025
#
# Coordination Sequence:
#
# PCOD8191076 Si02
#       5
#     8   4   8   8   8
#     4   9  20  36  60  89 121 158 206 252 307 366
#     4   8  18  36  60  88 122 156 206 244 314 360
#     4  11  25  44  63  93 127 169 213 263 318 379
#     4  11  25  44  63  93 127 169 213 263 318 379
#     4   9  20  36  60  89 121 158 206 252 307 366
#
# _framework density 20.60718
#
# number of rings (size 3 to 8) (size 9 to 14) (size 15 to 20)
#    1.333    0.889    0.000    2.000    3.111    4.444 
#    0.000    4.444    0.000    0.000    0.000    0.000 
#    0.000    0.000    0.000    0.000    0.000    0.000 
#
# Total GULP energy -222986.177650 kJ/mol
# GULP energy per Si atom -12388.120981 kJ/mol
# Density = 2.056028 g / cm^3
# Si number density = 20.607180 Si / 1000 Ang^3
#
#
#
# Elastic Constant Matrix: (Units=GPa)
#
#
# Indices 1 2 3 4 5 6 
#
# 1 60.0191 -12.8329 -0.1802 -0.0001 -0.0001 0.0000
# 2 -12.8329 55.3571 13.7860 -0.0006 -0.0001 0.0000
# 3 -0.1802 13.7860 77.6234 -0.0004 -0.0002 0.0000
# 4 -0.0001 -0.0006 -0.0004 35.4050 0.0000 0.0000
# 5 -0.0001 -0.0001 -0.0002 0.0000 28.8792 0.0000
# 6 0.0000 0.0000 0.0000 0.0000 0.0000 44.0789
#
#
#
# Elastic Compliance Matrix: (Units=1/GPa)
#
#
# Indices 1 2 3 4 5 6 
#
# 1 0.017568 0.004250 -0.000714 0.000000 0.000000 0.000000
# 2 0.004250 0.019929 -0.003530 0.000000 0.000000 0.000000
# 3 -0.000714 -0.003530 0.013508 0.000000 0.000000 0.000000
# 4 0.000000 0.000000 0.000000 0.028245 0.000000 0.000000
# 5 0.000000 0.000000 0.000000 0.000000 0.034627 0.000000
# 6 0.000000 0.000000 0.000000 0.000000 0.000000 0.022687
#
#
# Mechanical properties :
#
#
# Convention : Reuss Voigt Hill
#
# Bulk Modulus (GPa) = 19.60078 21.61618 20.60848
# Shear Modulus (GPa) = 32.56151 34.48771 33.52461
#
# Velocity S-wave (km/s) = 3.97937 4.09538 4.03779
# Velocity P-wave (km/s) = 5.53589 5.73369 5.63566
#
# Compressibility (1/GPa) = 0.05101838
#
# Stress axis : x y z
#
# Youngs Moduli (GPa) = 56.92165 50.17852 74.03070
#
# Poissons Ratio (x) = -0.21328 0.05287
# Poissons Ratio (y) = -0.24194 0.26129
# Poissons Ratio (z) = 0.04065 0.17711
#
# Static dielectric constant tensor:
#      x y z
#    x 3.519670 0.000000 0.000000 
#    y 0.000000 3.709200 0.000000 
#    z 0.000000 0.000000 3.590650 
# 
# 
# High freq. dielectric constant tensor:
#      x y z
#    x 1.797910 0.000000 0.000000 
#    y 0.000000 1.805940 0.000000 
#    z 0.000000 0.000000 1.803040 
# 
# From -- ./inp_files/1309.got.cif
#   From: 2010.03.12/outbox.cif.g09.slc.cpg/sg45_1_cif.got.tgz:1309.got - 2010.04.14 02:50:11.
