data_PCOD8191067
_publ_section_title
;
Structure prediction by ZEFSAII (Michael W. Deem and Ramdas Pophale) SiO2 
 PCOD8191067
Probable space group: I B A 2
;
_chemical_formula_sum "Si O2"
_cell_formula_units_Z 48
_cell_length_a 17.848455
_cell_length_b 9.793786
_cell_length_c 11.918940
_cell_angle_alpha 90.000000
_cell_angle_beta 90.000000
_cell_angle_gamma 90.000000
_cell_volume 2083.477776
_symmetry_space_group_name_H-M "I B A 2"
_symmetry_group_IT_number 45
_symmetry_cell_setting 'orthorhombic'
loop_
_space_group_symop_operation_xyz
x,y,z
-x,-y,z
-x,y,1/2+z
x,-y,1/2+z
1/2+x,1/2+y,1/2+z
1/2-x,1/2-y,1/2+z
1/2-x,1/2+y,z
1/2+x,1/2-y,z
loop_
_atom_site_type_symbol
_atom_site_label
_atom_site_fract_x
_atom_site_fract_y
_atom_site_fract_z
Si Si1 0.563887 0.105474 0.966350
Si Si2 0.402353 0.779335 0.744543
Si Si3 0.031261 0.138798 0.116731
Si Si4 0.187153 0.582704 0.043528
Si Si5 0.259593 0.357792 0.322214
Si Si6 0.192637 0.884169 0.705780
O O1 0.565881 0.106271 0.830210
O O2 0.500000 0.000000 0.005162
O O3 0.545769 0.252940 0.018480
O O4 0.643679 0.056005 0.014017
O O5 0.471497 0.687611 0.708045
O O6 0.362771 0.833626 0.632337
O O7 0.344235 0.698924 0.825138
O O8 0.104546 0.103208 0.189712
O O9 0.000000 0.000000 0.059992
O O10 0.268740 0.552768 0.094569
O O11 0.207355 0.667203 0.931069
O O12 0.214821 0.274021 0.225896
O O13 0.270218 0.520325 0.302613
#
# Coordination Sequence:
#
# PCOD8191067 Si02
#       6
#     8   8   8   8   8   8
#     4  12  27  46  78 111 149 205 262 318 376 459
#     4  11  26  47  72 115 151 195 254 318 390 448
#     4  12  26  50  74 113 158 201 246 317 397 460
#     4  11  24  48  74 109 146 196 263 312 375 444
#     4  11  24  46  72 107 143 203 251 311 375 453
#     4  11  25  44  76 106 152 197 251 315 376 457
#
# _framework density 23.038404
#
# number of rings (size 3 to 8) (size 9 to 14) (size 15 to 20)
#    0.000    0.667    3.333    4.000    4.667    4.667 
#    6.000    0.000    0.000    0.000    0.000    0.000 
#    0.000    0.000    0.000    0.000    0.000    0.000 
#
# Total GULP energy -297448.817322 kJ/mol
# GULP energy per Si atom -12393.700722 kJ/mol
# Density = 2.298597 g / cm^3
# Si number density = 23.038404 Si / 1000 Ang^3
#
#
#
# Elastic Constant Matrix: (Units=GPa)
#
#
# Indices 1 2 3 4 5 6 
#
# 1 161.5444 66.9831 64.6359 0.0000 0.0000 0.0000
# 2 66.9831 121.5705 58.3669 0.0000 0.0000 0.0000
# 3 64.6359 58.3669 129.6710 0.0000 0.0000 0.0000
# 4 0.0000 0.0000 0.0000 32.3205 0.0000 0.0000
# 5 0.0000 0.0000 0.0000 0.0000 43.8609 0.0000
# 6 0.0000 0.0000 0.0000 0.0000 0.0000 42.6605
#
#
#
# Elastic Compliance Matrix: (Units=1/GPa)
#
#
# Indices 1 2 3 4 5 6 
#
# 1 0.008752 -0.003480 -0.002796 0.000000 0.000000 0.000000
# 2 -0.003480 0.011877 -0.003611 0.000000 0.000000 0.000000
# 3 -0.002796 -0.003611 0.010731 0.000000 0.000000 0.000000
# 4 0.000000 0.000000 0.000000 0.030940 0.000000 0.000000
# 5 0.000000 0.000000 0.000000 0.000000 0.022799 0.000000
# 6 0.000000 0.000000 0.000000 0.000000 0.000000 0.023441
#
#
# Mechanical properties :
#
#
# Convention : Reuss Voigt Hill
#
# Bulk Modulus (GPa) = 86.31690 88.08420 87.20055
# Shear Modulus (GPa) = 37.82820 38.62172 38.22496
#
# Velocity S-wave (km/s) = 4.05651 4.09884 4.07773
# Velocity P-wave (km/s) = 7.71286 7.79213 7.75260
#
# Compressibility (1/GPa) = 0.01158522
#
# Stress axis : x y z
#
# Youngs Moduli (GPa) = 114.26154 84.19793 93.18615
#
# Poissons Ratio (x) = 0.29298 0.26057
# Poissons Ratio (y) = 0.39759 0.33654
# Poissons Ratio (z) = 0.31950 0.30408
#
# Static dielectric constant tensor:
#      x y z
#    x 4.464030 0.000000 0.000000 
#    y 0.000000 4.104630 0.000000 
#    z 0.000000 0.000000 4.037910 
# 
# 
# High freq. dielectric constant tensor:
#      x y z
#    x 1.931530 0.000000 0.000000 
#    y 0.000000 1.904860 0.000000 
#    z 0.000000 0.000000 1.902940 
# 
# From -- ./inp_files/6735.got.cif
#   From: 2010.03.12/outbox.cif.g09.slc.cpg/sg45_4_cif.got.tgz:6735.got - 2010.04.14 02:50:11.
