data_PCOD8191123
_publ_section_title
;
Structure prediction by ZEFSAII (Michael W. Deem and Ramdas Pophale) SiO2 
 PCOD8191123
Probable space group: I B A 2
;
_chemical_formula_sum "Si O2"
_cell_formula_units_Z 40
_cell_length_a 21.485697
_cell_length_b 8.807235
_cell_length_c 7.306605
_cell_angle_alpha 90.000000
_cell_angle_beta 90.000000
_cell_angle_gamma 90.000000
_cell_volume 1382.625815
_symmetry_space_group_name_H-M "I B A 2"
_symmetry_group_IT_number 45
_symmetry_cell_setting 'orthorhombic'
loop_
_space_group_symop_operation_xyz
x,y,z
-x,-y,z
-x,y,1/2+z
x,-y,1/2+z
1/2+x,1/2+y,1/2+z
1/2-x,1/2-y,1/2+z
1/2-x,1/2+y,z
1/2+x,1/2-y,z
loop_
_atom_site_type_symbol
_atom_site_label
_atom_site_fract_x
_atom_site_fract_y
_atom_site_fract_z
Si Si1 0.800992 0.859592 0.607510
Si Si2 0.133751 0.151084 0.969228
Si Si3 0.446875 0.120924 0.915189
Si Si4 0.975332 0.163559 0.215829
Si Si5 0.679136 0.857124 0.787512
O O1 0.828983 0.787950 0.792542
O O2 0.734309 0.938285 0.671193
O O3 0.788253 0.728639 0.458562
O O4 0.846972 0.979587 0.517135
O O5 0.060798 0.147858 0.910669
O O6 0.144880 0.243226 0.151303
O O7 0.468409 0.218006 0.740628
O O8 0.379656 0.040700 0.864433
O O9 0.500000 0.000000 0.973033
O O10 0.431799 0.249636 0.068161
O O11 0.000000 0.000000 0.149227
#
# Coordination Sequence:
#
# PCOD8191123 Si02
#       5
#     8   8   8   8   8
#     4  12  25  47  80 120 158 219 284 357 428 496
#     4  12  26  48  80 118 157 211 291 359 423 506
#     4  12  28  53  79 123 175 226 277 352 444 518
#     4  12  27  49  85 121 161 220 290 358 423 504
#     4  12  26  51  79 118 172 215 281 353 429 527
#
# _framework density 28.93046
#
# number of rings (size 3 to 8) (size 9 to 14) (size 15 to 20)
#    0.000    0.000    6.000    3.600    2.800    0.000 
#   14.400    1.000    0.000    0.000    0.000    0.000 
#    0.000    0.000    0.000    0.000    0.000    0.000 
#
# Total GULP energy -247804.260732 kJ/mol
# GULP energy per Si atom -12390.213037 kJ/mol
# Density = 2.886461 g / cm^3
# Si number density = 28.930460 Si / 1000 Ang^3
#
#
#
# Elastic Constant Matrix: (Units=GPa)
#
#
# Indices 1 2 3 4 5 6 
#
# 1 163.9305 16.3084 28.5455 0.0000 0.0000 0.0000
# 2 16.3084 72.1572 16.9362 0.0000 0.0000 0.0000
# 3 28.5455 16.9362 138.4744 0.0000 0.0000 0.0000
# 4 0.0000 0.0000 0.0000 29.7228 0.0000 0.0000
# 5 0.0000 0.0000 0.0000 0.0000 59.6474 0.0000
# 6 0.0000 0.0000 0.0000 0.0000 0.0000 40.2490
#
#
#
# Elastic Compliance Matrix: (Units=1/GPa)
#
#
# Indices 1 2 3 4 5 6 
#
# 1 0.006423 -0.001175 -0.001180 0.000000 0.000000 0.000000
# 2 -0.001175 0.014483 -0.001529 0.000000 0.000000 0.000000
# 3 -0.001180 -0.001529 0.007652 0.000000 0.000000 0.000000
# 4 0.000000 0.000000 0.000000 0.033644 0.000000 0.000000
# 5 0.000000 0.000000 0.000000 0.000000 0.016765 0.000000
# 6 0.000000 0.000000 0.000000 0.000000 0.000000 0.024845
#
#
# Mechanical properties :
#
#
# Convention : Reuss Voigt Hill
#
# Bulk Modulus (GPa) = 48.10168 55.34915 51.72541
# Shear Modulus (GPa) = 42.19048 46.77529 44.48289
#
# Velocity S-wave (km/s) = 3.82297 4.02533 3.92545
# Velocity P-wave (km/s) = 6.01245 6.38574 6.20190
#
# Compressibility (1/GPa) = 0.02078929
#
# Stress axis : x y z
#
# Youngs Moduli (GPa) = 155.70207 69.04637 130.68654
#
# Poissons Ratio (x) = 0.08110 0.15425
# Poissons Ratio (y) = 0.18288 0.19985
# Poissons Ratio (z) = 0.18378 0.10559
#
# Static dielectric constant tensor:
#      x y z
#    x 5.726740 0.000000 0.000000 
#    y 0.000000 4.782000 0.000000 
#    z 0.000000 0.000000 5.748980 
# 
# 
# High freq. dielectric constant tensor:
#      x y z
#    x 2.201900 0.000000 0.000000 
#    y 0.000000 2.127890 0.000000 
#    z 0.000000 0.000000 2.205110 
# 
# From -- ./inp_files/2454.got.cif
#   From: 2010.03.12/outbox.cif.g09.slc.cpg/sg45_2_cif.got.tgz:2454.got - 2010.04.14 02:50:11.
