data_PCOD8191340
_publ_section_title
;
Structure prediction by ZEFSAII (Michael W. Deem and Ramdas Pophale) SiO2 
 PCOD8191340
Probable space group: I M A 2
;
_chemical_formula_sum "Si O2"
_cell_formula_units_Z 56
_cell_length_a 14.252874
_cell_length_b 24.783360
_cell_length_c 9.564545
_cell_angle_alpha 90.000000
_cell_angle_beta 90.000000
_cell_angle_gamma 90.000000
_cell_volume 3378.523516
_symmetry_space_group_name_H-M "I M A 2"
_symmetry_group_IT_number 46
_symmetry_cell_setting 'orthorhombic'
loop_
_space_group_symop_operation_xyz
x,y,z
-x,-y,z
1/2-x,y,z
1/2+x,-y,z
1/2+x,1/2+y,1/2+z
1/2-x,1/2-y,1/2+z
-x,1/2+y,1/2+z
x,1/2-y,1/2+z
loop_
_atom_site_type_symbol
_atom_site_label
_atom_site_fract_x
_atom_site_fract_y
_atom_site_fract_z
Si Si1 0.545637 0.389611 0.292980
Si Si2 0.360125 0.811666 0.211745
Si Si3 0.645584 0.942578 0.772159
Si Si4 0.400099 0.522134 0.505474
Si Si5 0.145773 0.927039 0.282765
Si Si6 0.639002 0.038372 0.576672
Si Si7 0.639147 0.212916 0.901276
O O1 0.431668 0.395477 0.289637
O O2 0.590640 0.422392 0.421025
O O3 0.588786 0.411304 0.149677
O O4 0.576352 0.328162 0.311085
O O5 0.250000 0.819164 0.195632
O O6 0.406764 0.870293 0.246471
O O7 0.385251 0.771386 0.337848
O O8 0.395495 0.788794 0.062180
O O9 0.750000 0.918490 0.742264
O O10 0.608806 0.981380 0.646440
O O11 0.654234 0.978169 0.913110
O O12 0.500000 0.500000 0.549335
O O13 0.347378 0.533697 0.649671
O O14 0.250000 0.911205 0.330018
O O15 0.103165 0.959147 0.415685
O O16 0.750000 0.044180 0.596484
O O17 0.750000 0.199763 0.884207
#
# Coordination Sequence:
#
# PCOD8191340 Si02
#       7
#     8   8   8   8   8   8   8
#     4  10  18  30  47  66  90 125 159 190 227 275
#     4   9  19  30  44  67  95 124 152 181 219 275
#     4   9  18  32  47  66  90 120 159 198 229 271
#     4   9  17  28  45  67  91 118 151 190 228 275
#     4  10  18  29  44  66  96 126 151 180 224 278
#     4   9  18  28  43  66  97 127 153 183 223 272
#     4  10  19  31  47  68  97 124 150 186 227 274
#
# _framework density 16.575288
#
# number of rings (size 3 to 8) (size 9 to 14) (size 15 to 20)
#    0.000    2.571    1.429    2.143    2.000    2.286 
#    0.000    0.000    0.000    0.000    0.000    1.000 
#    0.000    0.000    0.000    0.000    0.000    0.000 
#
# Total GULP energy -347008.104209 kJ/mol
# GULP energy per Si atom -12393.146579 kJ/mol
# Density = 1.653756 g / cm^3
# Si number density = 16.575288 Si / 1000 Ang^3
#
#
#
# Elastic Constant Matrix: (Units=GPa)
#
#
# Indices 1 2 3 4 5 6 
#
# 1 43.2118 15.2299 10.2470 -0.0001 0.0000 0.0000
# 2 15.2299 57.6919 27.5679 -0.0001 -0.0001 0.0000
# 3 10.2470 27.5679 118.1311 -0.0002 -0.0003 0.0000
# 4 -0.0001 -0.0001 -0.0002 16.6069 -0.0001 0.0000
# 5 0.0000 -0.0001 -0.0003 -0.0001 12.2356 0.0000
# 6 0.0000 0.0000 0.0000 0.0000 0.0000 17.3725
#
#
#
# Elastic Compliance Matrix: (Units=1/GPa)
#
#
# Indices 1 2 3 4 5 6 
#
# 1 0.025571 -0.006405 -0.000723 0.000000 0.000000 0.000000
# 2 -0.006405 0.021113 -0.004372 0.000000 0.000000 0.000000
# 3 -0.000723 -0.004372 0.009548 0.000000 0.000000 0.000000
# 4 0.000000 0.000000 0.000000 0.060216 0.000001 0.000000
# 5 0.000000 0.000000 0.000000 0.000001 0.081729 0.000000
# 6 0.000000 0.000000 0.000000 0.000000 0.000000 0.057562
#
#
# Mechanical properties :
#
#
# Convention : Reuss Voigt Hill
#
# Bulk Modulus (GPa) = 30.09088 36.12494 33.10791
# Shear Modulus (GPa) = 17.25233 20.30899 18.78066
#
# Velocity S-wave (km/s) = 3.22972 3.50416 3.36974
# Velocity P-wave (km/s) = 5.66582 6.18175 5.92940
#
# Compressibility (1/GPa) = 0.03323266
#
# Stress axis : x y z
#
# Youngs Moduli (GPa) = 39.10723 47.36381 104.73285
#
# Poissons Ratio (x) = 0.30335 0.07577
# Poissons Ratio (y) = 0.25047 0.45785
# Poissons Ratio (z) = 0.02829 0.20705
#
# Static dielectric constant tensor:
#      x y z
#    x 3.607070 0.000000 0.000000 
#    y 0.000000 2.909170 0.000000 
#    z 0.000000 0.000000 3.276060 
# 
# 
# High freq. dielectric constant tensor:
#      x y z
#    x 1.603240 0.000000 0.000000 
#    y 0.000000 1.609380 0.000000 
#    z 0.000000 0.000000 1.649990 
# 
# From -- ./inp_files/5952.got.cif
#   From: 2010.03.12/outbox.cif.g09.slc.cpg/sg46_3_cif.got.tgz:5952.got - 2010.04.14 02:56:35.
