data_PCOD8191328
_publ_section_title
;
Structure prediction by ZEFSAII (Michael W. Deem and Ramdas Pophale) SiO2 
 PCOD8191328
Probable space group: I M A 2
;
_chemical_formula_sum "Si O2"
_cell_formula_units_Z 64
_cell_length_a 8.609055
_cell_length_b 26.532395
_cell_length_c 18.495218
_cell_angle_alpha 90.000000
_cell_angle_beta 90.000000
_cell_angle_gamma 90.000000
_cell_volume 4224.656386
_symmetry_space_group_name_H-M "I M A 2"
_symmetry_group_IT_number 46
_symmetry_cell_setting 'orthorhombic'
loop_
_space_group_symop_operation_xyz
x,y,z
-x,-y,z
1/2-x,y,z
1/2+x,-y,z
1/2+x,1/2+y,1/2+z
1/2-x,1/2-y,1/2+z
-x,1/2+y,1/2+z
x,1/2-y,1/2+z
loop_
_atom_site_type_symbol
_atom_site_label
_atom_site_fract_x
_atom_site_fract_y
_atom_site_fract_z
Si Si1 0.078070 0.698407 0.446030
Si Si2 0.436402 0.849108 0.389958
Si Si3 0.580407 0.302601 0.028837
Si Si4 0.565721 0.053233 0.145897
Si Si5 0.936205 0.253939 0.662274
Si Si6 0.933275 0.748439 0.817735
Si Si7 0.932618 0.652286 0.580917
Si Si8 0.432760 0.552115 0.811412
O O1 0.250000 0.675227 0.433111
O O2 0.096264 0.751834 0.483506
O O3 0.992793 0.706581 0.369426
O O4 0.978951 0.661848 0.497568
O O5 0.250000 0.845593 0.389636
O O6 0.501662 0.841862 0.472976
O O7 0.498685 0.805926 0.337517
O O8 0.497743 0.902408 0.360499
O O9 0.750000 0.324204 0.048120
O O10 0.497530 0.288036 0.104486
O O11 0.750000 0.055295 0.136288
O O12 0.485401 0.096060 0.098756
O O13 0.514459 0.061149 0.229088
O O14 0.500000 0.000000 0.117756
O O15 0.750000 0.252593 0.666261
O O16 0.011753 0.238549 0.737341
O O17 0.984057 0.309632 0.636474
O O18 0.750000 0.745956 0.822187
O O19 0.750000 0.658625 0.590390
O O20 0.500000 0.500000 0.842188
O O21 0.250000 0.549406 0.816869
#
# Coordination Sequence:
#
# PCOD8191328 Si02
#       8
#     8   8   8   8   8   8   8   8
#     4   9  17  31  46  60  82 114 144 172 208 258
#     4   9  16  29  45  60  80 112 146 175 211 259
#     4   7  13  25  42  59  76 102 140 174 201 241
#     4  10  19  31  44  61  85 116 149 182 218 256
#     4  10  18  29  43  60  84 117 148 175 211 259
#     4  11  20  28  41  64  88 111 141 181 218 252
#     4  11  20  30  45  66  88 112 144 183 220 257
#     4   9  18  29  43  60  82 110 143 180 216 252
#
# _framework density 15.149160999999999
#
# number of rings (size 3 to 8) (size 9 to 14) (size 15 to 20)
#    0.000    2.500    0.000    5.625    0.000    2.000 
#    0.000    0.625    0.000    0.000    0.000    0.000 
#    0.000    1.000    0.000    7.000    0.000    3.250 
#
# Total GULP energy -396572.162227 kJ/mol
# GULP energy per Si atom -12392.880070 kJ/mol
# Density = 1.511468 g / cm^3
# Si number density = 15.149161 Si / 1000 Ang^3
#
#
#
# Elastic Constant Matrix: (Units=GPa)
#
#
# Indices 1 2 3 4 5 6 
#
# 1 47.7979 15.7531 16.8948 0.0000 0.0000 0.0000
# 2 15.7531 79.1936 50.1832 0.0000 0.0000 0.0000
# 3 16.8948 50.1832 108.2359 -0.0002 -0.0001 0.0000
# 4 0.0000 0.0000 -0.0002 24.8741 0.0000 0.0000
# 5 0.0000 0.0000 -0.0001 0.0000 19.6453 0.0000
# 6 0.0000 0.0000 0.0000 0.0000 0.0000 20.3484
#
#
#
# Elastic Compliance Matrix: (Units=1/GPa)
#
#
# Indices 1 2 3 4 5 6 
#
# 1 0.022707 -0.003216 -0.002053 0.000000 0.000000 0.000000
# 2 -0.003216 0.018336 -0.008000 0.000000 0.000000 0.000000
# 3 -0.002053 -0.008000 0.013269 0.000000 0.000000 0.000000
# 4 0.000000 0.000000 0.000000 0.040202 0.000000 0.000000
# 5 0.000000 0.000000 0.000000 0.000000 0.050903 0.000000
# 6 0.000000 0.000000 0.000000 0.000000 0.000000 0.049144
#
#
# Mechanical properties :
#
#
# Convention : Reuss Voigt Hill
#
# Bulk Modulus (GPa) = 36.00433 44.54328 40.27381
# Shear Modulus (GPa) = 21.70553 23.13332 22.41942
#
# Velocity S-wave (km/s) = 3.78932 3.91197 3.85114
# Velocity P-wave (km/s) = 6.55465 7.06199 6.81304
#
# Compressibility (1/GPa) = 0.02777444
#
# Stress axis : x y z
#
# Youngs Moduli (GPa) = 44.03920 54.53742 75.36612
#
# Poissons Ratio (x) = 0.17537 0.15476
# Poissons Ratio (y) = 0.14161 0.60289
# Poissons Ratio (z) = 0.09043 0.43627
#
# Static dielectric constant tensor:
#      x y z
#    x 2.902300 0.000000 0.000000 
#    y 0.000000 2.850640 0.000000 
#    z 0.000000 0.000000 3.183540 
# 
# 
# High freq. dielectric constant tensor:
#      x y z
#    x 1.581830 0.000000 0.000000 
#    y 0.000000 1.546120 0.000000 
#    z 0.000000 0.000000 1.574420 
# 
# From -- ./inp_files/18674.got.cif
#   From: 2010.03.12/outbox.cif.g09.slc.cpg/sg46_10_cif.got.tgz:18674.got - 2010.04.14 02:56:35.
