data_PCOD8191182
_publ_section_title
;
Structure prediction by ZEFSAII (Michael W. Deem and Ramdas Pophale) SiO2 
 PCOD8191182
Probable space group: I M A 2
;
_chemical_formula_sum "Si O2"
_cell_formula_units_Z 56
_cell_length_a 8.801118
_cell_length_b 22.231580
_cell_length_c 17.740667
_cell_angle_alpha 90.000000
_cell_angle_beta 90.000000
_cell_angle_gamma 90.000000
_cell_volume 3471.187850
_symmetry_space_group_name_H-M "I M A 2"
_symmetry_group_IT_number 46
_symmetry_cell_setting 'orthorhombic'
loop_
_space_group_symop_operation_xyz
x,y,z
-x,-y,z
1/2-x,y,z
1/2+x,-y,z
1/2+x,1/2+y,1/2+z
1/2-x,1/2-y,1/2+z
-x,1/2+y,1/2+z
x,1/2-y,1/2+z
loop_
_atom_site_type_symbol
_atom_site_label
_atom_site_fract_x
_atom_site_fract_y
_atom_site_fract_z
Si Si1 0.929603 0.286464 0.386750
Si Si2 0.077717 0.350152 0.688270
Si Si3 0.425552 0.305180 0.532135
Si Si4 0.070981 0.653530 0.926761
Si Si5 0.573365 0.314246 0.085551
Si Si6 0.071585 0.935048 0.301592
Si Si7 0.573592 0.713568 0.232077
O O1 0.750000 0.293348 0.395344
O O2 0.990458 0.218010 0.397752
O O3 0.014227 0.327602 0.450433
O O4 0.980796 0.308805 0.304623
O O5 0.250000 0.364794 0.712538
O O6 0.059500 0.355837 0.597313
O O7 0.033952 0.282769 0.713963
O O8 0.966648 0.398005 0.726234
O O9 0.250000 0.283292 0.528319
O O10 0.537943 0.251746 0.554824
O O11 0.250000 0.655658 0.916100
O O12 0.003811 0.600565 0.874347
O O13 0.030162 0.641531 0.015171
O O14 0.750000 0.319045 0.106163
O O15 0.476861 0.327776 0.160842
O O16 0.250000 0.942747 0.307487
O O17 0.000000 0.000000 0.297987
O O18 0.750000 0.703505 0.246775
#
# Coordination Sequence:
#
# PCOD8191182 Si02
#       7
#     8   8   8   8   8   8   8
#     4  10  17  27  43  64  87 117 152 178 212 262
#     4   9  18  31  44  60  84 115 148 182 224 265
#     4   9  17  28  41  61  87 113 143 180 221 263
#     4   8  16  29  43  59  81 111 146 184 220 255
#     4   9  16  27  42  60  82 112 148 179 214 263
#     4  11  21  33  47  64  86 114 153 193 228 262
#     4  10  18  27  41  64  91 117 145 179 220 262
#
# _framework density 16.132805000000001
#
# number of rings (size 3 to 8) (size 9 to 14) (size 15 to 20)
#    0.000    2.571    1.429    3.857    0.000    2.857 
#    0.000    2.143    0.000    0.000    0.000    0.000 
#    0.000    1.143    0.000   10.571    0.000    4.429 
#
# Total GULP energy -346991.495427 kJ/mol
# GULP energy per Si atom -12392.553408 kJ/mol
# Density = 1.609609 g / cm^3
# Si number density = 16.132805 Si / 1000 Ang^3
#
#
#
# Elastic Constant Matrix: (Units=GPa)
#
#
# Indices 1 2 3 4 5 6 
#
# 1 62.3377 21.7377 40.5695 0.0000 0.0000 0.0000
# 2 21.7377 39.8231 31.9042 0.0000 0.0000 0.0000
# 3 40.5695 31.9042 144.0170 0.0000 0.0000 0.0000
# 4 0.0000 0.0000 0.0000 11.3249 0.0000 0.0000
# 5 0.0000 0.0000 0.0000 0.0000 31.1063 0.0000
# 6 0.0000 0.0000 0.0000 0.0000 0.0000 13.2163
#
#
#
# Elastic Compliance Matrix: (Units=1/GPa)
#
#
# Indices 1 2 3 4 5 6 
#
# 1 0.021765 -0.008472 -0.004254 0.000000 0.000000 0.000000
# 2 -0.008472 0.033827 -0.005107 0.000000 0.000000 0.000000
# 3 -0.004254 -0.005107 0.009273 0.000000 0.000000 0.000000
# 4 0.000000 0.000000 0.000000 0.088301 0.000000 0.000000
# 5 0.000000 0.000000 0.000000 0.000000 0.032148 0.000000
# 6 0.000000 0.000000 0.000000 0.000000 0.000000 0.075664
#
#
# Mechanical properties :
#
#
# Convention : Reuss Voigt Hill
#
# Bulk Modulus (GPa) = 34.24861 48.28895 41.26878
# Shear Modulus (GPa) = 16.31974 21.26061 18.79018
#
# Velocity S-wave (km/s) = 3.18400 3.63416 3.41650
# Velocity P-wave (km/s) = 5.89851 6.89975 6.41868
#
# Compressibility (1/GPa) = 0.02919826
#
# Stress axis : x y z
#
# Youngs Moduli (GPa) = 45.94619 29.56199 107.83468
#
# Poissons Ratio (x) = 0.25045 0.45876
# Poissons Ratio (y) = 0.38926 0.55073
# Poissons Ratio (z) = 0.19547 0.15098
#
# Static dielectric constant tensor:
#      x y z
#    x 3.011040 0.000000 0.000000 
#    y 0.000000 2.566210 0.000000 
#    z 0.000000 0.000000 3.573890 
# 
# 
# High freq. dielectric constant tensor:
#      x y z
#    x 1.625730 0.000000 0.000000 
#    y 0.000000 1.536120 0.000000 
#    z 0.000000 0.000000 1.643020 
# 
# From -- ./inp_files/18439.got.cif
#   From: 2010.03.12/outbox.cif.g09.slc.cpg/sg46_10_cif.got.tgz:18439.got - 2010.04.14 02:56:35.
