data_PCOD8191071
_publ_section_title
;
Structure prediction by ZEFSAII (Michael W. Deem and Ramdas Pophale) SiO2 
 PCOD8191071
Probable space group: I B A 2
;
_chemical_formula_sum "Si O2"
_cell_formula_units_Z 40
_cell_length_a 16.747939
_cell_length_b 8.428401
_cell_length_c 11.205799
_cell_angle_alpha 90.000000
_cell_angle_beta 90.000000
_cell_angle_gamma 90.000000
_cell_volume 1581.792050
_symmetry_space_group_name_H-M "I B A 2"
_symmetry_group_IT_number 45
_symmetry_cell_setting 'orthorhombic'
loop_
_space_group_symop_operation_xyz
x,y,z
-x,-y,z
-x,y,1/2+z
x,-y,1/2+z
1/2+x,1/2+y,1/2+z
1/2-x,1/2-y,1/2+z
1/2-x,1/2+y,z
1/2+x,1/2-y,z
loop_
_atom_site_type_symbol
_atom_site_label
_atom_site_fract_x
_atom_site_fract_y
_atom_site_fract_z
Si Si1 0.918904 0.585498 0.538730
Si Si2 0.653374 0.720601 0.833263
Si Si3 0.162253 0.068302 0.996312
Si Si4 0.976774 0.163426 0.654285
Si Si5 0.782774 0.639490 0.113904
O O1 0.860031 0.653326 0.438065
O O2 0.864611 0.463579 0.612766
O O3 0.000000 0.500000 0.491097
O O4 0.946224 0.731989 0.621616
O O5 0.575666 0.749319 0.752272
O O6 0.724849 0.771359 0.742642
O O7 0.664878 0.536454 0.875416
O O8 0.072595 0.114633 0.033914
O O9 0.212581 0.234710 0.000287
O O10 0.202640 0.960604 0.099943
O O11 0.000000 0.000000 0.717033
#
# Coordination Sequence:
#
# PCOD8191071 Si02
#       5
#     8   8   8   8   8
#     4  12  24  45  69 108 146 188 245 300 359 439
#     4  11  26  45  73 104 142 199 232 299 383 403
#     4  11  24  47  70 105 144 189 243 299 357 436
#     4  11  25  44  69 108 145 187 246 298 353 448
#     4  11  27  48  72 108 148 188 252 301 356 447
#
# _framework density 25.287773999999999
#
# number of rings (size 3 to 8) (size 9 to 14) (size 15 to 20)
#    0.000    0.800    6.000    1.200    5.600    6.400 
#    0.000    0.000    0.000    0.000    0.000    0.000 
#    0.000    0.000    0.000    0.000    0.000    0.000 
#
# Total GULP energy -247770.887961 kJ/mol
# GULP energy per Si atom -12388.544398 kJ/mol
# Density = 2.523022 g / cm^3
# Si number density = 25.287774 Si / 1000 Ang^3
#
#
#
# Elastic Constant Matrix: (Units=GPa)
#
#
# Indices 1 2 3 4 5 6 
#
# 1 65.5093 24.2516 9.8487 0.0000 0.0000 0.0000
# 2 24.2516 155.0346 40.5942 0.0000 0.0000 0.0000
# 3 9.8487 40.5942 75.3387 0.0000 0.0000 0.0000
# 4 0.0000 0.0000 0.0000 36.3679 0.0000 0.0000
# 5 0.0000 0.0000 0.0000 0.0000 13.7255 0.0000
# 6 0.0000 0.0000 0.0000 0.0000 0.0000 54.9923
#
#
#
# Elastic Compliance Matrix: (Units=1/GPa)
#
#
# Indices 1 2 3 4 5 6 
#
# 1 0.016253 -0.002312 -0.000879 0.000000 0.000000 0.000000
# 2 -0.002312 0.007839 -0.003921 0.000000 0.000000 0.000000
# 3 -0.000879 -0.003921 0.015501 0.000000 0.000000 0.000000
# 4 0.000000 0.000000 0.000000 0.027497 0.000000 0.000000
# 5 0.000000 0.000000 0.000000 0.000000 0.072857 0.000000
# 6 0.000000 0.000000 0.000000 0.000000 0.000000 0.018184
#
#
# Mechanical properties :
#
#
# Convention : Reuss Voigt Hill
#
# Bulk Modulus (GPa) = 39.41962 49.47460 44.44711
# Shear Modulus (GPa) = 27.65301 35.76300 31.70801
#
# Velocity S-wave (km/s) = 3.31045 3.76472 3.54487
# Velocity P-wave (km/s) = 5.49858 6.20521 5.86255
#
# Compressibility (1/GPa) = 0.02536808
#
# Stress axis : x y z
#
# Youngs Moduli (GPa) = 61.52649 127.57301 64.51120
#
# Poissons Ratio (x) = 0.29499 0.05669
# Poissons Ratio (y) = 0.14227 0.25297
# Poissons Ratio (z) = 0.05407 0.50026
#
# Static dielectric constant tensor:
#      x y z
#    x 4.566940 0.000000 0.000000 
#    y 0.000000 5.057040 0.000000 
#    z 0.000000 0.000000 4.424980 
# 
# 
# High freq. dielectric constant tensor:
#      x y z
#    x 2.013440 0.000000 0.000000 
#    y 0.000000 2.035220 0.000000 
#    z 0.000000 0.000000 1.973580 
# 
# From -- ./inp_files/4370.got.cif
#   From: 2010.03.12/outbox.cif.g09.slc.cpg/sg45_3_cif.got.tgz:4370.got - 2010.04.14 02:50:11.
