data_PCOD8191742
_publ_section_title
;
Structure prediction by ZEFSAII (Michael W. Deem and Ramdas Pophale) SiO2 
 PCOD8191742
Probable space group: I M A 2
;
_chemical_formula_sum "Si O2"
_cell_formula_units_Z 64
_cell_length_a 8.332852
_cell_length_b 30.492620
_cell_length_c 14.411676
_cell_angle_alpha 90.000000
_cell_angle_beta 90.000000
_cell_angle_gamma 90.000000
_cell_volume 3661.869810
_symmetry_space_group_name_H-M "I M A 2"
_symmetry_group_IT_number 46
_symmetry_cell_setting 'orthorhombic'
loop_
_space_group_symop_operation_xyz
x,y,z
-x,-y,z
1/2-x,y,z
1/2+x,-y,z
1/2+x,1/2+y,1/2+z
1/2-x,1/2-y,1/2+z
-x,1/2+y,1/2+z
x,1/2-y,1/2+z
loop_
_atom_site_type_symbol
_atom_site_label
_atom_site_fract_x
_atom_site_fract_y
_atom_site_fract_z
Si Si1 0.938604 0.047281 0.372740
Si Si2 0.941110 0.953508 0.579757
Si Si3 0.438935 0.801076 0.157022
Si Si4 0.931170 0.325139 0.980388
Si Si5 0.064352 0.267790 0.473686
Si Si6 0.560791 0.784157 0.764233
Si Si7 0.567998 0.634786 0.153057
Si Si8 0.563042 0.634491 0.799984
O O1 0.750000 0.050659 0.359186
O O2 0.980263 0.055835 0.480023
O O3 0.023167 0.083013 0.306828
O O4 0.000000 0.000000 0.339807
O O5 0.750000 0.953302 0.566568
O O6 0.998567 0.915493 0.652508
O O7 0.000000 0.000000 0.620139
O O8 0.250000 0.804554 0.145484
O O9 0.521913 0.801266 0.055792
O O10 0.480214 0.758223 0.218242
O O11 0.507104 0.845529 0.202417
O O12 0.750000 0.337838 0.008111
O O13 0.951891 0.273554 0.991587
O O14 0.055144 0.349769 0.046864
O O15 0.963934 0.338585 0.875699
O O16 0.250000 0.253689 0.478020
O O17 0.023665 0.287923 0.373248
O O18 0.750000 0.780540 0.743361
O O19 0.484548 0.829023 0.719799
O O20 0.750000 0.632532 0.185271
O O21 0.750000 0.642873 0.815044
#
# Coordination Sequence:
#
# PCOD8191742 Si02
#       8
#     8   8   8   8   8   8   8   8
#     4  11  21  34  52  77 108 139 176 217 263 317
#     4  10  19  31  49  73 105 140 175 216 262 316
#     4  12  24  36  53  78 106 137 179 224 266 313
#     4  12  22  31  49  77 107 139 178 222 262 307
#     4  11  22  37  54  73 104 142 179 220 266 315
#     4  10  21  36  55  75 101 139 180 218 263 320
#     4  10  20  34  52  74 103 141 182 216 261 316
#     4  12  23  37  54  75 105 145 183 218 266 319
#
# _framework density 17.477409000000002
#
# number of rings (size 3 to 8) (size 9 to 14) (size 15 to 20)
#    0.000    1.000    3.750    6.000    0.000    1.000 
#    0.000    0.000    0.000    0.000    0.000    0.875 
#    0.000    4.000    0.000    0.000    0.000    0.000 
#
# Total GULP energy -396745.694664 kJ/mol
# GULP energy per Si atom -12398.302958 kJ/mol
# Density = 1.743763 g / cm^3
# Si number density = 17.477409 Si / 1000 Ang^3
#
#
#
# Elastic Constant Matrix: (Units=GPa)
#
#
# Indices 1 2 3 4 5 6 
#
# 1 61.0493 22.1208 21.0761 -0.0005 0.0000 0.0000
# 2 22.1208 118.9715 37.7261 0.0004 0.0001 0.0000
# 3 21.0761 37.7261 78.8615 0.0003 0.0001 0.0000
# 4 -0.0005 0.0004 0.0003 27.1962 -0.0001 0.0000
# 5 0.0000 0.0001 0.0001 -0.0001 15.0954 0.0000
# 6 0.0000 0.0000 0.0000 0.0000 0.0000 25.5182
#
#
#
# Elastic Compliance Matrix: (Units=1/GPa)
#
#
# Indices 1 2 3 4 5 6 
#
# 1 0.018525 -0.002210 -0.003894 0.000000 0.000000 0.000000
# 2 -0.002210 0.010172 -0.004276 0.000000 0.000000 0.000000
# 3 -0.003894 -0.004276 0.015766 0.000000 0.000000 0.000000
# 4 0.000000 0.000000 0.000000 0.036770 0.000000 0.000000
# 5 0.000000 0.000000 0.000000 0.000000 0.066245 0.000000
# 6 0.000000 0.000000 0.000000 0.000000 0.000000 0.039188
#
#
# Mechanical properties :
#
#
# Convention : Reuss Voigt Hill
#
# Bulk Modulus (GPa) = 42.18448 46.74758 44.46603
# Shear Modulus (GPa) = 23.22053 25.42591 24.32322
#
# Velocity S-wave (km/s) = 3.64895 3.81831 3.73459
# Velocity P-wave (km/s) = 6.47627 6.80035 6.64029
#
# Compressibility (1/GPa) = 0.02370540
#
# Stress axis : x y z
#
# Youngs Moduli (GPa) = 53.98063 98.30877 63.42564
#
# Poissons Ratio (x) = 0.21723 0.24697
# Poissons Ratio (y) = 0.11928 0.27118
# Poissons Ratio (z) = 0.21019 0.42033
#
# Static dielectric constant tensor:
#      x y z
#    x 3.286460 0.000000 0.000000 
#    y 0.000000 3.593420 0.000000 
#    z 0.000000 0.000000 3.165640 
# 
# 
# High freq. dielectric constant tensor:
#      x y z
#    x 1.684670 0.000000 0.000000 
#    y 0.000000 1.673990 0.000000 
#    z 0.000000 0.000000 1.642330 
# 
# From -- ./inp_files/14739.got.cif
#   From: 2010.03.12/outbox.cif.g09.slc.cpg/sg46_8_cif.got.tgz:14739.got - 2010.04.14 02:56:35.
