data_PCOD8191771
_publ_section_title
;
Structure prediction by ZEFSAII (Michael W. Deem and Ramdas Pophale) SiO2 
 PCOD8191771
Probable space group: I M A 2
;
_chemical_formula_sum "Si O2"
_cell_formula_units_Z 64
_cell_length_a 8.730026
_cell_length_b 27.856638
_cell_length_c 14.687786
_cell_angle_alpha 90.000000
_cell_angle_beta 90.000000
_cell_angle_gamma 90.000000
_cell_volume 3571.910545
_symmetry_space_group_name_H-M "I M A 2"
_symmetry_group_IT_number 46
_symmetry_cell_setting 'orthorhombic'
loop_
_space_group_symop_operation_xyz
x,y,z
-x,-y,z
1/2-x,y,z
1/2+x,-y,z
1/2+x,1/2+y,1/2+z
1/2-x,1/2-y,1/2+z
-x,1/2+y,1/2+z
x,1/2-y,1/2+z
loop_
_atom_site_type_symbol
_atom_site_label
_atom_site_fract_x
_atom_site_fract_y
_atom_site_fract_z
Si Si1 0.569305 0.135408 0.214180
Si Si2 0.570893 0.218629 0.912595
Si Si3 0.425946 0.632371 0.282900
Si Si4 0.929128 0.321085 0.099859
Si Si5 0.429441 0.825564 0.398772
Si Si6 0.430784 0.050242 0.100076
Si Si7 0.070180 0.218240 0.100698
Si Si8 0.071002 0.049518 0.894706
O O1 0.750000 0.126801 0.205850
O O2 0.510067 0.138802 0.319734
O O3 0.483828 0.091663 0.167227
O O4 0.525137 0.185877 0.169901
O O5 0.750000 0.220028 0.939238
O O6 0.537511 0.183000 0.830041
O O7 0.509216 0.271237 0.884408
O O8 0.475378 0.200928 0.999653
O O9 0.250000 0.617611 0.297403
O O10 0.466184 0.639033 0.176192
O O11 0.529531 0.591144 0.324601
O O12 0.750000 0.306687 0.102929
O O13 0.026581 0.273441 0.117828
O O14 0.972948 0.343401 0.000816
O O15 0.250000 0.823454 0.385452
O O16 0.250000 0.046455 0.103783
O O17 0.500000 0.000000 0.134058
O O18 0.488256 0.061622 0.996969
O O19 0.250000 0.210357 0.115728
O O20 0.250000 0.042579 0.895681
O O21 0.000000 0.000000 0.859050
#
# Coordination Sequence:
#
# PCOD8191771 Si02
#       8
#     8   8   8   8   8   8   8   8
#     4  11  20  32  52  75  99 132 169 206 247 295
#     4   9  17  31  49  71 100 134 168 202 242 296
#     4  10  19  31  53  78  99 128 167 205 247 296
#     4   9  18  35  53  70  97 134 171 207 245 292
#     4   8  16  31  51  72  96 130 172 207 239 282
#     4  10  21  37  55  78 104 131 160 197 245 296
#     4  11  21  31  45  71 104 136 169 207 247 291
#     4  10  21  36  54  75 103 131 159 197 244 296
#
# _framework density 17.917583
#
# number of rings (size 3 to 8) (size 9 to 14) (size 15 to 20)
#    0.000    2.250    0.000    4.500    0.000    6.500 
#    0.000    7.500    0.000    0.750    0.000    0.000 
#    0.000    0.000    0.000    0.000    0.000    0.000 
#
# Total GULP energy -396737.253491 kJ/mol
# GULP energy per Si atom -12398.039172 kJ/mol
# Density = 1.787680 g / cm^3
# Si number density = 17.917583 Si / 1000 Ang^3
#
#
#
# Elastic Constant Matrix: (Units=GPa)
#
#
# Indices 1 2 3 4 5 6 
#
# 1 50.7116 22.9036 22.9988 0.0000 0.0000 0.0000
# 2 22.9036 79.3526 60.5842 0.0001 -0.0001 0.0000
# 3 22.9988 60.5842 123.5838 0.0006 -0.0002 0.0000
# 4 0.0000 0.0001 0.0006 24.7698 -0.0001 0.0000
# 5 0.0000 -0.0001 -0.0002 -0.0001 17.1073 0.0001
# 6 0.0000 0.0000 0.0000 0.0000 0.0001 30.1068
#
#
#
# Elastic Compliance Matrix: (Units=1/GPa)
#
#
# Indices 1 2 3 4 5 6 
#
# 1 0.022879 -0.005358 -0.001631 0.000000 0.000000 0.000000
# 2 -0.005358 0.021395 -0.009491 0.000000 0.000000 0.000000
# 3 -0.001631 -0.009491 0.013048 0.000000 0.000000 0.000000
# 4 0.000000 0.000000 0.000000 0.040372 0.000000 0.000000
# 5 0.000000 0.000000 0.000000 0.000000 0.058455 0.000000
# 6 0.000000 0.000000 0.000000 0.000000 0.000000 0.033215
#
#
# Mechanical properties :
#
#
# Convention : Reuss Voigt Hill
#
# Bulk Modulus (GPa) = 41.04923 51.84678 46.44800
# Shear Modulus (GPa) = 21.69713 24.20751 22.95232
#
# Velocity S-wave (km/s) = 3.48363 3.67965 3.58298
# Velocity P-wave (km/s) = 6.25625 6.85946 6.56479
#
# Compressibility (1/GPa) = 0.02436099
#
# Stress axis : x y z
#
# Youngs Moduli (GPa) = 43.70794 46.74005 76.63991
#
# Poissons Ratio (x) = 0.25045 0.12499
# Poissons Ratio (y) = 0.23421 0.72740
# Poissons Ratio (z) = 0.07128 0.44362
#
# Static dielectric constant tensor:
#      x y z
#    x 3.169870 0.000000 0.000000 
#    y 0.000000 3.149750 0.000000 
#    z 0.000000 0.000000 3.663640 
# 
# 
# High freq. dielectric constant tensor:
#      x y z
#    x 1.683430 0.000000 0.000000 
#    y 0.000000 1.670540 0.000000 
#    z 0.000000 0.000000 1.697640 
# 
# From -- ./inp_files/14757.got.cif
#   From: 2010.03.12/outbox.cif.g09.slc.cpg/sg46_8_cif.got.tgz:14757.got - 2010.04.14 02:56:35.
