data_PCOD8191477
_publ_section_title
;
Structure prediction by ZEFSAII (Michael W. Deem and Ramdas Pophale) SiO2 
 PCOD8191477
Probable space group: I M A 2
;
_chemical_formula_sum "Si O2"
_cell_formula_units_Z 40
_cell_length_a 8.701498
_cell_length_b 28.533692
_cell_length_c 9.248766
_cell_angle_alpha 90.000000
_cell_angle_beta 90.000000
_cell_angle_gamma 90.000000
_cell_volume 2296.337856
_symmetry_space_group_name_H-M "I M A 2"
_symmetry_group_IT_number 46
_symmetry_cell_setting 'orthorhombic'
loop_
_space_group_symop_operation_xyz
x,y,z
-x,-y,z
1/2-x,y,z
1/2+x,-y,z
1/2+x,1/2+y,1/2+z
1/2-x,1/2-y,1/2+z
-x,1/2+y,1/2+z
x,1/2-y,1/2+z
loop_
_atom_site_type_symbol
_atom_site_label
_atom_site_fract_x
_atom_site_fract_y
_atom_site_fract_z
Si Si1 0.423418 0.876409 0.000000
Si Si2 0.430164 0.449694 0.681579
Si Si3 0.932971 0.215482 0.516803
Si Si4 0.068848 0.297429 0.331068
Si Si5 0.923248 0.368087 0.817121
O O1 0.250000 0.882598 0.940912
O O2 0.524855 0.849872 0.880818
O O3 0.497053 0.927658 0.034015
O O4 0.423157 0.847496 0.152454
O O5 0.500000 0.500000 0.713400
O O6 0.250000 0.453885 0.663273
O O7 0.473112 0.415466 0.817391
O O8 0.750000 0.217048 0.523624
O O9 0.991768 0.170829 0.424215
O O10 0.992657 0.262359 0.443780
O O11 0.002575 0.211968 0.674295
O O12 0.250000 0.290812 0.330119
O O13 0.750000 0.381680 0.863336
#
# Coordination Sequence:
#
# PCOD8191477 Si02
#       5
#     8   8   8   8   8
#     4   9  18  35  55  78 107 141 183 224 271 326
#     4  10  18  31  55  84 113 142 180 228 277 324
#     4  11  22  38  57  76 107 150 188 224 275 334
#     4  12  24  36  53  80 112 144 185 232 277 326
#     4   8  18  34  54  78 105 139 183 224 267 322
#
# _framework density 17.419039000000001
#
# number of rings (size 3 to 8) (size 9 to 14) (size 15 to 20)
#    1.200    0.800    0.000    5.400    0.000    3.200 
#    0.000    0.000    0.000    1.200    0.000    2.800 
#    0.000    0.000    0.000    0.000    0.000    0.000 
#
# Total GULP energy -247861.947974 kJ/mol
# GULP energy per Si atom -12393.097399 kJ/mol
# Density = 1.737939 g / cm^3
# Si number density = 17.419039 Si / 1000 Ang^3
#
#
#
# Elastic Constant Matrix: (Units=GPa)
#
#
# Indices 1 2 3 4 5 6 
#
# 1 119.5404 36.7347 25.2428 -0.0006 0.0006 0.0003
# 2 36.7347 81.2848 16.1147 -0.0014 0.0000 0.0004
# 3 25.2428 16.1147 62.1702 -0.0015 -0.0016 0.0004
# 4 -0.0006 -0.0014 -0.0015 24.4844 -0.0002 -0.0002
# 5 0.0006 0.0000 -0.0016 -0.0002 26.4211 0.0002
# 6 0.0003 0.0004 0.0004 -0.0002 0.0002 31.7639
#
#
#
# Elastic Compliance Matrix: (Units=1/GPa)
#
#
# Indices 1 2 3 4 5 6 
#
# 1 0.010260 -0.004017 -0.003124 0.000000 0.000000 0.000000
# 2 -0.004017 0.014542 -0.002138 0.000001 0.000000 0.000000
# 3 -0.003124 -0.002138 0.017908 0.000001 0.000001 0.000000
# 4 0.000000 0.000001 0.000001 0.040842 0.000000 0.000000
# 5 0.000000 0.000000 0.000001 0.000000 0.037849 0.000000
# 6 0.000000 0.000000 0.000000 0.000000 0.000000 0.031482
#
#
# Mechanical properties :
#
#
# Convention : Reuss Voigt Hill
#
# Bulk Modulus (GPa) = 41.40869 46.57555 43.99212
# Shear Modulus (GPa) = 27.85643 28.86075 28.35859
#
# Velocity S-wave (km/s) = 4.00333 4.07486 4.03925
# Velocity P-wave (km/s) = 6.72254 6.99540 6.86033
#
# Compressibility (1/GPa) = 0.02414952
#
# Stress axis : x y z
#
# Youngs Moduli (GPa) = 97.46946 68.76735 55.84187
#
# Poissons Ratio (x) = 0.27625 0.17447
# Poissons Ratio (y) = 0.39155 0.11940
# Poissons Ratio (z) = 0.30454 0.14704
#
# Static dielectric constant tensor:
#      x y z
#    x 3.279150 0.000000 0.000000 
#    y 0.000000 3.208390 0.000000 
#    z 0.000000 0.000000 3.075340 
# 
# 
# High freq. dielectric constant tensor:
#      x y z
#    x 1.685820 0.000000 0.000000 
#    y 0.000000 1.664130 0.000000 
#    z 0.000000 0.000000 1.647090 
# 
# From -- ./inp_files/3754.got.cif
#   From: 2010.03.12/outbox.cif.g09.slc.cpg/sg46_2_cif.got.tgz:3754.got - 2010.04.14 02:56:35.
