data_PCOD8191032
_publ_section_title
;
Structure prediction by ZEFSAII (Michael W. Deem and Ramdas Pophale) SiO2 
 PCOD8191032
Probable space group: I B A 2
;
_chemical_formula_sum "Si O2"
_cell_formula_units_Z 64
_cell_length_a 9.204989
_cell_length_b 14.401687
_cell_length_c 22.734888
_cell_angle_alpha 90.000000
_cell_angle_beta 90.000000
_cell_angle_gamma 90.000000
_cell_volume 3013.904319
_symmetry_space_group_name_H-M "I B A 2"
_symmetry_group_IT_number 45
_symmetry_cell_setting 'orthorhombic'
loop_
_space_group_symop_operation_xyz
x,y,z
-x,-y,z
-x,y,1/2+z
x,-y,1/2+z
1/2+x,1/2+y,1/2+z
1/2-x,1/2-y,1/2+z
1/2-x,1/2+y,z
1/2+x,1/2-y,z
loop_
_atom_site_type_symbol
_atom_site_label
_atom_site_fract_x
_atom_site_fract_y
_atom_site_fract_z
Si Si1 0.608991 0.417907 0.878620
Si Si2 0.771765 0.371107 0.107542
Si Si3 0.097691 0.300387 0.091757
Si Si4 0.206960 0.671463 0.462904
Si Si5 0.836942 0.976480 0.997665
Si Si6 0.956080 0.265324 0.886911
Si Si7 0.654632 0.961311 0.670283
Si Si8 0.373361 0.073347 0.804457
O O1 0.500000 0.500000 0.889364
O O2 0.670388 0.400059 0.944728
O O3 0.533811 0.323515 0.856947
O O4 0.724552 0.460526 0.833493
O O5 0.642014 0.298859 0.119371
O O6 0.750174 0.445041 0.161467
O O7 0.926398 0.317045 0.102252
O O8 0.757205 0.432594 0.049092
O O9 0.193201 0.379717 0.124293
O O10 0.150887 0.288553 0.024839
O O11 0.261982 0.568072 0.472194
O O12 0.331259 0.734555 0.432562
O O13 0.069136 0.668524 0.420064
O O14 0.000000 0.000000 0.019660
O O15 0.898738 0.324565 0.831629
O O16 0.655539 0.918917 0.735236
O O17 0.500000 0.000000 0.650859
O O18 0.500000 0.000000 0.818244
#
# Coordination Sequence:
#
# PCOD8191032 Si02
#       8
#     8   8   8   8   8   8   8   8
#     4  11  23  43  63  99 138 171 221 286 341 402
#     4  11  24  44  69 101 142 173 228 282 339 410
#     4  11  24  42  69 103 132 183 226 276 347 405
#     4  12  23  41  68  99 142 178 223 280 349 411
#     4  11  23  40  66  97 143 181 215 280 347 405
#     4  12  24  43  66 101 135 177 228 284 339 407
#     4   9  22  49  67  96 134 178 230 286 323 407
#     4  11  25  46  72  94 131 187 238 276 343 405
#
# _framework density 21.234914
#
# number of rings (size 3 to 8) (size 9 to 14) (size 15 to 20)
#    0.000    1.000    5.000    2.250    3.500    0.000 
#    9.000    0.625    0.000    0.000    0.000    0.000 
#    0.000    0.000    0.000    0.000    0.000    0.000 
#
# Total GULP energy -396625.685378 kJ/mol
# GULP energy per Si atom -12394.552668 kJ/mol
# Density = 2.118658 g / cm^3
# Si number density = 21.234914 Si / 1000 Ang^3
#
#
#
# Elastic Constant Matrix: (Units=GPa)
#
#
# Indices 1 2 3 4 5 6 
#
# 1 88.2354 37.8908 39.2223 0.0000 0.0000 0.0000
# 2 37.8908 128.5751 63.4078 0.0000 0.0000 0.0000
# 3 39.2223 63.4078 104.2804 0.0000 0.0000 0.0000
# 4 0.0000 0.0000 0.0000 40.9919 0.0000 0.0000
# 5 0.0000 0.0000 0.0000 0.0000 17.8735 0.0000
# 6 0.0000 0.0000 0.0000 0.0000 0.0000 21.0294
#
#
#
# Elastic Compliance Matrix: (Units=1/GPa)
#
#
# Indices 1 2 3 4 5 6 
#
# 1 0.014027 -0.002188 -0.003945 0.000000 0.000000 0.000000
# 2 -0.002188 0.011450 -0.006139 0.000000 0.000000 0.000000
# 3 -0.003945 -0.006139 0.014806 0.000000 0.000000 0.000000
# 4 0.000000 0.000000 0.000000 0.024395 0.000000 0.000000
# 5 0.000000 0.000000 0.000000 0.000000 0.055949 0.000000
# 6 0.000000 0.000000 0.000000 0.000000 0.000000 0.047552
#
#
# Mechanical properties :
#
#
# Convention : Reuss Voigt Hill
#
# Bulk Modulus (GPa) = 63.54053 66.90363 65.22208
# Shear Modulus (GPa) = 25.25632 28.01697 26.63664
#
# Velocity S-wave (km/s) = 3.45248 3.63627 3.54556
# Velocity P-wave (km/s) = 6.77351 7.01461 6.89511
#
# Compressibility (1/GPa) = 0.01573799
#
# Stress axis : x y z
#
# Youngs Moduli (GPa) = 71.29274 87.33671 67.53816
#
# Poissons Ratio (x) = 0.19109 0.26646
# Poissons Ratio (y) = 0.15598 0.41463
# Poissons Ratio (z) = 0.28128 0.53618
#
# Static dielectric constant tensor:
#      x y z
#    x 3.972140 0.000000 0.000000 
#    y 0.000000 4.207910 0.000000 
#    z 0.000000 0.000000 3.710070 
# 
# 
# High freq. dielectric constant tensor:
#      x y z
#    x 1.831620 0.000000 0.000000 
#    y 0.000000 1.850210 0.000000 
#    z 0.000000 0.000000 1.815850 
# 
# From -- ./inp_files/9602.got.cif
#   From: 2010.03.12/outbox.cif.g09.slc.cpg/sg45_5_cif.got.tgz:9602.got - 2010.04.14 02:50:11.
