data_PCOD8191332
_publ_section_title
;
Structure prediction by ZEFSAII (Michael W. Deem and Ramdas Pophale) SiO2 
 PCOD8191332
Probable space group: I M A 2
;
_chemical_formula_sum "Si O2"
_cell_formula_units_Z 64
_cell_length_a 9.135134
_cell_length_b 18.253549
_cell_length_c 21.498603
_cell_angle_alpha 90.000000
_cell_angle_beta 90.000000
_cell_angle_gamma 90.000000
_cell_volume 3584.862298
_symmetry_space_group_name_H-M "I M A 2"
_symmetry_group_IT_number 46
_symmetry_cell_setting 'orthorhombic'
loop_
_space_group_symop_operation_xyz
x,y,z
-x,-y,z
1/2-x,y,z
1/2+x,-y,z
1/2+x,1/2+y,1/2+z
1/2-x,1/2-y,1/2+z
-x,1/2+y,1/2+z
x,1/2-y,1/2+z
loop_
_atom_site_type_symbol
_atom_site_label
_atom_site_fract_x
_atom_site_fract_y
_atom_site_fract_z
Si Si1 0.591942 0.438345 0.698500
Si Si2 0.578785 0.576163 0.506537
Si Si3 0.924291 0.427163 0.838311
Si Si4 0.079206 0.570639 0.252454
Si Si5 0.921768 0.274375 0.202897
Si Si6 0.911840 0.179772 0.096212
Si Si7 0.082323 0.126743 0.868552
Si Si8 0.579210 0.785810 0.322041
O O1 0.500000 0.500000 0.661942
O O2 0.750000 0.473667 0.708367
O O3 0.526231 0.423574 0.766322
O O4 0.599220 0.365932 0.659372
O O5 0.500000 0.500000 0.524172
O O6 0.750000 0.565210 0.518355
O O7 0.525021 0.644323 0.548673
O O8 0.541067 0.598938 0.436841
O O9 0.750000 0.427597 0.850860
O O10 0.000000 0.500000 0.868569
O O11 0.997223 0.350758 0.861166
O O12 0.250000 0.555142 0.255674
O O13 0.039484 0.640063 0.209814
O O14 0.000000 0.500000 0.222914
O O15 0.022541 0.583125 0.322391
O O16 0.750000 0.260307 0.216368
O O17 0.961694 0.255677 0.129843
O O18 0.012461 0.227487 0.253303
O O19 0.750000 0.185387 0.064857
O O20 0.250000 0.107963 0.851897
O O21 0.055505 0.213696 0.864192
O O22 0.750000 0.805166 0.314584
#
# Coordination Sequence:
#
# PCOD8191332 Si02
#       8
#     8   8   8   8   8   8   8   8
#     4   9  17  27  40  58  86 121 155 189 225 268
#     4  11  23  37  51  71  99 133 172 209 244 283
#     4  10  18  29  43  65  96 128 160 196 238 289
#     4  10  19  31  52  77 102 129 160 200 249 300
#     4   9  18  33  49  69  97 129 161 199 245 297
#     4  10  19  33  49  67  94 127 164 203 241 283
#     4   9  20  36  52  71  99 131 168 210 250 293
#     4  10  18  30  49  72  96 126 162 205 253 298
#
# _framework density 17.852848999999999
#
# number of rings (size 3 to 8) (size 9 to 14) (size 15 to 20)
#    0.000    2.250    1.250    2.250    0.000    5.500 
#    0.000    0.000    0.000    0.000    0.000    0.875 
#    0.000    4.000    0.000    0.000    0.000    0.125 
#
# Total GULP energy -396557.975628 kJ/mol
# GULP energy per Si atom -12392.436738 kJ/mol
# Density = 1.781221 g / cm^3
# Si number density = 17.852849 Si / 1000 Ang^3
#
#
#
# Elastic Constant Matrix: (Units=GPa)
#
#
# Indices 1 2 3 4 5 6 
#
# 1 90.7445 51.3772 25.9257 0.0000 0.0000 0.0000
# 2 51.3772 116.1348 25.5956 0.0000 0.0000 0.0000
# 3 25.9257 25.5956 54.0570 0.0000 0.0000 0.0000
# 4 0.0000 0.0000 0.0000 21.1735 0.0000 0.0000
# 5 0.0000 0.0000 0.0000 0.0000 42.0145 0.0000
# 6 0.0000 0.0000 0.0000 0.0000 0.0000 32.6309
#
#
#
# Elastic Compliance Matrix: (Units=1/GPa)
#
#
# Indices 1 2 3 4 5 6 
#
# 1 0.015720 -0.005910 -0.004741 0.000000 0.000000 0.000000
# 2 -0.005910 0.011836 -0.002770 0.000000 0.000000 0.000000
# 3 -0.004741 -0.002770 0.022084 0.000000 0.000000 0.000000
# 4 0.000000 0.000000 0.000000 0.047229 0.000000 0.000000
# 5 0.000000 0.000000 0.000000 0.000000 0.023801 0.000000
# 6 0.000000 0.000000 0.000000 0.000000 0.000000 0.030646
#
#
# Mechanical properties :
#
#
# Convention : Reuss Voigt Hill
#
# Bulk Modulus (GPa) = 43.86183 51.85924 47.86053
# Shear Modulus (GPa) = 26.91684 29.69965 28.30825
#
# Velocity S-wave (km/s) = 3.88713 4.08313 3.98633
# Velocity P-wave (km/s) = 6.69091 7.16522 6.93212
#
# Compressibility (1/GPa) = 0.02279887
#
# Stress axis : x y z
#
# Youngs Moduli (GPa) = 63.61152 84.49155 45.28081
#
# Poissons Ratio (x) = 0.49931 0.21469
# Poissons Ratio (y) = 0.37592 0.12542
# Poissons Ratio (z) = 0.30160 0.23402
#
# Static dielectric constant tensor:
#      x y z
#    x 3.381100 0.000000 0.000000 
#    y 0.000000 3.681570 0.000000 
#    z 0.000000 0.000000 2.925740 
# 
# 
# High freq. dielectric constant tensor:
#      x y z
#    x 1.699000 0.000000 0.000000 
#    y 0.000000 1.701600 0.000000 
#    z 0.000000 0.000000 1.637370 
# 
# From -- ./inp_files/23304.got.cif
#   From: 2010.03.12/outbox.cif.g09.slc.cpg/sg46_12_cif.got.tgz:23304.got - 2010.04.14 02:56:35.
