data_PCOD8191017
_publ_section_title
;
Structure prediction by ZEFSAII (Michael W. Deem and Ramdas Pophale) SiO2 
 PCOD8191017
Probable space group: I B A 2
;
_chemical_formula_sum "Si O2"
_cell_formula_units_Z 60
_cell_length_a 15.343195
_cell_length_b 13.485094
_cell_length_c 13.915417
_cell_angle_alpha 90.000000
_cell_angle_beta 90.000000
_cell_angle_gamma 90.000000
_cell_volume 2879.161379
_symmetry_space_group_name_H-M "I B A 2"
_symmetry_group_IT_number 45
_symmetry_cell_setting 'orthorhombic'
loop_
_space_group_symop_operation_xyz
x,y,z
-x,-y,z
-x,y,1/2+z
x,-y,1/2+z
1/2+x,1/2+y,1/2+z
1/2-x,1/2-y,1/2+z
1/2-x,1/2+y,z
1/2+x,1/2-y,z
loop_
_atom_site_type_symbol
_atom_site_label
_atom_site_fract_x
_atom_site_fract_y
_atom_site_fract_z
Si Si1 0.277650 0.490581 0.826970
Si Si2 0.874801 0.811952 0.377767
Si Si3 0.500000 0.000000 0.739038
Si Si4 0.033453 0.314685 0.848081
Si Si5 0.324737 0.961143 0.638006
Si Si6 0.791887 0.212090 0.279852
Si Si7 0.161823 0.384577 0.980315
Si Si8 0.294910 0.751043 0.560514
O O1 0.364565 0.429223 0.856422
O O2 0.248243 0.463686 0.719521
O O3 0.301497 0.606402 0.832618
O O4 0.200530 0.457682 0.898679
O O5 0.798546 0.759270 0.315526
O O6 0.873234 0.788691 0.492464
O O7 0.970992 0.779965 0.345206
O O8 0.475895 0.096590 0.801891
O O9 0.578454 0.044718 0.678419
O O10 0.126762 0.285596 0.800671
O O11 0.061960 0.356969 0.953353
O O12 0.302584 0.869246 0.568906
O O13 0.325496 0.062962 0.580992
O O14 0.792291 0.198884 0.164451
O O15 0.211451 0.279318 0.994468
#
# Coordination Sequence:
#
# PCOD8191017 Si02
#       8
#     8   8   4   8   8   8   8   8
#     4  11  22  45  67  92 131 181 224 273 340 408
#     4  11  25  43  66  98 136 180 226 281 346 410
#     4  12  24  38  62 100 140 164 218 282 340 402
#     4  12  26  43  67 100 141 177 224 283 354 410
#     4  12  23  39  67  99 128 175 223 278 341 406
#     4  12  22  46  69  93 137 178 228 285 338 414
#     4  11  24  41  66 100 128 179 227 278 343 401
#     4  11  22  42  66  98 131 173 224 279 336 411
#
# _framework density 20.839400999999999
#
# number of rings (size 3 to 8) (size 9 to 14) (size 15 to 20)
#    0.000    0.533    8.000    1.600    3.733    0.533 
#    0.000    0.000    0.000    1.600    0.000    0.000 
#    0.000    0.000    0.000    0.000    0.000    0.000 
#
# Total GULP energy -371719.790926 kJ/mol
# GULP energy per Si atom -12390.659698 kJ/mol
# Density = 2.079197 g / cm^3
# Si number density = 20.839401 Si / 1000 Ang^3
#
#
#
# Elastic Constant Matrix: (Units=GPa)
#
#
# Indices 1 2 3 4 5 6 
#
# 1 82.1994 28.7813 16.8176 0.0000 0.0000 0.0000
# 2 28.7813 113.2564 8.3311 0.0000 0.0000 0.0000
# 3 16.8176 8.3311 84.2940 0.0000 0.0000 0.0000
# 4 0.0000 0.0000 0.0000 36.8004 0.0000 0.0000
# 5 0.0000 0.0000 0.0000 0.0000 12.3103 0.0000
# 6 0.0000 0.0000 0.0000 0.0000 0.0000 22.1299
#
#
#
# Elastic Compliance Matrix: (Units=1/GPa)
#
#
# Indices 1 2 3 4 5 6 
#
# 1 0.013831 -0.003336 -0.002430 0.000000 0.000000 0.000000
# 2 -0.003336 0.009699 -0.000293 0.000000 0.000000 0.000000
# 3 -0.002430 -0.000293 0.012377 0.000000 0.000000 0.000000
# 4 0.000000 0.000000 0.000000 0.027174 0.000000 0.000000
# 5 0.000000 0.000000 0.000000 0.000000 0.081233 0.000000
# 6 0.000000 0.000000 0.000000 0.000000 0.000000 0.045188
#
#
# Mechanical properties :
#
#
# Convention : Reuss Voigt Hill
#
# Bulk Modulus (GPa) = 42.03600 43.06776 42.55188
# Shear Modulus (GPa) = 23.86090 29.30276 26.58183
#
# Velocity S-wave (km/s) = 3.38744 3.75390 3.57537
# Velocity P-wave (km/s) = 5.95944 6.28493 6.12435
#
# Compressibility (1/GPa) = 0.02378913
#
# Stress axis : x y z
#
# Youngs Moduli (GPa) = 72.30285 103.10510 80.79540
#
# Poissons Ratio (x) = 0.34396 0.19631
# Poissons Ratio (y) = 0.24120 0.02367
# Poissons Ratio (z) = 0.17567 0.03021
#
# Static dielectric constant tensor:
#      x y z
#    x 3.508910 0.000000 0.000000 
#    y 0.000000 4.077350 0.000000 
#    z 0.000000 0.000000 4.087050 
# 
# 
# High freq. dielectric constant tensor:
#      x y z
#    x 1.787270 0.000000 0.000000 
#    y 0.000000 1.827690 0.000000 
#    z 0.000000 0.000000 1.828020 
# 
# From -- ./inp_files/6606.got.cif
#   From: 2010.03.12/outbox.cif.g09.slc.cpg/sg45_4_cif.got.tgz:6606.got - 2010.04.14 02:50:11.
