data_PCOD8191159
_publ_section_title
;
Structure prediction by ZEFSAII (Michael W. Deem and Ramdas Pophale) SiO2 
 PCOD8191159
Probable space group: I M A 2
;
_chemical_formula_sum "Si O2"
_cell_formula_units_Z 44
_cell_length_a 11.989731
_cell_length_b 14.121900
_cell_length_c 13.197047
_cell_angle_alpha 90.000000
_cell_angle_beta 90.000000
_cell_angle_gamma 90.000000
_cell_volume 2234.494730
_symmetry_space_group_name_H-M "I M A 2"
_symmetry_group_IT_number 46
_symmetry_cell_setting 'orthorhombic'
loop_
_space_group_symop_operation_xyz
x,y,z
-x,-y,z
1/2-x,y,z
1/2+x,-y,z
1/2+x,1/2+y,1/2+z
1/2-x,1/2-y,1/2+z
-x,1/2+y,1/2+z
x,1/2-y,1/2+z
loop_
_atom_site_type_symbol
_atom_site_label
_atom_site_fract_x
_atom_site_fract_y
_atom_site_fract_z
Si Si1 0.250000 0.757157 0.652101
Si Si2 0.487382 0.715349 0.626089
Si Si3 0.383056 0.224844 0.326494
Si Si4 0.984782 0.393883 0.984410
Si Si5 0.985471 0.390703 0.425822
Si Si6 0.250000 0.841075 0.843834
Si Si7 0.250000 0.845715 0.434950
O O1 0.364239 0.698414 0.673296
O O2 0.250000 0.855012 0.721412
O O3 0.250000 0.781095 0.534673
O O4 0.581698 0.702968 0.711215
O O5 0.490257 0.821435 0.578326
O O6 0.512675 0.636284 0.541464
O O7 0.250000 0.230676 0.334520
O O8 0.426838 0.141348 0.400066
O O9 0.436094 0.326699 0.354671
O O10 0.000000 0.500000 0.025752
O O11 0.863464 0.404483 0.931940
O O12 0.856480 0.376525 0.402743
O O13 0.000000 0.500000 0.403578
O O14 0.250000 0.726076 0.841158
#
# Coordination Sequence:
#
# PCOD8191159 Si02
#       7
#     4   8   8   8   8   4   4
#     4  10  16  34  66  86 109 153 201 253 291 351
#     4  10  20  41  62  87 124 160 203 246 306 355
#     4  11  24  42  61  87 127 167 198 245 310 362
#     4  10  22  39  64  91 121 157 207 252 299 358
#     4  11  24  40  64  92 123 159 205 252 302 358
#     4  12  18  40  64  87 115 160 198 260 299 356
#     4  10  18  38  60  91 112 157 205 247 310 343
#
# _framework density 19.691251999999999
#
# number of rings (size 3 to 8) (size 9 to 14) (size 15 to 20)
#    0.000    1.455    7.273    0.000    2.545    4.364 
#    0.000    0.000    4.000    0.000    0.000    0.000 
#    0.000    0.000    0.000    0.000    0.000    0.000 
#
# Total GULP energy -272610.149884 kJ/mol
# GULP energy per Si atom -12391.370449 kJ/mol
# Density = 1.964643 g / cm^3
# Si number density = 19.691252 Si / 1000 Ang^3
#
#
#
# Elastic Constant Matrix: (Units=GPa)
#
#
# Indices 1 2 3 4 5 6 
#
# 1 154.8687 1.6710 21.3283 0.0000 0.0000 0.0000
# 2 1.6710 53.8163 -14.6423 0.0001 0.0000 0.0000
# 3 21.3283 -14.6423 73.9506 0.0001 0.0000 0.0000
# 4 0.0000 0.0001 0.0001 11.2347 0.0000 0.0000
# 5 0.0000 0.0000 0.0000 0.0000 33.9382 0.0000
# 6 0.0000 0.0000 0.0000 0.0000 0.0000 19.6623
#
#
#
# Elastic Compliance Matrix: (Units=1/GPa)
#
#
# Indices 1 2 3 4 5 6 
#
# 1 0.006755 -0.000782 -0.002103 0.000000 0.000000 0.000000
# 2 -0.000782 0.019730 0.004132 0.000000 0.000000 0.000000
# 3 -0.002103 0.004132 0.014947 0.000000 0.000000 0.000000
# 4 0.000000 0.000000 0.000000 0.089010 0.000000 0.000000
# 5 0.000000 0.000000 0.000000 0.000000 0.029465 0.000000
# 6 0.000000 0.000000 0.000000 0.000000 0.000000 0.050859
#
#
# Mechanical properties :
#
#
# Convention : Reuss Voigt Hill
#
# Bulk Modulus (GPa) = 22.76510 33.26106 28.01308
# Shear Modulus (GPa) = 22.43009 31.25227 26.84118
#
# Velocity S-wave (km/s) = 3.37870 3.98818 3.69603
# Velocity P-wave (km/s) = 5.17754 6.17539 5.69835
#
# Compressibility (1/GPa) = 0.04392690
#
# Stress axis : x y z
#
# Youngs Moduli (GPa) = 148.03509 50.68349 66.90182
#
# Poissons Ratio (x) = 0.03963 0.14070
# Poissons Ratio (y) = 0.11576 -0.27645
# Poissons Ratio (z) = 0.31133 -0.20943
#
# Static dielectric constant tensor:
#      x y z
#    x 3.787410 0.000000 0.000000 
#    y 0.000000 3.463470 0.000000 
#    z 0.000000 0.000000 3.643220 
# 
# 
# High freq. dielectric constant tensor:
#      x y z
#    x 1.780760 0.000000 0.000000 
#    y 0.000000 1.732380 0.000000 
#    z 0.000000 0.000000 1.779160 
# 
# From -- ./inp_files/15143.got.cif
#   From: 2010.03.12/outbox.cif.g09.slc.cpg/sg46_8_cif.got.tgz:15143.got - 2010.04.14 02:56:35.
