data_PCOD8191189
_publ_section_title
;
Structure prediction by ZEFSAII (Michael W. Deem and Ramdas Pophale) SiO2 
 PCOD8191189
Probable space group: I M A 2
;
_chemical_formula_sum "Si O2"
_cell_formula_units_Z 56
_cell_length_a 24.503193
_cell_length_b 15.158584
_cell_length_c 8.481083
_cell_angle_alpha 90.000000
_cell_angle_beta 90.000000
_cell_angle_gamma 90.000000
_cell_volume 3150.160118
_symmetry_space_group_name_H-M "I M A 2"
_symmetry_group_IT_number 46
_symmetry_cell_setting 'orthorhombic'
loop_
_space_group_symop_operation_xyz
x,y,z
-x,-y,z
1/2-x,y,z
1/2+x,-y,z
1/2+x,1/2+y,1/2+z
1/2-x,1/2-y,1/2+z
-x,1/2+y,1/2+z
x,1/2-y,1/2+z
loop_
_atom_site_type_symbol
_atom_site_label
_atom_site_fract_x
_atom_site_fract_y
_atom_site_fract_z
Si Si1 0.418130 0.999373 0.280690
Si Si2 0.599208 0.416549 0.095433
Si Si3 0.690741 0.404781 0.326381
Si Si4 0.310812 0.937553 0.176297
Si Si5 0.143367 0.779558 0.359751
Si Si6 0.028582 0.689847 0.304072
Si Si7 0.000626 0.860910 0.151073
O O1 0.449471 0.082258 0.210239
O O2 0.420155 0.991033 0.471386
O O3 0.354155 0.009014 0.241012
O O4 0.443671 0.908529 0.208994
O O5 0.642438 0.450656 0.225460
O O6 0.542365 0.386351 0.176991
O O7 0.635287 0.337313 0.018069
O O8 0.750000 0.417239 0.243207
O O9 0.691007 0.455043 0.491372
O O10 0.684578 0.301656 0.372235
O O11 0.250000 0.951117 0.249428
O O12 0.334134 0.840924 0.219509
O O13 0.084727 0.738863 0.331273
O O14 0.990209 0.764579 0.226603
O O15 0.002119 0.647905 0.461037
#
# Coordination Sequence:
#
# PCOD8191189 Si02
#       7
#     8   8   8   8   8   8   8
#     4  10  21  36  49  77 102 145 174 224 259 328
#     4  10  19  30  49  70 108 136 181 217 266 305
#     4  10  19  27  42  70 100 141 184 214 245 304
#     4  10  19  32  47  69 107 146 179 212 259 315
#     4  10  17  27  46  71 104 139 175 209 249 310
#     4  11  18  33  53  77  97 143 168 223 263 319
#     4  11  20  35  56  73 109 134 181 216 276 316
#
# _framework density 17.776875
#
# number of rings (size 3 to 8) (size 9 to 14) (size 15 to 20)
#    0.000    1.714    4.286    3.857    0.000    4.000 
#    0.000   10.000    0.000    0.000    0.000    1.000 
#    0.000    0.000    0.000    0.000    0.000    0.000 
#
# Total GULP energy -346885.506250 kJ/mol
# GULP energy per Si atom -12388.768080 kJ/mol
# Density = 1.773641 g / cm^3
# Si number density = 17.776875 Si / 1000 Ang^3
#
#
#
# Elastic Constant Matrix: (Units=GPa)
#
#
# Indices 1 2 3 4 5 6 
#
# 1 106.5445 43.9891 41.7494 0.0000 0.0000 0.0000
# 2 43.9891 47.4564 39.1374 0.0000 0.0000 0.0000
# 3 41.7494 39.1374 114.6140 0.0000 0.0000 0.0000
# 4 0.0000 0.0000 0.0000 18.3579 0.0000 0.0000
# 5 0.0000 0.0000 0.0000 0.0000 24.7551 0.0000
# 6 0.0000 0.0000 0.0000 0.0000 0.0000 12.6999
#
#
#
# Elastic Compliance Matrix: (Units=1/GPa)
#
#
# Indices 1 2 3 4 5 6 
#
# 1 0.015289 -0.013334 -0.001016 0.000000 0.000000 0.000000
# 2 -0.013334 0.040962 -0.009130 0.000000 0.000000 0.000000
# 3 -0.001016 -0.009130 0.012213 0.000000 0.000000 0.000000
# 4 0.000000 0.000000 0.000000 0.054472 0.000000 0.000000
# 5 0.000000 0.000000 0.000000 0.000000 0.040396 0.000000
# 6 0.000000 0.000000 0.000000 0.000000 0.000000 0.078741
#
#
# Mechanical properties :
#
#
# Convention : Reuss Voigt Hill
#
# Bulk Modulus (GPa) = 46.50550 57.59632 52.05091
# Shear Modulus (GPa) = 16.88047 20.74518 18.81282
#
# Velocity S-wave (km/s) = 3.08486 3.41981 3.25664
# Velocity P-wave (km/s) = 6.23746 6.93277 6.59429
#
# Compressibility (1/GPa) = 0.02150283
#
# Stress axis : x y z
#
# Youngs Moduli (GPa) = 65.40579 24.41316 81.88210
#
# Poissons Ratio (x) = 0.32553 0.08319
# Poissons Ratio (y) = 0.87213 0.74759
# Poissons Ratio (z) = 0.06645 0.22289
#
# Static dielectric constant tensor:
#      x y z
#    x 3.361010 0.000000 0.000000 
#    y 0.000000 2.937480 0.000000 
#    z 0.000000 0.000000 3.874590 
# 
# 
# High freq. dielectric constant tensor:
#      x y z
#    x 1.674820 0.000000 0.000000 
#    y 0.000000 1.623730 0.000000 
#    z 0.000000 0.000000 1.704030 
# 
# From -- ./inp_files/7991.got.cif
#   From: 2010.03.12/outbox.cif.g09.slc.cpg/sg46_4_cif.got.tgz:7991.got - 2010.04.14 02:56:35.
