data_PCOD8191038
_publ_section_title
;
Structure prediction by ZEFSAII (Michael W. Deem and Ramdas Pophale) SiO2 
 PCOD8191038
Probable space group: I B A 2
;
_chemical_formula_sum "Si O2"
_cell_formula_units_Z 56
_cell_length_a 16.789687
_cell_length_b 7.429575
_cell_length_c 21.348733
_cell_angle_alpha 90.000000
_cell_angle_beta 90.000000
_cell_angle_gamma 90.000000
_cell_volume 2663.046052
_symmetry_space_group_name_H-M "I B A 2"
_symmetry_group_IT_number 45
_symmetry_cell_setting 'orthorhombic'
loop_
_space_group_symop_operation_xyz
x,y,z
-x,-y,z
-x,y,1/2+z
x,-y,1/2+z
1/2+x,1/2+y,1/2+z
1/2-x,1/2-y,1/2+z
1/2-x,1/2+y,z
1/2+x,1/2-y,z
loop_
_atom_site_type_symbol
_atom_site_label
_atom_site_fract_x
_atom_site_fract_y
_atom_site_fract_z
Si Si1 0.653735 0.632206 0.599500
Si Si2 0.346265 0.132206 0.990043
Si Si3 0.176721 0.464893 0.628532
Si Si4 0.556879 0.830058 0.229649
Si Si5 0.500000 0.000000 0.932479
Si Si6 0.000000 0.000000 0.657064
Si Si7 0.556879 0.330058 0.859894
Si Si8 0.676721 0.535107 0.461011
O O1 0.727407 0.535714 0.635459
O O2 0.643922 0.833811 0.624318
O O3 0.577128 0.511967 0.613502
O O4 0.661012 0.646254 0.524578
O O5 0.422872 0.011967 0.976041
O O6 0.356078 0.333811 0.965225
O O7 0.272593 0.035714 0.954084
O O8 0.338988 0.146254 0.064965
O O9 0.133732 0.373281 0.687312
O O10 0.502248 0.678500 0.198499
O O11 0.590103 0.750000 0.294772
O O12 0.500000 0.000000 0.241090
O O13 0.502248 0.178500 0.891044
O O14 0.500000 0.500000 0.848453
O O15 0.633732 0.373281 0.902231
#
# Coordination Sequence:
#
# PCOD8191038 Si02
#       8
#     8   8   8   8   4   4   8   8
#     4  11  23  41  69 103 140 175 225 289 345 405
#     4  11  23  41  69 103 140 175 225 289 345 405
#     4  11  23  43  66 101 140 182 225 282 345 408
#     4  12  25  45  68  97 137 184 231 281 333 405
#     4  12  24  42  70 100 138 174 232 286 338 406
#     4  12  24  42  70 100 138 174 232 286 338 406
#     4  12  25  45  68  97 137 184 231 281 333 405
#     4  11  23  43  66 101 140 182 225 282 345 408
#
# _framework density 21.028552000000001
#
# number of rings (size 3 to 8) (size 9 to 14) (size 15 to 20)
#    0.000    0.571    4.286    6.857    2.000    2.286 
#    0.000    7.143    0.000    0.000    0.000    0.000 
#    0.000    0.000    0.000    0.000    0.000    0.000 
#
# Total GULP energy -347307.485452 kJ/mol
# GULP energy per Si atom -12403.838766 kJ/mol
# Density = 2.098069 g / cm^3
# Si number density = 21.028552 Si / 1000 Ang^3
#
#
#
# Elastic Constant Matrix: (Units=GPa)
#
#
# Indices 1 2 3 4 5 6 
#
# 1 158.4658 44.7439 80.0371 0.0000 0.0000 0.0000
# 2 44.7439 115.0834 41.7931 0.0000 0.0000 0.0000
# 3 80.0371 41.7931 128.1701 0.0000 0.0000 0.0000
# 4 0.0000 0.0000 0.0000 36.6355 0.0000 0.0000
# 5 0.0000 0.0000 0.0000 0.0000 26.2812 0.0000
# 6 0.0000 0.0000 0.0000 0.0000 0.0000 36.0674
#
#
#
# Elastic Compliance Matrix: (Units=1/GPa)
#
#
# Indices 1 2 3 4 5 6 
#
# 1 0.009518 -0.001749 -0.005373 0.000000 0.000000 0.000000
# 2 -0.001749 0.010178 -0.002226 0.000000 0.000000 0.000000
# 3 -0.005373 -0.002226 0.011884 0.000000 0.000000 0.000000
# 4 0.000000 0.000000 0.000000 0.027296 0.000000 0.000000
# 5 0.000000 0.000000 0.000000 0.000000 0.038050 0.000000
# 6 0.000000 0.000000 0.000000 0.000000 0.000000 0.027726
#
#
# Mechanical properties :
#
#
# Convention : Reuss Voigt Hill
#
# Bulk Modulus (GPa) = 77.62975 81.65193 79.64084
# Shear Modulus (GPa) = 33.86519 35.47317 34.66918
#
# Velocity S-wave (km/s) = 4.01738 4.11165 4.06479
# Velocity P-wave (km/s) = 7.64955 7.83928 7.74500
#
# Compressibility (1/GPa) = 0.01288166
#
# Stress axis : x y z
#
# Youngs Moduli (GPa) = 105.05905 98.25101 84.14935
#
# Poissons Ratio (x) = 0.17187 0.45218
# Poissons Ratio (y) = 0.18378 0.18735
# Poissons Ratio (z) = 0.56453 0.21875
#
# Static dielectric constant tensor:
#      x y z
#    x 3.736510 0.000000 0.000000 
#    y 0.000000 3.960980 0.000000 
#    z 0.000000 0.000000 3.692300 
# 
# 
# High freq. dielectric constant tensor:
#      x y z
#    x 1.822860 0.000000 0.000000 
#    y 0.000000 1.848680 0.000000 
#    z 0.000000 0.000000 1.807370 
# 
# From -- ./inp_files/9246.got.cif
#   From: 2010.03.12/outbox.cif.g09.slc.cpg/sg45_5_cif.got.tgz:9246.got - 2010.04.14 02:50:11.
