data_PCOD8191892
_publ_section_title
;
Structure prediction by ZEFSAII (Michael W. Deem and Ramdas Pophale) SiO2 
 PCOD8191892
Probable space group: I M A 2
;
_chemical_formula_sum "Si O2"
_cell_formula_units_Z 56
_cell_length_a 9.107095
_cell_length_b 14.006481
_cell_length_c 22.617726
_cell_angle_alpha 90.000000
_cell_angle_beta 90.000000
_cell_angle_gamma 90.000000
_cell_volume 2885.079879
_symmetry_space_group_name_H-M "I M A 2"
_symmetry_group_IT_number 46
_symmetry_cell_setting 'orthorhombic'
loop_
_space_group_symop_operation_xyz
x,y,z
-x,-y,z
1/2-x,y,z
1/2+x,-y,z
1/2+x,1/2+y,1/2+z
1/2-x,1/2-y,1/2+z
-x,1/2+y,1/2+z
x,1/2-y,1/2+z
loop_
_atom_site_type_symbol
_atom_site_label
_atom_site_fract_x
_atom_site_fract_y
_atom_site_fract_z
Si Si1 0.077125 0.898585 0.278010
Si Si2 0.916402 0.799283 0.382061
Si Si3 0.416108 0.092145 0.631516
Si Si4 0.417786 0.848126 0.037131
Si Si5 0.920517 0.214678 0.161902
Si Si6 0.420232 0.089379 0.928393
Si Si7 0.413474 0.168510 0.509756
O O1 0.250000 0.915258 0.280198
O O2 0.028375 0.840383 0.220256
O O3 0.029790 0.837321 0.334482
O O4 0.000000 0.000000 0.278354
O O5 0.750000 0.805030 0.357477
O O6 0.958690 0.689422 0.397045
O O7 0.931554 0.864844 0.441532
O O8 0.250000 0.087924 0.654839
O O9 0.485765 0.189117 0.656249
O O10 0.420329 0.086285 0.559399
O O11 0.500000 0.000000 0.656872
O O12 0.250000 0.871028 0.020516
O O13 0.448021 0.859247 0.107433
O O14 0.523947 0.911749 0.996661
O O15 0.452373 0.737954 0.023823
O O16 0.750000 0.244436 0.164326
O O17 0.250000 0.068153 0.927788
O O18 0.500000 0.000000 0.895673
O O19 0.250000 0.218835 0.513770
#
# Coordination Sequence:
#
# PCOD8191892 Si02
#       7
#     8   8   8   8   8   8   8
#     4  11  24  41  60  80 104 137 180 227 272 320
#     4   9  19  37  57  79 110 144 181 225 269 315
#     4  10  19  32  54  83 114 147 180 218 267 323
#     4   9  16  29  51  77 106 139 175 215 261 311
#     4   9  20  38  56  78 109 144 183 226 269 317
#     4  10  20  34  54  82 115 146 178 218 266 323
#     4   8  16  31  50  75 107 141 175 213 260 311
#
# _framework density 19.410208000000001
#
# number of rings (size 3 to 8) (size 9 to 14) (size 15 to 20)
#    0.000    2.571    0.000    2.571    0.000    6.286 
#    0.000    3.571    0.000    1.714    0.000    0.000 
#    0.000    0.000    0.000    0.000    0.000    0.000 
#
# Total GULP energy -346966.436328 kJ/mol
# GULP energy per Si atom -12391.658440 kJ/mol
# Density = 1.936603 g / cm^3
# Si number density = 19.410208 Si / 1000 Ang^3
#
#
#
# Elastic Constant Matrix: (Units=GPa)
#
#
# Indices 1 2 3 4 5 6 
#
# 1 100.0407 58.3196 48.4716 0.0000 0.0000 0.0000
# 2 58.3196 105.8747 45.1174 0.0000 0.0000 0.0000
# 3 48.4716 45.1174 109.6482 0.0000 0.0000 0.0000
# 4 0.0000 0.0000 0.0000 19.4831 0.0000 0.0000
# 5 0.0000 0.0000 0.0000 0.0000 26.5390 0.0000
# 6 0.0000 0.0000 0.0000 0.0000 0.0000 33.4368
#
#
#
# Elastic Compliance Matrix: (Units=1/GPa)
#
#
# Indices 1 2 3 4 5 6 
#
# 1 0.016195 -0.007118 -0.004230 0.000000 0.000000 0.000000
# 2 -0.007118 0.014582 -0.002853 0.000000 0.000000 0.000000
# 3 -0.004230 -0.002853 0.012164 0.000000 0.000000 0.000000
# 4 0.000000 0.000000 0.000000 0.051327 0.000000 0.000000
# 5 0.000000 0.000000 0.000000 0.000000 0.037680 0.000000
# 6 0.000000 0.000000 0.000000 0.000000 0.000000 0.029907
#
#
# Mechanical properties :
#
#
# Convention : Reuss Voigt Hill
#
# Bulk Modulus (GPa) = 68.78738 68.82010 68.80374
# Shear Modulus (GPa) = 25.62715 26.80212 26.21464
#
# Velocity S-wave (km/s) = 3.63752 3.71998 3.67898
# Velocity P-wave (km/s) = 7.29094 7.34735 7.31920
#
# Compressibility (1/GPa) = 0.01453755
#
# Stress axis : x y z
#
# Youngs Moduli (GPa) = 61.74653 68.57749 82.20783
#
# Poissons Ratio (x) = 0.48815 0.34777
# Poissons Ratio (y) = 0.43952 0.23457
# Poissons Ratio (z) = 0.26121 0.19568
#
# Static dielectric constant tensor:
#      x y z
#    x 3.584770 0.000000 0.000000 
#    y 0.000000 3.353960 0.000000 
#    z 0.000000 0.000000 3.564750 
# 
# 
# High freq. dielectric constant tensor:
#      x y z
#    x 1.764800 0.000000 0.000000 
#    y 0.000000 1.738670 0.000000 
#    z 0.000000 0.000000 1.740720 
# 
# From -- ./inp_files/21107.got.cif
#   From: 2010.03.12/outbox.cif.g09.slc.cpg/sg46_11_cif.got.tgz:21107.got - 2010.04.14 02:56:35.
