data_PCOD8191129
_publ_section_title
;
Structure prediction by ZEFSAII (Michael W. Deem and Ramdas Pophale) SiO2 
 PCOD8191129
Probable space group: I B A 2
;
_chemical_formula_sum "Si O2"
_cell_formula_units_Z 40
_cell_length_a 9.521206
_cell_length_b 8.667851
_cell_length_c 19.344245
_cell_angle_alpha 90.000000
_cell_angle_beta 90.000000
_cell_angle_gamma 90.000000
_cell_volume 1596.449491
_symmetry_space_group_name_H-M "I B A 2"
_symmetry_group_IT_number 45
_symmetry_cell_setting 'orthorhombic'
loop_
_space_group_symop_operation_xyz
x,y,z
-x,-y,z
-x,y,1/2+z
x,-y,1/2+z
1/2+x,1/2+y,1/2+z
1/2-x,1/2-y,1/2+z
1/2-x,1/2+y,z
1/2+x,1/2-y,z
loop_
_atom_site_type_symbol
_atom_site_label
_atom_site_fract_x
_atom_site_fract_y
_atom_site_fract_z
Si Si1 0.381372 0.881193 0.504740
Si Si2 0.154885 0.937359 0.068114
Si Si3 0.841934 0.519911 0.698115
Si Si4 0.250939 0.236319 0.793057
Si Si5 0.510669 0.329610 0.382574
O O1 0.354783 0.747168 0.560857
O O2 0.428608 0.801674 0.433529
O O3 0.500000 0.000000 0.530271
O O4 0.235807 0.980465 0.502711
O O5 0.238948 0.975510 0.136904
O O6 0.000000 0.000000 0.074480
O O7 0.817137 0.694371 0.723312
O O8 0.813684 0.426474 0.769030
O O9 0.000000 0.500000 0.671429
O O10 0.381060 0.341358 0.818921
O O11 0.141469 0.221520 0.855969
O O12 0.500000 0.500000 0.417648
#
# Coordination Sequence:
#
# PCOD8191129 Si02
#       5
#     8   8   8   8   8
#     4  12  30  53  81 118 161 214 273 344 416 501
#     4  12  29  51  82 117 159 217 279 344 419 493
#     4  12  27  50  79 115 161 208 271 343 408 492
#     4  12  27  47  78 118 158 210 264 334 413 488
#     4  12  29  49  80 118 166 216 270 336 413 506
#
# _framework density 25.055600999999999
#
# number of rings (size 3 to 8) (size 9 to 14) (size 15 to 20)
#    0.000    0.000    4.000    3.600   14.000    3.200 
#    0.000    0.000    0.000    0.000    0.000    0.000 
#    0.000    0.000    0.000    0.000    0.000    0.000 
#
# Total GULP energy -248033.162510 kJ/mol
# GULP energy per Si atom -12401.658125 kJ/mol
# Density = 2.499857 g / cm^3
# Si number density = 25.055601 Si / 1000 Ang^3
#
#
#
# Elastic Constant Matrix: (Units=GPa)
#
#
# Indices 1 2 3 4 5 6 
#
# 1 203.0645 63.8322 43.1607 0.0000 0.0000 0.0000
# 2 63.8322 150.2101 34.6996 0.0000 0.0000 0.0000
# 3 43.1607 34.6996 98.3882 0.0000 0.0000 0.0000
# 4 0.0000 0.0000 0.0000 14.4441 0.0000 0.0000
# 5 0.0000 0.0000 0.0000 0.0000 51.2402 0.0000
# 6 0.0000 0.0000 0.0000 0.0000 0.0000 43.6242
#
#
#
# Elastic Compliance Matrix: (Units=1/GPa)
#
#
# Indices 1 2 3 4 5 6 
#
# 1 0.005988 -0.002110 -0.001883 0.000000 0.000000 0.000000
# 2 -0.002110 0.007991 -0.001893 0.000000 0.000000 0.000000
# 3 -0.001883 -0.001893 0.011657 0.000000 0.000000 0.000000
# 4 0.000000 0.000000 0.000000 0.069232 0.000000 0.000000
# 5 0.000000 0.000000 0.000000 0.000000 0.019516 0.000000
# 6 0.000000 0.000000 0.000000 0.000000 0.000000 0.022923
#
#
# Mechanical properties :
#
#
# Convention : Reuss Voigt Hill
#
# Bulk Modulus (GPa) = 72.11965 81.67199 76.89582
# Shear Modulus (GPa) = 32.53092 42.52639 37.52866
#
# Velocity S-wave (km/s) = 3.60717 4.12428 3.87436
# Velocity P-wave (km/s) = 6.79671 7.43953 7.12537
#
# Compressibility (1/GPa) = 0.01386585
#
# Stress axis : x y z
#
# Youngs Moduli (GPa) = 167.00450 125.13916 85.78319
#
# Poissons Ratio (x) = 0.26400 0.16151
# Poissons Ratio (y) = 0.35232 0.16238
# Poissons Ratio (z) = 0.31442 0.23687
#
# Static dielectric constant tensor:
#      x y z
#    x 4.688180 0.000000 0.000000 
#    y 0.000000 4.802430 0.000000 
#    z 0.000000 0.000000 4.218440 
# 
# 
# High freq. dielectric constant tensor:
#      x y z
#    x 2.017340 0.000000 0.000000 
#    y 0.000000 2.012410 0.000000 
#    z 0.000000 0.000000 1.996870 
# 
# From -- ./inp_files/9490.got.cif
#   From: 2010.03.12/outbox.cif.g09.slc.cpg/sg45_5_cif.got.tgz:9490.got - 2010.04.14 02:50:11.
