data_PCOD8191746
_publ_section_title
;
Structure prediction by ZEFSAII (Michael W. Deem and Ramdas Pophale) SiO2 
 PCOD8191746
Probable space group: I M A 2
;
_chemical_formula_sum "Si O2"
_cell_formula_units_Z 64
_cell_length_a 15.040607
_cell_length_b 14.053397
_cell_length_c 16.884516
_cell_angle_alpha 90.000000
_cell_angle_beta 90.000000
_cell_angle_gamma 90.000000
_cell_volume 3568.907522
_symmetry_space_group_name_H-M "I M A 2"
_symmetry_group_IT_number 46
_symmetry_cell_setting 'orthorhombic'
loop_
_space_group_symop_operation_xyz
x,y,z
-x,-y,z
1/2-x,y,z
1/2+x,-y,z
1/2+x,1/2+y,1/2+z
1/2-x,1/2-y,1/2+z
-x,1/2+y,1/2+z
x,1/2-y,1/2+z
loop_
_atom_site_type_symbol
_atom_site_label
_atom_site_fract_x
_atom_site_fract_y
_atom_site_fract_z
Si Si1 0.851162 0.450699 0.385690
Si Si2 0.349481 0.833642 0.211834
Si Si3 0.654757 0.654509 0.929642
Si Si4 0.153669 0.343638 0.329855
Si Si5 0.536603 0.180716 0.453013
Si Si6 0.097612 0.975072 0.343944
Si Si7 0.533307 0.309567 0.297965
Si Si8 0.647763 0.330600 0.534560
O O1 0.750000 0.420210 0.367602
O O2 0.863342 0.563917 0.384810
O O3 0.912251 0.405205 0.317106
O O4 0.879584 0.413102 0.472748
O O5 0.250000 0.791074 0.216818
O O6 0.353870 0.920851 0.272772
O O7 0.418640 0.749313 0.229380
O O8 0.369510 0.870149 0.122835
O O9 0.750000 0.641874 0.976289
O O10 0.659262 0.755016 0.887232
O O11 0.564035 0.652102 0.982410
O O12 0.650584 0.570949 0.863865
O O13 0.250000 0.353916 0.284870
O O14 0.068595 0.333540 0.271069
O O15 0.590801 0.087494 0.424868
O O16 0.528451 0.246883 0.376539
O O17 0.589308 0.235058 0.521810
O O18 0.000000 0.000000 0.312008
O O19 0.750000 0.300769 0.522147
#
# Coordination Sequence:
#
# PCOD8191746 Si02
#       8
#     8   8   8   8   8   8   8   8
#     4   9  16  28  47  71  96 124 159 199 242 288
#     4  10  19  31  49  75 103 129 157 195 245 296
#     4   9  16  27  45  68  91 119 158 201 236 272
#     4   9  17  28  45  67  92 123 161 201 237 275
#     4   8  16  29  46  68  94 121 154 194 239 286
#     4   9  17  30  48  72  98 125 158 197 240 288
#     4   9  16  28  47  70  95 121 155 199 242 285
#     4   9  18  31  48  73 103 128 154 194 246 296
#
# _framework density 17.932659000000001
#
# number of rings (size 3 to 8) (size 9 to 14) (size 15 to 20)
#    0.000    3.000    0.000    1.875    0.000    3.500 
#    0.000    3.750    0.000    5.250    0.000    1.750 
#    0.000    0.000    0.000    0.000    0.000    0.000 
#
# Total GULP energy -396423.636713 kJ/mol
# GULP energy per Si atom -12388.238647 kJ/mol
# Density = 1.789184 g / cm^3
# Si number density = 17.932659 Si / 1000 Ang^3
#
#
#
# Elastic Constant Matrix: (Units=GPa)
#
#
# Indices 1 2 3 4 5 6 
#
# 1 115.9677 34.4967 26.1731 0.0000 0.0000 0.0000
# 2 34.4967 105.8336 26.4661 0.0000 0.0000 0.0000
# 3 26.1731 26.4661 35.6132 0.0000 0.0000 0.0000
# 4 0.0000 0.0000 0.0000 11.7320 0.0000 0.0000
# 5 0.0000 0.0000 0.0000 0.0000 12.6130 0.0000
# 6 0.0000 0.0000 0.0000 0.0000 0.0000 47.2705
#
#
#
# Elastic Compliance Matrix: (Units=1/GPa)
#
#
# Indices 1 2 3 4 5 6 
#
# 1 0.010626 -0.001856 -0.006431 0.000000 0.000000 0.000000
# 2 -0.001856 0.011930 -0.007502 0.000000 0.000000 0.000000
# 3 -0.006431 -0.007502 0.038381 0.000000 0.000000 0.000000
# 4 0.000000 0.000000 0.000000 0.085237 0.000000 0.000000
# 5 0.000000 0.000000 0.000000 0.000000 0.079284 0.000000
# 6 0.000000 0.000000 0.000000 0.000000 0.000000 0.021155
#
#
# Mechanical properties :
#
#
# Convention : Reuss Voigt Hill
#
# Bulk Modulus (GPa) = 34.05944 47.96516 41.01230
# Shear Modulus (GPa) = 17.36264 25.67501 21.51883
#
# Velocity S-wave (km/s) = 3.11499 3.78795 3.46783
# Velocity P-wave (km/s) = 5.65436 6.77767 6.24134
#
# Compressibility (1/GPa) = 0.02936044
#
# Stress axis : x y z
#
# Youngs Moduli (GPa) = 94.10501 83.82498 26.05489
#
# Poissons Ratio (x) = 0.15554 0.16755
# Poissons Ratio (y) = 0.17462 0.19546
# Poissons Ratio (z) = 0.60516 0.62884
#
# Static dielectric constant tensor:
#      x y z
#    x 4.075000 0.000000 0.000000 
#    y 0.000000 3.438730 0.000000 
#    z 0.000000 0.000000 2.772970 
# 
# 
# High freq. dielectric constant tensor:
#      x y z
#    x 1.720170 0.000000 0.000000 
#    y 0.000000 1.699810 0.000000 
#    z 0.000000 0.000000 1.620840 
# 
# From -- ./inp_files/19741.got.cif
#   From: 2010.03.12/outbox.cif.g09.slc.cpg/sg46_10_cif.got.tgz:19741.got - 2010.04.14 02:56:35.
