data_PCOD8191837
_publ_section_title
;
Structure prediction by ZEFSAII (Michael W. Deem and Ramdas Pophale) SiO2 
 PCOD8191837
Probable space group: I M A 2
;
_chemical_formula_sum "Si O2"
_cell_formula_units_Z 64
_cell_length_a 8.964242
_cell_length_b 14.325401
_cell_length_c 23.863990
_cell_angle_alpha 90.000000
_cell_angle_beta 90.000000
_cell_angle_gamma 90.000000
_cell_volume 3064.526762
_symmetry_space_group_name_H-M "I M A 2"
_symmetry_group_IT_number 46
_symmetry_cell_setting 'orthorhombic'
loop_
_space_group_symop_operation_xyz
x,y,z
-x,-y,z
1/2-x,y,z
1/2+x,-y,z
1/2+x,1/2+y,1/2+z
1/2-x,1/2-y,1/2+z
-x,1/2+y,1/2+z
x,1/2-y,1/2+z
loop_
_atom_site_type_symbol
_atom_site_label
_atom_site_fract_x
_atom_site_fract_y
_atom_site_fract_z
Si Si1 0.577095 0.900212 0.133750
Si Si2 0.572424 0.096122 0.792342
Si Si3 0.584483 0.667733 0.401243
Si Si4 0.914752 0.881814 0.401097
Si Si5 0.073292 0.594835 0.014652
Si Si6 0.914720 0.239021 0.215213
Si Si7 0.075742 0.288727 0.523795
Si Si8 0.412145 0.575010 0.794653
O O1 0.750000 0.914327 0.147170
O O2 0.519267 0.813972 0.171425
O O3 0.548336 0.867199 0.070329
O O4 0.500000 0.000000 0.143508
O O5 0.750000 0.091487 0.793020
O O6 0.520863 0.118380 0.855848
O O7 0.518137 0.166858 0.742767
O O8 0.500000 0.000000 0.772980
O O9 0.750000 0.621393 0.398451
O O10 0.595011 0.774548 0.384985
O O11 0.519323 0.664690 0.465183
O O12 0.750000 0.918674 0.418800
O O13 0.034115 0.904175 0.449139
O O14 0.975542 0.929614 0.346443
O O15 0.250000 0.592714 0.024758
O O16 0.000000 0.500000 0.041577
O O17 0.007751 0.691759 0.040310
O O18 0.750000 0.255937 0.188222
O O19 0.895137 0.175618 0.269452
O O20 0.250000 0.262214 0.516941
O O21 0.500000 0.500000 0.753555
O O22 0.250000 0.536955 0.811420
#
# Coordination Sequence:
#
# PCOD8191837 Si02
#       8
#     8   8   8   8   8   8   8   8
#     4  11  24  43  69  95 125 161 205 257 312 372
#     4  11  23  40  62  91 125 161 203 252 305 370
#     4   9  18  35  59  86 121 161 201 248 302 358
#     4  10  19  32  51  78 115 157 198 244 294 356
#     4  11  21  34  55  83 119 163 205 249 302 362
#     4  10  23  42  62  86 121 158 202 256 305 363
#     4   9  21  41  62  91 126 163 209 259 309 365
#     4  11  21  33  50  78 113 151 196 244 296 355
#
# _framework density 20.884138
#
# number of rings (size 3 to 8) (size 9 to 14) (size 15 to 20)
#    0.000    1.750    1.250    4.125    0.000    6.500 
#    0.000    1.875    0.000    1.500    0.000    0.000 
#    0.000    0.000    0.000    0.000    0.000    0.000 
#
# Total GULP energy -396425.017068 kJ/mol
# GULP energy per Si atom -12388.281783 kJ/mol
# Density = 2.083661 g / cm^3
# Si number density = 20.884138 Si / 1000 Ang^3
#
#
#
# Elastic Constant Matrix: (Units=GPa)
#
#
# Indices 1 2 3 4 5 6 
#
# 1 128.3011 56.4384 46.2920 0.0000 0.0000 0.0000
# 2 56.4384 127.2888 48.7512 0.0000 0.0000 0.0000
# 3 46.2920 48.7512 85.4630 0.0000 0.0000 0.0000
# 4 0.0000 0.0000 0.0000 24.7113 0.0000 0.0000
# 5 0.0000 0.0000 0.0000 0.0000 22.0880 0.0000
# 6 0.0000 0.0000 0.0000 0.0000 0.0000 35.3921
#
#
#
# Elastic Compliance Matrix: (Units=1/GPa)
#
#
# Indices 1 2 3 4 5 6 
#
# 1 0.010620 -0.003206 -0.003924 0.000000 0.000000 0.000000
# 2 -0.003206 0.011020 -0.004550 0.000000 0.000000 0.000000
# 3 -0.003924 -0.004550 0.016422 0.000000 0.000000 0.000000
# 4 0.000000 0.000000 0.000000 0.040467 0.000000 0.000000
# 5 0.000000 0.000000 0.000000 0.000000 0.045273 0.000000
# 6 0.000000 0.000000 0.000000 0.000000 0.000000 0.028255
#
#
# Mechanical properties :
#
#
# Convention : Reuss Voigt Hill
#
# Bulk Modulus (GPa) = 68.01319 71.55733 69.78526
# Shear Modulus (GPa) = 27.72884 29.07636 28.40260
#
# Velocity S-wave (km/s) = 3.64778 3.73536 3.69183
# Velocity P-wave (km/s) = 7.09784 7.27614 7.18754
#
# Compressibility (1/GPa) = 0.01470303
#
# Stress axis : x y z
#
# Youngs Moduli (GPa) = 94.16027 90.74215 60.89547
#
# Poissons Ratio (x) = 0.29093 0.23893
# Poissons Ratio (y) = 0.30189 0.27706
# Poissons Ratio (z) = 0.36945 0.41285
#
# Static dielectric constant tensor:
#      x y z
#    x 3.939170 0.000000 0.000000 
#    y 0.000000 4.007080 0.000000 
#    z 0.000000 0.000000 3.615380 
# 
# 
# High freq. dielectric constant tensor:
#      x y z
#    x 1.821320 0.000000 0.000000 
#    y 0.000000 1.829960 0.000000 
#    z 0.000000 0.000000 1.794840 
# 
# From -- ./inp_files/23226.got.cif
#   From: 2010.03.12/outbox.cif.g09.slc.cpg/sg46_12_cif.got.tgz:23226.got - 2010.04.14 02:56:35.
