data_PCOD8191731
_publ_section_title
;
Structure prediction by ZEFSAII (Michael W. Deem and Ramdas Pophale) SiO2 
 PCOD8191731
Probable space group: I M A 2
;
_chemical_formula_sum "Si O2"
_cell_formula_units_Z 56
_cell_length_a 9.596721
_cell_length_b 15.103217
_cell_length_c 19.670400
_cell_angle_alpha 90.000000
_cell_angle_beta 90.000000
_cell_angle_gamma 90.000000
_cell_volume 2851.054523
_symmetry_space_group_name_H-M "I M A 2"
_symmetry_group_IT_number 46
_symmetry_cell_setting 'orthorhombic'
loop_
_space_group_symop_operation_xyz
x,y,z
-x,-y,z
1/2-x,y,z
1/2+x,-y,z
1/2+x,1/2+y,1/2+z
1/2-x,1/2-y,1/2+z
-x,1/2+y,1/2+z
x,1/2-y,1/2+z
loop_
_atom_site_type_symbol
_atom_site_label
_atom_site_fract_x
_atom_site_fract_y
_atom_site_fract_z
Si Si1 0.904962 0.241408 0.402410
Si Si2 0.092061 0.077787 0.386296
Si Si3 0.088054 0.587346 0.134870
Si Si4 0.406806 0.078043 0.094927
Si Si5 0.905704 0.235393 0.055754
Si Si6 0.089626 0.704425 0.257671
Si Si7 0.598826 0.869045 0.239409
O O1 0.750000 0.199341 0.389731
O O2 0.907181 0.286791 0.475449
O O3 0.936161 0.309557 0.339292
O O4 0.026570 0.170418 0.407187
O O5 0.250000 0.071696 0.413849
O O6 0.082831 0.069003 0.305077
O O7 0.000000 0.000000 0.419673
O O8 0.250000 0.560181 0.135122
O O9 0.060074 0.663124 0.077438
O O10 0.039587 0.622931 0.209988
O O11 0.000000 0.500000 0.116534
O O12 0.250000 0.075283 0.064047
O O13 0.475103 0.173731 0.085490
O O14 0.403835 0.064173 0.175928
O O15 0.500000 0.000000 0.061512
O O16 0.750000 0.212100 0.083393
O O17 0.250000 0.719263 0.240663
O O18 0.017619 0.794325 0.233760
O O19 0.750000 0.820501 0.242646
#
# Coordination Sequence:
#
# PCOD8191731 Si02
#       7
#     8   8   8   8   8   8   8
#     4   9  19  35  56  77 104 144 183 228 286 342
#     4  10  19  31  48  74 108 141 178 221 268 328
#     4  10  21  36  57  84 113 149 191 235 285 337
#     4  11  22  35  55  82 111 144 182 225 279 335
#     4  10  21  39  58  81 114 148 186 235 288 343
#     4   9  17  33  56  80 106 140 182 226 277 331
#     4   9  18  31  50  78 108 138 173 218 269 322
#
# _framework density 19.641853999999999
#
# number of rings (size 3 to 8) (size 9 to 14) (size 15 to 20)
#    0.000    2.286    1.429    1.286    0.000    3.429 
#    0.000    2.143    0.000    1.714    0.000    0.000 
#    0.000    0.000    0.000    0.000    0.000    0.000 
#
# Total GULP energy -346920.654188 kJ/mol
# GULP energy per Si atom -12390.023364 kJ/mol
# Density = 1.959715 g / cm^3
# Si number density = 19.641854 Si / 1000 Ang^3
#
#
#
# Elastic Constant Matrix: (Units=GPa)
#
#
# Indices 1 2 3 4 5 6 
#
# 1 115.5206 47.1339 12.2562 0.0000 0.0000 0.0000
# 2 47.1339 72.9154 12.4202 0.0000 0.0000 0.0000
# 3 12.2562 12.4202 77.2196 0.0000 0.0000 0.0000
# 4 0.0000 0.0000 0.0000 12.9436 0.0000 0.0000
# 5 0.0000 0.0000 0.0000 0.0000 17.2208 0.0000
# 6 0.0000 0.0000 0.0000 0.0000 0.0000 34.4917
#
#
#
# Elastic Compliance Matrix: (Units=1/GPa)
#
#
# Indices 1 2 3 4 5 6 
#
# 1 0.011790 -0.007509 -0.000664 0.000000 0.000000 0.000000
# 2 -0.007509 0.018882 -0.001845 0.000000 0.000000 0.000000
# 3 -0.000664 -0.001845 0.013352 0.000000 0.000000 0.000000
# 4 0.000000 0.000000 0.000000 0.077258 0.000000 0.000000
# 5 0.000000 0.000000 0.000000 0.000000 0.058069 0.000000
# 6 0.000000 0.000000 0.000000 0.000000 0.000000 0.028992
#
#
# Mechanical properties :
#
#
# Convention : Reuss Voigt Hill
#
# Bulk Modulus (GPa) = 41.68393 45.47512 43.57953
# Shear Modulus (GPa) = 21.15264 25.85424 23.50344
#
# Velocity S-wave (km/s) = 3.28520 3.63200 3.46294
# Velocity P-wave (km/s) = 5.97144 6.38678 6.18260
#
# Compressibility (1/GPa) = 0.02399006
#
# Stress axis : x y z
#
# Youngs Moduli (GPa) = 84.81441 52.95913 74.89386
#
# Poissons Ratio (x) = 0.39764 0.04971
# Poissons Ratio (y) = 0.63683 0.13821
# Poissons Ratio (z) = 0.05629 0.09773
#
# Static dielectric constant tensor:
#      x y z
#    x 3.763810 0.000000 0.000000 
#    y 0.000000 3.107960 0.000000 
#    z 0.000000 0.000000 3.712590 
# 
# 
# High freq. dielectric constant tensor:
#      x y z
#    x 1.776550 0.000000 0.000000 
#    y 0.000000 1.725210 0.000000 
#    z 0.000000 0.000000 1.761080 
# 
# From -- ./inp_files/21034.got.cif
#   From: 2010.03.12/outbox.cif.g09.slc.cpg/sg46_11_cif.got.tgz:21034.got - 2010.04.14 02:56:35.
