data_PCOD8191261
_publ_section_title
;
Structure prediction by ZEFSAII (Michael W. Deem and Ramdas Pophale) SiO2 
 PCOD8191261
Probable space group: I M A 2
;
_chemical_formula_sum "Si O2"
_cell_formula_units_Z 64
_cell_length_a 20.394953
_cell_length_b 18.153125
_cell_length_c 8.715539
_cell_angle_alpha 90.000000
_cell_angle_beta 90.000000
_cell_angle_gamma 90.000000
_cell_volume 3226.772578
_symmetry_space_group_name_H-M "I M A 2"
_symmetry_group_IT_number 46
_symmetry_cell_setting 'orthorhombic'
loop_
_space_group_symop_operation_xyz
x,y,z
-x,-y,z
1/2-x,y,z
1/2+x,-y,z
1/2+x,1/2+y,1/2+z
1/2-x,1/2-y,1/2+z
-x,1/2+y,1/2+z
x,1/2-y,1/2+z
loop_
_atom_site_type_symbol
_atom_site_label
_atom_site_fract_x
_atom_site_fract_y
_atom_site_fract_z
Si Si1 0.981465 0.682661 0.538160
Si Si2 0.676339 0.157384 0.925137
Si Si3 0.673496 0.511121 0.858101
Si Si4 0.410653 0.598802 0.678300
Si Si5 0.323066 0.897899 0.613730
Si Si6 0.409304 0.710486 0.942450
Si Si7 0.825669 0.670060 0.976738
Si Si8 0.398639 0.226114 0.762027
O O1 0.935609 0.705078 0.681183
O O2 0.943396 0.675543 0.375304
O O3 0.022961 0.605890 0.571741
O O4 0.028494 0.753330 0.523318
O O5 0.750000 0.183382 0.949265
O O6 0.670431 0.091819 0.797945
O O7 0.635862 0.227459 0.865107
O O8 0.651271 0.129439 0.087568
O O9 0.750000 0.499429 0.802710
O O10 0.617242 0.479804 0.740222
O O11 0.657929 0.596347 0.881986
O O12 0.661692 0.472770 0.022946
O O13 0.430927 0.652525 0.815070
O O14 0.250000 0.871443 0.571300
O O15 0.370949 0.831954 0.573755
O O16 0.750000 0.673052 0.023932
O O17 0.841845 0.738517 0.866876
O O18 0.867886 0.672844 0.133212
#
# Coordination Sequence:
#
# PCOD8191261 Si02
#       8
#     8   8   8   8   8   8   8   8
#     4  10  19  34  53  84 117 154 191 235 284 341
#     4  10  18  26  41  72 109 149 202 252 279 309
#     4   9  19  37  58  81 115 155 195 235 288 352
#     4  10  19  31  51  78 113 160 198 230 279 339
#     4   9  18  30  46  73 111 153 196 240 280 332
#     4  10  18  28  47  72 105 156 201 237 277 327
#     4  10  21  41  68  94 112 137 184 250 321 374
#     4  10  21  37  63  90 116 139 186 242 306 358
#
# _framework density 19.834057999999999
#
# number of rings (size 3 to 8) (size 9 to 14) (size 15 to 20)
#    0.000    2.250    1.250    2.625    1.750    2.500 
#    0.000    3.125    0.000    9.000    0.000    0.000 
#    0.000    0.000    0.000    0.000    0.000    0.000 
#
# Total GULP energy -396430.497850 kJ/mol
# GULP energy per Si atom -12388.453058 kJ/mol
# Density = 1.978891 g / cm^3
# Si number density = 19.834058 Si / 1000 Ang^3
#
#
#
# Elastic Constant Matrix: (Units=GPa)
#
#
# Indices 1 2 3 4 5 6 
#
# 1 92.5609 34.6146 35.6332 0.0000 0.0000 0.0000
# 2 34.6146 67.4070 22.3302 0.0000 0.0000 0.0000
# 3 35.6332 22.3302 81.8956 0.0000 0.0000 0.0000
# 4 0.0000 0.0000 0.0000 20.1103 0.0000 0.0000
# 5 0.0000 0.0000 0.0000 0.0000 33.2942 0.0000
# 6 0.0000 0.0000 0.0000 0.0000 0.0000 24.8874
#
#
#
# Elastic Compliance Matrix: (Units=1/GPa)
#
#
# Indices 1 2 3 4 5 6 
#
# 1 0.014937 -0.006065 -0.004845 0.000000 0.000000 0.000000
# 2 -0.006065 0.018771 -0.002479 0.000000 0.000000 0.000000
# 3 -0.004845 -0.002479 0.014995 0.000000 0.000000 0.000000
# 4 0.000000 0.000000 0.000000 0.049726 0.000000 0.000000
# 5 0.000000 0.000000 0.000000 0.000000 0.030035 0.000000
# 6 0.000000 0.000000 0.000000 0.000000 0.000000 0.040181
#
#
# Mechanical properties :
#
#
# Convention : Reuss Voigt Hill
#
# Bulk Modulus (GPa) = 45.61344 47.44662 46.53003
# Shear Modulus (GPa) = 24.66293 25.61075 25.13684
#
# Velocity S-wave (km/s) = 3.53010 3.59730 3.56386
# Velocity P-wave (km/s) = 6.29785 6.42089 6.35967
#
# Compressibility (1/GPa) = 0.02192336
#
# Stress axis : x y z
#
# Youngs Moduli (GPa) = 66.94653 53.27306 66.68909
#
# Poissons Ratio (x) = 0.32312 0.32314
# Poissons Ratio (y) = 0.40605 0.16534
# Poissons Ratio (z) = 0.32439 0.13208
#
# Static dielectric constant tensor:
#      x y z
#    x 3.710910 0.000000 0.000000 
#    y 0.000000 3.236180 0.000000 
#    z 0.000000 0.000000 3.694880 
# 
# 
# High freq. dielectric constant tensor:
#      x y z
#    x 1.776930 0.000000 0.000000 
#    y 0.000000 1.728620 0.000000 
#    z 0.000000 0.000000 1.782110 
# 
# From -- ./inp_files/7575.got.cif
#   From: 2010.03.12/outbox.cif.g09.slc.cpg/sg46_4_cif.got.tgz:7575.got - 2010.04.14 02:56:35.
