data_PCOD8191931
_publ_section_title
;
Structure prediction by ZEFSAII (Michael W. Deem and Ramdas Pophale) SiO2 
 PCOD8191931
Probable space group: I M A 2
;
_chemical_formula_sum "Si O2"
_cell_formula_units_Z 64
_cell_length_a 8.495998
_cell_length_b 23.292532
_cell_length_c 19.020217
_cell_angle_alpha 90.000000
_cell_angle_beta 90.000000
_cell_angle_gamma 90.000000
_cell_volume 3763.973609
_symmetry_space_group_name_H-M "I M A 2"
_symmetry_group_IT_number 46
_symmetry_cell_setting 'orthorhombic'
loop_
_space_group_symop_operation_xyz
x,y,z
-x,-y,z
1/2-x,y,z
1/2+x,-y,z
1/2+x,1/2+y,1/2+z
1/2-x,1/2-y,1/2+z
-x,1/2+y,1/2+z
x,1/2-y,1/2+z
loop_
_atom_site_type_symbol
_atom_site_label
_atom_site_fract_x
_atom_site_fract_y
_atom_site_fract_z
Si Si1 0.934363 0.655329 0.934320
Si Si2 0.434430 0.831002 0.981679
Si Si3 0.065207 0.938445 0.062774
Si Si4 0.937091 0.219110 0.561313
Si Si5 0.434245 0.761241 0.852243
Si Si6 0.434678 0.936994 0.339449
Si Si7 0.934357 0.616581 0.699399
Si Si8 0.564398 0.751784 0.204309
O O1 0.750000 0.642592 0.934113
O O2 0.969692 0.706960 0.880527
O O3 0.027643 0.598995 0.909432
O O4 0.992753 0.668660 0.013143
O O5 0.250000 0.834178 0.993892
O O6 0.507695 0.891233 0.008340
O O7 0.499826 0.779390 0.029903
O O8 0.474549 0.817207 0.900202
O O9 0.250000 0.941610 0.056014
O O10 0.022279 0.921839 0.142098
O O11 0.000000 0.000000 0.041225
O O12 0.750000 0.214769 0.561272
O O13 0.004532 0.213251 0.639692
O O14 0.250000 0.746213 0.857930
O O15 0.483845 0.775229 0.773168
O O16 0.250000 0.938364 0.323784
O O17 0.524616 0.907387 0.275326
O O18 0.500000 0.000000 0.351523
O O19 0.750000 0.611393 0.685720
O O20 0.991313 0.682487 0.694190
O O21 0.750000 0.747333 0.212475
#
# Coordination Sequence:
#
# PCOD8191931 Si02
#       8
#     8   8   8   8   8   8   8   8
#     4  11  21  35  52  76 105 134 170 216 262 308
#     4   8  17  32  50  71  96 128 169 211 252 299
#     4  11  21  35  51  71 100 137 178 218 256 302
#     4  10  19  34  54  75 100 135 174 211 257 312
#     4  10  19  33  53  75  99 134 173 211 259 314
#     4  12  24  38  55  74 101 140 181 219 259 305
#     4  11  22  35  49  72 105 140 178 214 253 304
#     4  11  21  32  50  78 108 137 169 212 262 311
#
# _framework density 17.003307
#
# number of rings (size 3 to 8) (size 9 to 14) (size 15 to 20)
#    0.000    1.500    2.500    5.250    0.000    1.000 
#    0.000    1.875    0.000    0.000    0.000    0.875 
#    0.000    2.000    0.000    0.000    0.000    0.000 
#
# Total GULP energy -396860.632451 kJ/mol
# GULP energy per Si atom -12401.894764 kJ/mol
# Density = 1.696461 g / cm^3
# Si number density = 17.003307 Si / 1000 Ang^3
#
#
#
# Elastic Constant Matrix: (Units=GPa)
#
#
# Indices 1 2 3 4 5 6 
#
# 1 52.1193 20.6000 15.2556 0.0000 0.0000 0.0000
# 2 20.6000 73.9826 40.2799 0.0000 0.0000 0.0000
# 3 15.2556 40.2799 110.9802 0.0000 0.0000 0.0000
# 4 0.0000 0.0000 0.0000 24.6574 0.0000 0.0000
# 5 0.0000 0.0000 0.0000 0.0000 26.5522 0.0000
# 6 0.0000 0.0000 0.0000 0.0000 0.0000 22.7708
#
#
#
# Elastic Compliance Matrix: (Units=1/GPa)
#
#
# Indices 1 2 3 4 5 6 
#
# 1 0.021645 -0.005492 -0.000982 0.000000 0.000000 0.000000
# 2 -0.005492 0.018239 -0.005865 0.000000 0.000000 0.000000
# 3 -0.000982 -0.005865 0.011274 0.000000 0.000000 0.000000
# 4 0.000000 0.000000 0.000000 0.040556 0.000000 0.000000
# 5 0.000000 0.000000 0.000000 0.000000 0.037662 0.000000
# 6 0.000000 0.000000 0.000000 0.000000 0.000000 0.043916
#
#
# Mechanical properties :
#
#
# Convention : Reuss Voigt Hill
#
# Bulk Modulus (GPa) = 37.76413 43.26144 40.51278
# Shear Modulus (GPa) = 24.17837 25.52587 24.85212
#
# Velocity S-wave (km/s) = 3.77501 3.87877 3.82724
# Velocity P-wave (km/s) = 6.42332 6.74967 6.58851
#
# Compressibility (1/GPa) = 0.02648016
#
# Stress axis : x y z
#
# Youngs Moduli (GPa) = 46.20005 54.82732 88.69792
#
# Poissons Ratio (x) = 0.30113 0.08710
# Poissons Ratio (y) = 0.25374 0.52020
# Poissons Ratio (z) = 0.04537 0.32155
#
# Static dielectric constant tensor:
#      x y z
#    x 3.172020 0.000000 0.000000 
#    y 0.000000 3.221520 0.000000 
#    z 0.000000 0.000000 3.295610 
# 
# 
# High freq. dielectric constant tensor:
#      x y z
#    x 1.664710 0.000000 0.000000 
#    y 0.000000 1.628510 0.000000 
#    z 0.000000 0.000000 1.653130 
# 
# From -- ./inp_files/18541.got.cif
#   From: 2010.03.12/outbox.cif.g09.slc.cpg/sg46_10_cif.got.tgz:18541.got - 2010.04.14 02:56:35.
