data_PCOD8191463
_publ_section_title
;
Structure prediction by ZEFSAII (Michael W. Deem and Ramdas Pophale) SiO2 
 PCOD8191463
Probable space group: I M A 2
;
_chemical_formula_sum "Si O2"
_cell_formula_units_Z 64
_cell_length_a 8.572254
_cell_length_b 16.495805
_cell_length_c 22.504910
_cell_angle_alpha 90.000000
_cell_angle_beta 90.000000
_cell_angle_gamma 90.000000
_cell_volume 3182.334488
_symmetry_space_group_name_H-M "I M A 2"
_symmetry_group_IT_number 46
_symmetry_cell_setting 'orthorhombic'
loop_
_space_group_symop_operation_xyz
x,y,z
-x,-y,z
1/2-x,y,z
1/2+x,-y,z
1/2+x,1/2+y,1/2+z
1/2-x,1/2-y,1/2+z
-x,1/2+y,1/2+z
x,1/2-y,1/2+z
loop_
_atom_site_type_symbol
_atom_site_label
_atom_site_fract_x
_atom_site_fract_y
_atom_site_fract_z
Si Si1 0.566912 0.086004 0.584610
Si Si2 0.424496 0.208598 0.911651
Si Si3 0.932272 0.420593 0.832242
Si Si4 0.931433 0.763694 0.289056
Si Si5 0.063065 0.081287 0.999713
Si Si6 0.933695 0.087109 0.129341
Si Si7 0.574289 0.884224 0.458054
Si Si8 0.069338 0.237595 0.658617
O O1 0.750000 0.084326 0.593764
O O2 0.527067 0.091157 0.514977
O O3 0.505804 0.166479 0.619017
O O4 0.500000 0.000000 0.609950
O O5 0.250000 0.177254 0.901025
O O6 0.502737 0.216094 0.846302
O O7 0.427257 0.288562 0.951158
O O8 0.509243 0.144697 0.953289
O O9 0.750000 0.423826 0.839304
O O10 0.000000 0.500000 0.799900
O O11 0.979160 0.348817 0.787854
O O12 0.005412 0.420068 0.897900
O O13 0.750000 0.783120 0.301595
O O14 0.954086 0.713659 0.228252
O O15 0.250000 0.085420 0.009597
O O16 0.973371 0.093967 0.060637
O O17 0.000000 0.000000 0.970384
O O18 0.750000 0.086144 0.140720
O O19 0.001877 0.171059 0.155613
O O20 0.000000 0.000000 0.154320
O O21 0.750000 0.916876 0.467768
O O22 0.250000 0.241656 0.640549
#
# Coordination Sequence:
#
# PCOD8191463 Si02
#       8
#     8   8   8   8   8   8   8   8
#     4  12  25  41  61  87 118 153 197 245 296 352
#     4   8  16  32  55  79 105 140 178 220 272 332
#     4  11  21  34  54  82 116 149 183 225 278 339
#     4   9  20  39  59  78 104 143 190 234 279 335
#     4  10  18  31  52  79 111 142 177 222 277 337
#     4  11  22  37  58  86 120 154 192 236 286 348
#     4  10  19  35  58  84 114 147 186 231 285 345
#     4  11  23  41  63  85 114 154 198 245 296 348
#
# _framework density 20.111021999999998
#
# number of rings (size 3 to 8) (size 9 to 14) (size 15 to 20)
#    0.000    1.750    0.000    7.125    0.000    2.500 
#    0.000    6.250    0.000    1.500    0.000    0.000 
#    0.000    0.000    0.000    0.000    0.000    0.000 
#
# Total GULP energy -396450.555735 kJ/mol
# GULP energy per Si atom -12389.079867 kJ/mol
# Density = 2.006525 g / cm^3
# Si number density = 20.111022 Si / 1000 Ang^3
#
#
#
# Elastic Constant Matrix: (Units=GPa)
#
#
# Indices 1 2 3 4 5 6 
#
# 1 120.7922 39.3448 21.6112 0.0000 0.0000 0.0000
# 2 39.3448 92.7032 38.4233 0.0000 0.0000 0.0000
# 3 21.6112 38.4233 64.6849 0.0000 0.0000 0.0000
# 4 0.0000 0.0000 0.0000 8.3161 0.0000 0.0000
# 5 0.0000 0.0000 0.0000 0.0000 21.6887 0.0000
# 6 0.0000 0.0000 0.0000 0.0000 0.0000 30.7928
#
#
#
# Elastic Compliance Matrix: (Units=1/GPa)
#
#
# Indices 1 2 3 4 5 6 
#
# 1 0.009660 -0.003664 -0.001051 0.000000 0.000000 0.000000
# 2 -0.003664 0.015700 -0.008102 0.000000 0.000000 0.000000
# 3 -0.001051 -0.008102 0.020623 0.000000 0.000000 0.000000
# 4 0.000000 0.000000 0.000000 0.120249 0.000000 0.000000
# 5 0.000000 0.000000 0.000000 0.000000 0.046107 0.000000
# 6 0.000000 0.000000 0.000000 0.000000 0.000000 0.032475
#
#
# Mechanical properties :
#
#
# Convention : Reuss Voigt Hill
#
# Bulk Modulus (GPa) = 49.14085 52.99322 51.06703
# Shear Modulus (GPa) = 18.03540 24.07957 21.05748
#
# Velocity S-wave (km/s) = 2.99790 3.46400 3.23934
# Velocity P-wave (km/s) = 6.03912 6.51204 6.28003
#
# Compressibility (1/GPa) = 0.02034967
#
# Stress axis : x y z
#
# Youngs Moduli (GPa) = 103.51668 63.69254 48.48906
#
# Poissons Ratio (x) = 0.23340 0.05095
# Poissons Ratio (y) = 0.37933 0.39285
# Poissons Ratio (z) = 0.10877 0.51603
#
# Static dielectric constant tensor:
#      x y z
#    x 3.647270 0.000000 0.000000 
#    y 0.000000 3.709920 0.000000 
#    z 0.000000 0.000000 3.714750 
# 
# 
# High freq. dielectric constant tensor:
#      x y z
#    x 1.781340 0.000000 0.000000 
#    y 0.000000 1.788280 0.000000 
#    z 0.000000 0.000000 1.782820 
# 
# From -- ./inp_files/23191.got.cif
#   From: 2010.03.12/outbox.cif.g09.slc.cpg/sg46_12_cif.got.tgz:23191.got - 2010.04.14 02:56:35.
