data_PCOD8191045
_publ_section_title
;
Structure prediction by ZEFSAII (Michael W. Deem and Ramdas Pophale) SiO2 
 PCOD8191045
Probable space group: I B A 2
;
_chemical_formula_sum "Si O2"
_cell_formula_units_Z 48
_cell_length_a 17.481720
_cell_length_b 14.263178
_cell_length_c 8.717132
_cell_angle_alpha 90.000000
_cell_angle_beta 90.000000
_cell_angle_gamma 90.000000
_cell_volume 2173.572268
_symmetry_space_group_name_H-M "I B A 2"
_symmetry_group_IT_number 45
_symmetry_cell_setting 'orthorhombic'
loop_
_space_group_symop_operation_xyz
x,y,z
-x,-y,z
-x,y,1/2+z
x,-y,1/2+z
1/2+x,1/2+y,1/2+z
1/2-x,1/2-y,1/2+z
1/2-x,1/2+y,z
1/2+x,1/2-y,z
loop_
_atom_site_type_symbol
_atom_site_label
_atom_site_fract_x
_atom_site_fract_y
_atom_site_fract_z
Si Si1 0.412705 0.528901 0.304800
Si Si2 0.582933 0.958539 0.364540
Si Si3 0.160426 0.104141 0.017203
Si Si4 0.070731 0.720704 0.567267
Si Si5 0.835318 0.392840 0.058888
Si Si6 0.083412 0.768383 0.913211
O O1 0.500000 0.500000 0.330069
O O2 0.354371 0.446017 0.354277
O O3 0.398642 0.548975 0.126665
O O4 0.391176 0.624298 0.395139
O O5 0.578461 0.883417 0.501817
O O6 0.618186 0.912042 0.213640
O O7 0.500000 0.000000 0.324507
O O8 0.637533 0.040654 0.421696
O O9 0.140772 0.214487 0.008506
O O10 0.245521 0.092763 0.082001
O O11 0.068907 0.716142 0.751316
O O12 0.993125 0.768204 0.511966
O O13 0.850574 0.286084 0.006064
#
# Coordination Sequence:
#
# PCOD8191045 Si02
#       6
#     8   8   8   8   8   8
#     4  11  23  44  73 100 137 181 234 279 338 415
#     4  12  25  44  72  98 136 184 232 281 337 417
#     4  11  26  43  69 104 140 180 224 289 348 399
#     4  11  24  43  68 100 133 181 232 277 342 404
#     4  12  26  44  67 104 142 176 229 286 348 405
#     4  11  24  42  69 100 134 180 229 280 337 410
#
# _framework density 22.083462000000001
#
# number of rings (size 3 to 8) (size 9 to 14) (size 15 to 20)
#    0.000    0.667    3.333    4.000    2.333    5.333 
#    0.000    0.000    0.000    0.000    0.000    0.000 
#    0.000    0.000    0.000    0.000    0.000    0.000 
#
# Total GULP energy -297719.869085 kJ/mol
# GULP energy per Si atom -12404.994545 kJ/mol
# Density = 2.203320 g / cm^3
# Si number density = 22.083462 Si / 1000 Ang^3
#
#
#
# Elastic Constant Matrix: (Units=GPa)
#
#
# Indices 1 2 3 4 5 6 
#
# 1 124.7084 37.6588 24.9860 0.0000 0.0000 0.0000
# 2 37.6588 86.2226 22.8024 0.0000 0.0000 0.0000
# 3 24.9860 22.8024 76.4527 0.0000 0.0000 0.0000
# 4 0.0000 0.0000 0.0000 37.8237 0.0000 0.0000
# 5 0.0000 0.0000 0.0000 0.0000 22.3163 0.0000
# 6 0.0000 0.0000 0.0000 0.0000 0.0000 34.6432
#
#
#
# Elastic Compliance Matrix: (Units=1/GPa)
#
#
# Indices 1 2 3 4 5 6 
#
# 1 0.009519 -0.003620 -0.002031 0.000000 0.000000 0.000000
# 2 -0.003620 0.013968 -0.002983 0.000000 0.000000 0.000000
# 3 -0.002031 -0.002983 0.014633 0.000000 0.000000 0.000000
# 4 0.000000 0.000000 0.000000 0.026438 0.000000 0.000000
# 5 0.000000 0.000000 0.000000 0.000000 0.044810 0.000000
# 6 0.000000 0.000000 0.000000 0.000000 0.000000 0.028866
#
#
# Mechanical properties :
#
#
# Convention : Reuss Voigt Hill
#
# Bulk Modulus (GPa) = 47.95779 50.91978 49.43879
# Shear Modulus (GPa) = 30.77797 32.41909 31.59853
#
# Velocity S-wave (km/s) = 3.73729 3.83564 3.78679
# Velocity P-wave (km/s) = 6.35507 6.53637 6.44636
#
# Compressibility (1/GPa) = 0.02085167
#
# Stress axis : x y z
#
# Youngs Moduli (GPa) = 105.05402 71.59249 68.33662
#
# Poissons Ratio (x) = 0.25919 0.13880
# Poissons Ratio (y) = 0.38033 0.20384
# Poissons Ratio (z) = 0.21338 0.21355
#
# Static dielectric constant tensor:
#      x y z
#    x 3.800970 0.000000 0.000000 
#    y 0.000000 4.212440 0.000000 
#    z 0.000000 0.000000 3.990450 
# 
# 
# High freq. dielectric constant tensor:
#      x y z
#    x 1.857860 0.000000 0.000000 
#    y 0.000000 1.884330 0.000000 
#    z 0.000000 0.000000 1.876290 
# 
# From -- ./inp_files/1723.got.cif
#   From: 2010.03.12/outbox.cif.g09.slc.cpg/sg45_1_cif.got.tgz:1723.got - 2010.04.14 02:50:11.
