data_PCOD8191181
_publ_section_title
;
Structure prediction by ZEFSAII (Michael W. Deem and Ramdas Pophale) SiO2 
 PCOD8191181
Probable space group: I M A 2
;
_chemical_formula_sum "Si O2"
_cell_formula_units_Z 56
_cell_length_a 8.638463
_cell_length_b 22.272281
_cell_length_c 17.878356
_cell_angle_alpha 90.000000
_cell_angle_beta 90.000000
_cell_angle_gamma 90.000000
_cell_volume 3439.764860
_symmetry_space_group_name_H-M "I M A 2"
_symmetry_group_IT_number 46
_symmetry_cell_setting 'orthorhombic'
loop_
_space_group_symop_operation_xyz
x,y,z
-x,-y,z
1/2-x,y,z
1/2+x,-y,z
1/2+x,1/2+y,1/2+z
1/2-x,1/2-y,1/2+z
-x,1/2+y,1/2+z
x,1/2-y,1/2+z
loop_
_atom_site_type_symbol
_atom_site_label
_atom_site_fract_x
_atom_site_fract_y
_atom_site_fract_z
Si Si1 0.567858 0.565413 0.506460
Si Si2 0.931994 0.284113 0.096990
Si Si3 0.933306 0.842523 0.133559
Si Si4 0.080103 0.179928 0.290092
Si Si5 0.431722 0.843501 0.895112
Si Si6 0.434999 0.218732 0.443135
Si Si7 0.078172 0.317889 0.244990
O O1 0.500000 0.500000 0.517358
O O2 0.750000 0.563597 0.490713
O O3 0.528916 0.600352 0.583152
O O4 0.483020 0.596087 0.436701
O O5 0.750000 0.289527 0.100705
O O6 0.980782 0.214739 0.099845
O O7 0.001460 0.324829 0.163334
O O8 0.993619 0.309837 0.017885
O O9 0.750000 0.828026 0.136120
O O10 0.996506 0.855093 0.219268
O O11 0.250000 0.152645 0.302369
O O12 0.997519 0.179956 0.371738
O O13 0.088751 0.248359 0.263943
O O14 0.250000 0.833039 0.902721
O O15 0.519061 0.788200 0.934101
O O16 0.476480 0.851204 0.807920
O O17 0.250000 0.216007 0.445283
O O18 0.250000 0.346355 0.243444
#
# Coordination Sequence:
#
# PCOD8191181 Si02
#       7
#     8   8   8   8   8   8   8
#     4  11  22  34  49  66  89 121 160 199 237 275
#     4  11  19  26  41  66  93 119 151 188 224 266
#     4   9  17  31  47  60  82 118 155 189 230 275
#     4   7  13  25  42  61  79 108 149 183 213 264
#     4  11  20  31  46  65  89 115 151 194 235 273
#     4  10  17  27  43  63  90 123 153 180 221 275
#     4   9  17  30  45  61  85 118 152 181 222 277
#
# _framework density 16.280183000000001
#
# number of rings (size 3 to 8) (size 9 to 14) (size 15 to 20)
#    0.000    2.286    1.429    5.571    0.000    0.571 
#    0.000    0.714    0.000    0.000    0.000    0.000 
#    0.000    1.143    0.000    8.000    0.000    3.714 
#
# Total GULP energy -346955.942519 kJ/mol
# GULP energy per Si atom -12391.283661 kJ/mol
# Density = 1.624313 g / cm^3
# Si number density = 16.280183 Si / 1000 Ang^3
#
#
#
# Elastic Constant Matrix: (Units=GPa)
#
#
# Indices 1 2 3 4 5 6 
#
# 1 80.0619 11.7200 37.3171 0.0000 0.0000 0.0000
# 2 11.7200 39.2207 33.3286 0.0000 0.0000 0.0000
# 3 37.3171 33.3286 166.0519 -0.0001 0.0000 0.0000
# 4 0.0000 0.0000 -0.0001 6.0128 0.0000 0.0000
# 5 0.0000 0.0000 0.0000 0.0000 22.8134 0.0000
# 6 0.0000 0.0000 0.0000 0.0000 0.0000 15.3703
#
#
#
# Elastic Compliance Matrix: (Units=1/GPa)
#
#
# Indices 1 2 3 4 5 6 
#
# 1 0.014060 -0.001828 -0.002793 0.000000 0.000000 0.000000
# 2 -0.001828 0.030977 -0.005807 0.000000 0.000000 0.000000
# 3 -0.002793 -0.005807 0.007815 0.000000 0.000000 0.000000
# 4 0.000000 0.000000 0.000000 0.166311 0.000000 0.000000
# 5 0.000000 0.000000 0.000000 0.000000 0.043834 0.000000
# 6 0.000000 0.000000 0.000000 0.000000 0.000000 0.065061
#
#
# Mechanical properties :
#
#
# Convention : Reuss Voigt Hill
#
# Bulk Modulus (GPa) = 31.25273 50.00732 40.63003
# Shear Modulus (GPa) = 13.90516 22.37055 18.13785
#
# Velocity S-wave (km/s) = 2.92570 3.71090 3.34144
# Velocity P-wave (km/s) = 5.53637 7.01031 6.31648
#
# Compressibility (1/GPa) = 0.03199720
#
# Stress axis : x y z
#
# Youngs Moduli (GPa) = 71.12553 32.28160 127.95420
#
# Poissons Ratio (x) = 0.05902 0.35734
# Poissons Ratio (y) = 0.13003 0.74299
# Poissons Ratio (z) = 0.19863 0.18745
#
# Static dielectric constant tensor:
#      x y z
#    x 3.061560 0.000000 0.000000 
#    y 0.000000 2.541480 0.000000 
#    z 0.000000 0.000000 3.735820 
# 
# 
# High freq. dielectric constant tensor:
#      x y z
#    x 1.626620 0.000000 0.000000 
#    y 0.000000 1.545420 0.000000 
#    z 0.000000 0.000000 1.654430 
# 
# From -- ./inp_files/18447.got.cif
#   From: 2010.03.12/outbox.cif.g09.slc.cpg/sg46_10_cif.got.tgz:18447.got - 2010.04.14 02:56:35.
