data_PCOD8191676
_publ_section_title
;
Structure prediction by ZEFSAII (Michael W. Deem and Ramdas Pophale) SiO2 
 PCOD8191676
Probable space group: I M A 2
;
_chemical_formula_sum "Si O2"
_cell_formula_units_Z 56
_cell_length_a 14.040494
_cell_length_b 24.619246
_cell_length_c 9.637528
_cell_angle_alpha 90.000000
_cell_angle_beta 90.000000
_cell_angle_gamma 90.000000
_cell_volume 3331.369375
_symmetry_space_group_name_H-M "I M A 2"
_symmetry_group_IT_number 46
_symmetry_cell_setting 'orthorhombic'
loop_
_space_group_symop_operation_xyz
x,y,z
-x,-y,z
1/2-x,y,z
1/2+x,-y,z
1/2+x,1/2+y,1/2+z
1/2-x,1/2-y,1/2+z
-x,1/2+y,1/2+z
x,1/2-y,1/2+z
loop_
_atom_site_type_symbol
_atom_site_label
_atom_site_fract_x
_atom_site_fract_y
_atom_site_fract_z
Si Si1 0.454757 0.387500 0.880210
Si Si2 0.862001 0.812501 0.809678
Si Si3 0.362567 0.284936 0.001991
Si Si4 0.638346 0.931784 0.868104
Si Si5 0.358242 0.941497 0.360652
Si Si6 0.137339 0.461179 0.665407
Si Si7 0.357714 0.031196 0.577211
O O1 0.421852 0.326760 0.908188
O O2 0.569937 0.390555 0.862029
O O3 0.404721 0.408634 0.741321
O O4 0.427128 0.425457 0.008950
O O5 0.750000 0.818076 0.796711
O O6 0.889399 0.773644 0.938213
O O7 0.897848 0.788445 0.661598
O O8 0.906846 0.872020 0.839235
O O9 0.250000 0.296915 0.986985
O O10 0.750000 0.923954 0.889794
O O11 0.615864 0.972187 0.740044
O O12 0.598073 0.959634 0.007832
O O13 0.250000 0.921077 0.336068
O O14 0.393538 0.982675 0.239376
O O15 0.367201 0.972250 0.508378
O O16 0.250000 0.456563 0.677168
O O17 0.250000 0.053459 0.558227
#
# Coordination Sequence:
#
# PCOD8191676 Si02
#       7
#     8   8   8   8   8   8   8
#     4  11  18  29  46  65  89 124 157 192 224 267
#     4   9  18  29  42  66  98 127 149 173 211 270
#     4  10  19  30  46  68  97 125 150 179 220 272
#     4   9  16  27  43  66  99 128 146 173 217 276
#     4   9  19  33  46  63  87 119 160 200 230 267
#     4   9  17  27  44  68  96 124 150 179 222 274
#     4   9  15  27  46  67  93 121 148 178 222 276
#
# _framework density 16.809902999999998
#
# number of rings (size 3 to 8) (size 9 to 14) (size 15 to 20)
#    0.000    2.571    1.429    3.857    2.000    0.000 
#    0.000    2.857    0.000    0.000    0.000    1.000 
#    0.000    0.000    0.000    0.000    0.000    0.000 
#
# Total GULP energy -347044.746471 kJ/mol
# GULP energy per Si atom -12394.455231 kJ/mol
# Density = 1.677164 g / cm^3
# Si number density = 16.809903 Si / 1000 Ang^3
#
#
#
# Elastic Constant Matrix: (Units=GPa)
#
#
# Indices 1 2 3 4 5 6 
#
# 1 43.7052 20.0463 13.8187 0.0010 0.0001 0.0000
# 2 20.0463 42.6440 23.2482 0.0013 0.0001 0.0002
# 3 13.8187 23.2482 131.0529 0.0024 0.0002 0.0004
# 4 0.0010 0.0013 0.0024 14.8807 0.0000 0.0002
# 5 0.0001 0.0001 0.0002 0.0000 4.0625 -0.0002
# 6 0.0000 0.0002 0.0004 0.0002 -0.0002 17.8477
#
#
#
# Elastic Compliance Matrix: (Units=1/GPa)
#
#
# Indices 1 2 3 4 5 6 
#
# 1 0.029230 -0.013352 -0.000714 -0.000001 0.000000 0.000000
# 2 -0.013352 0.032059 -0.004279 -0.000001 0.000000 0.000000
# 3 -0.000714 -0.004279 0.008465 -0.000001 0.000000 0.000000
# 4 -0.000001 -0.000001 -0.000001 0.067201 0.000001 -0.000001
# 5 0.000000 0.000000 0.000000 0.000001 0.246154 0.000002
# 6 0.000000 0.000000 0.000000 -0.000001 0.000002 0.056029
#
#
# Mechanical properties :
#
#
# Convention : Reuss Voigt Hill
#
# Bulk Modulus (GPa) = 30.24326 36.84763 33.54544
# Shear Modulus (GPa) = 10.27009 18.04410 14.15710
#
# Velocity S-wave (km/s) = 2.47443 3.27986 2.90520
# Velocity P-wave (km/s) = 5.11802 6.02587 5.59041
#
# Compressibility (1/GPa) = 0.03306522
#
# Stress axis : x y z
#
# Youngs Moduli (GPa) = 34.21111 31.19218 118.13508
#
# Poissons Ratio (x) = 0.41647 0.08430
# Poissons Ratio (y) = 0.45678 0.50554
# Poissons Ratio (z) = 0.02441 0.13348
#
# Static dielectric constant tensor:
#      x y z
#    x 2.872660 0.000000 0.000000 
#    y 0.000000 2.930780 0.000000 
#    z 0.000000 0.000000 3.485030 
# 
# 
# High freq. dielectric constant tensor:
#      x y z
#    x 1.607950 0.000000 0.000000 
#    y 0.000000 1.611400 0.000000 
#    z 0.000000 0.000000 1.661860 
# 
# From -- ./inp_files/6187.got.cif
#   From: 2010.03.12/outbox.cif.g09.slc.cpg/sg46_4_cif.got.tgz:6187.got - 2010.04.14 02:56:35.
