data_PCOD8191624
_publ_section_title
;
Structure prediction by ZEFSAII (Michael W. Deem and Ramdas Pophale) SiO2 
 PCOD8191624
Probable space group: I M A 2
;
_chemical_formula_sum "Si O2"
_cell_formula_units_Z 48
_cell_length_a 9.633294
_cell_length_b 8.797308
_cell_length_c 27.171660
_cell_angle_alpha 90.000000
_cell_angle_beta 90.000000
_cell_angle_gamma 90.000000
_cell_volume 2302.718147
_symmetry_space_group_name_H-M "I M A 2"
_symmetry_group_IT_number 46
_symmetry_cell_setting 'orthorhombic'
loop_
_space_group_symop_operation_xyz
x,y,z
-x,-y,z
1/2-x,y,z
1/2+x,-y,z
1/2+x,1/2+y,1/2+z
1/2-x,1/2-y,1/2+z
-x,1/2+y,1/2+z
x,1/2-y,1/2+z
loop_
_atom_site_type_symbol
_atom_site_label
_atom_site_fract_x
_atom_site_fract_y
_atom_site_fract_z
Si Si1 0.750000 0.657436 0.596390
Si Si2 0.979093 0.177615 0.444166
Si Si3 0.913240 0.349057 0.839234
Si Si4 0.523075 0.676027 0.156545
Si Si5 0.250000 0.282766 0.993538
Si Si6 0.750000 0.195771 0.121925
Si Si7 0.911143 0.849577 0.766353
Si Si8 0.750000 0.138629 0.518231
O O1 0.615416 0.745383 0.615249
O O2 0.750000 0.663306 0.537667
O O3 0.750000 0.481811 0.610660
O O4 0.920182 0.240423 0.391822
O O5 0.880321 0.210490 0.490238
O O6 0.123055 0.256197 0.457696
O O7 0.000000 0.000000 0.438660
O O8 0.750000 0.373358 0.824830
O O9 0.000000 0.500000 0.847458
O O10 0.999984 0.270140 0.796520
O O11 0.500000 0.500000 0.142881
O O12 0.378516 0.764196 0.156619
O O13 0.594590 0.697833 0.209345
O O14 0.250000 0.454711 0.015464
O O15 0.750000 0.303629 0.074000
O O16 0.750000 0.865738 0.784646
O O17 0.000000 0.000000 0.772893
#
# Coordination Sequence:
#
# PCOD8191624 Si02
#       8
#     4   8   8   8   4   4   8   4
#     4  12  24  44  59 100 137 167 218 277 349 388
#     4   9  19  34  60  90 122 164 225 273 313 374
#     4  11  23  40  66  99 137 173 218 273 333 393
#     4  11  24  44  69  92 126 176 230 266 321 404
#     4  10  20  34  63  84 123 171 224 275 315 400
#     4  12  26  38  67  96 137 173 208 285 341 394
#     4  11  25  45  70  96 129 168 220 276 330 400
#     4  10  18  38  57  90 119 171 226 265 323 386
#
# _framework density 20.844933000000001
#
# number of rings (size 3 to 8) (size 9 to 14) (size 15 to 20)
#    0.000    1.333    1.667    4.000    9.333    2.667 
#    0.000    1.667    0.000    0.000    0.000    0.000 
#    0.000    0.000    0.000    0.000    0.000    0.000 
#
# Total GULP energy -297480.230882 kJ/mol
# GULP energy per Si atom -12395.009620 kJ/mol
# Density = 2.079749 g / cm^3
# Si number density = 20.844933 Si / 1000 Ang^3
#
#
#
# Elastic Constant Matrix: (Units=GPa)
#
#
# Indices 1 2 3 4 5 6 
#
# 1 184.5448 34.5760 26.1067 0.0000 0.0000 0.0000
# 2 34.5760 75.0458 33.2143 0.0000 0.0000 0.0000
# 3 26.1067 33.2143 48.3249 0.0000 0.0000 0.0000
# 4 0.0000 0.0000 0.0000 22.8314 0.0000 0.0000
# 5 0.0000 0.0000 0.0000 0.0000 -0.8507 0.0000
# 6 0.0000 0.0000 0.0000 0.0000 0.0000 13.1846
#
#
#
# Elastic Compliance Matrix: (Units=1/GPa)
#
#
# Indices 1 2 3 4 5 6 
#
# 1 0.006055 -0.001929 -0.001946 0.000000 0.000000 0.000000
# 2 -0.001929 0.019765 -0.012543 0.000000 0.000000 0.000000
# 3 -0.001946 -0.012543 0.030365 0.000000 -0.000001 0.000000
# 4 0.000000 0.000000 0.000000 0.043799 -0.000001 0.000000
# 5 0.000000 0.000000 -0.000001 -0.000001 -1.175441 0.000000
# 6 0.000000 0.000000 0.000000 0.000000 0.000000 0.075846
#
#
# Mechanical properties :
#
#
# Convention : Reuss Voigt Hill
#
# Bulk Modulus (GPa) = 42.82433 55.07883 48.95158
# Shear Modulus (GPa) = -5.21381 21.30094 8.04356
#
# Velocity S-wave (km/s) = -1.58325 3.20015 1.96650
# Velocity P-wave (km/s) = 4.15290 6.33523 5.35638
#
# Compressibility (1/GPa) = 0.02335121
#
# Stress axis : x y z
#
# Youngs Moduli (GPa) = 165.14317 50.59404 32.93237
#
# Poissons Ratio (x) = 0.09759 0.06407
# Poissons Ratio (y) = 0.31853 0.41307
# Poissons Ratio (z) = 0.32131 0.63459
#
# Static dielectric constant tensor:
#      x y z
#    x 4.247520 0.000000 0.000000 
#    y 0.000000 3.327500 0.000000 
#    z 0.000000 0.000000 4.052810 
# 
# 
# High freq. dielectric constant tensor:
#      x y z
#    x 1.840040 0.000000 0.000000 
#    y 0.000000 1.783400 0.000000 
#    z 0.000000 0.000000 1.825890 
# 
# From -- ./inp_files/25085.got.cif
#   From: 2010.03.12/outbox.cif.g09.slc.cpg/sg46_13_cif.got.tgz:25085.got - 2010.04.14 02:56:35.
