data_PCOD8191747
_publ_section_title
;
Structure prediction by ZEFSAII (Michael W. Deem and Ramdas Pophale) SiO2 
 PCOD8191747
Probable space group: I M A 2
;
_chemical_formula_sum "Si O2"
_cell_formula_units_Z 60
_cell_length_a 27.817078
_cell_length_b 24.963370
_cell_length_c 5.056143
_cell_angle_alpha 90.000000
_cell_angle_beta 90.000000
_cell_angle_gamma 90.000000
_cell_volume 3511.026201
_symmetry_space_group_name_H-M "I M A 2"
_symmetry_group_IT_number 46
_symmetry_cell_setting 'orthorhombic'
loop_
_space_group_symop_operation_xyz
x,y,z
-x,-y,z
1/2-x,y,z
1/2+x,-y,z
1/2+x,1/2+y,1/2+z
1/2-x,1/2-y,1/2+z
-x,1/2+y,1/2+z
x,1/2-y,1/2+z
loop_
_atom_site_type_symbol
_atom_site_label
_atom_site_fract_x
_atom_site_fract_y
_atom_site_fract_z
Si Si1 0.974552 0.716691 0.542080
Si Si2 0.806578 0.547294 0.131078
Si Si3 0.371584 0.213756 0.143184
Si Si4 0.193220 0.386990 0.638086
Si Si5 0.664890 0.363443 0.562907
Si Si6 0.921421 0.287268 0.635570
Si Si7 0.250000 0.783403 0.136269
Si Si8 0.192789 0.927104 0.565869
O O1 0.974187 0.730383 0.230647
O O2 0.924703 0.685965 0.611355
O O3 0.024652 0.687083 0.612810
O O4 0.750000 0.543867 0.092396
O O5 0.821465 0.571375 0.410985
O O6 0.826894 0.487335 0.103301
O O7 0.826939 0.586683 0.905966
O O8 0.365254 0.238070 0.434597
O O9 0.331354 0.169790 0.090474
O O10 0.250000 0.376361 0.642026
O O11 0.612785 0.338423 0.612522
O O12 0.702508 0.315759 0.573915
O O13 0.665842 0.389523 0.274267
O O14 0.678201 0.408974 0.773486
O O15 0.912571 0.242357 0.412683
O O16 0.250000 0.768145 0.445229
O O17 0.250000 0.922693 0.607476
#
# Coordination Sequence:
#
# PCOD8191747 Si02
#       8
#     8   8   8   8   8   8   4   8
#     4   8  16  30  48  67  91 123 160 196 224 260
#     4   9  19  33  51  67  92 126 162 205 236 263
#     4  10  19  31  49  75 104 131 156 185 223 275
#     4  10  19  32  48  74 101 129 160 185 228 286
#     4  12  21  32  48  69  91 125 160 197 244 287
#     4  10  19  33  48  67  94 124 159 196 233 280
#     4  12  22  32  42  62  98 128 150 178 232 304
#     4  11  20  35  49  68  91 120 163 210 240 278
#
# _framework density 17.089022
#
# number of rings (size 3 to 8) (size 9 to 14) (size 15 to 20)
#    0.000    1.867    1.333    4.000    0.000    2.667 
#    0.000    0.000    0.000    0.000    0.000    5.600 
#    0.000    0.000    0.000    0.000    0.000    0.000 
#
# Total GULP energy -371927.906271 kJ/mol
# GULP energy per Si atom -12397.596876 kJ/mol
# Density = 1.705013 g / cm^3
# Si number density = 17.089022 Si / 1000 Ang^3
#
#
#
# Elastic Constant Matrix: (Units=GPa)
#
#
# Indices 1 2 3 4 5 6 
#
# 1 74.6346 44.2022 23.8945 0.0000 0.0000 0.0000
# 2 44.2022 65.9161 2.8692 0.0000 0.0000 0.0000
# 3 23.8945 2.8692 59.2079 0.0000 0.0000 0.0000
# 4 0.0000 0.0000 0.0000 26.8809 0.0000 0.0000
# 5 0.0000 0.0000 0.0000 0.0000 18.5607 0.0000
# 6 0.0000 0.0000 0.0000 0.0000 0.0000 16.0907
#
#
#
# Elastic Compliance Matrix: (Units=1/GPa)
#
#
# Indices 1 2 3 4 5 6 
#
# 1 0.027157 -0.017771 -0.010098 0.000000 0.000000 0.000000
# 2 -0.017771 0.026832 0.005872 0.000000 0.000000 0.000000
# 3 -0.010098 0.005872 0.020681 0.000000 0.000000 0.000000
# 4 0.000000 0.000000 0.000000 0.037201 0.000000 0.000000
# 5 0.000000 0.000000 0.000000 0.000000 0.053877 0.000000
# 6 0.000000 0.000000 0.000000 0.000000 0.000000 0.062148
#
#
# Mechanical properties :
#
#
# Convention : Reuss Voigt Hill
#
# Bulk Modulus (GPa) = 32.60147 37.96561 35.28354
# Shear Modulus (GPa) = 17.72321 20.89262 19.30791
#
# Velocity S-wave (km/s) = 3.22391 3.50033 3.36496
# Velocity P-wave (km/s) = 5.74256 6.21297 5.98239
#
# Compressibility (1/GPa) = 0.03067346
#
# Stress axis : x y z
#
# Youngs Moduli (GPa) = 36.82344 37.26856 48.35468
#
# Poissons Ratio (x) = 0.66231 0.48831
# Poissons Ratio (y) = 0.65440 -0.28392
# Poissons Ratio (z) = 0.37186 -0.21883
#
# Static dielectric constant tensor:
#      x y z
#    x 3.326950 0.000000 0.000000 
#    y 0.000000 2.972820 0.000000 
#    z 0.000000 0.000000 3.436310 
# 
# 
# High freq. dielectric constant tensor:
#      x y z
#    x 1.641710 0.000000 0.000000 
#    y 0.000000 1.628210 0.000000 
#    z 0.000000 0.000000 1.685890 
# 
# From -- ./inp_files/2621.got.cif
#   From: 2010.03.12/outbox.cif.g09.slc.cpg/sg46_2_cif.got.tgz:2621.got - 2010.04.14 02:56:35.
