data_PCOD8191615
_publ_section_title
;
Structure prediction by ZEFSAII (Michael W. Deem and Ramdas Pophale) SiO2 
 PCOD8191615
Probable space group: I M A 2
;
_chemical_formula_sum "Si O2"
_cell_formula_units_Z 56
_cell_length_a 14.132878
_cell_length_b 13.187635
_cell_length_c 14.891180
_cell_angle_alpha 90.000000
_cell_angle_beta 90.000000
_cell_angle_gamma 90.000000
_cell_volume 2775.406760
_symmetry_space_group_name_H-M "I M A 2"
_symmetry_group_IT_number 46
_symmetry_cell_setting 'orthorhombic'
loop_
_space_group_symop_operation_xyz
x,y,z
-x,-y,z
1/2-x,y,z
1/2+x,-y,z
1/2+x,1/2+y,1/2+z
1/2-x,1/2-y,1/2+z
-x,1/2+y,1/2+z
x,1/2-y,1/2+z
loop_
_atom_site_type_symbol
_atom_site_label
_atom_site_fract_x
_atom_site_fract_y
_atom_site_fract_z
Si Si1 0.637716 0.535763 0.233970
Si Si2 0.524636 0.262726 0.979886
Si Si3 0.604492 0.458638 0.910132
Si Si4 0.525997 0.335581 0.669773
Si Si5 0.142996 0.019620 0.209573
Si Si6 0.974755 0.344108 0.302705
Si Si7 0.648578 0.614416 0.040626
O O1 0.750000 0.539982 0.250503
O O2 0.599220 0.424925 0.261802
O O3 0.583330 0.619718 0.292306
O O4 0.607689 0.567548 0.132976
O O5 0.602815 0.341963 0.942946
O O6 0.532564 0.169389 0.910290
O O7 0.542662 0.228253 0.080712
O O8 0.419535 0.310065 0.986376
O O9 0.500000 0.500000 0.918398
O O10 0.642277 0.480360 0.811359
O O11 0.670825 0.518072 0.978449
O O12 0.602196 0.424067 0.656140
O O13 0.420989 0.382027 0.687016
O O14 0.544835 0.263651 0.755089
O O15 0.250000 0.045155 0.179784
O O16 0.750000 0.668957 0.058574
#
# Coordination Sequence:
#
# PCOD8191615 Si02
#       7
#     8   8   8   8   8   8   8
#     4  10  23  40  61  91 129 166 206 256 313 374
#     4  11  22  37  66  87 122 165 210 256 309 373
#     4  10  18  36  60  89 118 156 205 263 309 359
#     4  11  22  42  62  93 125 165 211 254 317 374
#     4  11  23  40  62  89 129 167 205 259 314 373
#     4  11  22  41  64  92 123 171 204 257 318 367
#     4  10  20  35  60  92 118 155 212 268 312 358
#
# _framework density 20.177222
#
# number of rings (size 3 to 8) (size 9 to 14) (size 15 to 20)
#    0.000    1.429    4.286    2.143    4.000    4.571 
#    0.000    3.571    0.000    0.000    0.000    0.000 
#    0.000    0.000    0.000    0.000    0.000    0.000 
#
# Total GULP energy -346898.958181 kJ/mol
# GULP energy per Si atom -12389.248506 kJ/mol
# Density = 2.013130 g / cm^3
# Si number density = 20.177222 Si / 1000 Ang^3
#
#
#
# Elastic Constant Matrix: (Units=GPa)
#
#
# Indices 1 2 3 4 5 6 
#
# 1 47.4222 -5.0655 16.3837 0.0000 0.0000 0.0000
# 2 -5.0655 45.5270 4.9533 0.0000 0.0000 0.0000
# 3 16.3837 4.9533 73.9417 0.0000 0.0000 0.0000
# 4 0.0000 0.0000 0.0000 40.5446 0.0000 0.0000
# 5 0.0000 0.0000 0.0000 0.0000 21.1566 0.0000
# 6 0.0000 0.0000 0.0000 0.0000 0.0000 18.7862
#
#
#
# Elastic Compliance Matrix: (Units=1/GPa)
#
#
# Indices 1 2 3 4 5 6 
#
# 1 0.023282 0.003175 -0.005371 0.000000 0.000000 0.000000
# 2 0.003175 0.022559 -0.002215 0.000000 0.000000 0.000000
# 3 -0.005371 -0.002215 0.014863 0.000000 0.000000 0.000000
# 4 0.000000 0.000000 0.000000 0.024664 0.000000 0.000000
# 5 0.000000 0.000000 0.000000 0.000000 0.047266 0.000000
# 6 0.000000 0.000000 0.000000 0.000000 0.000000 0.053230
#
#
# Mechanical properties :
#
#
# Convention : Reuss Voigt Hill
#
# Bulk Modulus (GPa) = 19.27472 22.15932 20.71702
# Shear Modulus (GPa) = 23.58698 26.13879 24.86289
#
# Velocity S-wave (km/s) = 3.42276 3.60316 3.51412
# Velocity P-wave (km/s) = 5.01935 5.32132 5.17254
#
# Compressibility (1/GPa) = 0.05188142
#
# Stress axis : x y z
#
# Youngs Moduli (GPa) = 42.95152 44.32786 67.28249
#
# Poissons Ratio (x) = -0.14073 0.36140
# Poissons Ratio (y) = -0.13636 0.14901
# Poissons Ratio (z) = 0.23071 0.09817
#
# Static dielectric constant tensor:
#      x y z
#    x 3.865740 0.000000 0.000000 
#    y 0.000000 3.846070 0.000000 
#    z 0.000000 0.000000 3.780120 
# 
# 
# High freq. dielectric constant tensor:
#      x y z
#    x 1.779520 0.000000 0.000000 
#    y 0.000000 1.787760 0.000000 
#    z 0.000000 0.000000 1.790060 
# 
# From -- ./inp_files/15942.got.cif
#   From: 2010.03.12/outbox.cif.g09.slc.cpg/sg46_8_cif.got.tgz:15942.got - 2010.04.14 02:56:35.
