data_PCOD8191607
_publ_section_title
;
Structure prediction by ZEFSAII (Michael W. Deem and Ramdas Pophale) SiO2 
 PCOD8191607
Probable space group: I M A 2
;
_chemical_formula_sum "Si O2"
_cell_formula_units_Z 48
_cell_length_a 9.634701
_cell_length_b 8.509225
_cell_length_c 27.779029
_cell_angle_alpha 90.000000
_cell_angle_beta 90.000000
_cell_angle_gamma 90.000000
_cell_volume 2277.431430
_symmetry_space_group_name_H-M "I M A 2"
_symmetry_group_IT_number 46
_symmetry_cell_setting 'orthorhombic'
loop_
_space_group_symop_operation_xyz
x,y,z
-x,-y,z
1/2-x,y,z
1/2+x,-y,z
1/2+x,1/2+y,1/2+z
1/2-x,1/2-y,1/2+z
-x,1/2+y,1/2+z
x,1/2-y,1/2+z
loop_
_atom_site_type_symbol
_atom_site_label
_atom_site_fract_x
_atom_site_fract_y
_atom_site_fract_z
Si Si1 0.478015 0.683880 0.248610
Si Si2 0.480865 0.315777 0.033674
Si Si3 0.912470 0.341407 0.845217
Si Si4 0.250000 0.827866 0.185591
Si Si5 0.750000 0.219110 0.583031
Si Si6 0.750000 0.809738 0.209224
Si Si7 0.085483 0.163053 0.430410
Si Si8 0.250000 0.148813 0.605919
O O1 0.500000 0.500000 0.245920
O O2 0.407863 0.730660 0.298747
O O3 0.384296 0.735965 0.203881
O O4 0.622051 0.771803 0.243117
O O5 0.500000 0.500000 0.027217
O O6 0.623990 0.236514 0.048257
O O7 0.380242 0.278972 0.077998
O O8 0.427973 0.249201 0.982096
O O9 0.750000 0.375178 0.859458
O O10 0.000000 0.500000 0.833719
O O11 0.000126 0.248733 0.887507
O O12 0.250000 0.833707 0.128145
O O13 0.250000 0.006364 0.201340
O O14 0.750000 0.040346 0.602905
O O15 0.750000 0.705494 0.160767
O O16 0.250000 0.141761 0.418702
O O17 0.000000 0.000000 0.432206
#
# Coordination Sequence:
#
# PCOD8191607 Si02
#       8
#     8   8   8   4   4   4   8   4
#     4  12  26  44  66  93 127 168 213 264 320 383
#     4   9  18  30  53  85 123 160 206 256 303 361
#     4  11  23  39  63  94 129 165 212 262 320 382
#     4  12  24  46  61  98 125 167 220 261 321 382
#     4  10  20  32  59  82 127 161 210 261 305 370
#     4  12  26  40  71  90 129 171 210 269 317 382
#     4  10  19  32  55  90 128 164 209 259 315 372
#     4  10  18  36  53  90 115 165 204 255 313 358
#
# _framework density 21.076377000000001
#
# number of rings (size 3 to 8) (size 9 to 14) (size 15 to 20)
#    0.000    1.333    1.667    6.000    7.000    1.333 
#    0.000    0.000    0.000    2.000    0.000    0.000 
#    0.000    0.000    0.000    0.000    0.000    0.000 
#
# Total GULP energy -297415.298085 kJ/mol
# GULP energy per Si atom -12392.304087 kJ/mol
# Density = 2.102841 g / cm^3
# Si number density = 21.076377 Si / 1000 Ang^3
#
#
#
# Elastic Constant Matrix: (Units=GPa)
#
#
# Indices 1 2 3 4 5 6 
#
# 1 188.2969 22.4293 42.7064 0.0000 0.0000 0.0000
# 2 22.4293 76.1756 11.2361 0.0000 0.0000 0.0000
# 3 42.7064 11.2361 117.4979 0.0000 0.0000 0.0000
# 4 0.0000 0.0000 0.0000 18.2699 0.0000 0.0000
# 5 0.0000 0.0000 0.0000 0.0000 41.4106 0.0000
# 6 0.0000 0.0000 0.0000 0.0000 0.0000 16.1628
#
#
#
# Elastic Compliance Matrix: (Units=1/GPa)
#
#
# Indices 1 2 3 4 5 6 
#
# 1 0.005942 -0.001451 -0.002021 0.000000 0.000000 0.000000
# 2 -0.001451 0.013670 -0.000780 0.000000 0.000000 0.000000
# 3 -0.002021 -0.000780 0.009320 0.000000 0.000000 0.000000
# 4 0.000000 0.000000 0.000000 0.054735 0.000000 0.000000
# 5 0.000000 0.000000 0.000000 0.000000 0.024148 0.000000
# 6 0.000000 0.000000 0.000000 0.000000 0.000000 0.061870
#
#
# Mechanical properties :
#
#
# Convention : Reuss Voigt Hill
#
# Bulk Modulus (GPa) = 48.95315 59.41269 54.18292
# Shear Modulus (GPa) = 27.02720 35.54191 31.28455
#
# Velocity S-wave (km/s) = 3.58487 4.11096 3.85690
# Velocity P-wave (km/s) = 6.35705 7.12627 6.75262
#
# Compressibility (1/GPa) = 0.02042769
#
# Stress axis : x y z
#
# Youngs Moduli (GPa) = 168.29328 73.15323 107.29753
#
# Poissons Ratio (x) = 0.10618 0.21684
# Poissons Ratio (y) = 0.24428 0.08366
# Poissons Ratio (z) = 0.34011 0.05704
#
# Static dielectric constant tensor:
#      x y z
#    x 4.246990 0.000000 0.000000 
#    y 0.000000 3.245480 0.000000 
#    z 0.000000 0.000000 4.417800 
# 
# 
# High freq. dielectric constant tensor:
#      x y z
#    x 1.849900 0.000000 0.000000 
#    y 0.000000 1.768300 0.000000 
#    z 0.000000 0.000000 1.848080 
# 
# From -- ./inp_files/25086.got.cif
#   From: 2010.03.12/outbox.cif.g09.slc.cpg/sg46_13_cif.got.tgz:25086.got - 2010.04.14 02:56:35.
