data_PCOD8191385
_publ_section_title
;
Structure prediction by ZEFSAII (Michael W. Deem and Ramdas Pophale) SiO2 
 PCOD8191385
Probable space group: I M A 2
;
_chemical_formula_sum "Si O2"
_cell_formula_units_Z 48
_cell_length_a 18.276370
_cell_length_b 13.682447
_cell_length_c 8.726756
_cell_angle_alpha 90.000000
_cell_angle_beta 90.000000
_cell_angle_gamma 90.000000
_cell_volume 2182.260287
_symmetry_space_group_name_H-M "I M A 2"
_symmetry_group_IT_number 46
_symmetry_cell_setting 'orthorhombic'
loop_
_space_group_symop_operation_xyz
x,y,z
-x,-y,z
1/2-x,y,z
1/2+x,-y,z
1/2+x,1/2+y,1/2+z
1/2-x,1/2-y,1/2+z
-x,1/2+y,1/2+z
x,1/2-y,1/2+z
loop_
_atom_site_type_symbol
_atom_site_label
_atom_site_fract_x
_atom_site_fract_y
_atom_site_fract_z
Si Si1 0.250000 0.861281 0.136781
Si Si2 0.098255 0.944434 0.756717
Si Si3 0.750000 0.882525 0.946789
Si Si4 0.542786 0.856300 0.630458
Si Si5 0.750000 0.349231 0.276996
Si Si6 0.750000 0.788334 0.255199
Si Si7 0.408304 0.342756 0.790408
Si Si8 0.624460 0.007755 0.075101
O O1 0.250000 0.761832 0.226100
O O2 0.324508 0.921203 0.179024
O O3 0.250000 0.842617 0.957745
O O4 0.178939 0.905826 0.715499
O O5 0.041836 0.872341 0.672586
O O6 0.090872 0.054697 0.694721
O O7 0.078286 0.938034 0.941052
O O8 0.750000 0.796326 0.072481
O O9 0.678105 0.946542 0.962945
O O10 0.750000 0.827657 0.784947
O O11 0.569742 0.754475 0.699860
O O12 0.546984 0.852309 0.446308
O O13 0.821485 0.841365 0.325028
O O14 0.424626 0.438093 0.683281
#
# Coordination Sequence:
#
# PCOD8191385 Si02
#       8
#     4   8   4   8   4   4   8   8
#     4   9  20  38  63 101 127 155 213 264 314 377
#     4  10  23  43  62  90 127 169 220 270 316 386
#     4   9  16  28  52  89 124 155 197 248 308 377
#     4  11  24  40  60  94 134 167 214 267 326 388
#     4  10  22  41  69  89 123 176 218 266 319 374
#     4  10  18  29  54  91 124 156 198 242 303 388
#     4  11  22  38  64  96 129 170 207 260 329 394
#     4   9  19  38  62  88 124 166 210 261 319 376
#
# _framework density 21.995543000000001
#
# number of rings (size 3 to 8) (size 9 to 14) (size 15 to 20)
#    0.000    2.000    0.000    5.000    0.000    5.333 
#    0.000    8.333    0.000    0.000    0.000    0.000 
#    0.000    1.333    0.000    0.000    0.000    0.000 
#
# Total GULP energy -297520.643184 kJ/mol
# GULP energy per Si atom -12396.693466 kJ/mol
# Density = 2.194548 g / cm^3
# Si number density = 21.995543 Si / 1000 Ang^3
#
#
#
# Elastic Constant Matrix: (Units=GPa)
#
#
# Indices 1 2 3 4 5 6 
#
# 1 113.5558 45.6979 46.6062 0.0000 0.0000 0.0000
# 2 45.6979 137.1462 50.3786 0.0000 0.0000 0.0000
# 3 46.6062 50.3786 105.9680 0.0000 0.0000 0.0000
# 4 0.0000 0.0000 0.0000 47.6464 0.0000 0.0000
# 5 0.0000 0.0000 0.0000 0.0000 27.9972 0.0000
# 6 0.0000 0.0000 0.0000 0.0000 0.0000 29.8895
#
#
#
# Elastic Compliance Matrix: (Units=1/GPa)
#
#
# Indices 1 2 3 4 5 6 
#
# 1 0.011343 -0.002359 -0.003867 0.000000 0.000000 0.000000
# 2 -0.002359 0.009325 -0.003396 0.000000 0.000000 0.000000
# 3 -0.003867 -0.003396 0.012752 0.000000 0.000000 0.000000
# 4 0.000000 0.000000 0.000000 0.020988 0.000000 0.000000
# 5 0.000000 0.000000 0.000000 0.000000 0.035718 0.000000
# 6 0.000000 0.000000 0.000000 0.000000 0.000000 0.033457
#
#
# Mechanical properties :
#
#
# Convention : Reuss Voigt Hill
#
# Bulk Modulus (GPa) = 70.54187 71.33726 70.93956
# Shear Modulus (GPa) = 33.88661 35.37245 34.62953
#
# Velocity S-wave (km/s) = 3.92932 4.01454 3.97216
# Velocity P-wave (km/s) = 7.26132 7.34791 7.30474
#
# Compressibility (1/GPa) = 0.01417598
#
# Stress axis : x y z
#
# Youngs Moduli (GPa) = 88.16212 107.24049 78.41885
#
# Poissons Ratio (x) = 0.25297 0.30326
# Poissons Ratio (y) = 0.20796 0.26629
# Poissons Ratio (z) = 0.34094 0.36415
#
# Static dielectric constant tensor:
#      x y z
#    x 4.023210 0.000000 0.000000 
#    y 0.000000 4.190190 0.000000 
#    z 0.000000 0.000000 3.888340 
# 
# 
# High freq. dielectric constant tensor:
#      x y z
#    x 1.860950 0.000000 0.000000 
#    y 0.000000 1.869320 0.000000 
#    z 0.000000 0.000000 1.855820 
# 
# From -- ./inp_files/7347.got.cif
#   From: 2010.03.12/outbox.cif.g09.slc.cpg/sg46_4_cif.got.tgz:7347.got - 2010.04.14 02:56:35.
