data_PCOD8191056
_publ_section_title
;
Structure prediction by ZEFSAII (Michael W. Deem and Ramdas Pophale) SiO2 
 PCOD8191056
Probable space group: I B A 2
;
_chemical_formula_sum "Si O2"
_cell_formula_units_Z 40
_cell_length_a 29.860635
_cell_length_b 4.898406
_cell_length_c 11.268585
_cell_angle_alpha 90.000000
_cell_angle_beta 90.000000
_cell_angle_gamma 90.000000
_cell_volume 1648.250447
_symmetry_space_group_name_H-M "I B A 2"
_symmetry_group_IT_number 45
_symmetry_cell_setting 'orthorhombic'
loop_
_space_group_symop_operation_xyz
x,y,z
-x,-y,z
-x,y,1/2+z
x,-y,1/2+z
1/2+x,1/2+y,1/2+z
1/2-x,1/2-y,1/2+z
1/2-x,1/2+y,z
1/2+x,1/2-y,z
loop_
_atom_site_type_symbol
_atom_site_label
_atom_site_fract_x
_atom_site_fract_y
_atom_site_fract_z
Si Si1 0.852526 0.583975 0.683550
Si Si2 0.500000 0.500000 0.689497
Si Si3 0.571457 0.728147 0.353899
Si Si4 0.144796 0.914049 0.531972
Si Si5 0.719953 0.167313 0.870229
Si Si6 0.500000 0.000000 0.511205
O O1 0.895699 0.623932 0.763841
O O2 0.859069 0.266197 0.651190
O O3 0.806351 0.668446 0.746490
O O4 0.850471 0.768915 0.565324
O O5 0.457643 0.508034 0.779237
O O6 0.495357 0.751161 0.601072
O O7 0.600350 0.575649 0.453211
O O8 0.541692 0.954058 0.422573
O O9 0.187304 0.773912 0.471453
O O10 0.764050 0.354550 0.879290
#
# Coordination Sequence:
#
# PCOD8191056 Si02
#       6
#     8   4   8   8   8   4
#     4  11  25  44  68  97 135 179 223 277 342 408
#     4  12  26  44  70 100 134 178 228 284 344 408
#     4  11  26  46  69 100 138 178 231 286 342 413
#     4  11  25  44  68  97 135 179 223 277 342 408
#     4  11  24  42  67 100 134 172 223 278 334 405
#     4  12  26  44  70 100 134 178 228 284 344 408
#
# _framework density 24.268155
#
# number of rings (size 3 to 8) (size 9 to 14) (size 15 to 20)
#    0.000    0.800    0.000    6.000    0.000   16.000 
#    0.000    0.000    0.000    0.000    0.000    0.000 
#    0.000    0.000    0.000    0.000    0.000    0.000 
#
# Total GULP energy -247900.563056 kJ/mol
# GULP energy per Si atom -12395.028153 kJ/mol
# Density = 2.421292 g / cm^3
# Si number density = 24.268155 Si / 1000 Ang^3
#
#
#
# Elastic Constant Matrix: (Units=GPa)
#
#
# Indices 1 2 3 4 5 6 
#
# 1 102.9060 -0.4300 29.4436 0.0000 0.0000 0.0000
# 2 -0.4300 80.5591 13.3213 0.0000 0.0000 0.0000
# 3 29.4436 13.3213 96.0928 0.0000 0.0000 0.0000
# 4 0.0000 0.0000 0.0000 36.1425 0.0000 0.0000
# 5 0.0000 0.0000 0.0000 0.0000 5.2424 0.0000
# 6 0.0000 0.0000 0.0000 0.0000 0.0000 34.0360
#
#
#
# Elastic Compliance Matrix: (Units=1/GPa)
#
#
# Indices 1 2 3 4 5 6 
#
# 1 0.010681 0.000612 -0.003358 0.000000 0.000000 0.000000
# 2 0.000612 0.012740 -0.001954 0.000000 0.000000 0.000000
# 3 -0.003358 -0.001954 0.011706 0.000000 0.000000 0.000000
# 4 0.000000 0.000000 0.000000 0.027668 0.000000 0.000000
# 5 0.000000 0.000000 0.000000 0.000000 0.190753 0.000000
# 6 0.000000 0.000000 0.000000 0.000000 0.000000 0.029381
#
#
# Mechanical properties :
#
#
# Convention : Reuss Voigt Hill
#
# Bulk Modulus (GPa) = 38.86724 40.46974 39.66849
# Shear Modulus (GPa) = 16.61664 30.89906 23.75785
#
# Velocity S-wave (km/s) = 2.61953 3.57211 3.13225
# Velocity P-wave (km/s) = 5.01994 5.80737 5.42795
#
# Compressibility (1/GPa) = 0.02572861
#
# Stress axis : x y z
#
# Youngs Moduli (GPa) = 93.62569 78.49560 85.42467
#
# Poissons Ratio (x) = -0.04806 0.28682
# Poissons Ratio (y) = -0.05732 0.16689
# Poissons Ratio (z) = 0.31435 0.15335
#
# Static dielectric constant tensor:
#      x y z
#    x 4.715230 0.000000 0.000000 
#    y 0.000000 4.305580 0.000000 
#    z 0.000000 0.000000 4.741170 
# 
# 
# High freq. dielectric constant tensor:
#      x y z
#    x 1.978240 0.000000 0.000000 
#    y 0.000000 1.964580 0.000000 
#    z 0.000000 0.000000 1.980890 
# 
# From -- ./inp_files/2936.got.cif
#   From: 2010.03.12/outbox.cif.g09.slc.cpg/sg45_2_cif.got.tgz:2936.got - 2010.04.14 02:50:11.
