data_PCOD8191423
_publ_section_title
;
Structure prediction by ZEFSAII (Michael W. Deem and Ramdas Pophale) SiO2 
 PCOD8191423
Probable space group: I M A 2
;
_chemical_formula_sum "Si O2"
_cell_formula_units_Z 64
_cell_length_a 8.772576
_cell_length_b 19.897044
_cell_length_c 20.859555
_cell_angle_alpha 90.000000
_cell_angle_beta 90.000000
_cell_angle_gamma 90.000000
_cell_volume 3641.000504
_symmetry_space_group_name_H-M "I M A 2"
_symmetry_group_IT_number 46
_symmetry_cell_setting 'orthorhombic'
loop_
_space_group_symop_operation_xyz
x,y,z
-x,-y,z
1/2-x,y,z
1/2+x,-y,z
1/2+x,1/2+y,1/2+z
1/2-x,1/2-y,1/2+z
-x,1/2+y,1/2+z
x,1/2-y,1/2+z
loop_
_atom_site_type_symbol
_atom_site_label
_atom_site_fract_x
_atom_site_fract_y
_atom_site_fract_z
Si Si1 0.929972 0.199416 0.959150
Si Si2 0.568706 0.288536 0.841842
Si Si3 0.429349 0.567767 0.655724
Si Si4 0.069093 0.069104 0.906291
Si Si5 0.930199 0.431988 0.267226
Si Si6 0.570094 0.206338 0.101968
Si Si7 0.569675 0.209120 0.718737
Si Si8 0.070872 0.567899 0.803009
O O1 0.750000 0.185964 0.951896
O O2 0.988959 0.253454 0.907138
O O3 0.017867 0.129495 0.951780
O O4 0.971878 0.227911 0.029632
O O5 0.750000 0.287060 0.838876
O O6 0.502020 0.248309 0.780516
O O7 0.511293 0.365889 0.840673
O O8 0.500000 0.500000 0.625993
O O9 0.250000 0.562134 0.649275
O O10 0.494096 0.631850 0.617064
O O11 0.480217 0.576259 0.729423
O O12 0.250000 0.063787 0.903107
O O13 0.002592 0.082578 0.836004
O O14 0.000000 0.000000 0.934402
O O15 0.750000 0.439969 0.275851
O O16 0.973470 0.369660 0.221386
O O17 0.000000 0.500000 0.236785
O O18 0.750000 0.204225 0.111563
O O19 0.501314 0.259871 0.152938
O O20 0.750000 0.217945 0.720188
O O21 0.250000 0.561371 0.809208
O O22 0.000000 0.500000 0.833125
#
# Coordination Sequence:
#
# PCOD8191423 Si02
#       8
#     8   8   8   8   8   8   8   8
#     4  10  19  32  50  73  97 125 165 207 244 288
#     4   9  15  27  48  70  93 123 159 197 238 282
#     4   9  16  27  43  64  90 119 149 183 222 272
#     4  11  21  33  49  70 100 134 167 200 243 294
#     4  10  18  30  51  75 100 126 161 205 250 291
#     4   9  17  29  47  71  96 124 159 198 237 282
#     4   9  15  27  49  73  95 123 159 199 241 286
#     4   9  16  27  46  68  92 120 151 190 234 276
#
# _framework density 17.577586
#
# number of rings (size 3 to 8) (size 9 to 14) (size 15 to 20)
#    0.000    2.500    2.500    2.250    0.000    0.500 
#    0.000    2.500    0.000    3.750    0.000    0.000 
#    0.000    0.000    0.000    0.000    0.000    0.000 
#
# Total GULP energy -396661.238137 kJ/mol
# GULP energy per Si atom -12395.663692 kJ/mol
# Density = 1.753758 g / cm^3
# Si number density = 17.577586 Si / 1000 Ang^3
#
#
#
# Elastic Constant Matrix: (Units=GPa)
#
#
# Indices 1 2 3 4 5 6 
#
# 1 42.4293 27.5739 21.1302 0.0000 0.0000 0.0000
# 2 27.5739 154.7781 81.2943 0.0000 0.0000 0.0000
# 3 21.1302 81.2943 112.0395 0.0000 0.0000 0.0000
# 4 0.0000 0.0000 0.0000 26.1303 0.0000 0.0000
# 5 0.0000 0.0000 0.0000 0.0000 10.0878 0.0000
# 6 0.0000 0.0000 0.0000 0.0000 0.0000 25.1810
#
#
#
# Elastic Compliance Matrix: (Units=1/GPa)
#
#
# Indices 1 2 3 4 5 6 
#
# 1 0.027115 -0.003465 -0.002599 0.000000 0.000000 0.000000
# 2 -0.003465 0.010882 -0.007242 0.000000 0.000000 0.000000
# 3 -0.002599 -0.007242 0.014671 0.000000 0.000000 0.000000
# 4 0.000000 0.000000 0.000000 0.038270 0.000000 0.000000
# 5 0.000000 0.000000 0.000000 0.000000 0.099129 0.000000
# 6 0.000000 0.000000 0.000000 0.000000 0.000000 0.039712
#
#
# Mechanical properties :
#
#
# Convention : Reuss Voigt Hill
#
# Bulk Modulus (GPa) = 38.38225 63.24932 50.81578
# Shear Modulus (GPa) = 18.86235 24.22972 21.54603
#
# Velocity S-wave (km/s) = 3.27936 3.71677 3.50489
# Velocity P-wave (km/s) = 6.01849 7.38107 6.73433
#
# Compressibility (1/GPa) = 0.02605371
#
# Stress axis : x y z
#
# Youngs Moduli (GPa) = 36.87969 91.89370 68.16335
#
# Poissons Ratio (x) = 0.31844 0.17719
# Poissons Ratio (y) = 0.12780 0.49367
# Poissons Ratio (z) = 0.09587 0.66553
#
# Static dielectric constant tensor:
#      x y z
#    x 2.914180 0.000000 0.000000 
#    y 0.000000 3.609270 0.000000 
#    z 0.000000 0.000000 3.211710 
# 
# 
# High freq. dielectric constant tensor:
#      x y z
#    x 1.642120 0.000000 0.000000 
#    y 0.000000 1.689940 0.000000 
#    z 0.000000 0.000000 1.653040 
# 
# From -- ./inp_files/21451.got.cif
#   From: 2010.03.12/outbox.cif.g09.slc.cpg/sg46_11_cif.got.tgz:21451.got - 2010.04.14 02:56:35.
