data_PCOD8191856
_publ_section_title
;
Structure prediction by ZEFSAII (Michael W. Deem and Ramdas Pophale) SiO2 
 PCOD8191856
Probable space group: I M A 2
;
_chemical_formula_sum "Si O2"
_cell_formula_units_Z 64
_cell_length_a 8.479098
_cell_length_b 16.400365
_cell_length_c 22.929292
_cell_angle_alpha 90.000000
_cell_angle_beta 90.000000
_cell_angle_gamma 90.000000
_cell_volume 3188.554272
_symmetry_space_group_name_H-M "I M A 2"
_symmetry_group_IT_number 46
_symmetry_cell_setting 'orthorhombic'
loop_
_space_group_symop_operation_xyz
x,y,z
-x,-y,z
1/2-x,y,z
1/2+x,-y,z
1/2+x,1/2+y,1/2+z
1/2-x,1/2-y,1/2+z
-x,1/2+y,1/2+z
x,1/2-y,1/2+z
loop_
_atom_site_type_symbol
_atom_site_label
_atom_site_fract_x
_atom_site_fract_y
_atom_site_fract_z
Si Si1 0.434937 0.412220 0.175320
Si Si2 0.433946 0.135541 0.545354
Si Si3 0.935071 0.253163 0.880974
Si Si4 0.067241 0.912425 0.211786
Si Si5 0.937597 0.236022 0.753300
Si Si6 0.437391 0.579825 0.931769
Si Si7 0.069488 0.700633 0.504313
Si Si8 0.929753 0.920055 0.087424
O O1 0.500000 0.500000 0.197344
O O2 0.250000 0.414938 0.183203
O O3 0.484709 0.399945 0.108042
O O4 0.496050 0.334924 0.212175
O O5 0.250000 0.161203 0.545973
O O6 0.471828 0.072170 0.494112
O O7 0.550658 0.209353 0.529510
O O8 0.750000 0.262694 0.875220
O O9 0.998216 0.217937 0.819553
O O10 0.001232 0.343363 0.894774
O O11 0.976631 0.194857 0.935673
O O12 0.250000 0.916191 0.225688
O O13 0.998605 0.828130 0.239385
O O14 0.036205 0.901897 0.143363
O O15 0.000000 0.000000 0.234819
O O16 0.750000 0.233870 0.746928
O O17 0.500000 0.500000 0.897221
O O18 0.250000 0.582340 0.940212
O O19 0.250000 0.672196 0.514217
O O20 0.943084 0.648311 0.538951
O O21 0.750000 0.930196 0.107762
O O22 0.000000 0.000000 0.056734
#
# Coordination Sequence:
#
# PCOD8191856 Si02
#       8
#     8   8   8   8   8   8   8   8
#     4  11  24  39  57  82 110 143 184 231 280 330
#     4  10  20  34  54  81 111 141 176 217 266 325
#     4   8  18  36  55  75 102 139 180 221 263 314
#     4  10  20  34  56  85 116 149 184 223 272 329
#     4  10  21  39  60  80 108 148 190 230 274 323
#     4  10  19  32  52  79 111 143 176 215 264 320
#     4  10  19  34  56  80 108 140 175 216 268 324
#     4  11  21  34  53  78 109 139 174 219 269 325
#
# _framework density 20.071793
#
# number of rings (size 3 to 8) (size 9 to 14) (size 15 to 20)
#    0.000    2.000    0.000    5.625    0.000    6.500 
#    0.000    4.375    0.000    0.000    0.000    0.000 
#    0.000    0.000    0.000    0.000    0.000    0.000 
#
# Total GULP energy -396509.969771 kJ/mol
# GULP energy per Si atom -12390.936555 kJ/mol
# Density = 2.002611 g / cm^3
# Si number density = 20.071793 Si / 1000 Ang^3
#
#
#
# Elastic Constant Matrix: (Units=GPa)
#
#
# Indices 1 2 3 4 5 6 
#
# 1 51.8992 18.9670 18.8085 0.0000 0.0000 0.0000
# 2 18.9670 92.9841 34.9310 0.0000 0.0000 0.0000
# 3 18.8085 34.9310 84.5204 0.0000 0.0000 0.0000
# 4 0.0000 0.0000 0.0000 15.7279 0.0000 0.0000
# 5 0.0000 0.0000 0.0000 0.0000 11.9186 0.0000
# 6 0.0000 0.0000 0.0000 0.0000 0.0000 34.4466
#
#
#
# Elastic Compliance Matrix: (Units=1/GPa)
#
#
# Indices 1 2 3 4 5 6 
#
# 1 0.021683 -0.003090 -0.003548 0.000000 0.000000 0.000000
# 2 -0.003090 0.013171 -0.004756 0.000000 0.000000 0.000000
# 3 -0.003548 -0.004756 0.014587 0.000000 0.000000 0.000000
# 4 0.000000 0.000000 0.000000 0.063581 0.000000 0.000000
# 5 0.000000 0.000000 0.000000 0.000000 0.083902 0.000000
# 6 0.000000 0.000000 0.000000 0.000000 0.000000 0.029030
#
#
# Mechanical properties :
#
#
# Convention : Reuss Voigt Hill
#
# Bulk Modulus (GPa) = 37.51913 41.64630 39.58272
# Shear Modulus (GPa) = 19.40785 22.86512 21.13649
#
# Velocity S-wave (km/s) = 3.11291 3.37882 3.24858
# Velocity P-wave (km/s) = 5.62613 6.00130 5.81674
#
# Compressibility (1/GPa) = 0.02665307
#
# Stress axis : x y z
#
# Youngs Moduli (GPa) = 46.11852 75.92156 68.55606
#
# Poissons Ratio (x) = 0.23460 0.24325
# Poissons Ratio (y) = 0.14251 0.32605
# Poissons Ratio (z) = 0.16364 0.36108
#
# Static dielectric constant tensor:
#      x y z
#    x 3.458550 0.000000 0.000000 
#    y 0.000000 3.938280 0.000000 
#    z 0.000000 0.000000 3.853820 
# 
# 
# High freq. dielectric constant tensor:
#      x y z
#    x 1.774170 0.000000 0.000000 
#    y 0.000000 1.784350 0.000000 
#    z 0.000000 0.000000 1.775270 
# 
# From -- ./inp_files/23294.got.cif
#   From: 2010.03.12/outbox.cif.g09.slc.cpg/sg46_12_cif.got.tgz:23294.got - 2010.04.14 02:56:35.
