data_PCOD8191554
_publ_section_title
;
Structure prediction by ZEFSAII (Michael W. Deem and Ramdas Pophale) SiO2 
 PCOD8191554
Probable space group: I M A 2
;
_chemical_formula_sum "Si O2"
_cell_formula_units_Z 40
_cell_length_a 15.654655
_cell_length_b 5.200578
_cell_length_c 22.254528
_cell_angle_alpha 90.000000
_cell_angle_beta 90.000000
_cell_angle_gamma 90.000000
_cell_volume 1811.813549
_symmetry_space_group_name_H-M "I M A 2"
_symmetry_group_IT_number 46
_symmetry_cell_setting 'orthorhombic'
loop_
_space_group_symop_operation_xyz
x,y,z
-x,-y,z
1/2-x,y,z
1/2+x,-y,z
1/2+x,1/2+y,1/2+z
1/2-x,1/2-y,1/2+z
-x,1/2+y,1/2+z
x,1/2-y,1/2+z
loop_
_atom_site_type_symbol
_atom_site_label
_atom_site_fract_x
_atom_site_fract_y
_atom_site_fract_z
Si Si1 0.096883 0.091135 0.318280
Si Si2 0.597583 0.769751 0.562001
Si Si3 0.347232 0.893152 0.882749
Si Si4 0.094441 0.769720 0.010343
Si Si5 0.445300 0.249901 0.693560
O O1 0.115016 0.338569 0.359148
O O2 0.116043 0.176584 0.249412
O O3 0.152886 0.840885 0.334637
O O4 0.000000 0.000000 0.324982
O O5 0.643934 0.507306 0.542027
O O6 0.500595 0.751001 0.537375
O O7 0.606339 0.817950 0.633298
O O8 0.643570 0.008315 0.528686
O O9 0.250000 0.941357 0.902765
O O10 0.405363 0.804573 0.938719
O O11 0.500000 0.500000 0.676596
O O12 0.500000 0.000000 0.713063
#
# Coordination Sequence:
#
# PCOD8191554 Si02
#       5
#     8   8   8   8   8
#     4  11  25  40  67  98 124 162 226 267 310 372
#     4  10  18  33  59  92 122 149 202 267 318 357
#     4  12  26  44  62  90 138 177 208 255 323 384
#     4  10  20  33  57  87 122 164 198 247 317 373
#     4  11  18  36  58  93 127 152 193 276 327 358
#
# _framework density 22.077325999999999
#
# number of rings (size 3 to 8) (size 9 to 14) (size 15 to 20)
#    0.000    1.200    4.000    4.800    8.400    0.000 
#    0.000    0.000    0.000    7.200    0.000    0.000 
#    0.000    0.000    0.000    0.000    0.000    0.000 
#
# Total GULP energy -247840.912315 kJ/mol
# GULP energy per Si atom -12392.045616 kJ/mol
# Density = 2.202708 g / cm^3
# Si number density = 22.077326 Si / 1000 Ang^3
#
#
#
# Elastic Constant Matrix: (Units=GPa)
#
#
# Indices 1 2 3 4 5 6 
#
# 1 41.6080 15.4338 31.3591 0.0000 0.0000 0.0000
# 2 15.4338 215.2793 51.7530 0.0000 0.0000 0.0000
# 3 31.3591 51.7530 149.6009 0.0000 0.0000 0.0000
# 4 0.0000 0.0000 0.0000 48.0652 0.0000 0.0000
# 5 0.0000 0.0000 0.0000 0.0000 5.3780 0.0000
# 6 0.0000 0.0000 0.0000 0.0000 0.0000 13.8253
#
#
#
# Elastic Compliance Matrix: (Units=1/GPa)
#
#
# Indices 1 2 3 4 5 6 
#
# 1 0.028630 -0.000665 -0.005771 0.000000 0.000000 0.000000
# 2 -0.000665 0.005082 -0.001619 0.000000 0.000000 0.000000
# 3 -0.005771 -0.001619 0.008454 0.000000 0.000000 0.000000
# 4 0.000000 0.000000 0.000000 0.020805 0.000000 0.000000
# 5 0.000000 0.000000 0.000000 0.000000 0.185942 0.000000
# 6 0.000000 0.000000 0.000000 0.000000 0.000000 0.072331
#
#
# Mechanical properties :
#
#
# Convention : Reuss Voigt Hill
#
# Bulk Modulus (GPa) = 38.37859 67.06447 52.72153
# Shear Modulus (GPa) = 14.44922 33.98321 24.21621
#
# Velocity S-wave (km/s) = 2.56106 3.92762 3.31551
# Velocity P-wave (km/s) = 5.11535 7.14222 6.21201
#
# Compressibility (1/GPa) = 0.02605620
#
# Stress axis : x y z
#
# Youngs Moduli (GPa) = 34.92804 196.77571 118.28475
#
# Poissons Ratio (x) = 0.13088 0.68266
# Poissons Ratio (y) = 0.02323 0.19146
# Poissons Ratio (z) = 0.20158 0.31850
#
# Static dielectric constant tensor:
#      x y z
#    x 3.274380 0.000000 0.000000 
#    y 0.000000 -19.224110 0.000000 
#    z 0.000000 0.000000 4.125500 
# 
# 
# High freq. dielectric constant tensor:
#      x y z
#    x 1.793440 0.000000 0.000000 
#    y 0.000000 1.914620 0.000000 
#    z 0.000000 0.000000 1.879750 
# 
# From -- ./inp_files/22142.got.cif
#   From: 2010.03.12/outbox.cif.g09.slc.cpg/sg46_12_cif.got.tgz:22142.got - 2010.04.14 02:56:35.
