data_PCOD8191820
_publ_section_title
;
Structure prediction by ZEFSAII (Michael W. Deem and Ramdas Pophale) SiO2 
 PCOD8191820
Probable space group: I M A 2
;
_chemical_formula_sum "Si O2"
_cell_formula_units_Z 48
_cell_length_a 8.705110
_cell_length_b 13.671564
_cell_length_c 23.703609
_cell_angle_alpha 90.000000
_cell_angle_beta 90.000000
_cell_angle_gamma 90.000000
_cell_volume 2821.025019
_symmetry_space_group_name_H-M "I M A 2"
_symmetry_group_IT_number 46
_symmetry_cell_setting 'orthorhombic'
loop_
_space_group_symop_operation_xyz
x,y,z
-x,-y,z
1/2-x,y,z
1/2+x,-y,z
1/2+x,1/2+y,1/2+z
1/2-x,1/2-y,1/2+z
-x,1/2+y,1/2+z
x,1/2-y,1/2+z
loop_
_atom_site_type_symbol
_atom_site_label
_atom_site_fract_x
_atom_site_fract_y
_atom_site_fract_z
Si Si1 0.930301 0.720536 0.714880
Si Si2 0.930333 0.896655 0.325019
Si Si3 0.931672 0.103516 0.655533
Si Si4 0.570052 0.703688 0.047634
Si Si5 0.068209 0.894671 0.443282
Si Si6 0.427173 0.398432 0.609288
O O1 0.750000 0.741005 0.704988
O O2 0.966338 0.683473 0.777497
O O3 0.988954 0.639565 0.669867
O O4 0.022409 0.820429 0.704645
O O5 0.750000 0.910637 0.334666
O O6 0.007404 0.859333 0.382559
O O7 0.000000 0.000000 0.305779
O O8 0.750000 0.097390 0.649501
O O9 0.003236 0.133816 0.595777
O O10 0.000000 0.000000 0.674111
O O11 0.750000 0.681739 0.042143
O O12 0.537295 0.816835 0.062140
O O13 0.485811 0.684011 0.988906
O O14 0.250000 0.901921 0.442034
O O15 0.000000 0.000000 0.459325
O O16 0.500000 0.500000 0.590479
O O17 0.250000 0.419775 0.615008
#
# Coordination Sequence:
#
# PCOD8191820 Si02
#       6
#     8   8   8   8   8   8
#     4   9  19  34  50  72 101 132 164 199 240 286
#     4  10  19  32  51  74 102 133 164 201 244 289
#     4  11  21  33  51  74 100 130 163 201 245 293
#     4  10  20  35  51  71 100 131 164 202 246 291
#     4  11  21  33  50  73 100 130 165 203 245 293
#     4   9  18  31  49  72  99 128 158 196 238 284
#
# _framework density 17.015091000000002
#
# number of rings (size 3 to 8) (size 9 to 14) (size 15 to 20)
#    0.000    2.000    0.000    7.000    0.000    4.667 
#    0.000    0.000    0.000    1.000    0.000    4.667 
#    0.000    0.000    0.000    0.000    0.000    0.000 
#
# Total GULP energy -297649.923307 kJ/mol
# GULP energy per Si atom -12402.080138 kJ/mol
# Density = 1.697636 g / cm^3
# Si number density = 17.015091 Si / 1000 Ang^3
#
#
#
# Elastic Constant Matrix: (Units=GPa)
#
#
# Indices 1 2 3 4 5 6 
#
# 1 115.7521 56.5965 57.7597 0.0000 0.0000 0.0000
# 2 56.5965 117.4622 59.5768 0.0000 0.0000 0.0000
# 3 57.7597 59.5768 110.4382 0.0000 0.0000 0.0000
# 4 0.0000 0.0000 0.0000 21.3830 0.0000 0.0000
# 5 0.0000 0.0000 0.0000 0.0000 28.3536 0.0000
# 6 0.0000 0.0000 0.0000 0.0000 0.0000 31.5553
#
#
#
# Elastic Compliance Matrix: (Units=1/GPa)
#
#
# Indices 1 2 3 4 5 6 
#
# 1 0.012827 -0.003824 -0.004646 0.000000 0.000000 0.000000
# 2 -0.003824 0.012860 -0.004938 0.000000 0.000000 0.000000
# 3 -0.004646 -0.004938 0.014148 0.000000 0.000000 0.000000
# 4 0.000000 0.000000 0.000000 0.046766 0.000000 0.000000
# 5 0.000000 0.000000 0.000000 0.000000 0.035269 0.000000
# 6 0.000000 0.000000 0.000000 0.000000 0.000000 0.031690
#
#
# Mechanical properties :
#
#
# Convention : Reuss Voigt Hill
#
# Bulk Modulus (GPa) = 76.80012 76.83537 76.81775
# Shear Modulus (GPa) = 27.06859 27.57301 27.32080
#
# Velocity S-wave (km/s) = 3.99288 4.02991 4.01144
# Velocity P-wave (km/s) = 8.15426 8.17978 8.16703
#
# Compressibility (1/GPa) = 0.01302081
#
# Stress axis : x y z
#
# Youngs Moduli (GPa) = 77.95978 77.75879 70.68075
#
# Poissons Ratio (x) = 0.29736 0.32836
# Poissons Ratio (y) = 0.29813 0.34899
# Poissons Ratio (z) = 0.36217 0.38394
#
# Static dielectric constant tensor:
#      x y z
#    x 3.267470 0.000000 0.000000 
#    y 0.000000 3.140240 0.000000 
#    z 0.000000 0.000000 3.158320 
# 
# 
# High freq. dielectric constant tensor:
#      x y z
#    x 1.670080 0.000000 0.000000 
#    y 0.000000 1.645780 0.000000 
#    z 0.000000 0.000000 1.648160 
# 
# From -- ./inp_files/22908.got.cif
#   From: 2010.03.12/outbox.cif.g09.slc.cpg/sg46_12_cif.got.tgz:22908.got - 2010.04.14 02:56:35.
