data_PCOD8191688
_publ_section_title
;
Structure prediction by ZEFSAII (Michael W. Deem and Ramdas Pophale) SiO2 
 PCOD8191688
Probable space group: I M A 2
;
_chemical_formula_sum "Si O2"
_cell_formula_units_Z 64
_cell_length_a 8.882829
_cell_length_b 22.267085
_cell_length_c 15.349094
_cell_angle_alpha 90.000000
_cell_angle_beta 90.000000
_cell_angle_gamma 90.000000
_cell_volume 3035.969572
_symmetry_space_group_name_H-M "I M A 2"
_symmetry_group_IT_number 46
_symmetry_cell_setting 'orthorhombic'
loop_
_space_group_symop_operation_xyz
x,y,z
-x,-y,z
1/2-x,y,z
1/2+x,-y,z
1/2+x,1/2+y,1/2+z
1/2-x,1/2-y,1/2+z
-x,1/2+y,1/2+z
x,1/2-y,1/2+z
loop_
_atom_site_type_symbol
_atom_site_label
_atom_site_fract_x
_atom_site_fract_y
_atom_site_fract_z
Si Si1 0.921087 0.562262 0.240700
Si Si2 0.074529 0.766284 0.315434
Si Si3 0.074984 0.685030 0.998913
Si Si4 0.074486 0.564497 0.407784
Si Si5 0.075916 0.312877 0.175572
Si Si6 0.576884 0.436674 0.595865
Si Si7 0.920673 0.616822 0.752790
Si Si8 0.425405 0.437197 0.932948
O O1 0.750000 0.545356 0.260530
O O2 0.935437 0.614165 0.168330
O O3 0.000000 0.500000 0.211671
O O4 0.992675 0.595108 0.326178
O O5 0.250000 0.777215 0.292785
O O6 0.055266 0.765220 0.421261
O O7 0.014660 0.708802 0.261925
O O8 0.966227 0.819047 0.287023
O O9 0.250000 0.674644 0.018746
O O10 0.996011 0.711914 0.085754
O O11 0.005632 0.620156 0.975583
O O12 0.250000 0.560410 0.386970
O O13 0.044638 0.595080 0.501857
O O14 0.000000 0.500000 0.413143
O O15 0.250000 0.292631 0.182542
O O16 0.500000 0.500000 0.607199
O O17 0.750000 0.450837 0.606421
O O18 0.525677 0.392538 0.670381
O O19 0.750000 0.617816 0.720373
O O20 0.943408 0.567268 0.828191
O O21 0.500000 0.500000 0.963849
O O22 0.250000 0.436844 0.960231
#
# Coordination Sequence:
#
# PCOD8191688 Si02
#       8
#     8   8   8   8   8   8   8   8
#     4  10  21  37  59  87 118 153 193 238 293 355
#     4  10  22  42  65  88 117 155 200 251 303 357
#     4  10  22  41  65  91 121 159 201 253 307 358
#     4   9  17  30  49  73 106 148 188 234 288 341
#     4  11  24  42  65  93 123 159 201 246 301 363
#     4  10  19  30  47  75 111 153 199 249 300 358
#     4  10  20  34  54  80 113 155 199 249 304 358
#     4  10  20  34  55  85 121 160 201 246 300 364
#
# _framework density 21.080580000000001
#
# number of rings (size 3 to 8) (size 9 to 14) (size 15 to 20)
#    0.000    2.000    0.000    4.125    0.000    8.000 
#    2.250    1.250    0.000    0.000    0.000    0.000 
#    0.000    0.000    0.000    0.000    0.000    0.000 
#
# Total GULP energy -396505.958367 kJ/mol
# GULP energy per Si atom -12390.811199 kJ/mol
# Density = 2.103260 g / cm^3
# Si number density = 21.080580 Si / 1000 Ang^3
#
#
#
# Elastic Constant Matrix: (Units=GPa)
#
#
# Indices 1 2 3 4 5 6 
#
# 1 95.6675 13.5324 41.5300 0.0000 0.0000 0.0000
# 2 13.5324 56.1070 21.8245 0.0000 0.0000 0.0000
# 3 41.5300 21.8245 106.4743 -0.0001 0.0001 0.0000
# 4 0.0000 0.0000 -0.0001 22.7611 0.0000 0.0000
# 5 0.0000 0.0000 0.0001 0.0000 34.5326 0.0000
# 6 0.0000 0.0000 0.0000 0.0000 0.0000 29.7332
#
#
#
# Elastic Compliance Matrix: (Units=1/GPa)
#
#
# Indices 1 2 3 4 5 6 
#
# 1 0.012661 -0.001231 -0.004686 0.000000 0.000000 0.000000
# 2 -0.001231 0.019487 -0.003514 0.000000 0.000000 0.000000
# 3 -0.004686 -0.003514 0.011940 0.000000 0.000000 0.000000
# 4 0.000000 0.000000 0.000000 0.043935 0.000000 0.000000
# 5 0.000000 0.000000 0.000000 0.000000 0.028958 0.000000
# 6 0.000000 0.000000 0.000000 0.000000 0.000000 0.033632
#
#
# Mechanical properties :
#
#
# Convention : Reuss Voigt Hill
#
# Bulk Modulus (GPa) = 39.64215 45.78029 42.71122
# Shear Modulus (GPa) = 28.10810 29.49618 28.80214
#
# Velocity S-wave (km/s) = 3.65549 3.74466 3.70034
# Velocity P-wave (km/s) = 6.05497 6.36086 6.20980
#
# Compressibility (1/GPa) = 0.02522568
#
# Stress axis : x y z
#
# Youngs Moduli (GPa) = 78.98082 51.31644 83.75145
#
# Poissons Ratio (x) = 0.06317 0.39248
# Poissons Ratio (y) = 0.09722 0.29432
# Poissons Ratio (z) = 0.37012 0.18034
#
# Static dielectric constant tensor:
#      x y z
#    x 3.792820 0.000000 0.000000 
#    y 0.000000 3.455330 0.000000 
#    z 0.000000 0.000000 4.478070 
# 
# 
# High freq. dielectric constant tensor:
#      x y z
#    x 1.842160 0.000000 0.000000 
#    y 0.000000 1.796750 0.000000 
#    z 0.000000 0.000000 1.835060 
# 
# From -- ./inp_files/14481.got.cif
#   From: 2010.03.12/outbox.cif.g09.slc.cpg/sg46_8_cif.got.tgz:14481.got - 2010.04.14 02:56:35.
