data_PCOD8191026
_publ_section_title
;
Structure prediction by ZEFSAII (Michael W. Deem and Ramdas Pophale) SiO2 
 PCOD8191026
Probable space group: I B A 2
;
_chemical_formula_sum "Si O2"
_cell_formula_units_Z 64
_cell_length_a 8.456813
_cell_length_b 29.929806
_cell_length_c 11.368802
_cell_angle_alpha 90.000000
_cell_angle_beta 90.000000
_cell_angle_gamma 90.000000
_cell_volume 2877.566256
_symmetry_space_group_name_H-M "I B A 2"
_symmetry_group_IT_number 45
_symmetry_cell_setting 'orthorhombic'
loop_
_space_group_symop_operation_xyz
x,y,z
-x,-y,z
-x,y,1/2+z
x,-y,1/2+z
1/2+x,1/2+y,1/2+z
1/2-x,1/2-y,1/2+z
1/2-x,1/2+y,z
1/2+x,1/2-y,z
loop_
_atom_site_type_symbol
_atom_site_label
_atom_site_fract_x
_atom_site_fract_y
_atom_site_fract_z
Si Si1 0.799883 0.694617 0.518850
Si Si2 0.436126 0.288642 0.968581
Si Si3 0.851637 0.386813 0.865381
Si Si4 0.839501 0.833873 0.245956
Si Si5 0.797507 0.951249 0.046848
Si Si6 0.161483 0.861920 0.141979
Si Si7 0.668754 0.548473 0.014492
Si Si8 0.185728 0.582472 0.294266
O O1 0.620346 0.700256 0.476513
O O2 0.908477 0.737368 0.498825
O O3 0.887433 0.652454 0.458871
O O4 0.790292 0.686507 0.658166
O O5 0.325162 0.319229 0.054069
O O6 0.399427 0.294821 0.830789
O O7 0.765100 0.359924 0.760090
O O8 0.000320 0.415342 0.820588
O O9 0.747824 0.425180 0.927746
O O10 0.751595 0.868992 0.328534
O O11 0.976972 0.861575 0.178156
O O12 0.719049 0.927138 0.157773
O O13 0.984856 0.952568 0.041141
O O14 0.744014 0.003217 0.057703
O O15 0.227359 0.906851 0.079532
O O16 0.717169 0.548627 0.876835
#
# Coordination Sequence:
#
# PCOD8191026 Si02
#       8
#     8   8   8   8   8   8   8   8
#     4  11  26  44  69 102 139 183 233 298 350 435
#     4  11  25  42  69 104 139 182 240 289 364 417
#     4  12  27  46  68 103 149 186 233 295 365 427
#     4  11  22  45  72  95 141 183 241 291 346 425
#     4  11  26  48  70 109 142 187 247 294 355 438
#     4  11  23  45  69  98 137 191 231 295 351 421
#     4  11  25  44  78 101 136 188 248 290 355 429
#     4  12  26  45  73 102 143 189 232 297 362 423
#
# _framework density 22.241018
#
# number of rings (size 3 to 8) (size 9 to 14) (size 15 to 20)
#    0.000    0.750    5.000    1.500    7.000    2.500 
#    0.000    0.000    0.000    0.000    0.000    0.000 
#    0.000    0.000    0.000    0.000    0.000    0.000 
#
# Total GULP energy -396575.888729 kJ/mol
# GULP energy per Si atom -12392.996523 kJ/mol
# Density = 2.219040 g / cm^3
# Si number density = 22.241018 Si / 1000 Ang^3
#
#
#
# Elastic Constant Matrix: (Units=GPa)
#
#
# Indices 1 2 3 4 5 6 
#
# 1 52.9239 26.3406 34.7946 -0.0008 0.0007 0.0003
# 2 26.3406 127.9702 26.2860 -0.0012 0.0004 0.0003
# 3 34.7946 26.2860 104.6444 -0.0032 0.0011 0.0009
# 4 -0.0008 -0.0012 -0.0032 28.7492 0.0007 0.0003
# 5 0.0007 0.0004 0.0011 0.0007 24.5524 -0.0006
# 6 0.0003 0.0003 0.0009 0.0003 -0.0006 26.7368
#
#
#
# Elastic Compliance Matrix: (Units=1/GPa)
#
#
# Indices 1 2 3 4 5 6 
#
# 1 0.025772 -0.003737 -0.007630 0.000000 0.000000 0.000000
# 2 -0.003737 0.008781 -0.000963 0.000000 0.000000 0.000000
# 3 -0.007630 -0.000963 0.012335 0.000001 0.000000 0.000000
# 4 0.000000 0.000000 0.000001 0.034784 -0.000001 0.000000
# 5 0.000000 0.000000 0.000000 -0.000001 0.040729 0.000001
# 6 0.000000 0.000000 0.000000 0.000000 0.000001 0.037402
#
#
# Mechanical properties :
#
#
# Convention : Reuss Voigt Hill
#
# Bulk Modulus (GPa) = 44.99112 51.15344 48.07228
# Shear Modulus (GPa) = 26.05884 29.21551 27.63718
#
# Velocity S-wave (km/s) = 3.42666 3.62828 3.52891
# Velocity P-wave (km/s) = 5.99407 6.37197 6.18591
#
# Compressibility (1/GPa) = 0.02222661
#
# Stress axis : x y z
#
# Youngs Moduli (GPa) = 38.80220 113.87661 81.06854
#
# Poissons Ratio (x) = 0.42560 0.61858
# Poissons Ratio (y) = 0.14502 0.07808
# Poissons Ratio (z) = 0.29608 0.10968
#
# Static dielectric constant tensor:
#      x y z
#    x 3.748880 0.000000 0.000000 
#    y 0.000000 4.339180 0.000000 
#    z 0.000000 0.000000 4.113500 
# 
# 
# High freq. dielectric constant tensor:
#      x y z
#    x 1.857730 0.000000 0.000000 
#    y 0.000000 1.883210 0.000000 
#    z 0.000000 0.000000 1.887570 
# 
# From -- ./inp_files/3407.got.cif
#   From: 2010.03.12/outbox.cif.g09.slc.cpg/sg45_2_cif.got.tgz:3407.got - 2010.04.14 02:50:11.
