data_PCOD8191968
_publ_section_title
;
Structure prediction by ZEFSAII (Michael W. Deem and Ramdas Pophale) SiO2 
 PCOD8191968
Probable space group: I M A 2
;
_chemical_formula_sum "Si O2"
_cell_formula_units_Z 64
_cell_length_a 8.706090
_cell_length_b 16.384840
_cell_length_c 22.293909
_cell_angle_alpha 90.000000
_cell_angle_beta 90.000000
_cell_angle_gamma 90.000000
_cell_volume 3180.179116
_symmetry_space_group_name_H-M "I M A 2"
_symmetry_group_IT_number 46
_symmetry_cell_setting 'orthorhombic'
loop_
_space_group_symop_operation_xyz
x,y,z
-x,-y,z
1/2-x,y,z
1/2+x,-y,z
1/2+x,1/2+y,1/2+z
1/2-x,1/2-y,1/2+z
-x,1/2+y,1/2+z
x,1/2-y,1/2+z
loop_
_atom_site_type_symbol
_atom_site_label
_atom_site_fract_x
_atom_site_fract_y
_atom_site_fract_z
Si Si1 0.075535 0.414170 0.104770
Si Si2 0.429965 0.711866 0.324977
Si Si3 0.425695 0.920278 0.405307
Si Si4 0.069493 0.251531 0.942693
Si Si5 0.424615 0.622761 0.774907
Si Si6 0.932335 0.415615 0.644935
Si Si7 0.424537 0.417794 0.246428
Si Si8 0.931337 0.241392 0.067580
O O1 0.250000 0.414271 0.081432
O O2 0.067307 0.409248 0.175806
O O3 0.000000 0.500000 0.082578
O O4 0.995648 0.331732 0.081714
O O5 0.250000 0.722311 0.339239
O O6 0.517156 0.694149 0.387447
O O7 0.502391 0.792929 0.295394
O O8 0.460392 0.645253 0.275700
O O9 0.250000 0.909451 0.425736
O O10 0.520250 0.843981 0.429153
O O11 0.436461 0.934915 0.333194
O O12 0.500000 0.000000 0.435907
O O13 0.250000 0.246767 0.952335
O O14 0.986049 0.216951 0.001405
O O15 0.250000 0.641420 0.757048
O O16 0.499406 0.588280 0.713657
O O17 0.750000 0.422496 0.641093
O O18 0.988524 0.332664 0.611018
O O19 0.000000 0.500000 0.616768
O O20 0.500000 0.500000 0.269108
O O21 0.250000 0.409208 0.269773
O O22 0.750000 0.248164 0.071140
#
# Coordination Sequence:
#
# PCOD8191968 Si02
#       8
#     8   8   8   8   8   8   8   8
#     4  10  21  37  59  89 122 155 191 233 284 345
#     4  10  19  35  58  82 111 145 183 227 279 337
#     4  10  19  33  54  82 115 147 180 219 269 330
#     4  11  23  39  57  78 106 142 188 236 283 337
#     4   8  16  31  53  82 113 144 175 214 268 328
#     4  10  21  37  58  84 114 148 187 231 280 333
#     4  10  20  34  54  83 116 147 182 225 278 338
#     4  11  23  40  60  82 112 152 197 243 291 340
#
# _framework density 20.124652000000001
#
# number of rings (size 3 to 8) (size 9 to 14) (size 15 to 20)
#    0.000    2.000    0.000    4.875    0.000    4.000 
#    0.000    6.250    0.000    1.500    0.000    0.000 
#    0.000    0.000    0.000    0.000    0.000    0.000 
#
# Total GULP energy -396568.536257 kJ/mol
# GULP energy per Si atom -12392.766758 kJ/mol
# Density = 2.007885 g / cm^3
# Si number density = 20.124652 Si / 1000 Ang^3
#
#
#
# Elastic Constant Matrix: (Units=GPa)
#
#
# Indices 1 2 3 4 5 6 
#
# 1 74.8337 36.3551 30.4018 0.0000 0.0000 0.0000
# 2 36.3551 95.0344 24.1068 0.0000 0.0000 0.0000
# 3 30.4018 24.1068 56.7592 0.0000 0.0000 0.0000
# 4 0.0000 0.0000 0.0000 12.2840 0.0000 0.0000
# 5 0.0000 0.0000 0.0000 0.0000 27.5720 0.0000
# 6 0.0000 0.0000 0.0000 0.0000 0.0000 34.2998
#
#
#
# Elastic Compliance Matrix: (Units=1/GPa)
#
#
# Indices 1 2 3 4 5 6 
#
# 1 0.019205 -0.005310 -0.008032 0.000000 0.000000 0.000000
# 2 -0.005310 0.013261 -0.002788 0.000000 0.000000 0.000000
# 3 -0.008032 -0.002788 0.023105 0.000000 0.000000 0.000000
# 4 0.000000 0.000000 0.000000 0.081407 0.000000 0.000000
# 5 0.000000 0.000000 0.000000 0.000000 0.036269 0.000000
# 6 0.000000 0.000000 0.000000 0.000000 0.000000 0.029155
#
#
# Mechanical properties :
#
#
# Convention : Reuss Voigt Hill
#
# Bulk Modulus (GPa) = 42.89711 45.37274 44.13493
# Shear Modulus (GPa) = 20.62444 23.88208 22.25326
#
# Velocity S-wave (km/s) = 3.20478 3.44860 3.32892
# Velocity P-wave (km/s) = 5.92082 6.20096 6.06251
#
# Compressibility (1/GPa) = 0.02331159
#
# Stress axis : x y z
#
# Youngs Moduli (GPa) = 52.06858 75.40943 43.28143
#
# Poissons Ratio (x) = 0.40039 0.34763
# Poissons Ratio (y) = 0.27646 0.12068
# Poissons Ratio (z) = 0.41821 0.21026
#
# Static dielectric constant tensor:
#      x y z
#    x 3.589930 0.000000 0.000000 
#    y 0.000000 3.535450 0.000000 
#    z 0.000000 0.000000 3.805030 
# 
# 
# High freq. dielectric constant tensor:
#      x y z
#    x 1.781170 0.000000 0.000000 
#    y 0.000000 1.782970 0.000000 
#    z 0.000000 0.000000 1.782700 
# 
# From -- ./inp_files/23160.got.cif
#   From: 2010.03.12/outbox.cif.g09.slc.cpg/sg46_12_cif.got.tgz:23160.got - 2010.04.14 02:56:35.
