data_PCOD8191339
_publ_section_title
;
Structure prediction by ZEFSAII (Michael W. Deem and Ramdas Pophale) SiO2 
 PCOD8191339
Probable space group: I M A 2
;
_chemical_formula_sum "Si O2"
_cell_formula_units_Z 56
_cell_length_a 8.650159
_cell_length_b 13.677252
_cell_length_c 29.162958
_cell_angle_alpha 90.000000
_cell_angle_beta 90.000000
_cell_angle_gamma 90.000000
_cell_volume 3450.281357
_symmetry_space_group_name_H-M "I M A 2"
_symmetry_group_IT_number 46
_symmetry_cell_setting 'orthorhombic'
loop_
_space_group_symop_operation_xyz
x,y,z
-x,-y,z
1/2-x,y,z
1/2+x,-y,z
1/2+x,1/2+y,1/2+z
1/2-x,1/2-y,1/2+z
-x,1/2+y,1/2+z
x,1/2-y,1/2+z
loop_
_atom_site_type_symbol
_atom_site_label
_atom_site_fract_x
_atom_site_fract_y
_atom_site_fract_z
Si Si1 0.933125 0.392459 0.646100
Si Si2 0.567854 0.106402 0.328040
Si Si3 0.066414 0.108504 0.053598
Si Si4 0.930333 0.217851 0.236829
Si Si5 0.932489 0.392473 0.460531
Si Si6 0.567259 0.787161 0.874771
Si Si7 0.569019 0.604817 0.283372
O O1 0.750000 0.400161 0.641967
O O2 0.985694 0.326334 0.688691
O O3 0.000000 0.500000 0.653818
O O4 0.002566 0.341273 0.600125
O O5 0.750000 0.107074 0.337045
O O6 0.526590 0.140915 0.276633
O O7 0.484295 0.176760 0.364470
O O8 0.500000 0.000000 0.335925
O O9 0.250000 0.109428 0.053228
O O10 0.000000 0.000000 0.054280
O O11 0.001466 0.156902 0.006977
O O12 0.750000 0.240647 0.236991
O O13 0.017339 0.320012 0.244035
O O14 0.750000 0.401570 0.465005
O O15 0.000000 0.500000 0.451425
O O16 0.977567 0.321611 0.419503
O O17 0.750000 0.792335 0.882816
O O18 0.512863 0.856482 0.832914
O O19 0.500000 0.500000 0.272512
O O20 0.750000 0.595309 0.282462
#
# Coordination Sequence:
#
# PCOD8191339 Si02
#       7
#     8   8   8   8   8   8   8
#     4  10  18  29  45  67  94 124 154 189 228 271
#     4  10  19  32  48  68  94 125 157 193 231 271
#     4  10  18  29  44  64  91 122 153 188 227 273
#     4   9  19  32  47  67  93 123 157 191 228 271
#     4  11  20  31  47  68  94 124 155 190 230 276
#     4  10  20  33  48  69  93 122 157 192 230 275
#     4  10  20  32  48  67  92 122 154 191 230 271
#
# _framework density 16.230561000000002
#
# number of rings (size 3 to 8) (size 9 to 14) (size 15 to 20)
#    0.000    2.000    0.000    6.857    0.000    4.571 
#    0.000    0.000    0.000    0.000    0.000    1.000 
#    0.000    4.571    0.000    0.000    0.000    0.000 
#
# Total GULP energy -347211.557423 kJ/mol
# GULP energy per Si atom -12400.412765 kJ/mol
# Density = 1.619362 g / cm^3
# Si number density = 16.230561 Si / 1000 Ang^3
#
#
#
# Elastic Constant Matrix: (Units=GPa)
#
#
# Indices 1 2 3 4 5 6 
#
# 1 90.8937 31.8576 48.7281 0.0000 0.0000 0.0000
# 2 31.8576 94.0423 53.2480 0.0000 0.0000 0.0000
# 3 48.7281 53.2480 137.7232 0.0000 0.0000 0.0000
# 4 0.0000 0.0000 0.0000 19.6608 0.0000 0.0000
# 5 0.0000 0.0000 0.0000 0.0000 27.9288 0.0000
# 6 0.0000 0.0000 0.0000 0.0000 0.0000 26.1363
#
#
#
# Elastic Compliance Matrix: (Units=1/GPa)
#
#
# Indices 1 2 3 4 5 6 
#
# 1 0.014016 -0.002484 -0.003999 0.000000 0.000000 0.000000
# 2 -0.002484 0.014054 -0.004555 0.000000 0.000000 0.000000
# 3 -0.003999 -0.004555 0.010437 0.000000 0.000000 0.000000
# 4 0.000000 0.000000 0.000000 0.050863 0.000000 0.000000
# 5 0.000000 0.000000 0.000000 0.000000 0.035805 0.000000
# 6 0.000000 0.000000 0.000000 0.000000 0.000000 0.038261
#
#
# Mechanical properties :
#
#
# Convention : Reuss Voigt Hill
#
# Bulk Modulus (GPa) = 60.85728 65.59186 63.22457
# Shear Modulus (GPa) = 26.17965 27.33357 26.75661
#
# Velocity S-wave (km/s) = 4.02056 4.10821 4.06462
# Velocity P-wave (km/s) = 7.68961 7.93747 7.81452
#
# Compressibility (1/GPa) = 0.01643189
#
# Stress axis : x y z
#
# Youngs Moduli (GPa) = 71.34609 71.15421 95.81508
#
# Poissons Ratio (x) = 0.17675 0.38314
# Poissons Ratio (y) = 0.17722 0.43642
# Poissons Ratio (z) = 0.28529 0.32410
#
# Static dielectric constant tensor:
#      x y z
#    x 3.180750 0.000000 0.000000 
#    y 0.000000 2.869860 0.000000 
#    z 0.000000 0.000000 3.564970 
# 
# 
# High freq. dielectric constant tensor:
#      x y z
#    x 1.643830 0.000000 0.000000 
#    y 0.000000 1.590220 0.000000 
#    z 0.000000 0.000000 1.626880 
# 
# From -- ./inp_files/25251.got.cif
#   From: 2010.03.12/outbox.cif.g09.slc.cpg/sg46_13_cif.got.tgz:25251.got - 2010.04.14 02:56:35.
