data_PCOD8191540
_publ_section_title
;
Structure prediction by ZEFSAII (Michael W. Deem and Ramdas Pophale) SiO2 
 PCOD8191540
Probable space group: I M A 2
;
_chemical_formula_sum "Si O2"
_cell_formula_units_Z 48
_cell_length_a 16.538797
_cell_length_b 17.398211
_cell_length_c 8.872346
_cell_angle_alpha 90.000000
_cell_angle_beta 90.000000
_cell_angle_gamma 90.000000
_cell_volume 2552.977458
_symmetry_space_group_name_H-M "I M A 2"
_symmetry_group_IT_number 46
_symmetry_cell_setting 'orthorhombic'
loop_
_space_group_symop_operation_xyz
x,y,z
-x,-y,z
1/2-x,y,z
1/2+x,-y,z
1/2+x,1/2+y,1/2+z
1/2-x,1/2-y,1/2+z
-x,1/2+y,1/2+z
x,1/2-y,1/2+z
loop_
_atom_site_type_symbol
_atom_site_label
_atom_site_fract_x
_atom_site_fract_y
_atom_site_fract_z
Si Si1 0.595515 0.495151 0.684370
Si Si2 0.155568 0.158926 0.100804
Si Si3 0.452837 0.804072 0.594666
Si Si4 0.659829 0.337978 0.640974
Si Si5 0.436804 0.243749 0.847922
Si Si6 0.659890 0.409561 0.945524
O O1 0.500000 0.500000 0.674035
O O2 0.638455 0.569016 0.615829
O O3 0.625633 0.421290 0.587253
O O4 0.623217 0.484515 0.860267
O O5 0.250000 0.175712 0.100847
O O6 0.116325 0.203847 0.239158
O O7 0.119285 0.186592 0.942312
O O8 0.398958 0.727675 0.583482
O O9 0.500859 0.808067 0.751554
O O10 0.515284 0.802369 0.455752
O O11 0.397101 0.880429 0.582052
O O12 0.750000 0.324584 0.575366
O O13 0.662820 0.339382 0.824008
O O14 0.750000 0.428287 0.006646
#
# Coordination Sequence:
#
# PCOD8191540 Si02
#       6
#     8   8   8   8   8   8
#     4  10  18  33  56  82 107 141 190 232 278 333
#     4  11  21  38  58  82 112 147 190 244 287 333
#     4  11  17  35  53  82 117 147 182 230 276 332
#     4   9  18  31  51  84 113 145 185 225 276 338
#     4  10  22  32  55  84 108 146 192 231 283 336
#     4   9  18  31  51  84 112 144 186 224 272 334
#
# _framework density 18.801576000000001
#
# number of rings (size 3 to 8) (size 9 to 14) (size 15 to 20)
#    1.000    1.000    1.667    5.000    0.000    0.000 
#    0.000    0.000    0.000   15.000    0.000   18.667 
#    0.000    0.000    0.000    0.000    0.000    0.000 
#
# Total GULP energy -297462.724387 kJ/mol
# GULP energy per Si atom -12394.280183 kJ/mol
# Density = 1.875878 g / cm^3
# Si number density = 18.801576 Si / 1000 Ang^3
#
#
#
# Elastic Constant Matrix: (Units=GPa)
#
#
# Indices 1 2 3 4 5 6 
#
# 1 135.3879 26.5178 31.1917 0.0000 0.0000 0.0000
# 2 26.5178 70.8674 17.0614 0.0000 0.0000 0.0000
# 3 31.1917 17.0614 64.2982 0.0000 0.0000 0.0000
# 4 0.0000 0.0000 0.0000 28.3597 0.0000 0.0000
# 5 0.0000 0.0000 0.0000 0.0000 24.6081 0.0000
# 6 0.0000 0.0000 0.0000 0.0000 0.0000 25.0166
#
#
#
# Elastic Compliance Matrix: (Units=1/GPa)
#
#
# Indices 1 2 3 4 5 6 
#
# 1 0.008677 -0.002386 -0.003576 0.000000 0.000000 0.000000
# 2 -0.002386 0.015730 -0.003016 0.000000 0.000000 0.000000
# 3 -0.003576 -0.003016 0.018088 0.000000 0.000000 0.000000
# 4 0.000000 0.000000 0.000000 0.035261 0.000000 0.000000
# 5 0.000000 0.000000 0.000000 0.000000 0.040637 0.000000
# 6 0.000000 0.000000 0.000000 0.000000 0.000000 0.039974
#
#
# Mechanical properties :
#
#
# Convention : Reuss Voigt Hill
#
# Bulk Modulus (GPa) = 40.75381 46.67726 43.71554
# Shear Modulus (GPa) = 27.09969 28.64904 27.87437
#
# Velocity S-wave (km/s) = 3.80063 3.90777 3.85457
# Velocity P-wave (km/s) = 6.40176 6.72614 6.56596
#
# Compressibility (1/GPa) = 0.02453758
#
# Stress axis : x y z
#
# Youngs Moduli (GPa) = 115.24083 63.57327 55.28565
#
# Poissons Ratio (x) = 0.15169 0.19772
# Poissons Ratio (y) = 0.27496 0.16676
# Poissons Ratio (z) = 0.41215 0.19176
#
# Static dielectric constant tensor:
#      x y z
#    x 3.656550 0.000000 0.000000 
#    y 0.000000 3.203810 0.000000 
#    z 0.000000 0.000000 3.218970 
# 
# 
# High freq. dielectric constant tensor:
#      x y z
#    x 1.754150 0.000000 0.000000 
#    y 0.000000 1.706990 0.000000 
#    z 0.000000 0.000000 1.699830 
# 
# From -- ./inp_files/6698.got.cif
#   From: 2010.03.12/outbox.cif.g09.slc.cpg/sg46_4_cif.got.tgz:6698.got - 2010.04.14 02:56:35.
