data_PCOD8191641
_publ_section_title
;
Structure prediction by ZEFSAII (Michael W. Deem and Ramdas Pophale) SiO2 
 PCOD8191641
Probable space group: I M A 2
;
_chemical_formula_sum "Si O2"
_cell_formula_units_Z 64
_cell_length_a 8.659604
_cell_length_b 18.302813
_cell_length_c 26.274217
_cell_angle_alpha 90.000000
_cell_angle_beta 90.000000
_cell_angle_gamma 90.000000
_cell_volume 4164.334984
_symmetry_space_group_name_H-M "I M A 2"
_symmetry_group_IT_number 46
_symmetry_cell_setting 'orthorhombic'
loop_
_space_group_symop_operation_xyz
x,y,z
-x,-y,z
1/2-x,y,z
1/2+x,-y,z
1/2+x,1/2+y,1/2+z
1/2-x,1/2-y,1/2+z
-x,1/2+y,1/2+z
x,1/2-y,1/2+z
loop_
_atom_site_type_symbol
_atom_site_label
_atom_site_fract_x
_atom_site_fract_y
_atom_site_fract_z
Si Si1 0.567077 0.077523 0.215350
Si Si2 0.420323 0.798560 0.459467
Si Si3 0.933462 0.578030 0.606105
Si Si4 0.067229 0.165034 0.305428
Si Si5 0.933760 0.342175 0.513199
Si Si6 0.066781 0.421076 0.416101
Si Si7 0.923273 0.294795 0.357768
Si Si8 0.929261 0.578387 0.904655
O O1 0.750000 0.071210 0.210438
O O2 0.495612 0.099958 0.161399
O O3 0.520437 0.139360 0.255178
O O4 0.500000 0.000000 0.234038
O O5 0.250000 0.828677 0.472428
O O6 0.478651 0.743018 0.503297
O O7 0.414929 0.751179 0.408854
O O8 0.530878 0.868233 0.452020
O O9 0.750000 0.574237 0.606950
O O10 0.000000 0.500000 0.588800
O O11 0.992158 0.638938 0.567183
O O12 0.250000 0.160981 0.297709
O O13 0.010586 0.113345 0.351877
O O14 0.016684 0.248533 0.315601
O O15 0.750000 0.352518 0.513556
O O16 0.002404 0.394716 0.470220
O O17 0.250000 0.422935 0.418998
O O18 0.000000 0.500000 0.403630
O O19 0.013703 0.369439 0.369537
O O20 0.750000 0.311956 0.338119
O O21 0.750000 0.567703 0.901905
O O22 0.000000 0.500000 0.914406
#
# Coordination Sequence:
#
# PCOD8191641 Si02
#       8
#     8   8   8   8   8   8   8   8
#     4  11  21  33  47  64  87 116 149 187 224 260
#     4   8  16  29  44  60  83 111 141 176 214 254
#     4  11  21  33  47  64  87 115 147 185 222 260
#     4  10  19  31  46  65  87 116 150 183 219 262
#     4  10  19  32  47  64  86 115 148 182 220 264
#     4  11  20  30  44  64  89 118 150 184 219 260
#     4   9  17  30  45  63  86 114 145 180 219 260
#     4  10  19  28  42  62  87 115 146 179 213 254
#
# _framework density 15.368600000000001
#
# number of rings (size 3 to 8) (size 9 to 14) (size 15 to 20)
#    0.000    2.000    0.000    7.125    0.000    6.000 
#    0.000    0.000    0.000    0.000    0.000    0.000 
#    0.000    1.000    0.000    7.000    0.000    5.500 
#
# Total GULP energy -396784.689182 kJ/mol
# GULP energy per Si atom -12399.521537 kJ/mol
# Density = 1.533362 g / cm^3
# Si number density = 15.368600 Si / 1000 Ang^3
#
#
#
# Elastic Constant Matrix: (Units=GPa)
#
#
# Indices 1 2 3 4 5 6 
#
# 1 111.8301 47.2878 36.2664 0.0000 0.0000 0.0000
# 2 47.2878 104.6066 52.8843 0.0000 0.0000 0.0000
# 3 36.2664 52.8843 73.6366 0.0000 0.0000 0.0000
# 4 0.0000 0.0000 0.0000 36.1477 0.0000 0.0000
# 5 0.0000 0.0000 0.0000 0.0000 23.3097 0.0000
# 6 0.0000 0.0000 0.0000 0.0000 0.0000 27.4864
#
#
#
# Elastic Compliance Matrix: (Units=1/GPa)
#
#
# Indices 1 2 3 4 5 6 
#
# 1 0.011468 -0.003656 -0.003022 0.000000 0.000000 0.000000
# 2 -0.003656 0.016175 -0.009816 0.000000 0.000000 0.000000
# 3 -0.003022 -0.009816 0.022118 0.000000 0.000000 0.000000
# 4 0.000000 0.000000 0.000000 0.027664 0.000000 0.000000
# 5 0.000000 0.000000 0.000000 0.000000 0.042901 0.000000
# 6 0.000000 0.000000 0.000000 0.000000 0.000000 0.036382
#
#
# Mechanical properties :
#
#
# Convention : Reuss Voigt Hill
#
# Bulk Modulus (GPa) = 59.62084 62.55002 61.08543
# Shear Modulus (GPa) = 25.60332 27.63110 26.61721
#
# Velocity S-wave (km/s) = 4.08603 4.24476 4.16615
# Velocity P-wave (km/s) = 7.81915 8.05060 7.93572
#
# Compressibility (1/GPa) = 0.01677266
#
# Stress axis : x y z
#
# Youngs Moduli (GPa) = 87.19622 61.82437 45.21190
#
# Poissons Ratio (x) = 0.22605 0.13664
# Poissons Ratio (y) = 0.31882 0.44378
# Poissons Ratio (z) = 0.26353 0.60685
#
# Static dielectric constant tensor:
#      x y z
#    x 3.122450 0.000000 0.000000 
#    y 0.000000 2.789180 0.000000 
#    z 0.000000 0.000000 2.839170 
# 
# 
# High freq. dielectric constant tensor:
#      x y z
#    x 1.610280 0.000000 0.000000 
#    y 0.000000 1.578370 0.000000 
#    z 0.000000 0.000000 1.555030 
# 
# From -- ./inp_files/23301.got.cif
#   From: 2010.03.12/outbox.cif.g09.slc.cpg/sg46_12_cif.got.tgz:23301.got - 2010.04.14 02:56:35.
