data_PCOD8191011
_publ_section_title
;
Structure prediction by ZEFSAII (Michael W. Deem and Ramdas Pophale) SiO2 
 PCOD8191011
Probable space group: I B A 2
;
_chemical_formula_sum "Si O2"
_cell_formula_units_Z 48
_cell_length_a 8.874810
_cell_length_b 29.681175
_cell_length_c 8.572709
_cell_angle_alpha 90.000000
_cell_angle_beta 90.000000
_cell_angle_gamma 90.000000
_cell_volume 2258.178330
_symmetry_space_group_name_H-M "I B A 2"
_symmetry_group_IT_number 45
_symmetry_cell_setting 'orthorhombic'
loop_
_space_group_symop_operation_xyz
x,y,z
-x,-y,z
-x,y,1/2+z
x,-y,1/2+z
1/2+x,1/2+y,1/2+z
1/2-x,1/2-y,1/2+z
1/2-x,1/2+y,z
1/2+x,1/2-y,z
loop_
_atom_site_type_symbol
_atom_site_label
_atom_site_fract_x
_atom_site_fract_y
_atom_site_fract_z
Si Si1 0.142477 0.118258 0.107930
Si Si2 0.860380 0.552535 0.106579
Si Si3 0.674247 0.368754 0.464356
Si Si4 0.137737 0.281563 0.899521
Si Si5 0.317560 0.959625 0.471864
Si Si6 0.679821 0.205197 0.546354
O O1 0.144718 0.111485 0.293262
O O2 0.176804 0.070625 0.025650
O O3 0.268684 0.153570 0.053991
O O4 0.980054 0.136159 0.058187
O O5 0.782171 0.511565 0.012758
O O6 0.844839 0.544555 0.289395
O O7 0.036287 0.556334 0.067453
O O8 0.783466 0.598896 0.060184
O O9 0.748223 0.319697 0.458746
O O10 0.142178 0.275413 0.715119
O O11 0.185254 0.234297 0.973916
O O12 0.966859 0.293345 0.939464
#
# Coordination Sequence:
#
# PCOD8191011 Si02
#       6
#     8   8   8   8   8   8
#     4  11  24  41  61  89 122 159 201 248 299 355
#     4  11  22  39  63  90 121 158 200 248 299 357
#     4  11  24  41  61  89 122 159 201 248 299 355
#     4  11  24  41  64  91 123 159 200 247 298 355
#     4  11  22  39  63  90 121 158 200 248 299 357
#     4  11  24  41  64  91 123 159 200 247 298 355
#
# _framework density 21.256072
#
# number of rings (size 3 to 8) (size 9 to 14) (size 15 to 20)
#    0.000    1.000    0.000    8.000    0.000   11.333 
#    0.000    3.333    0.000    0.000    0.000    0.000 
#    0.000    0.000    0.000    0.000    0.000    0.000 
#
# Total GULP energy -297804.612523 kJ/mol
# GULP energy per Si atom -12408.525522 kJ/mol
# Density = 2.120769 g / cm^3
# Si number density = 21.256072 Si / 1000 Ang^3
#
#
#
# Elastic Constant Matrix: (Units=GPa)
#
#
# Indices 1 2 3 4 5 6 
#
# 1 58.6072 -5.5637 -13.1841 0.0001 0.0111 0.0060
# 2 -5.5637 51.6165 13.6420 0.0000 0.0054 0.0038
# 3 -13.1841 13.6420 92.9783 -0.0012 0.0292 -0.0209
# 4 0.0001 0.0000 -0.0012 33.6553 0.0057 0.0011
# 5 0.0111 0.0054 0.0292 0.0057 16.6440 0.0114
# 6 0.0060 0.0038 -0.0209 0.0011 0.0114 115.2218
#
#
#
# Elastic Compliance Matrix: (Units=1/GPa)
#
#
# Indices 1 2 3 4 5 6 
#
# 1 0.017708 0.001295 0.002321 0.000000 -0.000016 -0.000001
# 2 0.001295 0.020250 -0.002787 0.000000 -0.000003 -0.000001
# 3 0.002321 -0.002787 0.011493 0.000000 -0.000021 0.000002
# 4 0.000000 0.000000 0.000000 0.029713 -0.000010 0.000000
# 5 -0.000016 -0.000003 -0.000021 -0.000010 0.060082 -0.000006
# 6 -0.000001 -0.000001 0.000002 0.000000 -0.000006 0.008679
#
#
# Mechanical properties :
#
#
# Convention : Reuss Voigt Hill
#
# Bulk Modulus (GPa) = 19.56618 21.44337 20.50478
# Shear Modulus (GPa) = 30.61780 46.99138 38.80459
#
# Velocity S-wave (km/s) = 3.79941 4.70694 4.27731
# Velocity P-wave (km/s) = 5.33595 6.29685 5.83621
#
# Compressibility (1/GPa) = 0.05110859
#
# Stress axis : x y z
#
# Youngs Moduli (GPa) = 56.47221 49.38273 87.00731
#
# Poissons Ratio (x) = -0.06397 -0.20193
# Poissons Ratio (y) = -0.07315 0.24253
# Poissons Ratio (z) = -0.13107 0.13765
#
# Static dielectric constant tensor:
#      x y z
#    x 3.784300 -0.000010 0.000000 
#    y -0.000010 3.892570 0.000000 
#    z 0.000000 0.000000 3.966270 
# 
# 
# High freq. dielectric constant tensor:
#      x y z
#    x 1.833560 0.000000 0.000000 
#    y 0.000000 1.842400 0.000000 
#    z 0.000000 0.000000 1.851650 
# 
# From -- ./inp_files/1052.got.cif
#   From: 2010.03.12/outbox.cif.g09.slc.cpg/sg45_1_cif.got.tgz:1052.got - 2010.04.14 02:50:11.
