data_PCOD8191194
_publ_section_title
;
Structure prediction by ZEFSAII (Michael W. Deem and Ramdas Pophale) SiO2 
 PCOD8191194
Probable space group: I M A 2
;
_chemical_formula_sum "Si O2"
_cell_formula_units_Z 64
_cell_length_a 8.474724
_cell_length_b 26.641107
_cell_length_c 18.477014
_cell_angle_alpha 90.000000
_cell_angle_beta 90.000000
_cell_angle_gamma 90.000000
_cell_volume 4171.666846
_symmetry_space_group_name_H-M "I M A 2"
_symmetry_group_IT_number 46
_symmetry_cell_setting 'orthorhombic'
loop_
_space_group_symop_operation_xyz
x,y,z
-x,-y,z
1/2-x,y,z
1/2+x,-y,z
1/2+x,1/2+y,1/2+z
1/2-x,1/2-y,1/2+z
-x,1/2+y,1/2+z
x,1/2-y,1/2+z
loop_
_atom_site_type_symbol
_atom_site_label
_atom_site_fract_x
_atom_site_fract_y
_atom_site_fract_z
Si Si1 0.562344 0.851090 0.872050
Si Si2 0.063783 0.447355 0.287217
Si Si3 0.564164 0.747816 0.123917
Si Si4 0.567240 0.150271 0.549834
Si Si5 0.931941 0.697320 0.919822
Si Si6 0.436975 0.053368 0.622634
Si Si7 0.563060 0.745714 0.285724
Si Si8 0.566170 0.206811 0.992406
O O1 0.750000 0.851282 0.879846
O O2 0.499245 0.902983 0.838128
O O3 0.500052 0.806304 0.820146
O O4 0.482763 0.844753 0.951808
O O5 0.250000 0.448630 0.288528
O O6 0.005377 0.438142 0.205130
O O7 0.000000 0.500000 0.317644
O O8 0.750000 0.757239 0.122433
O O9 0.529445 0.692056 0.094126
O O10 0.494975 0.752520 0.205233
O O11 0.476811 0.791659 0.077720
O O12 0.750000 0.158622 0.565528
O O13 0.533809 0.155953 0.463258
O O14 0.514495 0.095318 0.572755
O O15 0.750000 0.681266 0.924164
O O16 0.985617 0.706274 0.836096
O O17 0.954514 0.750805 0.958207
O O18 0.250000 0.055996 0.615548
O O19 0.500000 0.000000 0.594283
O O20 0.750000 0.741455 0.282524
O O21 0.750000 0.218828 0.981443
#
# Coordination Sequence:
#
# PCOD8191194 Si02
#       8
#     8   8   8   8   8   8   8   8
#     4   9  16  29  44  58  78 110 143 170 201 244
#     4   9  18  30  45  62  83 108 140 176 211 246
#     4  10  17  28  44  61  82 111 141 172 207 248
#     4  11  20  29  41  61  85 112 143 173 204 245
#     4   9  16  29  44  58  78 107 138 171 206 244
#     4  10  19  32  46  62  83 110 140 175 211 244
#     4   8  15  26  43  62  79 103 141 175 203 241
#     4  10  18  27  38  58  83 107 136 172 206 242
#
# _framework density 15.341589000000001
#
# number of rings (size 3 to 8) (size 9 to 14) (size 15 to 20)
#    0.000    2.500    0.000    6.375    0.000    3.000 
#    0.000    8.750    0.000    0.000    0.000    0.000 
#    0.000    1.000    0.000    6.500    0.000    4.875 
#
# Total GULP energy -396608.580046 kJ/mol
# GULP energy per Si atom -12394.018126 kJ/mol
# Density = 1.530667 g / cm^3
# Si number density = 15.341589 Si / 1000 Ang^3
#
#
#
# Elastic Constant Matrix: (Units=GPa)
#
#
# Indices 1 2 3 4 5 6 
#
# 1 41.9280 18.5295 20.3942 0.0001 0.0000 0.0000
# 2 18.5295 92.0484 59.8689 0.0000 0.0000 0.0000
# 3 20.3942 59.8689 114.1192 -0.0001 -0.0001 0.0000
# 4 0.0001 0.0000 -0.0001 7.7512 0.0000 0.0000
# 5 0.0000 0.0000 -0.0001 0.0000 13.1703 0.0000
# 6 0.0000 0.0000 0.0000 0.0000 0.0000 20.6990
#
#
#
# Elastic Compliance Matrix: (Units=1/GPa)
#
#
# Indices 1 2 3 4 5 6 
#
# 1 0.026830 -0.003464 -0.002977 0.000000 0.000000 0.000000
# 2 -0.003464 0.016938 -0.008267 0.000000 0.000000 0.000000
# 3 -0.002977 -0.008267 0.013632 0.000000 0.000000 0.000000
# 4 0.000000 0.000000 0.000000 0.129012 0.000000 0.000000
# 5 0.000000 0.000000 0.000000 0.000000 0.075928 0.000000
# 6 0.000000 0.000000 0.000000 0.000000 0.000000 0.048311
#
#
# Mechanical properties :
#
#
# Convention : Reuss Voigt Hill
#
# Bulk Modulus (GPa) = 35.73674 49.52009 42.62841
# Shear Modulus (GPa) = 14.31044 18.27765 16.29405
#
# Velocity S-wave (km/s) = 3.05747 3.45538 3.26250
# Velocity P-wave (km/s) = 5.98404 6.94751 6.48370
#
# Compressibility (1/GPa) = 0.02798241
#
# Stress axis : x y z
#
# Youngs Moduli (GPa) = 37.27223 59.03852 73.35796
#
# Poissons Ratio (x) = 0.20454 0.21840
# Poissons Ratio (y) = 0.12913 0.60644
# Poissons Ratio (z) = 0.11097 0.48807
#
# Static dielectric constant tensor:
#      x y z
#    x 2.833050 0.000000 0.000000 
#    y 0.000000 2.889780 0.000000 
#    z 0.000000 0.000000 3.375340 
# 
# 
# High freq. dielectric constant tensor:
#      x y z
#    x 1.588710 0.000000 0.000000 
#    y 0.000000 1.551050 0.000000 
#    z 0.000000 0.000000 1.580610 
# 
# From -- ./inp_files/18688.got.cif
#   From: 2010.03.12/outbox.cif.g09.slc.cpg/sg46_10_cif.got.tgz:18688.got - 2010.04.14 02:56:35.
