data_PCOD8191804
_publ_section_title
;
Structure prediction by ZEFSAII (Michael W. Deem and Ramdas Pophale) SiO2 
 PCOD8191804
Probable space group: I M A 2
;
_chemical_formula_sum "Si O2"
_cell_formula_units_Z 64
_cell_length_a 8.536240
_cell_length_b 18.712305
_cell_length_c 21.692247
_cell_angle_alpha 90.000000
_cell_angle_beta 90.000000
_cell_angle_gamma 90.000000
_cell_volume 3464.961756
_symmetry_space_group_name_H-M "I M A 2"
_symmetry_group_IT_number 46
_symmetry_cell_setting 'orthorhombic'
loop_
_space_group_symop_operation_xyz
x,y,z
-x,-y,z
1/2-x,y,z
1/2+x,-y,z
1/2+x,1/2+y,1/2+z
1/2-x,1/2-y,1/2+z
-x,1/2+y,1/2+z
x,1/2-y,1/2+z
loop_
_atom_site_type_symbol
_atom_site_label
_atom_site_fract_x
_atom_site_fract_y
_atom_site_fract_z
Si Si1 0.935060 0.429712 0.780800
Si Si2 0.564624 0.141243 0.830468
Si Si3 0.932904 0.928623 0.147772
Si Si4 0.433486 0.282055 0.782626
Si Si5 0.430276 0.682573 0.565041
Si Si6 0.935385 0.422047 0.459707
Si Si7 0.433251 0.575306 0.203751
Si Si8 0.567312 0.786701 0.652915
O O1 0.750000 0.436298 0.768680
O O2 0.000000 0.500000 0.818935
O O3 0.043270 0.432509 0.720256
O O4 0.975067 0.352029 0.809140
O O5 0.750000 0.153835 0.829628
O O6 0.480904 0.217929 0.828148
O O7 0.506752 0.094022 0.772674
O O8 0.509426 0.099644 0.891472
O O9 0.750000 0.915621 0.131838
O O10 0.044508 0.866600 0.124222
O O11 0.000000 0.000000 0.115497
O O12 0.250000 0.296631 0.787006
O O13 0.482898 0.262631 0.711853
O O14 0.250000 0.701901 0.554589
O O15 0.500188 0.639962 0.505915
O O16 0.520625 0.754535 0.585762
O O17 0.750000 0.425342 0.465940
O O18 0.000000 0.500000 0.477107
O O19 0.500000 0.500000 0.181627
O O20 0.250000 0.569522 0.203155
O O21 0.485305 0.636515 0.156539
O O22 0.750000 0.799489 0.655372
#
# Coordination Sequence:
#
# PCOD8191804 Si02
#       8
#     8   8   8   8   8   8   8   8
#     4  11  20  30  46  68  98 132 166 206 252 304
#     4   9  19  35  53  74 102 137 176 217 261 306
#     4  11  20  30  43  63  92 129 169 207 246 294
#     4  10  19  32  50  74 101 131 171 215 262 312
#     4  11  21  33  49  70  99 136 175 214 257 302
#     4  10  22  37  53  75 104 140 182 222 257 303
#     4  10  19  32  53  78 105 134 167 209 261 314
#     4  10  20  33  50  72 101 133 169 212 258 311
#
# _framework density 18.470624000000001
#
# number of rings (size 3 to 8) (size 9 to 14) (size 15 to 20)
#    0.000    1.750    1.250    5.250    0.000    4.000 
#    0.000    0.000    0.000    0.000    0.000    0.875 
#    0.000    0.000    0.000    0.000    0.000    0.000 
#
# Total GULP energy -396597.823610 kJ/mol
# GULP energy per Si atom -12393.681988 kJ/mol
# Density = 1.842858 g / cm^3
# Si number density = 18.470624 Si / 1000 Ang^3
#
#
#
# Elastic Constant Matrix: (Units=GPa)
#
#
# Indices 1 2 3 4 5 6 
#
# 1 55.5616 28.2142 8.3732 0.0000 0.0000 0.0000
# 2 28.2142 138.2759 33.4968 0.0000 0.0000 0.0000
# 3 8.3732 33.4968 60.8991 0.0000 0.0000 0.0000
# 4 0.0000 0.0000 0.0000 33.8500 0.0000 0.0000
# 5 0.0000 0.0000 0.0000 0.0000 15.6714 0.0000
# 6 0.0000 0.0000 0.0000 0.0000 0.0000 35.5151
#
#
#
# Elastic Compliance Matrix: (Units=1/GPa)
#
#
# Indices 1 2 3 4 5 6 
#
# 1 0.020097 -0.003959 -0.000586 0.000000 0.000000 0.000000
# 2 -0.003959 0.009123 -0.004474 0.000000 0.000000 0.000000
# 3 -0.000586 -0.004474 0.018962 0.000000 0.000000 0.000000
# 4 0.000000 0.000000 0.000000 0.029542 0.000000 0.000000
# 5 0.000000 0.000000 0.000000 0.000000 0.063811 0.000000
# 6 0.000000 0.000000 0.000000 0.000000 0.000000 0.028157
#
#
# Mechanical properties :
#
#
# Convention : Reuss Voigt Hill
#
# Bulk Modulus (GPa) = 33.17266 43.87830 38.52548
# Shear Modulus (GPa) = 25.28104 29.31746 27.29925
#
# Velocity S-wave (km/s) = 3.70363 3.98835 3.84862
# Velocity P-wave (km/s) = 6.02394 6.70944 6.37591
#
# Compressibility (1/GPa) = 0.03014531
#
# Stress axis : x y z
#
# Youngs Moduli (GPa) = 49.75984 109.60763 52.73708
#
# Poissons Ratio (x) = 0.43390 0.03089
# Poissons Ratio (y) = 0.19698 0.23594
# Poissons Ratio (z) = 0.02915 0.49038
#
# Static dielectric constant tensor:
#      x y z
#    x 3.326140 0.000000 0.000000 
#    y 0.000000 3.906810 0.000000 
#    z 0.000000 0.000000 3.123860 
# 
# 
# High freq. dielectric constant tensor:
#      x y z
#    x 1.721920 0.000000 0.000000 
#    y 0.000000 1.728650 0.000000 
#    z 0.000000 0.000000 1.658980 
# 
# From -- ./inp_files/23288.got.cif
#   From: 2010.03.12/outbox.cif.g09.slc.cpg/sg46_12_cif.got.tgz:23288.got - 2010.04.14 02:56:35.
