data_PCOD8191142
_publ_section_title
;
Structure prediction by ZEFSAII (Michael W. Deem and Ramdas Pophale) SiO2 
 PCOD8191142
Probable space group: I M A 2
;
_chemical_formula_sum "Si O2"
_cell_formula_units_Z 24
_cell_length_a 27.462756
_cell_length_b 7.351392
_cell_length_c 5.317597
_cell_angle_alpha 90.000000
_cell_angle_beta 90.000000
_cell_angle_gamma 90.000000
_cell_volume 1073.566918
_symmetry_space_group_name_H-M "I M A 2"
_symmetry_group_IT_number 46
_symmetry_cell_setting 'orthorhombic'
loop_
_space_group_symop_operation_xyz
x,y,z
-x,-y,z
1/2-x,y,z
1/2+x,-y,z
1/2+x,1/2+y,1/2+z
1/2-x,1/2-y,1/2+z
-x,1/2+y,1/2+z
x,1/2-y,1/2+z
loop_
_atom_site_type_symbol
_atom_site_label
_atom_site_fract_x
_atom_site_fract_y
_atom_site_fract_z
Si Si1 0.544576 0.133502 0.361380
Si Si2 0.348080 0.539858 0.872626
Si Si3 0.692699 0.445254 0.372647
O O1 0.542508 0.279294 0.585146
O O2 0.593938 0.016277 0.383319
O O3 0.500000 0.000000 0.398291
O O4 0.326038 0.446498 0.620086
O O5 0.334171 0.752087 0.861927
O O6 0.323509 0.447549 0.119494
O O7 0.750000 0.415269 0.382807
#
# Coordination Sequence:
#
# PCOD8191142 Si02
#       3
#     8   8   8
#     4  12  23  40  59  82 114 158 194 238 284 334
#     4  10  16  29  44  70 109 140 167 221 281 325
#     4  10  16  25  46  72 110 140 168 215 296 339
#
# _framework density 22.355383
#
# number of rings (size 3 to 8) (size 9 to 14) (size 15 to 20)
#    0.000    1.333    6.667    6.000    0.000    0.000 
#    0.000    0.000    0.000    0.000    0.000    0.000 
#    0.000   45.333    0.000    0.000    0.000    0.000 
#
# Total GULP energy -148736.892818 kJ/mol
# GULP energy per Si atom -12394.741068 kJ/mol
# Density = 2.230450 g / cm^3
# Si number density = 22.355383 Si / 1000 Ang^3
#
#
#
# Elastic Constant Matrix: (Units=GPa)
#
#
# Indices 1 2 3 4 5 6 
#
# 1 195.0421 11.5278 42.5553 0.0000 0.0000 0.0000
# 2 11.5278 10.7399 0.4592 0.0000 0.0000 0.0000
# 3 42.5553 0.4592 218.3533 -0.0002 -0.0002 0.0000
# 4 0.0000 0.0000 -0.0002 -4.2130 -0.0001 0.0000
# 5 0.0000 0.0000 -0.0002 -0.0001 43.2110 0.0000
# 6 0.0000 0.0000 0.0000 0.0000 0.0000 19.0301
#
#
#
# Elastic Compliance Matrix: (Units=1/GPa)
#
#
# Indices 1 2 3 4 5 6 
#
# 1 0.005729 -0.006102 -0.001104 0.000000 0.000000 0.000000
# 2 -0.006102 0.099618 0.000980 -0.000001 0.000000 0.000000
# 3 -0.001104 0.000980 0.004793 0.000000 0.000000 0.000000
# 4 0.000000 -0.000001 0.000000 -0.237361 0.000000 0.000000
# 5 0.000000 0.000000 0.000000 0.000000 0.023142 0.000000
# 6 0.000000 0.000000 0.000000 0.000000 0.000000 0.052548
#
#
# Mechanical properties :
#
#
# Convention : Reuss Voigt Hill
#
# Bulk Modulus (GPa) = 10.23661 59.24666 34.74164
# Shear Modulus (GPa) = -767.26440 36.24516 -365.50962
#
# Velocity S-wave (km/s) = -18.54609 4.03093 -12.80057
# Velocity P-wave (km/s) = 21.30777 6.94437 14.24424
#
# Compressibility (1/GPa) = 0.09768856
#
# Stress axis : x y z
#
# Youngs Moduli (GPa) = 174.56515 10.03830 208.64816
#
# Poissons Ratio (x) = 0.06125 0.23027
# Poissons Ratio (y) = 1.06513 -0.20440
# Poissons Ratio (z) = 0.19265 -0.00983
#
# Static dielectric constant tensor:
#      x y z
#    x 4.158540 0.000000 0.000000 
#    y 0.000000 3.084910 0.000000 
#    z 0.000000 0.000000 9.614360 
# 
# 
# High freq. dielectric constant tensor:
#      x y z
#    x 1.895820 0.000000 0.000000 
#    y 0.000000 1.798610 0.000000 
#    z 0.000000 0.000000 1.929340 
# 
# From -- ./inp_files/1887.got.cif
#   From: 2010.03.12/outbox.cif.g09.slc.cpg/sg46_1_cif.got.tgz:1887.got - 2010.04.14 02:56:35.
