data_PCOD8191244
_publ_section_title
;
Structure prediction by ZEFSAII (Michael W. Deem and Ramdas Pophale) SiO2 
 PCOD8191244
Probable space group: I M A 2
;
_chemical_formula_sum "Si O2"
_cell_formula_units_Z 64
_cell_length_a 24.756234
_cell_length_b 15.565785
_cell_length_c 9.775161
_cell_angle_alpha 90.000000
_cell_angle_beta 90.000000
_cell_angle_gamma 90.000000
_cell_volume 3766.860401
_symmetry_space_group_name_H-M "I M A 2"
_symmetry_group_IT_number 46
_symmetry_cell_setting 'orthorhombic'
loop_
_space_group_symop_operation_xyz
x,y,z
-x,-y,z
1/2-x,y,z
1/2+x,-y,z
1/2+x,1/2+y,1/2+z
1/2-x,1/2-y,1/2+z
-x,1/2+y,1/2+z
x,1/2-y,1/2+z
loop_
_atom_site_type_symbol
_atom_site_label
_atom_site_fract_x
_atom_site_fract_y
_atom_site_fract_z
Si Si1 0.311772 0.347616 0.894310
Si Si2 0.984632 0.799631 0.041844
Si Si3 0.988062 0.857365 0.732240
Si Si4 0.189814 0.046142 0.664541
Si Si5 0.554774 0.049672 0.053696
Si Si6 0.310824 0.345234 0.425552
Si Si7 0.915771 0.020232 0.761651
Si Si8 0.385246 0.404403 0.648823
O O1 0.250000 0.343741 0.838259
O O2 0.330677 0.253025 0.939943
O O3 0.353518 0.378858 0.782300
O O4 0.316885 0.414558 0.015671
O O5 0.985169 0.803805 0.875575
O O6 0.986359 0.703351 0.098960
O O7 0.931621 0.837705 0.111291
O O8 0.037772 0.853534 0.094276
O O9 0.044060 0.907208 0.706031
O O10 0.938667 0.924343 0.733409
O O11 0.250000 0.004790 0.680288
O O12 0.182813 0.124803 0.769755
O O13 0.143339 0.974686 0.689916
O O14 0.500000 0.000000 0.009028
O O15 0.587321 0.998964 0.172472
O O16 0.592722 0.041600 0.921105
O O17 0.250000 0.352055 0.478167
O O18 0.345037 0.407841 0.520783
#
# Coordination Sequence:
#
# PCOD8191244 Si02
#       8
#     8   8   8   8   8   8   8   8
#     4  10  22  33  42  70 109 138 166 211 256 290
#     4  10  21  33  52  77 100 129 168 212 253 305
#     4  10  20  35  55  75 105 133 169 210 258 303
#     4  10  20  33  50  72 101 133 173 210 248 301
#     4   9  16  35  51  70 100 135 166 206 255 296
#     4  10  19  31  47  70  97 134 179 205 232 300
#     4  10  17  36  55  72 102 140 169 205 250 304
#     4  11  19  30  53  69  99 140 169 204 249 300
#
# _framework density 16.990276999999999
#
# number of rings (size 3 to 8) (size 9 to 14) (size 15 to 20)
#    0.000    2.000    5.000    1.125    5.250    2.000 
#    2.250    0.000    0.000    0.000    0.000    5.250 
#    0.000    0.000    0.000    0.000    0.000    0.000 
#
# Total GULP energy -396532.410648 kJ/mol
# GULP energy per Si atom -12391.637833 kJ/mol
# Density = 1.695161 g / cm^3
# Si number density = 16.990277 Si / 1000 Ang^3
#
#
#
# Elastic Constant Matrix: (Units=GPa)
#
#
# Indices 1 2 3 4 5 6 
#
# 1 101.4581 27.7301 44.0848 0.0000 0.0000 0.0000
# 2 27.7301 55.7651 28.0444 0.0000 0.0000 0.0000
# 3 44.0848 28.0444 68.5301 0.0000 0.0000 0.0000
# 4 0.0000 0.0000 0.0000 22.1639 0.0000 0.0000
# 5 0.0000 0.0000 0.0000 0.0000 27.8773 0.0000
# 6 0.0000 0.0000 0.0000 0.0000 0.0000 23.4049
#
#
#
# Elastic Compliance Matrix: (Units=1/GPa)
#
#
# Indices 1 2 3 4 5 6 
#
# 1 0.014089 -0.003082 -0.007802 0.000000 0.000000 0.000000
# 2 -0.003082 0.023254 -0.007533 0.000000 0.000000 0.000000
# 3 -0.007802 -0.007533 0.022694 0.000000 0.000000 0.000000
# 4 0.000000 0.000000 0.000000 0.045118 0.000000 0.000000
# 5 0.000000 0.000000 0.000000 0.000000 0.035872 0.000000
# 6 0.000000 0.000000 0.000000 0.000000 0.000000 0.042726
#
#
# Mechanical properties :
#
#
# Convention : Reuss Voigt Hill
#
# Bulk Modulus (GPa) = 43.10073 47.27467 45.18770
# Shear Modulus (GPa) = 21.89906 23.08215 22.49060
#
# Velocity S-wave (km/s) = 3.59404 3.68985 3.64226
# Velocity P-wave (km/s) = 6.53038 6.78515 6.65898
#
# Compressibility (1/GPa) = 0.02320147
#
# Stress axis : x y z
#
# Youngs Moduli (GPa) = 70.97891 43.00418 44.06497
#
# Poissons Ratio (x) = 0.13255 0.34379
# Poissons Ratio (y) = 0.21878 0.33195
# Poissons Ratio (z) = 0.55376 0.32396
#
# Static dielectric constant tensor:
#      x y z
#    x 3.409630 0.000000 0.000000 
#    y 0.000000 3.034760 0.000000 
#    z 0.000000 0.000000 3.028120 
# 
# 
# High freq. dielectric constant tensor:
#      x y z
#    x 1.661260 0.000000 0.000000 
#    y 0.000000 1.620410 0.000000 
#    z 0.000000 0.000000 1.645820 
# 
# From -- ./inp_files/7970.got.cif
#   From: 2010.03.12/outbox.cif.g09.slc.cpg/sg46_4_cif.got.tgz:7970.got - 2010.04.14 02:56:35.
