data_PCOD8191740
_publ_section_title
;
Structure prediction by ZEFSAII (Michael W. Deem and Ramdas Pophale) SiO2 
 PCOD8191740
Probable space group: I M A 2
;
_chemical_formula_sum "Si O2"
_cell_formula_units_Z 64
_cell_length_a 9.068024
_cell_length_b 29.971490
_cell_length_c 14.311406
_cell_angle_alpha 90.000000
_cell_angle_beta 90.000000
_cell_angle_gamma 90.000000
_cell_volume 3889.585274
_symmetry_space_group_name_H-M "I M A 2"
_symmetry_group_IT_number 46
_symmetry_cell_setting 'orthorhombic'
loop_
_space_group_symop_operation_xyz
x,y,z
-x,-y,z
1/2-x,y,z
1/2+x,-y,z
1/2+x,1/2+y,1/2+z
1/2-x,1/2-y,1/2+z
-x,1/2+y,1/2+z
x,1/2-y,1/2+z
loop_
_atom_site_type_symbol
_atom_site_label
_atom_site_fract_x
_atom_site_fract_y
_atom_site_fract_z
Si Si1 0.423654 0.454963 0.194160
Si Si2 0.576593 0.726145 0.597564
Si Si3 0.917953 0.128047 0.773782
Si Si4 0.578510 0.780544 0.309686
Si Si5 0.423470 0.799488 0.919859
Si Si6 0.081737 0.816057 0.592930
Si Si7 0.581713 0.638214 0.938808
Si Si8 0.417643 0.457448 0.980625
O O1 0.500000 0.500000 0.231483
O O2 0.250000 0.459524 0.206353
O O3 0.476433 0.413848 0.258083
O O4 0.471284 0.446505 0.086524
O O5 0.750000 0.720026 0.584358
O O6 0.524415 0.715435 0.702736
O O7 0.493324 0.694859 0.522936
O O8 0.531169 0.776332 0.573049
O O9 0.750000 0.110660 0.773163
O O10 0.958312 0.153526 0.869477
O O11 0.940853 0.165918 0.696271
O O12 0.750000 0.767210 0.314239
O O13 0.490153 0.742877 0.365086
O O14 0.549047 0.829720 0.351561
O O15 0.250000 0.790952 0.926779
O O16 0.250000 0.800617 0.576047
O O17 0.036056 0.853873 0.520197
O O18 0.750000 0.645063 0.974992
O O19 0.558684 0.585797 0.914062
O O20 0.500000 0.500000 0.937081
O O21 0.250000 0.472249 0.985039
#
# Coordination Sequence:
#
# PCOD8191740 Si02
#       8
#     8   8   8   8   8   8   8   8
#     4  10  19  31  49  73 100 133 166 201 248 300
#     4  11  22  35  49  70 100 134 172 210 250 297
#     4  10  21  34  48  71 102 133 169 209 249 298
#     4  10  21  34  51  72  98 132 169 210 250 296
#     4  11  22  35  51  73 100 132 170 211 255 295
#     4  11  20  30  47  71  99 133 168 205 247 291
#     4  10  19  33  49  71  98 131 169 206 247 291
#     4   9  18  30  46  69  98 128 161 198 242 294
#
# _framework density 16.454197000000001
#
# number of rings (size 3 to 8) (size 9 to 14) (size 15 to 20)
#    0.000    1.750    3.750    1.500    0.000    3.000 
#    0.000    0.000    0.000    0.000    0.000    0.875 
#    0.000    4.000    0.000    0.000    0.000    0.000 
#
# Total GULP energy -396754.855075 kJ/mol
# GULP energy per Si atom -12398.589221 kJ/mol
# Density = 1.641675 g / cm^3
# Si number density = 16.454197 Si / 1000 Ang^3
#
#
#
# Elastic Constant Matrix: (Units=GPa)
#
#
# Indices 1 2 3 4 5 6 
#
# 1 66.9091 39.0889 35.2218 0.0001 0.0000 0.0000
# 2 39.0889 95.7369 26.3073 0.0003 0.0001 0.0000
# 3 35.2218 26.3073 71.8336 0.0010 0.0002 0.0000
# 4 0.0001 0.0003 0.0010 20.6418 0.0001 0.0000
# 5 0.0000 0.0001 0.0002 0.0001 20.9879 0.0001
# 6 0.0000 0.0000 0.0000 0.0000 0.0001 28.0068
#
#
#
# Elastic Compliance Matrix: (Units=1/GPa)
#
#
# Indices 1 2 3 4 5 6 
#
# 1 0.023996 -0.007299 -0.009093 0.000000 0.000000 0.000000
# 2 -0.007299 0.013834 -0.001488 0.000000 0.000000 0.000000
# 3 -0.009093 -0.001488 0.018924 -0.000001 0.000000 0.000000
# 4 0.000000 0.000000 -0.000001 0.048445 0.000000 0.000000
# 5 0.000000 0.000000 0.000000 0.000000 0.047646 0.000000
# 6 0.000000 0.000000 0.000000 0.000000 0.000000 0.035706
#
#
# Mechanical properties :
#
#
# Convention : Reuss Voigt Hill
#
# Bulk Modulus (GPa) = 47.62824 48.41284 48.02054
# Shear Modulus (GPa) = 21.61598 22.85140 22.23369
#
# Velocity S-wave (km/s) = 3.62844 3.73069 3.67992
# Velocity P-wave (km/s) = 6.82370 6.93138 6.87775
#
# Compressibility (1/GPa) = 0.02099595
#
# Stress axis : x y z
#
# Youngs Moduli (GPa) = 41.67279 72.28460 52.84196
#
# Poissons Ratio (x) = 0.52761 0.48049
# Poissons Ratio (y) = 0.30417 0.07860
# Poissons Ratio (z) = 0.37893 0.10753
#
# Static dielectric constant tensor:
#      x y z
#    x 3.145050 0.000000 0.000000 
#    y 0.000000 3.054640 0.000000 
#    z 0.000000 0.000000 3.075500 
# 
# 
# High freq. dielectric constant tensor:
#      x y z
#    x 1.642770 0.000000 0.000000 
#    y 0.000000 1.623730 0.000000 
#    z 0.000000 0.000000 1.604680 
# 
# From -- ./inp_files/14721.got.cif
#   From: 2010.03.12/outbox.cif.g09.slc.cpg/sg46_8_cif.got.tgz:14721.got - 2010.04.14 02:56:35.
