data_PCOD8191911
_publ_section_title
;
Structure prediction by ZEFSAII (Michael W. Deem and Ramdas Pophale) SiO2 
 PCOD8191911
Probable space group: I M A 2
;
_chemical_formula_sum "Si O2"
_cell_formula_units_Z 64
_cell_length_a 8.684377
_cell_length_b 30.072851
_cell_length_c 14.177420
_cell_angle_alpha 90.000000
_cell_angle_beta 90.000000
_cell_angle_gamma 90.000000
_cell_volume 3702.631370
_symmetry_space_group_name_H-M "I M A 2"
_symmetry_group_IT_number 46
_symmetry_cell_setting 'orthorhombic'
loop_
_space_group_symop_operation_xyz
x,y,z
-x,-y,z
1/2-x,y,z
1/2+x,-y,z
1/2+x,1/2+y,1/2+z
1/2-x,1/2-y,1/2+z
-x,1/2+y,1/2+z
x,1/2-y,1/2+z
loop_
_atom_site_type_symbol
_atom_site_label
_atom_site_fract_x
_atom_site_fract_y
_atom_site_fract_z
Si Si1 0.923418 0.820686 0.793600
Si Si2 0.070240 0.717486 0.588447
Si Si3 0.568318 0.454417 0.219719
Si Si4 0.429119 0.730098 0.804425
Si Si5 0.925377 0.865589 0.988258
Si Si6 0.430509 0.301796 0.982611
Si Si7 0.432511 0.546383 0.435342
Si Si8 0.929347 0.134722 0.624148
O O1 0.750000 0.818936 0.752153
O O2 0.933588 0.855582 0.877567
O O3 0.972622 0.773159 0.833655
O O4 0.044246 0.832866 0.712648
O O5 0.250000 0.725349 0.569953
O O6 0.031179 0.714396 0.699240
O O7 0.021025 0.670407 0.546284
O O8 0.981025 0.758667 0.542520
O O9 0.500000 0.500000 0.178215
O O10 0.750000 0.457136 0.217340
O O11 0.512007 0.446908 0.327033
O O12 0.510542 0.414287 0.153001
O O13 0.250000 0.740487 0.816379
O O14 0.483387 0.694220 0.881831
O O15 0.750000 0.865675 0.024836
O O16 0.000033 0.914273 0.000625
O O17 0.250000 0.299385 0.965793
O O18 0.473733 0.347309 0.036208
O O19 0.500000 0.500000 0.474126
O O20 0.250000 0.546162 0.443899
O O21 0.750000 0.135232 0.598505
#
# Coordination Sequence:
#
# PCOD8191911 Si02
#       8
#     8   8   8   8   8   8   8   8
#     4  11  21  31  49  76 107 141 178 219 260 305
#     4  11  23  37  55  76 102 139 179 219 263 315
#     4   9  19  32  50  74 103 137 172 213 259 308
#     4  11  23  38  55  74 103 141 180 221 264 312
#     4  11  22  34  51  77 107 142 179 217 262 314
#     4  12  24  36  53  77 105 139 178 222 265 310
#     4  10  19  33  51  75 106 140 177 217 262 313
#     4  11  21  35  52  75 105 143 182 216 260 315
#
# _framework density 17.285005999999999
#
# number of rings (size 3 to 8) (size 9 to 14) (size 15 to 20)
#    0.000    1.250    3.750    3.375    0.000    4.000 
#    0.000    0.000    0.000    0.000    0.000    0.875 
#    0.000    4.000    0.000    0.000    0.000    0.000 
#
# Total GULP energy -396881.042122 kJ/mol
# GULP energy per Si atom -12402.532566 kJ/mol
# Density = 1.724566 g / cm^3
# Si number density = 17.285006 Si / 1000 Ang^3
#
#
#
# Elastic Constant Matrix: (Units=GPa)
#
#
# Indices 1 2 3 4 5 6 
#
# 1 68.5367 24.6069 25.6276 0.0002 0.0000 0.0000
# 2 24.6069 98.4813 22.4369 0.0006 0.0000 0.0000
# 3 25.6276 22.4369 69.1489 0.0006 -0.0001 -0.0001
# 4 0.0002 0.0006 0.0006 22.2582 0.0000 0.0000
# 5 0.0000 0.0000 -0.0001 0.0000 21.7394 0.0000
# 6 0.0000 0.0000 -0.0001 0.0000 0.0000 29.5826
#
#
#
# Elastic Compliance Matrix: (Units=1/GPa)
#
#
# Indices 1 2 3 4 5 6 
#
# 1 0.017816 -0.003183 -0.005570 0.000000 0.000000 0.000000
# 2 -0.003183 0.011533 -0.002563 0.000000 0.000000 0.000000
# 3 -0.005570 -0.002563 0.017358 0.000000 0.000000 0.000000
# 4 0.000000 0.000000 0.000000 0.044927 0.000000 0.000000
# 5 0.000000 0.000000 0.000000 0.000000 0.045999 0.000000
# 6 0.000000 0.000000 0.000000 0.000000 0.000000 0.033804
#
#
# Mechanical properties :
#
#
# Convention : Reuss Voigt Hill
#
# Bulk Modulus (GPa) = 41.53539 42.38997 41.96268
# Shear Modulus (GPa) = 24.74099 25.61575 25.17837
#
# Velocity S-wave (km/s) = 3.78743 3.85380 3.82076
# Velocity P-wave (km/s) = 6.57328 6.66181 6.61770
#
# Compressibility (1/GPa) = 0.02407585
#
# Stress axis : x y z
#
# Youngs Moduli (GPa) = 56.12859 86.70566 57.61189
#
# Poissons Ratio (x) = 0.27594 0.32092
# Poissons Ratio (y) = 0.17863 0.14764
# Poissons Ratio (z) = 0.31265 0.22220
#
# Static dielectric constant tensor:
#      x y z
#    x 3.278410 0.000000 0.000000 
#    y 0.000000 3.296020 0.000000 
#    z 0.000000 0.000000 3.093350 
# 
# 
# High freq. dielectric constant tensor:
#      x y z
#    x 1.682580 0.000000 0.000000 
#    y 0.000000 1.658980 0.000000 
#    z 0.000000 0.000000 1.637710 
# 
# From -- ./inp_files/14766.got.cif
#   From: 2010.03.12/outbox.cif.g09.slc.cpg/sg46_8_cif.got.tgz:14766.got - 2010.04.14 02:56:35.
