data_PCOD8191770
_publ_section_title
;
Structure prediction by ZEFSAII (Michael W. Deem and Ramdas Pophale) SiO2 
 PCOD8191770
Probable space group: I M A 2
;
_chemical_formula_sum "Si O2"
_cell_formula_units_Z 64
_cell_length_a 14.896189
_cell_length_b 13.899948
_cell_length_c 16.668966
_cell_angle_alpha 90.000000
_cell_angle_beta 90.000000
_cell_angle_gamma 90.000000
_cell_volume 3451.413633
_symmetry_space_group_name_H-M "I M A 2"
_symmetry_group_IT_number 46
_symmetry_cell_setting 'orthorhombic'
loop_
_space_group_symop_operation_xyz
x,y,z
-x,-y,z
1/2-x,y,z
1/2+x,-y,z
1/2+x,1/2+y,1/2+z
1/2-x,1/2-y,1/2+z
-x,1/2+y,1/2+z
x,1/2-y,1/2+z
loop_
_atom_site_type_symbol
_atom_site_label
_atom_site_fract_x
_atom_site_fract_y
_atom_site_fract_z
Si Si1 0.147140 0.292073 0.619120
Si Si2 0.148434 0.368646 0.996985
Si Si3 0.596775 0.955317 0.812547
Si Si4 0.152456 0.880661 0.699758
Si Si5 0.440435 0.088268 0.982138
Si Si6 0.987922 0.222201 0.421657
Si Si7 0.351824 0.585212 0.014792
Si Si8 0.981140 0.731547 0.249581
O O1 0.250000 0.310126 0.647578
O O2 0.136937 0.183818 0.583378
O O3 0.122932 0.371913 0.552414
O O4 0.074858 0.302548 0.691264
O O5 0.250000 0.359843 0.967291
O O6 0.115576 0.478128 0.995156
O O7 0.088596 0.314501 0.933066
O O8 0.623937 0.943250 0.906692
O O9 0.591435 0.850618 0.771841
O O10 0.500000 0.000000 0.813234
O O11 0.657077 0.028186 0.760859
O O12 0.250000 0.829125 0.710100
O O13 0.141182 0.915880 0.609800
O O14 0.070846 0.808046 0.708895
O O15 0.513647 0.167424 0.951625
O O16 0.500000 0.000000 0.015146
O O17 0.976439 0.213790 0.326188
O O18 0.914303 0.162201 0.470487
O O19 0.250000 0.605132 0.986116
#
# Coordination Sequence:
#
# PCOD8191770 Si02
#       8
#     8   8   8   8   8   8   8   8
#     4  10  20  34  55  81 107 141 182 222 267 320
#     4   9  18  33  55  82 106 129 167 218 272 327
#     4   8  16  30  49  75 105 137 173 220 277 325
#     4  10  19  31  52  81 109 137 171 217 277 334
#     4   9  18  35  53  73 106 144 184 224 263 313
#     4  10  20  34  54  75 103 146 181 215 267 318
#     4  10  20  34  54  82 110 136 171 217 272 331
#     4  10  20  33  49  73 107 142 180 223 262 310
#
# _framework density 18.543126000000001
#
# number of rings (size 3 to 8) (size 9 to 14) (size 15 to 20)
#    0.000    2.500    0.000    3.375    0.000    5.000 
#    0.000    4.375    0.000    0.750    0.000    0.000 
#    0.000    0.000    0.000    0.000    0.000    0.000 
#
# Total GULP energy -396487.285998 kJ/mol
# GULP energy per Si atom -12390.227687 kJ/mol
# Density = 1.850092 g / cm^3
# Si number density = 18.543126 Si / 1000 Ang^3
#
#
#
# Elastic Constant Matrix: (Units=GPa)
#
#
# Indices 1 2 3 4 5 6 
#
# 1 94.3547 37.8113 37.9356 0.0000 0.0000 0.0000
# 2 37.8113 82.4256 38.8494 0.0000 0.0000 0.0000
# 3 37.9356 38.8494 81.6898 0.0000 0.0000 0.0000
# 4 0.0000 0.0000 0.0000 27.6114 0.0000 0.0000
# 5 0.0000 0.0000 0.0000 0.0000 9.4333 0.0000
# 6 0.0000 0.0000 0.0000 0.0000 0.0000 15.9937
#
#
#
# Elastic Compliance Matrix: (Units=1/GPa)
#
#
# Indices 1 2 3 4 5 6 
#
# 1 0.014159 -0.004377 -0.004494 0.000000 0.000000 0.000000
# 2 -0.004377 0.016990 -0.006047 0.000000 0.000000 0.000000
# 3 -0.004494 -0.006047 0.017204 0.000000 0.000000 0.000000
# 4 0.000000 0.000000 0.000000 0.036217 0.000000 0.000000
# 5 0.000000 0.000000 0.000000 0.000000 0.106007 0.000000
# 6 0.000000 0.000000 0.000000 0.000000 0.000000 0.062525
#
#
# Mechanical properties :
#
#
# Convention : Reuss Voigt Hill
#
# Bulk Modulus (GPa) = 54.00400 54.18473 54.09437
# Shear Modulus (GPa) = 17.29438 20.19928 18.74683
#
# Velocity S-wave (km/s) = 3.05726 3.30406 3.18305
# Velocity P-wave (km/s) = 6.45361 6.62118 6.53794
#
# Compressibility (1/GPa) = 0.01851715
#
# Stress axis : x y z
#
# Youngs Moduli (GPa) = 70.62602 58.85651 58.12546
#
# Poissons Ratio (x) = 0.25763 0.26119
# Poissons Ratio (y) = 0.30915 0.35151
# Poissons Ratio (z) = 0.31736 0.35593
#
# Static dielectric constant tensor:
#      x y z
#    x 4.165750 0.000000 0.000000 
#    y 0.000000 3.497450 0.000000 
#    z 0.000000 0.000000 3.622950 
# 
# 
# High freq. dielectric constant tensor:
#      x y z
#    x 1.714990 0.000000 0.000000 
#    y 0.000000 1.700580 0.000000 
#    z 0.000000 0.000000 1.715030 
# 
# From -- ./inp_files/19650.got.cif
#   From: 2010.03.12/outbox.cif.g09.slc.cpg/sg46_10_cif.got.tgz:19650.got - 2010.04.14 02:56:35.
