data_PCOD8191898
_publ_section_title
;
Structure prediction by ZEFSAII (Michael W. Deem and Ramdas Pophale) SiO2 
 PCOD8191898
Probable space group: I M A 2
;
_chemical_formula_sum "Si O2"
_cell_formula_units_Z 56
_cell_length_a 8.688689
_cell_length_b 15.519651
_cell_length_c 19.596192
_cell_angle_alpha 90.000000
_cell_angle_beta 90.000000
_cell_angle_gamma 90.000000
_cell_volume 2642.456759
_symmetry_space_group_name_H-M "I M A 2"
_symmetry_group_IT_number 46
_symmetry_cell_setting 'orthorhombic'
loop_
_space_group_symop_operation_xyz
x,y,z
-x,-y,z
1/2-x,y,z
1/2+x,-y,z
1/2+x,1/2+y,1/2+z
1/2-x,1/2-y,1/2+z
-x,1/2+y,1/2+z
x,1/2-y,1/2+z
loop_
_atom_site_type_symbol
_atom_site_label
_atom_site_fract_x
_atom_site_fract_y
_atom_site_fract_z
Si Si1 0.920163 0.883587 0.739060
Si Si2 0.571178 0.293827 0.768150
Si Si3 0.571201 0.750048 0.057755
Si Si4 0.574034 0.240433 0.417344
Si Si5 0.925301 0.083328 0.612209
Si Si6 0.422679 0.416408 0.390826
Si Si7 0.570003 0.094487 0.139675
O O1 0.750000 0.888975 0.704236
O O2 0.911859 0.932384 0.810497
O O3 0.959683 0.783146 0.748301
O O4 0.052175 0.930051 0.693524
O O5 0.750000 0.265829 0.760144
O O6 0.538988 0.316212 0.848716
O O7 0.532964 0.373004 0.717091
O O8 0.750000 0.766261 0.064154
O O9 0.518443 0.671280 0.103999
O O10 0.491328 0.838620 0.082310
O O11 0.530352 0.716106 0.981737
O O12 0.750000 0.228406 0.439512
O O13 0.540449 0.339799 0.403158
O O14 0.750000 0.092985 0.589170
O O15 0.000000 0.000000 0.573966
O O16 0.500000 0.500000 0.425840
O O17 0.250000 0.399318 0.421041
O O18 0.750000 0.087188 0.127861
O O19 0.500000 0.000000 0.129076
#
# Coordination Sequence:
#
# PCOD8191898 Si02
#       7
#     8   8   8   8   8   8   8
#     4  10  19  32  55  86 120 155 193 240 297 357
#     4   9  19  37  62  89 121 161 208 256 311 372
#     4  12  25  43  64  92 127 167 212 266 323 387
#     4  10  21  39  62  86 117 163 208 258 318 381
#     4  12  24  39  60  88 121 158 200 249 306 371
#     4  10  20  33  51  81 117 154 197 245 297 364
#     4  11  23  41  66  98 131 172 219 272 326 388
#
# _framework density 21.192398000000001
#
# number of rings (size 3 to 8) (size 9 to 14) (size 15 to 20)
#    0.000    1.429    1.429    4.714    0.000    4.571 
#    0.000    3.571    0.000    1.714    0.000    0.000 
#    0.000    0.000    0.000    0.000    0.000    0.000 
#
# Total GULP energy -346993.115576 kJ/mol
# GULP energy per Si atom -12392.611271 kJ/mol
# Density = 2.114416 g / cm^3
# Si number density = 21.192398 Si / 1000 Ang^3
#
#
#
# Elastic Constant Matrix: (Units=GPa)
#
#
# Indices 1 2 3 4 5 6 
#
# 1 120.0567 36.4473 28.1798 0.0000 0.0000 0.0000
# 2 36.4473 92.7818 10.2409 0.0000 0.0000 0.0000
# 3 28.1798 10.2409 77.4882 0.0000 0.0000 0.0000
# 4 0.0000 0.0000 0.0000 13.4605 0.0000 0.0000
# 5 0.0000 0.0000 0.0000 0.0000 29.2474 0.0000
# 6 0.0000 0.0000 0.0000 0.0000 0.0000 31.3887
#
#
#
# Elastic Compliance Matrix: (Units=1/GPa)
#
#
# Indices 1 2 3 4 5 6 
#
# 1 0.010194 -0.003649 -0.003225 0.000000 0.000000 0.000000
# 2 -0.003649 0.012243 -0.000291 0.000000 0.000000 0.000000
# 3 -0.003225 -0.000291 0.014117 0.000000 0.000000 0.000000
# 4 0.000000 0.000000 0.000000 0.074292 0.000000 0.000000
# 5 0.000000 0.000000 0.000000 0.000000 0.034191 0.000000
# 6 0.000000 0.000000 0.000000 0.000000 0.000000 0.031859
#
#
# Mechanical properties :
#
#
# Convention : Reuss Voigt Hill
#
# Bulk Modulus (GPa) = 44.99582 48.89587 46.94585
# Shear Modulus (GPa) = 25.17207 29.18322 27.17765
#
# Velocity S-wave (km/s) = 3.45017 3.71490 3.58498
# Velocity P-wave (km/s) = 6.09506 6.44384 6.27187
#
# Compressibility (1/GPa) = 0.02222428
#
# Stress axis : x y z
#
# Youngs Moduli (GPa) = 98.09678 81.67690 70.83904
#
# Poissons Ratio (x) = 0.29800 0.22846
# Poissons Ratio (y) = 0.35791 0.02063
# Poissons Ratio (z) = 0.31636 0.02379
#
# Static dielectric constant tensor:
#      x y z
#    x 3.871840 0.000000 0.000000 
#    y 0.000000 3.671430 0.000000 
#    z 0.000000 0.000000 4.110160 
# 
# 
# High freq. dielectric constant tensor:
#      x y z
#    x 1.839760 0.000000 0.000000 
#    y 0.000000 1.814700 0.000000 
#    z 0.000000 0.000000 1.825480 
# 
# From -- ./inp_files/21054.got.cif
#   From: 2010.03.12/outbox.cif.g09.slc.cpg/sg46_11_cif.got.tgz:21054.got - 2010.04.14 02:56:35.
