data_PCOD8191647
_publ_section_title
;
Structure prediction by ZEFSAII (Michael W. Deem and Ramdas Pophale) SiO2 
 PCOD8191647
Probable space group: I M A 2
;
_chemical_formula_sum "Si O2"
_cell_formula_units_Z 64
_cell_length_a 8.879296
_cell_length_b 34.077482
_cell_length_c 13.698472
_cell_angle_alpha 90.000000
_cell_angle_beta 90.000000
_cell_angle_gamma 90.000000
_cell_volume 4144.939131
_symmetry_space_group_name_H-M "I M A 2"
_symmetry_group_IT_number 46
_symmetry_cell_setting 'orthorhombic'
loop_
_space_group_symop_operation_xyz
x,y,z
-x,-y,z
1/2-x,y,z
1/2+x,-y,z
1/2+x,1/2+y,1/2+z
1/2-x,1/2-y,1/2+z
-x,1/2+y,1/2+z
x,1/2-y,1/2+z
loop_
_atom_site_type_symbol
_atom_site_label
_atom_site_fract_x
_atom_site_fract_y
_atom_site_fract_z
Si Si1 0.071031 0.119558 0.804970
Si Si2 0.418272 0.961765 0.796902
Si Si3 0.927380 0.190736 0.701912
Si Si4 0.576660 0.770857 0.524675
Si Si5 0.578963 0.689176 0.620631
Si Si6 0.075079 0.262123 0.805140
Si Si7 0.928332 0.377902 0.511798
Si Si8 0.585640 0.463003 0.527952
O O1 0.250000 0.119226 0.807977
O O2 0.012859 0.076983 0.771397
O O3 0.012261 0.150599 0.726326
O O4 0.009626 0.132488 0.910707
O O5 0.250000 0.958113 0.752706
O O6 0.407050 0.967326 0.912161
O O7 0.500000 0.000000 0.751027
O O8 0.750000 0.184347 0.709852
O O9 0.971098 0.202198 0.591393
O O10 0.976377 0.224502 0.777492
O O11 0.750000 0.782072 0.545787
O O12 0.549818 0.725269 0.548066
O O13 0.531970 0.777569 0.412247
O O14 0.750000 0.674102 0.611136
O O15 0.542480 0.702253 0.731090
O O16 0.466717 0.654251 0.592923
O O17 0.250000 0.249266 0.799205
O O18 0.750000 0.379745 0.491848
O O19 0.986809 0.420353 0.551374
O O20 0.500000 0.500000 0.575046
O O21 0.750000 0.464811 0.575122
#
# Coordination Sequence:
#
# PCOD8191647 Si02
#       8
#     8   8   8   8   8   8   8   8
#     4  11  20  30  44  61  85 118 151 183 218 255
#     4   9  16  27  41  60  85 113 145 177 212 255
#     4  11  21  31  45  66  89 112 143 182 219 258
#     4   9  18  33  49  63  83 112 144 178 215 256
#     4   9  17  28  44  66  87 112 146 177 211 257
#     4   9  18  33  50  65  85 114 146 179 215 259
#     4  10  19  29  41  61  88 115 145 182 219 256
#     4   8  15  25  37  54  78 108 140 172 207 248
#
# _framework density 15.440517
#
# number of rings (size 3 to 8) (size 9 to 14) (size 15 to 20)
#    0.000    2.500    0.000    5.250    0.000    7.000 
#    0.000    0.000    0.000    0.000    0.000    0.000 
#    0.000    1.000    0.000    6.500    0.000    5.500 
#
# Total GULP energy -396737.279932 kJ/mol
# GULP energy per Si atom -12398.039998 kJ/mol
# Density = 1.540537 g / cm^3
# Si number density = 15.440517 Si / 1000 Ang^3
#
#
#
# Elastic Constant Matrix: (Units=GPa)
#
#
# Indices 1 2 3 4 5 6 
#
# 1 100.1689 52.1217 30.1088 -0.0002 0.0000 0.0000
# 2 52.1217 110.4226 40.5963 -0.0003 0.0000 0.0000
# 3 30.1088 40.5963 72.6614 -0.0008 0.0000 0.0001
# 4 -0.0002 -0.0003 -0.0008 15.3330 0.0000 0.0000
# 5 0.0000 0.0000 0.0000 0.0000 16.9291 -0.0001
# 6 0.0000 0.0000 0.0001 0.0000 -0.0001 28.4290
#
#
#
# Elastic Compliance Matrix: (Units=1/GPa)
#
#
# Indices 1 2 3 4 5 6 
#
# 1 0.013607 -0.005474 -0.002580 0.000000 0.000000 0.000000
# 2 -0.005474 0.013600 -0.005330 0.000000 0.000000 0.000000
# 3 -0.002580 -0.005330 0.017809 0.000001 0.000000 0.000000
# 4 0.000000 0.000000 0.000001 0.065219 0.000000 0.000000
# 5 0.000000 0.000000 0.000000 0.000000 0.059070 0.000000
# 6 0.000000 0.000000 0.000000 0.000000 0.000000 0.035175
#
#
# Mechanical properties :
#
#
# Convention : Reuss Voigt Hill
#
# Bulk Modulus (GPa) = 54.80042 58.76738 56.78390
# Shear Modulus (GPa) = 21.06769 22.83331 21.95050
#
# Velocity S-wave (km/s) = 3.69784 3.84968 3.77452
# Velocity P-wave (km/s) = 7.33488 7.60941 7.47341
#
# Compressibility (1/GPa) = 0.01824803
#
# Stress axis : x y z
#
# Youngs Moduli (GPa) = 73.49098 73.53169 56.15072
#
# Poissons Ratio (x) = 0.40254 0.14486
# Poissons Ratio (y) = 0.40232 0.29927
# Poissons Ratio (z) = 0.18959 0.39190
#
# Static dielectric constant tensor:
#      x y z
#    x 3.041060 0.000000 0.000000 
#    y 0.000000 3.032020 0.000000 
#    z 0.000000 0.000000 2.681180 
# 
# 
# High freq. dielectric constant tensor:
#      x y z
#    x 1.600550 0.000000 0.000000 
#    y 0.000000 1.591920 0.000000 
#    z 0.000000 0.000000 1.545150 
# 
# From -- ./inp_files/14773.got.cif
#   From: 2010.03.12/outbox.cif.g09.slc.cpg/sg46_8_cif.got.tgz:14773.got - 2010.04.14 02:56:35.
