data_PCOD8191306
_publ_section_title
;
Structure prediction by ZEFSAII (Michael W. Deem and Ramdas Pophale) SiO2 
 PCOD8191306
Probable space group: I M A 2
;
_chemical_formula_sum "Si O2"
_cell_formula_units_Z 64
_cell_length_a 8.654810
_cell_length_b 26.383344
_cell_length_c 18.382454
_cell_angle_alpha 90.000000
_cell_angle_beta 90.000000
_cell_angle_gamma 90.000000
_cell_volume 4197.501559
_symmetry_space_group_name_H-M "I M A 2"
_symmetry_group_IT_number 46
_symmetry_cell_setting 'orthorhombic'
loop_
_space_group_symop_operation_xyz
x,y,z
-x,-y,z
1/2-x,y,z
1/2+x,-y,z
1/2+x,1/2+y,1/2+z
1/2-x,1/2-y,1/2+z
-x,1/2+y,1/2+z
x,1/2-y,1/2+z
loop_
_atom_site_type_symbol
_atom_site_label
_atom_site_fract_x
_atom_site_fract_y
_atom_site_fract_z
Si Si1 0.576480 0.801711 0.982790
Si Si2 0.933218 0.946490 0.772169
Si Si3 0.566084 0.446600 0.114813
Si Si4 0.430961 0.850661 0.527883
Si Si5 0.566901 0.248874 0.610883
Si Si6 0.566595 0.741929 0.267401
Si Si7 0.432515 0.647671 0.349469
Si Si8 0.579915 0.696452 0.899323
O O1 0.750000 0.822194 0.997078
O O2 0.482731 0.840381 0.931945
O O3 0.584154 0.748445 0.942958
O O4 0.485550 0.794995 0.058748
O O5 0.750000 0.949824 0.766191
O O6 0.002229 0.932425 0.693761
O O7 0.983610 0.904347 0.829403
O O8 0.000000 0.000000 0.799476
O O9 0.500000 0.500000 0.086847
O O10 0.750000 0.449320 0.118685
O O11 0.505562 0.403629 0.059127
O O12 0.250000 0.850340 0.532276
O O13 0.492947 0.804336 0.577228
O O14 0.477477 0.844199 0.443172
O O15 0.750000 0.249984 0.621319
O O16 0.482642 0.256874 0.687024
O O17 0.750000 0.733079 0.273836
O O18 0.482285 0.690784 0.292347
O O19 0.515561 0.789324 0.319147
O O20 0.250000 0.640864 0.345122
O O21 0.750000 0.672572 0.893263
#
# Coordination Sequence:
#
# PCOD8191306 Si02
#       8
#     8   8   8   8   8   8   8   8
#     4   9  17  30  44  61  85 113 143 178 215 256
#     4  11  21  33  47  64  86 114 146 182 220 257
#     4  10  19  31  44  62  86 113 145 182 218 255
#     4   9  18  29  42  59  82 110 143 177 212 251
#     4  10  18  28  43  64  87 115 146 179 216 256
#     4  10  19  30  43  63  88 116 147 180 216 258
#     4  11  20  31  46  64  86 115 149 183 217 259
#     4   8  16  28  42  59  81 108 141 175 211 252
#
# _framework density 15.247165000000001
#
# number of rings (size 3 to 8) (size 9 to 14) (size 15 to 20)
#    0.000    2.250    0.000    6.000    0.000    6.000 
#    0.000    0.000    0.000    0.000    0.000    0.000 
#    0.000    1.000    0.000    7.000    0.000    6.125 
#
# Total GULP energy -396725.119048 kJ/mol
# GULP energy per Si atom -12397.659970 kJ/mol
# Density = 1.521246 g / cm^3
# Si number density = 15.247165 Si / 1000 Ang^3
#
#
#
# Elastic Constant Matrix: (Units=GPa)
#
#
# Indices 1 2 3 4 5 6 
#
# 1 66.9839 25.6645 22.9924 0.0000 0.0000 0.0000
# 2 25.6645 80.2791 52.9537 0.0000 0.0000 0.0000
# 3 22.9924 52.9537 103.8763 0.0002 0.0000 0.0000
# 4 0.0000 0.0000 0.0002 25.1655 0.0000 0.0000
# 5 0.0000 0.0000 0.0000 0.0000 27.1256 0.0000
# 6 0.0000 0.0000 0.0000 0.0000 0.0000 22.1734
#
#
#
# Elastic Compliance Matrix: (Units=1/GPa)
#
#
# Indices 1 2 3 4 5 6 
#
# 1 0.017169 -0.004493 -0.001510 0.000000 0.000000 0.000000
# 2 -0.004493 0.019943 -0.009172 0.000000 0.000000 0.000000
# 3 -0.001510 -0.009172 0.014637 0.000000 0.000000 0.000000
# 4 0.000000 0.000000 0.000000 0.039737 0.000000 0.000000
# 5 0.000000 0.000000 0.000000 0.000000 0.036865 0.000000
# 6 0.000000 0.000000 0.000000 0.000000 0.000000 0.045099
#
#
# Mechanical properties :
#
#
# Convention : Reuss Voigt Hill
#
# Bulk Modulus (GPa) = 46.73112 50.48452 48.60782
# Shear Modulus (GPa) = 23.70435 24.86148 24.28292
#
# Velocity S-wave (km/s) = 3.94721 4.04241 3.99509
# Velocity P-wave (km/s) = 7.17562 7.41422 7.29590
#
# Compressibility (1/GPa) = 0.02139901
#
# Stress axis : x y z
#
# Youngs Moduli (GPa) = 58.24592 50.14340 68.32148
#
# Poissons Ratio (x) = 0.22528 0.10316
# Poissons Ratio (y) = 0.26168 0.62664
# Poissons Ratio (z) = 0.08795 0.45991
#
# Static dielectric constant tensor:
#      x y z
#    x 3.049210 0.000000 0.000000 
#    y 0.000000 2.872970 0.000000 
#    z 0.000000 0.000000 3.049780 
# 
# 
# High freq. dielectric constant tensor:
#      x y z
#    x 1.599960 0.000000 0.000000 
#    y 0.000000 1.549990 0.000000 
#    z 0.000000 0.000000 1.574520 
# 
# From -- ./inp_files/18679.got.cif
#   From: 2010.03.12/outbox.cif.g09.slc.cpg/sg46_10_cif.got.tgz:18679.got - 2010.04.14 02:56:35.
