data_PCOD8191427
_publ_section_title
;
Structure prediction by ZEFSAII (Michael W. Deem and Ramdas Pophale) SiO2 
 PCOD8191427
Probable space group: I M A 2
;
_chemical_formula_sum "Si O2"
_cell_formula_units_Z 48
_cell_length_a 9.046945
_cell_length_b 13.801137
_cell_length_c 18.419378
_cell_angle_alpha 90.000000
_cell_angle_beta 90.000000
_cell_angle_gamma 90.000000
_cell_volume 2299.809045
_symmetry_space_group_name_H-M "I M A 2"
_symmetry_group_IT_number 46
_symmetry_cell_setting 'orthorhombic'
loop_
_space_group_symop_operation_xyz
x,y,z
-x,-y,z
1/2-x,y,z
1/2+x,-y,z
1/2+x,1/2+y,1/2+z
1/2-x,1/2-y,1/2+z
-x,1/2+y,1/2+z
x,1/2-y,1/2+z
loop_
_atom_site_type_symbol
_atom_site_label
_atom_site_fract_x
_atom_site_fract_y
_atom_site_fract_z
Si Si1 0.420159 0.727035 0.146300
Si Si2 0.911747 0.587071 0.233547
Si Si3 0.077230 0.398947 0.029162
Si Si4 0.076315 0.197684 0.379852
Si Si5 0.410896 0.089649 0.901421
Si Si6 0.078911 0.601394 0.742992
O O1 0.250000 0.697502 0.135878
O O2 0.489000 0.680819 0.219387
O O3 0.511221 0.690051 0.076622
O O4 0.435926 0.841005 0.165966
O O5 0.750000 0.597559 0.196795
O O6 0.891875 0.564980 0.317320
O O7 0.000000 0.500000 0.194359
O O8 0.250000 0.406949 0.045801
O O9 0.000000 0.500000 0.049109
O O10 0.049088 0.377236 0.944735
O O11 0.250000 0.209801 0.360170
O O12 0.014911 0.303490 0.406569
O O13 0.991797 0.159366 0.309961
O O14 0.250000 0.091414 0.939514
O O15 0.500000 0.000000 0.938164
O O16 0.250000 0.584237 0.762428
O O17 0.000000 0.500000 0.731190
#
# Coordination Sequence:
#
# PCOD8191427 Si02
#       6
#     8   8   8   8   8   8
#     4  11  23  39  58  85 118 153 199 246 296 355
#     4  10  18  30  52  80 114 150 186 234 289 343
#     4  11  24  41  63  89 122 162 202 247 302 362
#     4  10  21  40  63  90 124 161 203 249 300 358
#     4   9  18  32  53  83 117 152 191 238 290 346
#     4  11  24  40  63  91 119 156 201 250 303 360
#
# _framework density 20.871299
#
# number of rings (size 3 to 8) (size 9 to 14) (size 15 to 20)
#    0.000    1.667    1.667    3.000    0.000    6.000 
#    0.000    0.833    0.000    4.000    0.000    0.000 
#    0.000    0.000    0.000    0.000    0.000    0.000 
#
# Total GULP energy -297387.735509 kJ/mol
# GULP energy per Si atom -12391.155646 kJ/mol
# Density = 2.082379 g / cm^3
# Si number density = 20.871299 Si / 1000 Ang^3
#
#
#
# Elastic Constant Matrix: (Units=GPa)
#
#
# Indices 1 2 3 4 5 6 
#
# 1 135.1183 62.8184 37.7029 0.0000 0.0000 0.0000
# 2 62.8184 134.5753 26.3521 0.0000 0.0000 0.0000
# 3 37.7029 26.3521 64.5232 0.0000 0.0000 0.0000
# 4 0.0000 0.0000 0.0000 13.8491 0.0000 0.0000
# 5 0.0000 0.0000 0.0000 0.0000 20.4580 0.0000
# 6 0.0000 0.0000 0.0000 0.0000 0.0000 35.1979
#
#
#
# Elastic Compliance Matrix: (Units=1/GPa)
#
#
# Indices 1 2 3 4 5 6 
#
# 1 0.010535 -0.004035 -0.004508 0.000000 0.000000 0.000000
# 2 -0.004035 0.009622 -0.001572 0.000000 0.000000 0.000000
# 3 -0.004508 -0.001572 0.018774 0.000000 0.000000 0.000000
# 4 0.000000 0.000000 0.000000 0.072207 0.000000 0.000000
# 5 0.000000 0.000000 0.000000 0.000000 0.048881 0.000000
# 6 0.000000 0.000000 0.000000 0.000000 0.000000 0.028411
#
#
# Mechanical properties :
#
#
# Convention : Reuss Voigt Hill
#
# Bulk Modulus (GPa) = 53.47129 65.32928 59.40029
# Shear Modulus (GPa) = 23.26742 27.72389 25.49565
#
# Velocity S-wave (km/s) = 3.34249 3.64857 3.49888
# Velocity P-wave (km/s) = 6.36957 7.00845 6.69664
#
# Compressibility (1/GPa) = 0.01870163
#
# Stress axis : x y z
#
# Youngs Moduli (GPa) = 94.92561 103.92846 53.26387
#
# Poissons Ratio (x) = 0.41932 0.24010
# Poissons Ratio (y) = 0.38300 0.08374
# Poissons Ratio (z) = 0.42791 0.16339
#
# Static dielectric constant tensor:
#      x y z
#    x 4.126450 0.000000 0.000000 
#    y 0.000000 3.938560 0.000000 
#    z 0.000000 0.000000 3.438090 
# 
# 
# High freq. dielectric constant tensor:
#      x y z
#    x 1.823990 0.000000 0.000000 
#    y 0.000000 1.825310 0.000000 
#    z 0.000000 0.000000 1.790040 
# 
# From -- ./inp_files/20930.got.cif
#   From: 2010.03.12/outbox.cif.g09.slc.cpg/sg46_11_cif.got.tgz:20930.got - 2010.04.14 02:56:35.
