data_PCOD8191550
_publ_section_title
;
Structure prediction by ZEFSAII (Michael W. Deem and Ramdas Pophale) SiO2 
 PCOD8191550
Probable space group: I M A 2
;
_chemical_formula_sum "Si O2"
_cell_formula_units_Z 60
_cell_length_a 14.208540
_cell_length_b 11.509839
_cell_length_c 19.310499
_cell_angle_alpha 90.000000
_cell_angle_beta 90.000000
_cell_angle_gamma 90.000000
_cell_volume 3158.000537
_symmetry_space_group_name_H-M "I M A 2"
_symmetry_group_IT_number 46
_symmetry_cell_setting 'orthorhombic'
loop_
_space_group_symop_operation_xyz
x,y,z
-x,-y,z
1/2-x,y,z
1/2+x,-y,z
1/2+x,1/2+y,1/2+z
1/2-x,1/2-y,1/2+z
-x,1/2+y,1/2+z
x,1/2-y,1/2+z
loop_
_atom_site_type_symbol
_atom_site_label
_atom_site_fract_x
_atom_site_fract_y
_atom_site_fract_z
Si Si1 0.526256 0.713837 0.994460
Si Si2 0.358715 0.208187 0.624228
Si Si3 0.138942 0.198779 0.776359
Si Si4 0.360039 0.408643 0.416916
Si Si5 0.500000 0.500000 0.897055
Si Si6 0.861113 0.538756 0.787904
Si Si7 0.357500 0.480908 0.636595
Si Si8 0.138974 0.877030 0.008295
O O1 0.589084 0.819416 0.967396
O O2 0.528271 0.609228 0.941777
O O3 0.571311 0.661410 0.065002
O O4 0.418636 0.757462 0.002670
O O5 0.250000 0.171832 0.609652
O O6 0.394873 0.160041 0.699285
O O7 0.369923 0.346059 0.622563
O O8 0.250000 0.207063 0.770528
O O9 0.107151 0.108731 0.836674
O O10 0.103621 0.327857 0.795120
O O11 0.250000 0.380836 0.424568
O O12 0.381379 0.540165 0.441555
O O13 0.588326 0.465845 0.848048
O O14 0.750000 0.526776 0.796727
O O15 0.895227 0.488344 0.713378
O O16 0.250000 0.515908 0.633182
O O17 0.404303 0.558199 0.576337
O O18 0.250000 0.847944 0.012939
#
# Coordination Sequence:
#
# PCOD8191550 Si02
#       8
#     8   8   8   8   4   8   8   8
#     4  12  23  35  52  78 111 148 184 220 265 315
#     4   9  17  31  55  85 109 132 176 224 267 321
#     4   8  15  30  55  83 107 134 169 221 278 320
#     4  10  18  33  58  85 110 133 169 224 282 329
#     4  12  26  36  50  76 110 150 196 208 250 326
#     4   9  18  34  53  76 108 139 174 224 269 312
#     4   8  15  30  55  84 106 130 168 219 283 329
#     4  10  21  36  55  83 113 139 175 226 277 327
#
# _framework density 18.999365000000001
#
# number of rings (size 3 to 8) (size 9 to 14) (size 15 to 20)
#    0.000    2.400    2.667    2.400    0.000    3.200 
#    0.000    0.000    2.933    0.000    0.000    0.000 
#    0.000    0.000    0.000    0.000    0.000    0.000 
#
# Total GULP energy -371762.660005 kJ/mol
# GULP energy per Si atom -12392.088667 kJ/mol
# Density = 1.895612 g / cm^3
# Si number density = 18.999365 Si / 1000 Ang^3
#
#
#
# Elastic Constant Matrix: (Units=GPa)
#
#
# Indices 1 2 3 4 5 6 
#
# 1 63.9378 15.9758 44.7273 0.0000 0.0000 0.0000
# 2 15.9758 13.1550 17.5678 0.0000 0.0000 0.0000
# 3 44.7273 17.5678 150.2645 0.0000 0.0000 0.0000
# 4 0.0000 0.0000 0.0000 10.5687 0.0000 0.0000
# 5 0.0000 0.0000 0.0000 0.0000 8.0893 0.0000
# 6 0.0000 0.0000 0.0000 0.0000 0.0000 16.9415
#
#
#
# Elastic Compliance Matrix: (Units=1/GPa)
#
#
# Indices 1 2 3 4 5 6 
#
# 1 0.024863 -0.024069 -0.004587 0.000000 0.000000 0.000000
# 2 -0.024069 0.113381 -0.006091 0.000000 0.000000 0.000000
# 3 -0.004587 -0.006091 0.008732 0.000000 0.000000 0.000000
# 4 0.000000 0.000000 0.000000 0.094619 0.000000 0.000000
# 5 0.000000 0.000000 0.000000 0.000000 0.123620 0.000000
# 6 0.000000 0.000000 0.000000 0.000000 0.000000 0.059027
#
#
# Mechanical properties :
#
#
# Convention : Reuss Voigt Hill
#
# Bulk Modulus (GPa) = 12.90615 42.65547 27.78081
# Shear Modulus (GPa) = 9.62349 17.05901 13.34125
#
# Velocity S-wave (km/s) = 2.25303 2.99970 2.65277
# Velocity P-wave (km/s) = 3.68455 5.87345 4.90272
#
# Compressibility (1/GPa) = 0.07748247
#
# Stress axis : x y z
#
# Youngs Moduli (GPa) = 40.22093 8.81982 114.51676
#
# Poissons Ratio (x) = 0.21228 0.52525
# Poissons Ratio (y) = 0.96806 0.69757
# Poissons Ratio (z) = 0.18448 0.05373
#
# Static dielectric constant tensor:
#      x y z
#    x 3.334430 0.000000 0.000000 
#    y 0.000000 3.330930 0.000000 
#    z 0.000000 0.000000 4.159350 
# 
# 
# High freq. dielectric constant tensor:
#      x y z
#    x 1.728870 0.000000 0.000000 
#    y 0.000000 1.681400 0.000000 
#    z 0.000000 0.000000 1.760690 
# 
# From -- ./inp_files/19603.got.cif
#   From: 2010.03.12/outbox.cif.g09.slc.cpg/sg46_10_cif.got.tgz:19603.got - 2010.04.14 02:56:35.
