data_PCOD8191069
_publ_section_title
;
Structure prediction by ZEFSAII (Michael W. Deem and Ramdas Pophale) SiO2 
 PCOD8191069
Probable space group: I B A 2
;
_chemical_formula_sum "Si O2"
_cell_formula_units_Z 64
_cell_length_a 11.633891
_cell_length_b 29.548715
_cell_length_c 8.515478
_cell_angle_alpha 90.000000
_cell_angle_beta 90.000000
_cell_angle_gamma 90.000000
_cell_volume 2927.336319
_symmetry_space_group_name_H-M "I B A 2"
_symmetry_group_IT_number 45
_symmetry_cell_setting 'orthorhombic'
loop_
_space_group_symop_operation_xyz
x,y,z
-x,-y,z
-x,y,1/2+z
x,-y,1/2+z
1/2+x,1/2+y,1/2+z
1/2-x,1/2-y,1/2+z
1/2-x,1/2+y,z
1/2+x,1/2-y,z
loop_
_atom_site_type_symbol
_atom_site_label
_atom_site_fract_x
_atom_site_fract_y
_atom_site_fract_z
Si Si1 0.743952 0.298386 0.408450
Si Si2 0.735075 0.944403 0.399754
Si Si3 0.977675 0.657728 0.810619
Si Si4 0.088260 0.127580 0.298965
Si Si5 0.294336 0.959961 0.535735
Si Si6 0.793378 0.700834 0.270606
Si Si7 0.346192 0.377031 0.438923
Si Si8 0.009249 0.591861 0.550779
O O1 0.848919 0.322530 0.315427
O O2 0.626657 0.324187 0.367447
O O3 0.748586 0.299909 0.594847
O O4 0.738049 0.247187 0.353735
O O5 0.847353 0.912779 0.393400
O O6 0.704033 0.955181 0.222033
O O7 0.640063 0.918921 0.504895
O O8 0.755126 0.991515 0.488811
O O9 0.068575 0.695208 0.754863
O O10 0.985064 0.606994 0.730345
O O11 0.018903 0.642129 0.982919
O O12 0.112701 0.131093 0.115224
O O13 0.953485 0.120180 0.321791
O O14 0.218673 0.924722 0.437785
O O15 0.428111 0.949654 0.493544
O O16 0.738801 0.661485 0.376525
#
# Coordination Sequence:
#
# PCOD8191069 Si02
#       8
#     8   8   8   8   8   8   8   8
#     4  12  27  45  70 103 138 180 234 283 348 417
#     4  11  25  42  66 100 137 176 228 281 346 413
#     4  12  24  44  73  98 139 180 225 283 351 409
#     4  11  24  47  68  96 134 180 230 287 341 414
#     4  11  25  41  66 100 135 179 225 284 344 416
#     4  12  27  44  71 102 136 184 229 288 346 418
#     4  11  25  46  70  95 134 180 230 285 346 410
#     4  12  22  43  69 100 137 177 224 283 347 411
#
# _framework density 21.862877999999998
#
# number of rings (size 3 to 8) (size 9 to 14) (size 15 to 20)
#    0.000    0.500    5.000    2.625    5.250    3.500 
#    0.000    2.500    0.000    0.000    0.000    0.000 
#    0.000    0.000    0.000    0.000    0.000    0.000 
#
# Total GULP energy -396614.900597 kJ/mol
# GULP energy per Si atom -12394.215644 kJ/mol
# Density = 2.181312 g / cm^3
# Si number density = 21.862878 Si / 1000 Ang^3
#
#
#
# Elastic Constant Matrix: (Units=GPa)
#
#
# Indices 1 2 3 4 5 6 
#
# 1 100.6035 36.0632 28.1806 0.0001 0.0004 -0.0022
# 2 36.0632 131.4090 48.4363 0.0017 0.0102 0.0003
# 3 28.1806 48.4363 69.3410 0.0014 0.0006 -0.0049
# 4 0.0001 0.0017 0.0014 38.5637 0.0140 0.0043
# 5 0.0004 0.0102 0.0006 0.0140 14.1779 0.0020
# 6 -0.0022 0.0003 -0.0049 0.0043 0.0020 21.4907
#
#
#
# Elastic Compliance Matrix: (Units=1/GPa)
#
#
# Indices 1 2 3 4 5 6 
#
# 1 0.011574 -0.001943 -0.003347 0.000000 0.000001 0.000000
# 2 -0.001943 0.010575 -0.006597 0.000000 -0.000007 -0.000002
# 3 -0.003347 -0.006597 0.020390 0.000000 0.000004 0.000004
# 4 0.000000 0.000000 0.000000 0.025931 -0.000026 -0.000005
# 5 0.000001 -0.000007 0.000004 -0.000026 0.070533 -0.000007
# 6 0.000000 -0.000002 0.000004 -0.000005 -0.000007 0.046532
#
#
# Mechanical properties :
#
#
# Convention : Reuss Voigt Hill
#
# Bulk Modulus (GPa) = 53.28965 58.52375 55.90670
# Shear Modulus (GPa) = 23.19520 27.42467 25.30993
#
# Velocity S-wave (km/s) = 3.26074 3.54559 3.40614
# Velocity P-wave (km/s) = 6.21321 6.60214 6.41062
#
# Compressibility (1/GPa) = 0.01876537
#
# Stress axis : x y z
#
# Youngs Moduli (GPa) = 86.40149 94.56609 49.04411
#
# Poissons Ratio (x) = 0.18372 0.16413
# Poissons Ratio (y) = 0.16785 0.32355
# Poissons Ratio (z) = 0.28916 0.62386
#
# Static dielectric constant tensor:
#      x y z
#    x 4.003370 -0.000020 0.000020 
#    y -0.000020 4.079580 0.000000 
#    z 0.000020 0.000000 4.061650 
# 
# 
# High freq. dielectric constant tensor:
#      x y z
#    x 1.855310 0.000000 0.000000 
#    y 0.000000 1.862210 0.000000 
#    z 0.000000 0.000000 1.880640 
# 
# From -- ./inp_files/1511.got.cif
#   From: 2010.03.12/outbox.cif.g09.slc.cpg/sg45_1_cif.got.tgz:1511.got - 2010.04.14 02:50:11.
