data_PCOD8191632
_publ_section_title
;
Structure prediction by ZEFSAII (Michael W. Deem and Ramdas Pophale) SiO2 
 PCOD8191632
Probable space group: I M A 2
;
_chemical_formula_sum "Si O2"
_cell_formula_units_Z 64
_cell_length_a 8.777564
_cell_length_b 26.536814
_cell_length_c 18.381166
_cell_angle_alpha 90.000000
_cell_angle_beta 90.000000
_cell_angle_gamma 90.000000
_cell_volume 4281.498955
_symmetry_space_group_name_H-M "I M A 2"
_symmetry_group_IT_number 46
_symmetry_cell_setting 'orthorhombic'
loop_
_space_group_symop_operation_xyz
x,y,z
-x,-y,z
1/2-x,y,z
1/2+x,-y,z
1/2+x,1/2+y,1/2+z
1/2-x,1/2-y,1/2+z
-x,1/2+y,1/2+z
x,1/2-y,1/2+z
loop_
_atom_site_type_symbol
_atom_site_label
_atom_site_fract_x
_atom_site_fract_y
_atom_site_fract_z
Si Si1 0.069280 0.947569 0.582640
Si Si2 0.925434 0.303851 0.876706
Si Si3 0.427584 0.754401 0.741477
Si Si4 0.431146 0.447919 0.239212
Si Si5 0.077556 0.244370 0.591387
Si Si6 0.575352 0.650558 0.315196
Si Si7 0.076802 0.212864 0.945832
Si Si8 0.073123 0.143441 0.501935
O O1 0.250000 0.952550 0.590103
O O2 0.996548 0.934440 0.660288
O O3 0.027470 0.903424 0.527140
O O4 0.000000 0.000000 0.553019
O O5 0.750000 0.320225 0.883187
O O6 0.974677 0.293644 0.792401
O O7 0.949865 0.250370 0.915656
O O8 0.028302 0.345436 0.917651
O O9 0.250000 0.762802 0.748336
O O10 0.469930 0.742875 0.658549
O O11 0.501773 0.806312 0.766490
O O12 0.500000 0.500000 0.268919
O O13 0.250000 0.452739 0.234149
O O14 0.488373 0.404446 0.294547
O O15 0.250000 0.241831 0.620149
O O16 0.056312 0.290331 0.533133
O O17 0.034182 0.191783 0.552056
O O18 0.750000 0.651630 0.292415
O O19 0.553309 0.660229 0.402302
O O20 0.250000 0.233552 0.930547
O O21 0.250000 0.129303 0.506091
#
# Coordination Sequence:
#
# PCOD8191632 Si02
#       8
#     8   8   8   8   8   8   8   8
#     4  11  21  32  45  61  83 110 139 174 208 241
#     4   9  17  28  40  58  81 106 135 167 202 241
#     4  10  19  27  39  60  85 109 136 168 202 240
#     4  10  19  30  43  60  82 109 140 175 209 244
#     4   9  17  27  41  59  81 108 137 166 200 242
#     4   9  17  29  44  58  77 107 141 171 204 243
#     4   8  15  28  42  57  77 104 136 170 204 241
#     4  10  19  31  45  61  81 109 142 173 205 244
#
# _framework density 14.948036
#
# number of rings (size 3 to 8) (size 9 to 14) (size 15 to 20)
#    0.000    2.500    0.000    4.875    0.000    8.000 
#    0.000    0.000    0.000    0.000    0.000    0.000 
#    0.000    1.000    0.000    9.250    0.000    2.750 
#
# Total GULP energy -396545.229185 kJ/mol
# GULP energy per Si atom -12392.038412 kJ/mol
# Density = 1.491401 g / cm^3
# Si number density = 14.948036 Si / 1000 Ang^3
#
#
#
# Elastic Constant Matrix: (Units=GPa)
#
#
# Indices 1 2 3 4 5 6 
#
# 1 50.8150 26.0313 23.0910 0.0000 0.0000 0.0000
# 2 26.0313 82.6186 50.7474 0.0000 0.0000 0.0000
# 3 23.0910 50.7474 90.7591 -0.0001 -0.0001 0.0000
# 4 0.0000 0.0000 -0.0001 25.9973 0.0000 0.0000
# 5 0.0000 0.0000 -0.0001 0.0000 20.1785 0.0000
# 6 0.0000 0.0000 0.0000 0.0000 0.0000 19.5982
#
#
#
# Elastic Compliance Matrix: (Units=1/GPa)
#
#
# Indices 1 2 3 4 5 6 
#
# 1 0.023942 -0.005791 -0.002853 0.000000 0.000000 0.000000
# 2 -0.005791 0.019836 -0.009618 0.000000 0.000000 0.000000
# 3 -0.002853 -0.009618 0.017122 0.000000 0.000000 0.000000
# 4 0.000000 0.000000 0.000000 0.038466 0.000000 0.000000
# 5 0.000000 0.000000 0.000000 0.000000 0.049558 0.000000
# 6 0.000000 0.000000 0.000000 0.000000 0.000000 0.051025
#
#
# Mechanical properties :
#
#
# Convention : Reuss Voigt Hill
#
# Bulk Modulus (GPa) = 41.02435 47.10359 44.06397
# Shear Modulus (GPa) = 20.44163 21.44299 20.94231
#
# Velocity S-wave (km/s) = 3.70200 3.79159 3.74706
# Velocity P-wave (km/s) = 6.76589 7.12378 6.94714
#
# Compressibility (1/GPa) = 0.02437577
#
# Stress axis : x y z
#
# Youngs Moduli (GPa) = 41.76676 50.41310 58.40456
#
# Poissons Ratio (x) = 0.29195 0.16665
# Poissons Ratio (y) = 0.24187 0.56173
# Poissons Ratio (z) = 0.11918 0.48487
#
# Static dielectric constant tensor:
#      x y z
#    x 2.948210 0.000000 0.000000 
#    y 0.000000 2.847970 0.000000 
#    z 0.000000 0.000000 3.066780 
# 
# 
# High freq. dielectric constant tensor:
#      x y z
#    x 1.584300 0.000000 0.000000 
#    y 0.000000 1.537540 0.000000 
#    z 0.000000 0.000000 1.561630 
# 
# From -- ./inp_files/18682.got.cif
#   From: 2010.03.12/outbox.cif.g09.slc.cpg/sg46_10_cif.got.tgz:18682.got - 2010.04.14 02:56:35.
