data_PCOD8191429
_publ_section_title
;
Structure prediction by ZEFSAII (Michael W. Deem and Ramdas Pophale) SiO2 
 PCOD8191429
Probable space group: I M A 2
;
_chemical_formula_sum "Si O2"
_cell_formula_units_Z 52
_cell_length_a 9.482670
_cell_length_b 10.627114
_cell_length_c 27.153228
_cell_angle_alpha 90.000000
_cell_angle_beta 90.000000
_cell_angle_gamma 90.000000
_cell_volume 2736.323517
_symmetry_space_group_name_H-M "I M A 2"
_symmetry_group_IT_number 46
_symmetry_cell_setting 'orthorhombic'
loop_
_space_group_symop_operation_xyz
x,y,z
-x,-y,z
1/2-x,y,z
1/2+x,-y,z
1/2+x,1/2+y,1/2+z
1/2-x,1/2-y,1/2+z
-x,1/2+y,1/2+z
x,1/2-y,1/2+z
loop_
_atom_site_type_symbol
_atom_site_label
_atom_site_fract_x
_atom_site_fract_y
_atom_site_fract_z
Si Si1 0.086769 0.374112 0.868400
Si Si2 0.913505 0.624645 0.755027
Si Si3 0.500000 0.500000 0.609036
Si Si4 0.087434 0.118611 0.920238
Si Si5 0.913520 0.376908 0.080989
Si Si6 0.903759 0.679724 0.531016
Si Si7 0.092993 0.777780 0.174418
O O1 0.250000 0.403957 0.879796
O O2 0.064979 0.336610 0.811429
O O3 0.032892 0.252967 0.898899
O O4 0.000000 0.500000 0.882542
O O5 0.750000 0.603845 0.742038
O O6 0.000000 0.500000 0.742733
O O7 0.979445 0.730128 0.718829
O O8 0.607020 0.574052 0.573361
O O9 0.587899 0.406888 0.643637
O O10 0.250000 0.099716 0.904911
O O11 0.064897 0.117711 0.978576
O O12 0.000000 0.000000 0.898286
O O13 0.750000 0.398788 0.069912
O O14 0.940254 0.336494 0.137407
O O15 0.000000 0.500000 0.069767
O O16 0.969917 0.274261 0.042630
O O17 0.750000 0.747476 0.529652
O O18 0.250000 0.764622 0.196687
#
# Coordination Sequence:
#
# PCOD8191429 Si02
#       7
#     8   8   4   8   8   8   8
#     4   9  20  38  58  82 112 146 190 239 288 342
#     4  10  19  32  53  79 108 141 180 230 281 331
#     4  10  18  30  52  82 112 138 172 214 266 328
#     4  10  21  38  59  85 116 149 190 236 287 343
#     4  10  22  38  54  75 107 146 186 226 271 330
#     4  10  20  34  55  80 109 144 180 223 272 328
#     4  10  20  32  51  79 109 139 176 220 270 326
#
# _framework density 19.003602000000001
#
# number of rings (size 3 to 8) (size 9 to 14) (size 15 to 20)
#    0.000    2.154    1.538    1.385    0.000    6.154 
#    0.000    2.308    0.000    3.692    0.000    0.000 
#    0.000    0.000    0.000    0.000    0.000    0.000 
#
# Total GULP energy -322330.485871 kJ/mol
# GULP energy per Si atom -12397.326380 kJ/mol
# Density = 1.896035 g / cm^3
# Si number density = 19.003602 Si / 1000 Ang^3
#
#
#
# Elastic Constant Matrix: (Units=GPa)
#
#
# Indices 1 2 3 4 5 6 
#
# 1 114.9137 50.2949 32.1787 0.0000 0.0000 0.0000
# 2 50.2949 100.3933 26.4288 0.0000 0.0000 0.0000
# 3 32.1787 26.4288 64.8005 0.0000 0.0000 0.0000
# 4 0.0000 0.0000 0.0000 15.0858 0.0000 0.0000
# 5 0.0000 0.0000 0.0000 0.0000 26.0299 0.0000
# 6 0.0000 0.0000 0.0000 0.0000 0.0000 31.7779
#
#
#
# Elastic Compliance Matrix: (Units=1/GPa)
#
#
# Indices 1 2 3 4 5 6 
#
# 1 0.011974 -0.004967 -0.003920 0.000000 0.000000 0.000000
# 2 -0.004967 0.013219 -0.002925 0.000000 0.000000 0.000000
# 3 -0.003920 -0.002925 0.018572 0.000000 0.000000 0.000000
# 4 0.000000 0.000000 0.000000 0.066287 0.000000 0.000000
# 5 0.000000 0.000000 0.000000 0.000000 0.038417 0.000000
# 6 0.000000 0.000000 0.000000 0.000000 0.000000 0.031468
#
#
# Mechanical properties :
#
#
# Convention : Reuss Voigt Hill
#
# Bulk Modulus (GPa) = 49.65102 55.32360 52.48731
# Shear Modulus (GPa) = 23.77838 25.99239 24.88539
#
# Velocity S-wave (km/s) = 3.54115 3.70234 3.62264
# Velocity P-wave (km/s) = 6.55008 6.88852 6.72143
#
# Compressibility (1/GPa) = 0.02014057
#
# Stress axis : x y z
#
# Youngs Moduli (GPa) = 83.51636 75.64879 53.84533
#
# Poissons Ratio (x) = 0.37571 0.21109
# Poissons Ratio (y) = 0.41479 0.15750
# Poissons Ratio (z) = 0.32741 0.22128
#
# Static dielectric constant tensor:
#      x y z
#    x 3.502050 0.000000 0.000000 
#    y 0.000000 3.360450 0.000000 
#    z 0.000000 0.000000 3.485810 
# 
# 
# High freq. dielectric constant tensor:
#      x y z
#    x 1.743310 0.000000 0.000000 
#    y 0.000000 1.718950 0.000000 
#    z 0.000000 0.000000 1.734520 
# 
# From -- ./inp_files/24195.got.cif
#   From: 2010.03.12/outbox.cif.g09.slc.cpg/sg46_13_cif.got.tgz:24195.got - 2010.04.14 02:56:35.
