data_PCOD8191151
_publ_section_title
;
Structure prediction by ZEFSAII (Michael W. Deem and Ramdas Pophale) SiO2 
 PCOD8191151
Probable space group: I M A 2
;
_chemical_formula_sum "Si O2"
_cell_formula_units_Z 64
_cell_length_a 8.738000
_cell_length_b 30.695654
_cell_length_c 14.497814
_cell_angle_alpha 90.000000
_cell_angle_beta 90.000000
_cell_angle_gamma 90.000000
_cell_volume 3888.583732
_symmetry_space_group_name_H-M "I M A 2"
_symmetry_group_IT_number 46
_symmetry_cell_setting 'orthorhombic'
loop_
_space_group_symop_operation_xyz
x,y,z
-x,-y,z
1/2-x,y,z
1/2+x,-y,z
1/2+x,1/2+y,1/2+z
1/2-x,1/2-y,1/2+z
-x,1/2+y,1/2+z
x,1/2-y,1/2+z
loop_
_atom_site_type_symbol
_atom_site_label
_atom_site_fract_x
_atom_site_fract_y
_atom_site_fract_z
Si Si1 0.420711 0.869560 0.517460
Si Si2 0.432265 0.703462 0.145636
Si Si3 0.429036 0.368551 0.661526
Si Si4 0.932044 0.045088 0.427456
Si Si5 0.068890 0.772472 0.843116
Si Si6 0.932114 0.291677 0.545240
Si Si7 0.568985 0.045394 0.215184
Si Si8 0.922112 0.323924 0.824592
O O1 0.250000 0.880336 0.551879
O O2 0.503445 0.839641 0.595447
O O3 0.500245 0.915842 0.491911
O O4 0.414449 0.840111 0.427688
O O5 0.250000 0.702887 0.133533
O O6 0.481127 0.699660 0.253257
O O7 0.491919 0.748539 0.099375
O O8 0.250000 0.371463 0.644587
O O9 0.500928 0.335219 0.589028
O O10 0.501446 0.416591 0.650369
O O11 0.465642 0.353431 0.765033
O O12 0.750000 0.044184 0.433397
O O13 0.981829 0.053037 0.321617
O O14 0.000000 0.000000 0.465519
O O15 0.250000 0.769472 0.851116
O O16 0.006497 0.724098 0.825456
O O17 0.005491 0.791239 0.939512
O O18 0.750000 0.293923 0.549203
O O19 0.750000 0.044533 0.205260
O O20 0.500000 0.000000 0.179222
O O21 0.750000 0.324903 0.780987
#
# Coordination Sequence:
#
# PCOD8191151 Si02
#       8
#     8   8   8   8   8   8   8   8
#     4   9  15  25  43  69  95 123 155 193 236 282
#     4   9  15  24  45  72  94 117 157 203 240 284
#     4  12  23  32  44  68  99 133 167 195 233 284
#     4   9  17  28  44  66  93 123 154 188 231 279
#     4   9  16  26  46  73  93 118 159 205 242 281
#     4  10  18  30  49  69  92 122 159 201 243 287
#     4  10  19  33  51  71  96 125 158 197 241 289
#     4  10  16  28  48  68  93 125 162 198 238 280
#
# _framework density 16.458432999999999
#
# number of rings (size 3 to 8) (size 9 to 14) (size 15 to 20)
#    0.000    2.250    3.750    1.500    0.000    0.500 
#    0.000    0.625    0.000    0.750    0.000    0.875 
#    0.000    2.000    0.000    0.000    0.000    0.000 
#
# Total GULP energy -396557.234072 kJ/mol
# GULP energy per Si atom -12392.413565 kJ/mol
# Density = 1.642097 g / cm^3
# Si number density = 16.458433 Si / 1000 Ang^3
#
#
#
# Elastic Constant Matrix: (Units=GPa)
#
#
# Indices 1 2 3 4 5 6 
#
# 1 33.2984 21.7831 13.7127 -0.0001 0.0000 0.0000
# 2 21.7831 127.7749 44.4279 -0.0002 0.0000 -0.0001
# 3 13.7127 44.4279 88.1073 -0.0010 0.0006 -0.0001
# 4 -0.0001 -0.0002 -0.0010 24.6172 0.0001 -0.0001
# 5 0.0000 0.0000 0.0006 0.0001 7.6112 -0.0001
# 6 0.0000 -0.0001 -0.0001 -0.0001 -0.0001 19.7161
#
#
#
# Elastic Compliance Matrix: (Units=1/GPa)
#
#
# Indices 1 2 3 4 5 6 
#
# 1 0.034404 -0.004855 -0.002907 0.000000 0.000000 0.000000
# 2 -0.004855 0.010175 -0.004375 0.000000 0.000000 0.000000
# 3 -0.002907 -0.004375 0.014008 0.000001 -0.000001 0.000000
# 4 0.000000 0.000000 0.000001 0.040622 -0.000001 0.000000
# 5 0.000000 0.000000 -0.000001 -0.000001 0.131385 0.000001
# 6 0.000000 0.000000 0.000000 0.000000 0.000001 0.050720
#
#
# Mechanical properties :
#
#
# Convention : Reuss Voigt Hill
#
# Bulk Modulus (GPa) = 29.14189 45.44754 37.29471
# Shear Modulus (GPa) = 15.77158 21.67270 18.72214
#
# Velocity S-wave (km/s) = 3.09895 3.63273 3.37640
# Velocity P-wave (km/s) = 5.52715 6.72823 6.15705
#
# Compressibility (1/GPa) = 0.03431487
#
# Stress axis : x y z
#
# Youngs Moduli (GPa) = 29.06616 98.27849 71.38576
#
# Poissons Ratio (x) = 0.47710 0.20749
# Poissons Ratio (y) = 0.14110 0.31233
# Poissons Ratio (z) = 0.08449 0.42999
#
# Static dielectric constant tensor:
#      x y z
#    x 2.732180 0.000000 0.000000 
#    y 0.000000 3.341920 0.000000 
#    z 0.000000 0.000000 3.101750 
# 
# 
# High freq. dielectric constant tensor:
#      x y z
#    x 1.593370 0.000000 0.000000 
#    y 0.000000 1.635840 0.000000 
#    z 0.000000 0.000000 1.608370 
# 
# From -- ./inp_files/14729.got.cif
#   From: 2010.03.12/outbox.cif.g09.slc.cpg/sg46_8_cif.got.tgz:14729.got - 2010.04.14 02:56:35.
