data_PCOD8191190
_publ_section_title
;
Structure prediction by ZEFSAII (Michael W. Deem and Ramdas Pophale) SiO2 
 PCOD8191190
Probable space group: I M A 2
;
_chemical_formula_sum "Si O2"
_cell_formula_units_Z 48
_cell_length_a 8.784055
_cell_length_b 31.299036
_cell_length_c 9.208744
_cell_angle_alpha 90.000000
_cell_angle_beta 90.000000
_cell_angle_gamma 90.000000
_cell_volume 2531.782583
_symmetry_space_group_name_H-M "I M A 2"
_symmetry_group_IT_number 46
_symmetry_cell_setting 'orthorhombic'
loop_
_space_group_symop_operation_xyz
x,y,z
-x,-y,z
1/2-x,y,z
1/2+x,-y,z
1/2+x,1/2+y,1/2+z
1/2-x,1/2-y,1/2+z
-x,1/2+y,1/2+z
x,1/2-y,1/2+z
loop_
_atom_site_type_symbol
_atom_site_label
_atom_site_fract_x
_atom_site_fract_y
_atom_site_fract_z
Si Si1 0.924031 0.865640 0.714300
Si Si2 0.068576 0.708492 0.715498
Si Si3 0.570869 0.290779 0.044193
Si Si4 0.070403 0.370542 0.549704
Si Si5 0.573077 0.959792 0.731285
Si Si6 0.429458 0.542557 0.544929
O O1 0.750000 0.850880 0.699750
O O2 0.945040 0.914055 0.651945
O O3 0.026337 0.835051 0.618223
O O4 0.976385 0.863423 0.881868
O O5 0.250000 0.704359 0.705828
O O6 0.008765 0.711278 0.880416
O O7 0.006342 0.750672 0.634364
O O8 0.993101 0.667882 0.643042
O O9 0.750000 0.287866 0.042393
O O10 0.250000 0.374160 0.565779
O O11 0.997953 0.414125 0.613726
O O12 0.750000 0.967969 0.768420
O O13 0.474908 0.957807 0.876945
O O14 0.500000 0.000000 0.640570
O O15 0.500000 0.500000 0.620949
O O16 0.250000 0.542361 0.566136
#
# Coordination Sequence:
#
# PCOD8191190 Si02
#       6
#     8   8   8   8   8   8
#     4   9  19  33  50  75 107 137 172 213 257 306
#     4  10  21  37  55  78 103 132 170 214 261 314
#     4  10  21  36  56  78 103 134 172 213 260 315
#     4  10  20  34  52  77 106 139 176 216 259 307
#     4   9  16  27  44  71 104 137 174 216 257 304
#     4  10  17  27  46  73 105 139 173 214 257 302
#
# _framework density 18.958974000000001
#
# number of rings (size 3 to 8) (size 9 to 14) (size 15 to 20)
#    0.000    2.333    0.000    5.500    0.000    6.667 
#    0.000    0.000    0.000    1.000    0.000    2.333 
#    0.000    0.000    0.000    0.000    0.000    0.000 
#
# Total GULP energy -297493.011504 kJ/mol
# GULP energy per Si atom -12395.542146 kJ/mol
# Density = 1.891582 g / cm^3
# Si number density = 18.958974 Si / 1000 Ang^3
#
#
#
# Elastic Constant Matrix: (Units=GPa)
#
#
# Indices 1 2 3 4 5 6 
#
# 1 59.8376 48.7547 26.4047 0.0010 -0.0002 0.0001
# 2 48.7547 185.7994 66.1226 0.0033 0.0007 0.0005
# 3 26.4047 66.1226 84.3378 0.0111 0.0018 0.0014
# 4 0.0010 0.0033 0.0111 21.4904 0.0009 0.0008
# 5 -0.0002 0.0007 0.0018 0.0009 20.4303 0.0009
# 6 0.0001 0.0005 0.0014 0.0008 0.0009 39.0238
#
#
#
# Elastic Compliance Matrix: (Units=1/GPa)
#
#
# Indices 1 2 3 4 5 6 
#
# 1 0.021884 -0.004583 -0.003258 0.000001 0.000001 0.000000
# 2 -0.004583 0.008425 -0.005170 0.000002 0.000000 0.000000
# 3 -0.003258 -0.005170 0.016931 -0.000008 -0.000001 -0.000001
# 4 0.000001 0.000002 -0.000008 0.046532 -0.000002 -0.000001
# 5 0.000001 0.000000 -0.000001 -0.000002 0.048947 -0.000001
# 6 0.000000 0.000000 -0.000001 -0.000001 -0.000001 0.025625
#
#
# Mechanical properties :
#
#
# Convention : Reuss Voigt Hill
#
# Bulk Modulus (GPa) = 47.13374 68.05987 57.59680
# Shear Modulus (GPa) = 24.82136 28.76841 26.79488
#
# Velocity S-wave (km/s) = 3.62223 3.89961 3.76348
# Velocity P-wave (km/s) = 6.51222 7.50016 7.02358
#
# Compressibility (1/GPa) = 0.02121623
#
# Stress axis : x y z
#
# Youngs Moduli (GPa) = 45.69603 118.69796 59.06352
#
# Poissons Ratio (x) = 0.54397 0.19245
# Poissons Ratio (y) = 0.20942 0.30538
# Poissons Ratio (z) = 0.14890 0.61371
#
# Static dielectric constant tensor:
#      x y z
#    x 3.432610 0.000000 0.000000 
#    y 0.000000 4.194230 0.000000 
#    z 0.000000 0.000000 3.192320 
# 
# 
# High freq. dielectric constant tensor:
#      x y z
#    x 1.737380 0.000000 0.000000 
#    y 0.000000 1.766240 0.000000 
#    z 0.000000 0.000000 1.685280 
# 
# From -- ./inp_files/3950.got.cif
#   From: 2010.03.12/outbox.cif.g09.slc.cpg/sg46_2_cif.got.tgz:3950.got - 2010.04.14 02:56:35.
