data_PCOD8191285
_publ_section_title
;
Structure prediction by ZEFSAII (Michael W. Deem and Ramdas Pophale) SiO2 
 PCOD8191285
Probable space group: I M A 2
;
_chemical_formula_sum "Si O2"
_cell_formula_units_Z 64
_cell_length_a 8.977917
_cell_length_b 18.595196
_cell_length_c 26.226079
_cell_angle_alpha 90.000000
_cell_angle_beta 90.000000
_cell_angle_gamma 90.000000
_cell_volume 4378.342297
_symmetry_space_group_name_H-M "I M A 2"
_symmetry_group_IT_number 46
_symmetry_cell_setting 'orthorhombic'
loop_
_space_group_symop_operation_xyz
x,y,z
-x,-y,z
1/2-x,y,z
1/2+x,-y,z
1/2+x,1/2+y,1/2+z
1/2-x,1/2-y,1/2+z
-x,1/2+y,1/2+z
x,1/2-y,1/2+z
loop_
_atom_site_type_symbol
_atom_site_label
_atom_site_fract_x
_atom_site_fract_y
_atom_site_fract_z
Si Si1 0.426196 0.575599 0.648390
Si Si2 0.426166 0.074600 0.960991
Si Si3 0.587343 0.206047 0.601370
Si Si4 0.571517 0.158413 0.047953
Si Si5 0.076381 0.338227 0.250141
Si Si6 0.421787 0.072095 0.845855
Si Si7 0.570771 0.423554 0.160988
Si Si8 0.586113 0.211079 0.206909
O O1 0.500000 0.500000 0.660851
O O2 0.250000 0.567149 0.649258
O O3 0.477472 0.603613 0.592723
O O4 0.476012 0.631511 0.693101
O O5 0.250000 0.069260 0.968660
O O6 0.472928 0.093102 0.902958
O O7 0.500000 0.000000 0.978393
O O8 0.492768 0.137566 0.995585
O O9 0.750000 0.188886 0.579082
O O10 0.509042 0.260778 0.561556
O O11 0.511376 0.129346 0.615087
O O12 0.603457 0.247740 0.654170
O O13 0.750000 0.159107 0.042362
O O14 0.250000 0.343780 0.236337
O O15 0.043749 0.361564 0.308331
O O16 0.985791 0.393214 0.214759
O O17 0.023743 0.255446 0.244032
O O18 0.250000 0.052411 0.846151
O O19 0.500000 0.000000 0.825997
O O20 0.500000 0.500000 0.149406
O O21 0.750000 0.427392 0.162573
O O22 0.750000 0.206057 0.232719
#
# Coordination Sequence:
#
# PCOD8191285 Si02
#       8
#     8   8   8   8   8   8   8   8
#     4   9  17  27  40  58  82 108 134 162 195 232
#     4  10  19  30  41  56  78 104 132 165 198 229
#     4   7  13  26  41  54  75 104 129 154 190 229
#     4   9  16  28  43  58  76 103 135 163 192 229
#     4  10  18  28  42  59  77 103 136 167 197 233
#     4   9  19  31  41  55  78 104 132 164 198 230
#     4  10  18  28  41  59  82 107 132 161 194 231
#     4   8  15  28  41  55  77 105 131 160 196 233
#
# _framework density 14.617404000000001
#
# number of rings (size 3 to 8) (size 9 to 14) (size 15 to 20)
#    0.000    3.000    0.000    4.125    0.000    4.500 
#    0.000    5.625    0.000    0.000    0.000    0.000 
#    0.000    1.000    0.000    4.500    0.000    4.000 
#
# Total GULP energy -396465.149615 kJ/mol
# GULP energy per Si atom -12389.535925 kJ/mol
# Density = 1.458413 g / cm^3
# Si number density = 14.617404 Si / 1000 Ang^3
#
#
#
# Elastic Constant Matrix: (Units=GPa)
#
#
# Indices 1 2 3 4 5 6 
#
# 1 49.9962 38.1063 30.5266 0.0000 0.0000 0.0000
# 2 38.1063 121.4211 53.1000 0.0000 0.0000 0.0000
# 3 30.5266 53.1000 69.6681 0.0000 0.0000 0.0000
# 4 0.0000 0.0000 0.0000 23.6781 0.0000 0.0000
# 5 0.0000 0.0000 0.0000 0.0000 17.4212 0.0000
# 6 0.0000 0.0000 0.0000 0.0000 0.0000 22.9209
#
#
#
# Elastic Compliance Matrix: (Units=1/GPa)
#
#
# Indices 1 2 3 4 5 6 
#
# 1 0.029499 -0.005408 -0.008804 0.000000 0.000000 0.000000
# 2 -0.005408 0.013345 -0.007802 0.000000 0.000000 0.000000
# 3 -0.008804 -0.007802 0.024158 0.000000 0.000000 0.000000
# 4 0.000000 0.000000 0.000000 0.042233 0.000000 0.000000
# 5 0.000000 0.000000 0.000000 0.000000 0.057401 0.000000
# 6 0.000000 0.000000 0.000000 0.000000 0.000000 0.043628
#
#
# Mechanical properties :
#
#
# Convention : Reuss Voigt Hill
#
# Bulk Modulus (GPa) = 43.52610 53.83901 48.68256
# Shear Modulus (GPa) = 19.08772 20.76085 19.92429
#
# Velocity S-wave (km/s) = 3.61754 3.77275 3.69596
# Velocity P-wave (km/s) = 6.87679 7.47598 7.18264
#
# Compressibility (1/GPa) = 0.02297472
#
# Stress axis : x y z
#
# Youngs Moduli (GPa) = 33.89999 74.93574 41.39463
#
# Poissons Ratio (x) = 0.40522 0.36443
# Poissons Ratio (y) = 0.18332 0.32295
# Poissons Ratio (z) = 0.29845 0.58463
#
# Static dielectric constant tensor:
#      x y z
#    x 2.795080 0.000000 0.000000 
#    y 0.000000 3.143420 0.000000 
#    z 0.000000 0.000000 2.747210 
# 
# 
# High freq. dielectric constant tensor:
#      x y z
#    x 1.555180 0.000000 0.000000 
#    y 0.000000 1.553550 0.000000 
#    z 0.000000 0.000000 1.524590 
# 
# From -- ./inp_files/23313.got.cif
#   From: 2010.03.12/outbox.cif.g09.slc.cpg/sg46_12_cif.got.tgz:23313.got - 2010.04.14 02:56:35.
