data_PCOD8191078
_publ_section_title
;
Structure prediction by ZEFSAII (Michael W. Deem and Ramdas Pophale) SiO2 
 PCOD8191078
Probable space group: I B A 2
;
_chemical_formula_sum "Si O2"
_cell_formula_units_Z 48
_cell_length_a 7.891443
_cell_length_b 14.123178
_cell_length_c 17.583675
_cell_angle_alpha 90.000000
_cell_angle_beta 90.000000
_cell_angle_gamma 90.000000
_cell_volume 1959.740215
_symmetry_space_group_name_H-M "I B A 2"
_symmetry_group_IT_number 45
_symmetry_cell_setting 'orthorhombic'
loop_
_space_group_symop_operation_xyz
x,y,z
-x,-y,z
-x,y,1/2+z
x,-y,1/2+z
1/2+x,1/2+y,1/2+z
1/2-x,1/2-y,1/2+z
1/2-x,1/2+y,z
1/2+x,1/2-y,z
loop_
_atom_site_type_symbol
_atom_site_label
_atom_site_fract_x
_atom_site_fract_y
_atom_site_fract_z
Si Si1 0.790238 0.865624 0.931840
Si Si2 0.404554 0.711988 0.687392
Si Si3 0.904555 0.788012 0.349703
Si Si4 0.193278 0.533842 0.689752
Si Si5 0.709761 0.365623 0.105254
Si Si6 0.693278 0.033842 0.847342
O O1 0.655792 0.816201 0.874140
O O2 0.977391 0.828417 0.915630
O O3 0.786012 0.978204 0.915961
O O4 0.740749 0.844322 0.018547
O O5 0.500000 0.715093 0.768547
O O6 0.233068 0.646409 0.686254
O O7 0.522609 0.671583 0.621464
O O8 0.344206 0.816201 0.662955
O O9 0.733068 0.853591 0.350840
O O10 0.286014 0.478204 0.621133
O O11 0.277562 0.500000 0.768547
O O12 0.000000 0.500000 0.686453
O O13 0.500000 0.000000 0.850641
#
# Coordination Sequence:
#
# PCOD8191078 Si02
#       6
#     8   8   8   8   8   8
#     4  12  27  44  71 108 147 191 243 309 373 429
#     4  12  25  46  74 106 144 199 246 297 365 445
#     4  12  25  46  74 106 144 199 246 297 365 445
#     4  11  25  44  72 105 143 188 244 302 364 434
#     4  12  27  44  71 108 147 191 243 309 373 429
#     4  11  25  44  72 105 143 188 244 302 364 434
#
# _framework density 24.493041999999999
#
# number of rings (size 3 to 8) (size 9 to 14) (size 15 to 20)
#    0.000    0.333    3.333    5.000    4.667    4.667 
#    0.000    0.000    0.000    0.000    0.000    0.000 
#    0.000    0.000    0.000    0.000    0.000    0.000 
#
# Total GULP energy -297521.914923 kJ/mol
# GULP energy per Si atom -12396.746455 kJ/mol
# Density = 2.443730 g / cm^3
# Si number density = 24.493042 Si / 1000 Ang^3
#
#
#
# Elastic Constant Matrix: (Units=GPa)
#
#
# Indices 1 2 3 4 5 6 
#
# 1 79.0255 -1.2051 44.6405 0.0000 0.0000 0.0000
# 2 -1.2051 90.7897 54.8935 0.0000 0.0000 0.0000
# 3 44.6405 54.8935 142.7239 0.0000 0.0000 0.0000
# 4 0.0000 0.0000 0.0000 31.5899 0.0000 0.0000
# 5 0.0000 0.0000 0.0000 0.0000 27.8827 0.0000
# 6 0.0000 0.0000 0.0000 0.0000 0.0000 39.6578
#
#
#
# Elastic Compliance Matrix: (Units=1/GPa)
#
#
# Indices 1 2 3 4 5 6 
#
# 1 0.016606 0.004379 -0.006878 0.000000 0.000000 0.000000
# 2 0.004379 0.015507 -0.007334 0.000000 0.000000 0.000000
# 3 -0.006878 -0.007334 0.011979 0.000000 0.000000 0.000000
# 4 0.000000 0.000000 0.000000 0.031656 0.000000 0.000000
# 5 0.000000 0.000000 0.000000 0.000000 0.035865 0.000000
# 6 0.000000 0.000000 0.000000 0.000000 0.000000 0.025216
#
#
# Mechanical properties :
#
#
# Convention : Reuss Voigt Hill
#
# Bulk Modulus (GPa) = 40.94015 56.57743 48.75879
# Shear Modulus (GPa) = 30.37005 34.10674 32.23840
#
# Velocity S-wave (km/s) = 3.52511 3.73568 3.63192
# Velocity P-wave (km/s) = 5.77233 6.46194 6.12684
#
# Compressibility (1/GPa) = 0.02442590
#
# Stress axis : x y z
#
# Youngs Moduli (GPa) = 60.21757 64.48781 83.48200
#
# Poissons Ratio (x) = -0.28241 0.57422
# Poissons Ratio (y) = -0.26371 0.61224
# Poissons Ratio (z) = 0.41420 0.47294
#
# Static dielectric constant tensor:
#      x y z
#    x 4.387980 0.000000 0.000000 
#    y 0.000000 4.470930 0.000000 
#    z 0.000000 0.000000 4.218600 
# 
# 
# High freq. dielectric constant tensor:
#      x y z
#    x 1.978830 0.000000 0.000000 
#    y 0.000000 1.985350 0.000000 
#    z 0.000000 0.000000 1.958750 
# 
# From -- ./inp_files/7553.got.cif
#   From: 2010.03.12/outbox.cif.g09.slc.cpg/sg45_4_cif.got.tgz:7553.got - 2010.04.14 02:50:11.
