data_PCOD8191909
_publ_section_title
;
Structure prediction by ZEFSAII (Michael W. Deem and Ramdas Pophale) SiO2 
 PCOD8191909
Probable space group: I M A 2
;
_chemical_formula_sum "Si O2"
_cell_formula_units_Z 48
_cell_length_a 8.572026
_cell_length_b 16.237478
_cell_length_c 18.465296
_cell_angle_alpha 90.000000
_cell_angle_beta 90.000000
_cell_angle_gamma 90.000000
_cell_volume 2570.149163
_symmetry_space_group_name_H-M "I M A 2"
_symmetry_group_IT_number 46
_symmetry_cell_setting 'orthorhombic'
loop_
_space_group_symop_operation_xyz
x,y,z
-x,-y,z
1/2-x,y,z
1/2+x,-y,z
1/2+x,1/2+y,1/2+z
1/2-x,1/2-y,1/2+z
-x,1/2+y,1/2+z
x,1/2-y,1/2+z
loop_
_atom_site_type_symbol
_atom_site_label
_atom_site_fract_x
_atom_site_fract_y
_atom_site_fract_z
Si Si1 0.063683 0.413386 0.862070
Si Si2 0.933984 0.254224 0.789861
Si Si3 0.062719 0.256601 0.634278
Si Si4 0.079979 0.335877 0.001287
Si Si5 0.077612 0.334414 0.418655
Si Si6 0.934386 0.087948 0.053722
O O1 0.250000 0.412055 0.862800
O O2 0.000000 0.500000 0.833195
O O3 0.005985 0.342897 0.808385
O O4 0.995667 0.397944 0.944514
O O5 0.750000 0.261502 0.792671
O O6 0.992106 0.230356 0.710404
O O7 0.988429 0.181017 0.843110
O O8 0.250000 0.256696 0.635477
O O9 0.996996 0.186638 0.577417
O O10 0.006184 0.346198 0.609250
O O11 0.250000 0.372594 0.019274
O O12 0.097977 0.251485 0.958134
O O13 0.250000 0.371831 0.403400
O O14 0.981614 0.395869 0.470161
O O15 0.750000 0.089904 0.061019
O O16 0.000000 0.000000 0.078283
#
# Coordination Sequence:
#
# PCOD8191909 Si02
#       6
#     8   8   8   8   8   8
#     4  10  19  33  51  74 101 132 166 204 249 301
#     4  11  21  33  50  76 104 133 168 210 254 300
#     4  10  19  34  53  74 100 134 170 208 252 302
#     4   7  14  29  50  70  92 123 163 202 242 290
#     4   9  17  33  53  73  97 131 170 209 249 296
#     4  11  21  34  52  77 105 135 169 209 253 303
#
# _framework density 18.675958999999999
#
# number of rings (size 3 to 8) (size 9 to 14) (size 15 to 20)
#    0.000    2.333    0.000    6.500    0.000    0.667 
#    0.000    5.833    0.000    1.000    0.000    4.667 
#    0.000    0.000    0.000    0.000    0.000    0.000 
#
# Total GULP energy -297388.904993 kJ/mol
# GULP energy per Si atom -12391.204375 kJ/mol
# Density = 1.863345 g / cm^3
# Si number density = 18.675959 Si / 1000 Ang^3
#
#
#
# Elastic Constant Matrix: (Units=GPa)
#
#
# Indices 1 2 3 4 5 6 
#
# 1 100.5322 2.7216 21.4804 0.0000 0.0000 0.0000
# 2 2.7216 8.2565 -4.4033 0.0000 0.0000 0.0000
# 3 21.4804 -4.4033 110.6507 0.0000 0.0000 0.0000
# 4 0.0000 0.0000 0.0000 19.4474 0.0000 0.0000
# 5 0.0000 0.0000 0.0000 0.0000 29.1379 0.0000
# 6 0.0000 0.0000 0.0000 0.0000 0.0000 21.5097
#
#
#
# Elastic Compliance Matrix: (Units=1/GPa)
#
#
# Indices 1 2 3 4 5 6 
#
# 1 0.010551 -0.004669 -0.002234 0.000000 0.000000 0.000000
# 2 -0.004669 0.125809 0.005913 0.000000 0.000000 0.000000
# 3 -0.002234 0.005913 0.009706 0.000000 0.000000 0.000000
# 4 0.000000 0.000000 0.000000 0.051421 0.000000 0.000000
# 5 0.000000 0.000000 0.000000 0.000000 0.034320 0.000000
# 6 0.000000 0.000000 0.000000 0.000000 0.000000 0.046491
#
#
# Mechanical properties :
#
#
# Convention : Reuss Voigt Hill
#
# Bulk Modulus (GPa) = 6.94031 28.78187 17.86109
# Shear Modulus (GPa) = 15.22965 27.32838 21.27902
#
# Velocity S-wave (km/s) = 2.85874 3.82945 3.37913
# Velocity P-wave (km/s) = 3.82371 5.91587 4.98088
#
# Compressibility (1/GPa) = 0.14408586
#
# Stress axis : x y z
#
# Youngs Moduli (GPa) = 94.77955 7.94854 103.02447
#
# Poissons Ratio (x) = 0.03711 0.23016
# Poissons Ratio (y) = 0.44255 -0.60917
# Poissons Ratio (z) = 0.21174 -0.04700
#
# Static dielectric constant tensor:
#      x y z
#    x 3.418330 0.000000 0.000000 
#    y 0.000000 3.350780 0.000000 
#    z 0.000000 0.000000 3.746470 
# 
# 
# High freq. dielectric constant tensor:
#      x y z
#    x 1.725230 0.000000 0.000000 
#    y 0.000000 1.690850 0.000000 
#    z 0.000000 0.000000 1.726840 
# 
# From -- ./inp_files/18179.got.cif
#   From: 2010.03.12/outbox.cif.g09.slc.cpg/sg46_10_cif.got.tgz:18179.got - 2010.04.14 02:56:35.
