data_PCOD8191249
_publ_section_title
;
Structure prediction by ZEFSAII (Michael W. Deem and Ramdas Pophale) SiO2 
 PCOD8191249
Probable space group: I M A 2
;
_chemical_formula_sum "Si O2"
_cell_formula_units_Z 56
_cell_length_a 9.131222
_cell_length_b 22.045379
_cell_length_c 17.623524
_cell_angle_alpha 90.000000
_cell_angle_beta 90.000000
_cell_angle_gamma 90.000000
_cell_volume 3547.637406
_symmetry_space_group_name_H-M "I M A 2"
_symmetry_group_IT_number 46
_symmetry_cell_setting 'orthorhombic'
loop_
_space_group_symop_operation_xyz
x,y,z
-x,-y,z
1/2-x,y,z
1/2+x,-y,z
1/2+x,1/2+y,1/2+z
1/2-x,1/2-y,1/2+z
-x,1/2+y,1/2+z
x,1/2-y,1/2+z
loop_
_atom_site_type_symbol
_atom_site_label
_atom_site_fract_x
_atom_site_fract_y
_atom_site_fract_z
Si Si1 0.577895 0.219867 0.856090
Si Si2 0.423997 0.935737 0.272558
Si Si3 0.580538 0.652098 0.658623
Si Si4 0.912253 0.183307 0.018391
Si Si5 0.586750 0.177422 0.565512
Si Si6 0.923319 0.150129 0.405172
Si Si7 0.581109 0.710164 0.206370
O O1 0.750000 0.222004 0.838747
O O2 0.513343 0.287688 0.869360
O O3 0.496993 0.190788 0.784135
O O4 0.543709 0.178037 0.929648
O O5 0.250000 0.942383 0.265372
O O6 0.481166 0.894053 0.204952
O O7 0.470763 0.906305 0.353124
O O8 0.500000 0.000000 0.266654
O O9 0.750000 0.633297 0.663745
O O10 0.529290 0.648420 0.570803
O O11 0.552420 0.719092 0.690648
O O12 0.750000 0.155518 0.031625
O O13 0.907826 0.253560 0.039009
O O14 0.750000 0.155264 0.587661
O O15 0.523135 0.140072 0.492472
O O16 0.482875 0.169238 0.638088
O O17 0.750000 0.158036 0.408155
O O18 0.750000 0.694423 0.213293
#
# Coordination Sequence:
#
# PCOD8191249 Si02
#       7
#     8   8   8   8   8   8   8
#     4   9  15  26  43  62  83 113 149 176 207 255
#     4  11  21  33  48  64  85 112 150 190 224 257
#     4  10  19  30  42  59  85 115 146 178 219 261
#     4   8  15  26  42  61  80 107 144 179 211 253
#     4   8  14  26  42  58  77 107 145 175 206 253
#     4   8  15  28  45  60  77 108 147 183 213 248
#     4  10  18  25  37  62  91 115 140 173 214 256
#
# _framework density 15.785152999999999
#
# number of rings (size 3 to 8) (size 9 to 14) (size 15 to 20)
#    0.000    2.857    1.429    3.000    0.000    1.714 
#    0.000    3.571    0.000    0.000    0.000    0.000 
#    0.000    1.143    0.000    7.714    0.000    5.571 
#
# Total GULP energy -347042.440434 kJ/mol
# GULP energy per Si atom -12394.372873 kJ/mol
# Density = 1.574922 g / cm^3
# Si number density = 15.785153 Si / 1000 Ang^3
#
#
#
# Elastic Constant Matrix: (Units=GPa)
#
#
# Indices 1 2 3 4 5 6 
#
# 1 79.3673 24.0094 61.6488 0.0000 0.0000 0.0000
# 2 24.0094 31.7959 23.7805 0.0000 0.0000 0.0000
# 3 61.6488 23.7805 141.7476 0.0000 0.0000 0.0000
# 4 0.0000 0.0000 0.0000 10.4209 0.0000 0.0000
# 5 0.0000 0.0000 0.0000 0.0000 20.3297 0.0000
# 6 0.0000 0.0000 0.0000 0.0000 0.0000 14.6656
#
#
#
# Elastic Compliance Matrix: (Units=1/GPa)
#
#
# Indices 1 2 3 4 5 6 
#
# 1 0.021816 -0.010723 -0.007689 0.000000 0.000000 0.000000
# 2 -0.010723 0.041233 -0.002254 0.000000 0.000000 0.000000
# 3 -0.007689 -0.002254 0.010777 0.000000 0.000000 0.000000
# 4 0.000000 0.000000 0.000000 0.095961 0.000000 0.000000
# 5 0.000000 0.000000 0.000000 0.000000 0.049189 0.000000
# 6 0.000000 0.000000 0.000000 0.000000 0.000000 0.068187
#
#
# Mechanical properties :
#
#
# Convention : Reuss Voigt Hill
#
# Bulk Modulus (GPa) = 30.77453 52.42091 41.59772
# Shear Modulus (GPa) = 14.73506 18.64804 16.69155
#
# Velocity S-wave (km/s) = 3.05860 3.44083 3.25533
# Velocity P-wave (km/s) = 5.65788 7.00477 6.36704
#
# Compressibility (1/GPa) = 0.03249441
#
# Stress axis : x y z
#
# Youngs Moduli (GPa) = 45.83787 24.25234 92.78855
#
# Poissons Ratio (x) = 0.26005 0.71348
# Poissons Ratio (y) = 0.49150 0.20915
# Poissons Ratio (z) = 0.35246 0.05467
#
# Static dielectric constant tensor:
#      x y z
#    x 2.929570 0.000000 0.000000 
#    y 0.000000 2.534780 0.000000 
#    z 0.000000 0.000000 3.367080 
# 
# 
# High freq. dielectric constant tensor:
#      x y z
#    x 1.600730 0.000000 0.000000 
#    y 0.000000 1.533930 0.000000 
#    z 0.000000 0.000000 1.622920 
# 
# From -- ./inp_files/18445.got.cif
#   From: 2010.03.12/outbox.cif.g09.slc.cpg/sg46_10_cif.got.tgz:18445.got - 2010.04.14 02:56:35.
