data_PCOD8191070
_publ_section_title
;
Structure prediction by ZEFSAII (Michael W. Deem and Ramdas Pophale) SiO2 
 PCOD8191070
Probable space group: I B A 2
;
_chemical_formula_sum "Si O2"
_cell_formula_units_Z 64
_cell_length_a 23.349827
_cell_length_b 14.670238
_cell_length_c 8.591814
_cell_angle_alpha 90.000000
_cell_angle_beta 90.000000
_cell_angle_gamma 90.000000
_cell_volume 2943.104572
_symmetry_space_group_name_H-M "I B A 2"
_symmetry_group_IT_number 45
_symmetry_cell_setting 'orthorhombic'
loop_
_space_group_symop_operation_xyz
x,y,z
-x,-y,z
-x,y,1/2+z
x,-y,1/2+z
1/2+x,1/2+y,1/2+z
1/2-x,1/2-y,1/2+z
1/2-x,1/2+y,z
1/2+x,1/2-y,z
loop_
_atom_site_type_symbol
_atom_site_label
_atom_site_fract_x
_atom_site_fract_y
_atom_site_fract_z
Si Si1 0.622074 0.092583 0.458490
Si Si2 0.892773 0.924721 0.090032
Si Si3 0.381442 0.385046 0.950286
Si Si4 0.104576 0.602458 0.317899
Si Si5 0.498561 0.322498 0.098606
Si Si6 0.491699 0.190872 0.861005
Si Si7 0.175296 0.243205 0.988639
Si Si8 0.796926 0.266094 0.847249
O O1 0.626600 0.098190 0.643362
O O2 0.571586 0.149369 0.374129
O O3 0.681521 0.135066 0.401261
O O4 0.618403 0.988486 0.410435
O O5 0.892178 0.913364 0.274217
O O6 0.960005 0.906328 0.049265
O O7 0.855481 0.854279 0.990391
O O8 0.868116 0.023200 0.045845
O O9 0.329272 0.313119 0.946915
O O10 0.433873 0.340939 0.045128
O O11 0.132410 0.683520 0.416108
O O12 0.036015 0.615665 0.299633
O O13 0.507292 0.291858 0.277758
O O14 0.515349 0.222859 0.028736
O O15 0.229874 0.241021 0.877057
O O16 0.193101 0.263585 0.164080
#
# Coordination Sequence:
#
# PCOD8191070 Si02
#       8
#     8   8   8   8   8   8   8   8
#     4  12  26  43  67 101 136 175 225 273 335 402
#     4  11  25  41  65  98 133 174 218 271 332 395
#     4  11  25  42  65  98 135 172 220 272 328 399
#     4  12  26  42  68 100 134 178 221 276 337 399
#     4  12  22  41  66  97 133 175 214 265 327 393
#     4  12  23  40  69  95 135 175 215 267 329 392
#     4  11  25  46  71  94 130 175 225 282 337 397
#     4  11  24  47  69  95 130 174 226 280 337 397
#
# _framework density 21.745743000000001
#
# number of rings (size 3 to 8) (size 9 to 14) (size 15 to 20)
#    0.000    0.500    5.000    3.000    3.500    5.000 
#    0.000    2.500    0.000    0.000    0.000    0.000 
#    0.000    0.000    0.000    0.000    0.000    0.000 
#
# Total GULP energy -396609.919020 kJ/mol
# GULP energy per Si atom -12394.059969 kJ/mol
# Density = 2.169625 g / cm^3
# Si number density = 21.745743 Si / 1000 Ang^3
#
#
#
# Elastic Constant Matrix: (Units=GPa)
#
#
# Indices 1 2 3 4 5 6 
#
# 1 97.0544 30.4024 32.3448 0.0000 0.0000 0.0000
# 2 30.4024 116.3083 43.7666 0.0000 0.0000 0.0000
# 3 32.3448 43.7666 80.1363 0.0000 0.0000 0.0000
# 4 0.0000 0.0000 0.0000 72.2400 0.0000 0.0000
# 5 0.0000 0.0000 0.0000 0.0000 30.0271 0.0000
# 6 0.0000 0.0000 0.0000 0.0000 0.0000 4.5548
#
#
#
# Elastic Compliance Matrix: (Units=1/GPa)
#
#
# Indices 1 2 3 4 5 6 
#
# 1 0.012159 -0.001676 -0.003992 0.000000 0.000000 0.000000
# 2 -0.001676 0.011053 -0.005360 0.000000 0.000000 0.000000
# 3 -0.003992 -0.005360 0.017018 0.000000 0.000000 0.000000
# 4 0.000000 0.000000 0.000000 0.013843 0.000000 0.000000
# 5 0.000000 0.000000 0.000000 0.000000 0.033303 0.000000
# 6 0.000000 0.000000 0.000000 0.000000 0.000000 0.219548
#
#
# Mechanical properties :
#
#
# Convention : Reuss Voigt Hill
#
# Bulk Modulus (GPa) = 55.02768 56.28074 55.65421
# Shear Modulus (GPa) = 14.92370 33.83007 24.37688
#
# Velocity S-wave (km/s) = 2.62254 3.94853 3.35176
# Velocity P-wave (km/s) = 5.87624 6.83559 6.37399
#
# Compressibility (1/GPa) = 0.01817267
#
# Stress axis : x y z
#
# Youngs Moduli (GPa) = 82.24360 90.47363 58.76284
#
# Poissons Ratio (x) = 0.15163 0.23460
# Poissons Ratio (y) = 0.13784 0.31498
# Poissons Ratio (z) = 0.32834 0.48495
#
# Static dielectric constant tensor:
#      x y z
#    x 3.851370 0.000000 0.000000 
#    y 0.000000 4.071380 0.000000 
#    z 0.000000 0.000000 4.072200 
# 
# 
# High freq. dielectric constant tensor:
#      x y z
#    x 1.845220 0.000000 0.000000 
#    y 0.000000 1.858210 0.000000 
#    z 0.000000 0.000000 1.875790 
# 
# From -- ./inp_files/2538.got.cif
#   From: 2010.03.12/outbox.cif.g09.slc.cpg/sg45_2_cif.got.tgz:2538.got - 2010.04.14 02:50:11.
