data_PCOD8191091
_publ_section_title
;
Structure prediction by ZEFSAII (Michael W. Deem and Ramdas Pophale) SiO2 
 PCOD8191091
Probable space group: I B A 2
;
_chemical_formula_sum "Si O2"
_cell_formula_units_Z 40
_cell_length_a 7.745729
_cell_length_b 20.137115
_cell_length_c 11.191645
_cell_angle_alpha 90.000000
_cell_angle_beta 90.000000
_cell_angle_gamma 90.000000
_cell_volume 1745.635134
_symmetry_space_group_name_H-M "I B A 2"
_symmetry_group_IT_number 45
_symmetry_cell_setting 'orthorhombic'
loop_
_space_group_symop_operation_xyz
x,y,z
-x,-y,z
-x,y,1/2+z
x,-y,1/2+z
1/2+x,1/2+y,1/2+z
1/2-x,1/2-y,1/2+z
1/2-x,1/2+y,z
1/2+x,1/2-y,z
loop_
_atom_site_type_symbol
_atom_site_label
_atom_site_fract_x
_atom_site_fract_y
_atom_site_fract_z
Si Si1 0.421200 0.066987 0.176240
Si Si2 0.217642 0.322795 0.843674
Si Si3 0.258738 0.373277 0.099154
Si Si4 0.409465 0.320017 0.320792
Si Si5 0.082578 0.934283 0.517183
O O1 0.394823 0.119161 0.283659
O O2 0.572697 0.092603 0.089619
O O3 0.255031 0.052163 0.094261
O O4 0.500000 0.000000 0.235646
O O5 0.395564 0.320713 0.767886
O O6 0.114752 0.255167 0.864236
O O7 0.285737 0.335872 0.976114
O O8 0.268417 0.326982 0.215683
O O9 0.428691 0.419391 0.111725
O O10 0.375821 0.376199 0.421813
O O11 0.000000 0.000000 0.451031
#
# Coordination Sequence:
#
# PCOD8191091 Si02
#       5
#     8   8   8   8   8
#     4  12  26  45  77 107 149 197 250 304 370 438
#     4  11  27  46  72 112 149 200 247 301 372 441
#     4  11  26  46  70 111 148 193 247 307 368 438
#     4  11  26  47  74 106 157 196 245 309 364 445
#     4  11  25  48  72 109 147 199 248 307 368 432
#
# _framework density 22.914294999999999
#
# number of rings (size 3 to 8) (size 9 to 14) (size 15 to 20)
#    0.000    0.800    4.000    1.200    8.400    6.400 
#    0.000    0.000    0.000    0.000    0.000    0.000 
#    0.000    0.000    0.000    0.000    0.000    0.000 
#
# Total GULP energy -247773.008249 kJ/mol
# GULP energy per Si atom -12388.650412 kJ/mol
# Density = 2.286214 g / cm^3
# Si number density = 22.914295 Si / 1000 Ang^3
#
#
#
# Elastic Constant Matrix: (Units=GPa)
#
#
# Indices 1 2 3 4 5 6 
#
# 1 164.4815 58.3983 41.4910 0.0000 0.0000 0.0000
# 2 58.3983 171.5439 51.7338 -0.0001 0.0000 0.0001
# 3 41.4910 51.7338 95.7527 0.0000 0.0000 0.0005
# 4 0.0000 -0.0001 0.0000 23.0968 0.0000 0.0001
# 5 0.0000 0.0000 0.0000 0.0000 24.8981 0.0000
# 6 0.0000 0.0001 0.0005 0.0001 0.0000 7.7592
#
#
#
# Elastic Compliance Matrix: (Units=1/GPa)
#
#
# Indices 1 2 3 4 5 6 
#
# 1 0.007273 -0.001823 -0.002167 0.000000 0.000000 0.000000
# 2 -0.001823 0.007421 -0.003220 0.000000 0.000000 0.000000
# 3 -0.002167 -0.003220 0.013122 0.000000 0.000000 -0.000001
# 4 0.000000 0.000000 0.000000 0.043296 0.000000 -0.000001
# 5 0.000000 0.000000 0.000000 0.000000 0.040164 0.000000
# 6 0.000000 0.000000 -0.000001 -0.000001 0.000000 0.128879
#
#
# Mechanical properties :
#
#
# Convention : Reuss Voigt Hill
#
# Bulk Modulus (GPa) = 74.63801 81.66936 78.15368
# Shear Modulus (GPa) = 19.30207 29.82782 24.56494
#
# Velocity S-wave (km/s) = 2.90549 3.61184 3.27775
# Velocity P-wave (km/s) = 6.62565 7.28783 6.96461
#
# Compressibility (1/GPa) = 0.01339800
#
# Stress axis : x y z
#
# Youngs Moduli (GPa) = 137.48674 134.75586 76.20753
#
# Poissons Ratio (x) = 0.24560 0.16514
# Poissons Ratio (y) = 0.25058 0.24536
# Poissons Ratio (z) = 0.29793 0.43386
#
# Static dielectric constant tensor:
#      x y z
#    x 4.627470 0.000000 0.000000 
#    y 0.000000 4.281540 0.000000 
#    z 0.000000 0.000000 3.667420 
# 
# 
# High freq. dielectric constant tensor:
#      x y z
#    x 1.934810 0.000000 0.000000 
#    y 0.000000 1.911050 0.000000 
#    z 0.000000 0.000000 1.878660 
# 
# From -- ./inp_files/3143.got.cif
#   From: 2010.03.12/outbox.cif.g09.slc.cpg/sg45_2_cif.got.tgz:3143.got - 2010.04.14 02:50:11.
