data_PCOD8191160
_publ_section_title
;
Structure prediction by ZEFSAII (Michael W. Deem and Ramdas Pophale) SiO2 
 PCOD8191160
Probable space group: I M A 2
;
_chemical_formula_sum "Si O2"
_cell_formula_units_Z 64
_cell_length_a 18.010419
_cell_length_b 14.163067
_cell_length_c 14.211371
_cell_angle_alpha 90.000000
_cell_angle_beta 90.000000
_cell_angle_gamma 90.000000
_cell_volume 3625.075894
_symmetry_space_group_name_H-M "I M A 2"
_symmetry_group_IT_number 46
_symmetry_cell_setting 'orthorhombic'
loop_
_space_group_symop_operation_xyz
x,y,z
-x,-y,z
1/2-x,y,z
1/2+x,-y,z
1/2+x,1/2+y,1/2+z
1/2-x,1/2-y,1/2+z
-x,1/2+y,1/2+z
x,1/2-y,1/2+z
loop_
_atom_site_type_symbol
_atom_site_label
_atom_site_fract_x
_atom_site_fract_y
_atom_site_fract_z
Si Si1 0.335272 0.013307 0.125000
Si Si2 0.450241 0.592469 0.515220
Si Si3 0.094361 0.186903 0.022169
Si Si4 0.549759 0.407531 0.307551
Si Si5 0.664038 0.618500 0.017307
Si Si6 0.094361 0.313097 0.300602
Si Si7 0.335962 0.118500 0.305463
Si Si8 0.164728 0.013307 0.697771
O O1 0.250000 0.986490 0.108064
O O2 0.353444 0.109621 0.070610
O O3 0.351898 0.030765 0.235922
O O4 0.383778 0.924189 0.089254
O O5 0.500000 0.500000 0.508998
O O6 0.506805 0.674884 0.548499
O O7 0.416816 0.614576 0.411385
O O8 0.117472 0.291553 0.053873
O O9 0.106466 0.173203 0.911385
O O10 0.500000 0.500000 0.313772
O O11 0.493195 0.325116 0.274271
O O12 0.616222 0.424189 0.233517
O O13 0.750000 0.647916 0.021214
O O14 0.648102 0.530765 0.086849
O O15 0.640838 0.588676 0.911385
O O16 0.117473 0.208447 0.268897
O O17 0.146556 0.390379 0.252161
O O18 0.250000 0.147916 0.301556
O O19 0.250000 0.986490 0.714707
#
# Coordination Sequence:
#
# PCOD8191160 Si02
#       8
#     8   8   8   8   8   8   8   8
#     4  10  17  24  38  60  84 107 131 163 205 249
#     4   8  15  26  38  54  79 110 138 164 199 244
#     4   9  16  26  39  55  80 111 137 164 201 245
#     4   8  15  26  38  54  79 110 138 164 199 244
#     4   9  17  27  39  59  86 112 137 165 199 242
#     4   9  16  26  39  55  80 111 137 164 201 245
#     4   9  17  27  39  59  86 112 137 165 199 242
#     4  10  17  24  38  60  84 107 131 163 205 249
#
# _framework density 17.654802
#
# number of rings (size 3 to 8) (size 9 to 14) (size 15 to 20)
#    0.000    3.000    0.000    3.750    0.000    5.000 
#    0.000    0.000    0.000    6.750    0.000    0.000 
#    0.000   38.000    0.000    9.750    0.000    5.000 
#
# Total GULP energy -396602.565192 kJ/mol
# GULP energy per Si atom -12393.830162 kJ/mol
# Density = 1.761462 g / cm^3
# Si number density = 17.654802 Si / 1000 Ang^3
#
#
#
# Elastic Constant Matrix: (Units=GPa)
#
#
# Indices 1 2 3 4 5 6 
#
# 1 102.5663 35.1787 49.6636 0.0000 0.0000 0.0000
# 2 35.1787 27.7343 24.2413 0.0000 0.0000 0.0000
# 3 49.6636 24.2413 68.0596 0.0000 0.0000 0.0000
# 4 0.0000 0.0000 0.0000 19.0051 0.0000 0.0000
# 5 0.0000 0.0000 0.0000 0.0000 22.8696 0.0000
# 6 0.0000 0.0000 0.0000 0.0000 0.0000 27.2584
#
#
#
# Elastic Compliance Matrix: (Units=1/GPa)
#
#
# Indices 1 2 3 4 5 6 
#
# 1 0.019876 -0.018200 -0.008021 0.000000 0.000000 0.000000
# 2 -0.018200 0.069022 -0.011303 0.000000 0.000000 0.000000
# 3 -0.008021 -0.011303 0.024572 0.000000 0.000000 0.000000
# 4 0.000000 0.000000 0.000000 0.052617 0.000000 0.000000
# 5 0.000000 0.000000 0.000000 0.000000 0.043726 0.000000
# 6 0.000000 0.000000 0.000000 0.000000 0.000000 0.036686
#
#
# Mechanical properties :
#
#
# Convention : Reuss Voigt Hill
#
# Bulk Modulus (GPa) = 26.02769 46.28081 36.15425
# Shear Modulus (GPa) = 14.95415 19.77841 17.36628
#
# Velocity S-wave (km/s) = 2.91354 3.35070 3.13973
# Velocity P-wave (km/s) = 5.10811 6.42190 5.80231
#
# Compressibility (1/GPa) = 0.03842062
#
# Stress axis : x y z
#
# Youngs Moduli (GPa) = 50.31142 14.48823 40.69663
#
# Poissons Ratio (x) = 0.26369 0.32644
# Poissons Ratio (y) = 0.91568 0.45999
# Poissons Ratio (z) = 0.40356 0.16376
#
# Static dielectric constant tensor:
#      x y z
#    x 3.457190 0.000000 0.000000 
#    y 0.000000 3.014900 0.000000 
#    z 0.000000 0.000000 3.511260 
# 
# 
# High freq. dielectric constant tensor:
#      x y z
#    x 1.671430 0.000000 0.000000 
#    y 0.000000 1.621620 0.000000 
#    z 0.000000 0.000000 1.693780 
# 
# From -- ./inp_files/16194.got.cif
#   From: 2010.03.12/outbox.cif.g09.slc.cpg/sg46_9_cif.got.tgz:16194.got - 2010.04.14 02:56:35.
