data_PCOD8191812
_publ_section_title
;
Structure prediction by ZEFSAII (Michael W. Deem and Ramdas Pophale) SiO2 
 PCOD8191812
Probable space group: I M A 2
;
_chemical_formula_sum "Si O2"
_cell_formula_units_Z 64
_cell_length_a 8.543774
_cell_length_b 29.003770
_cell_length_c 12.793349
_cell_angle_alpha 90.000000
_cell_angle_beta 90.000000
_cell_angle_gamma 90.000000
_cell_volume 3170.213068
_symmetry_space_group_name_H-M "I M A 2"
_symmetry_group_IT_number 46
_symmetry_cell_setting 'orthorhombic'
loop_
_space_group_symop_operation_xyz
x,y,z
-x,-y,z
1/2-x,y,z
1/2+x,-y,z
1/2+x,1/2+y,1/2+z
1/2-x,1/2-y,1/2+z
-x,1/2+y,1/2+z
x,1/2-y,1/2+z
loop_
_atom_site_type_symbol
_atom_site_label
_atom_site_fract_x
_atom_site_fract_y
_atom_site_fract_z
Si Si1 0.929030 0.419888 0.405220
Si Si2 0.935548 0.045879 0.696506
Si Si3 0.563968 0.051995 0.332599
Si Si4 0.572785 0.797720 0.067234
Si Si5 0.565500 0.113764 0.523381
Si Si6 0.567901 0.295824 0.132042
Si Si7 0.574109 0.829972 0.839444
Si Si8 0.562989 0.394650 0.625574
O O1 0.750000 0.432956 0.417883
O O2 0.004641 0.452526 0.315806
O O3 0.003036 0.421569 0.521646
O O4 0.945798 0.369377 0.355579
O O5 0.750000 0.045889 0.698087
O O6 0.996198 0.088465 0.627927
O O7 0.000000 0.000000 0.641933
O O8 0.750000 0.048708 0.337285
O O9 0.496413 0.086876 0.422047
O O10 0.507791 0.074952 0.223751
O O11 0.500000 0.000000 0.344852
O O12 0.750000 0.789095 0.106058
O O13 0.460289 0.755727 0.095071
O O14 0.511291 0.843793 0.125327
O O15 0.566970 0.798553 0.942160
O O16 0.750000 0.110099 0.511606
O O17 0.514603 0.167205 0.541226
O O18 0.750000 0.303607 0.156506
O O19 0.469710 0.301031 0.237775
O O20 0.750000 0.850312 0.827612
O O21 0.750000 0.388981 0.622230
#
# Coordination Sequence:
#
# PCOD8191812 Si02
#       8
#     8   8   8   8   8   8   8   8
#     4   9  17  33  54  75 104 141 182 225 277 336
#     4  10  19  32  50  75 105 137 175 224 276 331
#     4  10  21  38  59  84 116 154 199 244 293 350
#     4  10  22  38  56  85 119 150 188 242 300 352
#     4   9  19  36  55  77 108 146 189 236 282 336
#     4  11  21  36  59  83 111 153 199 241 289 349
#     4  10  20  35  55  79 111 144 179 232 291 342
#     4   9  19  36  58  82 110 150 195 237 282 345
#
# _framework density 20.187916999999999
#
# number of rings (size 3 to 8) (size 9 to 14) (size 15 to 20)
#    0.000    2.250    1.250    1.500    0.000    4.000 
#    0.000    2.500    0.000    0.000    0.000    0.000 
#    0.000    0.000    0.000    0.000    0.000    0.000 
#
# Total GULP energy -396454.672572 kJ/mol
# GULP energy per Si atom -12389.208518 kJ/mol
# Density = 2.014197 g / cm^3
# Si number density = 20.187917 Si / 1000 Ang^3
#
#
#
# Elastic Constant Matrix: (Units=GPa)
#
#
# Indices 1 2 3 4 5 6 
#
# 1 28.3104 12.6030 22.4539 -0.0005 -0.0002 -0.0001
# 2 12.6030 98.3479 47.3625 -0.0013 0.0000 0.0000
# 3 22.4539 47.3625 128.5493 -0.0012 0.0001 0.0000
# 4 -0.0005 -0.0013 -0.0012 23.5232 -0.0002 0.0000
# 5 -0.0002 0.0000 0.0001 -0.0002 16.9099 0.0000
# 6 -0.0001 0.0000 0.0000 0.0000 0.0000 28.8205
#
#
#
# Elastic Compliance Matrix: (Units=1/GPa)
#
#
# Indices 1 2 3 4 5 6 
#
# 1 0.041397 -0.002216 -0.006414 0.000000 0.000001 0.000000
# 2 -0.002216 0.012480 -0.004211 0.000000 0.000000 0.000000
# 3 -0.006414 -0.004211 0.010451 0.000000 0.000000 0.000000
# 4 0.000000 0.000000 0.000000 0.042511 0.000000 0.000000
# 5 0.000001 0.000000 0.000000 0.000000 0.059137 0.000000
# 6 0.000000 0.000000 0.000000 0.000000 0.000000 0.034698
#
#
# Mechanical properties :
#
#
# Convention : Reuss Voigt Hill
#
# Bulk Modulus (GPa) = 25.87655 46.67185 36.27420
# Shear Modulus (GPa) = 20.89973 25.36993 23.13483
#
# Velocity S-wave (km/s) = 3.22104 3.54883 3.38890
# Velocity P-wave (km/s) = 5.16518 6.32148 5.77236
#
# Compressibility (1/GPa) = 0.03864503
#
# Stress axis : x y z
#
# Youngs Moduli (GPa) = 24.15654 80.12895 95.68423
#
# Poissons Ratio (x) = 0.17755 0.61376
# Poissons Ratio (y) = 0.05353 0.40293
# Poissons Ratio (z) = 0.15495 0.33743
#
# Static dielectric constant tensor:
#      x y z
#    x 3.414350 0.000000 0.000000 
#    y 0.000000 3.645350 0.000000 
#    z 0.000000 0.000000 4.038030 
# 
# 
# High freq. dielectric constant tensor:
#      x y z
#    x 1.764240 0.000000 0.000000 
#    y 0.000000 1.783550 0.000000 
#    z 0.000000 0.000000 1.798030 
# 
# From -- ./inp_files/9808.got.cif
#   From: 2010.03.12/outbox.cif.g09.slc.cpg/sg46_5_cif.got.tgz:9808.got - 2010.04.14 02:56:35.
