data_PCOD8191374
_publ_section_title
;
Structure prediction by ZEFSAII (Michael W. Deem and Ramdas Pophale) SiO2 
 PCOD8191374
Probable space group: I M A 2
;
_chemical_formula_sum "Si O2"
_cell_formula_units_Z 56
_cell_length_a 8.965763
_cell_length_b 18.969311
_cell_length_c 17.934195
_cell_angle_alpha 90.000000
_cell_angle_beta 90.000000
_cell_angle_gamma 90.000000
_cell_volume 3050.146498
_symmetry_space_group_name_H-M "I M A 2"
_symmetry_group_IT_number 46
_symmetry_cell_setting 'orthorhombic'
loop_
_space_group_symop_operation_xyz
x,y,z
-x,-y,z
1/2-x,y,z
1/2+x,-y,z
1/2+x,1/2+y,1/2+z
1/2-x,1/2-y,1/2+z
-x,1/2+y,1/2+z
x,1/2-y,1/2+z
loop_
_atom_site_type_symbol
_atom_site_label
_atom_site_fract_x
_atom_site_fract_y
_atom_site_fract_z
Si Si1 0.574285 0.204562 0.669640
Si Si2 0.586455 0.065829 0.742416
Si Si3 0.417630 0.567808 0.417758
Si Si4 0.425138 0.830997 0.503319
Si Si5 0.082435 0.200953 0.277574
Si Si6 0.428328 0.075542 0.385020
Si Si7 0.080056 0.211034 0.919378
O O1 0.750000 0.215266 0.672809
O O2 0.514050 0.140443 0.720876
O O3 0.519810 0.183811 0.587235
O O4 0.507129 0.277723 0.702570
O O5 0.750000 0.063626 0.705884
O O6 0.596359 0.057399 0.830171
O O7 0.500000 0.000000 0.706658
O O8 0.500000 0.500000 0.453447
O O9 0.250000 0.576915 0.451304
O O10 0.524496 0.632781 0.435231
O O11 0.250000 0.847280 0.499157
O O12 0.512329 0.896356 0.465071
O O13 0.462850 0.759816 0.460901
O O14 0.250000 0.185597 0.252015
O O15 0.021466 0.130636 0.319830
O O16 0.074016 0.268103 0.332661
O O17 0.250000 0.070106 0.389207
O O18 0.500000 0.000000 0.366520
O O19 0.250000 0.219850 0.949034
#
# Coordination Sequence:
#
# PCOD8191374 Si02
#       7
#     8   8   8   8   8   8   8
#     4  10  20  34  51  76 107 140 179 217 263 319
#     4   9  18  30  44  68 100 133 166 201 241 292
#     4  10  18  29  48  72 100 132 166 206 254 300
#     4  10  21  35  53  77 107 142 177 218 269 322
#     4   9  19  33  53  78 103 134 176 222 269 317
#     4  10  21  38  58  83 110 142 184 228 275 329
#     4  10  19  33  51  74 102 133 175 220 260 310
#
# _framework density 18.359774999999999
#
# number of rings (size 3 to 8) (size 9 to 14) (size 15 to 20)
#    0.000    2.286    1.429    2.571    0.000    5.714 
#    0.000    1.429    0.000    0.857    0.000    2.000 
#    0.000    0.000    0.000    0.000    0.000    0.000 
#
# Total GULP energy -347004.098130 kJ/mol
# GULP energy per Si atom -12393.003505 kJ/mol
# Density = 1.831799 g / cm^3
# Si number density = 18.359775 Si / 1000 Ang^3
#
#
#
# Elastic Constant Matrix: (Units=GPa)
#
#
# Indices 1 2 3 4 5 6 
#
# 1 72.7944 35.5010 30.4349 0.0000 0.0000 0.0000
# 2 35.5010 119.1231 29.4024 0.0000 0.0000 0.0000
# 3 30.4349 29.4024 57.9559 0.0000 0.0000 0.0000
# 4 0.0000 0.0000 0.0000 14.9332 0.0000 0.0000
# 5 0.0000 0.0000 0.0000 0.0000 22.5927 0.0000
# 6 0.0000 0.0000 0.0000 0.0000 0.0000 35.5840
#
#
#
# Elastic Compliance Matrix: (Units=1/GPa)
#
#
# Indices 1 2 3 4 5 6 
#
# 1 0.018886 -0.003636 -0.008073 0.000000 0.000000 0.000000
# 2 -0.003636 0.010296 -0.003314 0.000000 0.000000 0.000000
# 3 -0.008073 -0.003314 0.023175 0.000000 0.000000 0.000000
# 4 0.000000 0.000000 0.000000 0.066965 0.000000 0.000000
# 5 0.000000 0.000000 0.000000 0.000000 0.044262 0.000000
# 6 0.000000 0.000000 0.000000 0.000000 0.000000 0.028102
#
#
# Mechanical properties :
#
#
# Convention : Reuss Voigt Hill
#
# Bulk Modulus (GPa) = 44.82065 48.95001 46.88533
# Shear Modulus (GPa) = 21.81785 24.92433 23.37109
#
# Velocity S-wave (km/s) = 3.45099 3.68849 3.57171
# Velocity P-wave (km/s) = 6.35173 6.69772 6.52702
#
# Compressibility (1/GPa) = 0.02231115
#
# Stress axis : x y z
#
# Youngs Moduli (GPa) = 52.95000 97.12304 43.14908
#
# Poissons Ratio (x) = 0.35311 0.34835
# Poissons Ratio (y) = 0.19251 0.14301
# Poissons Ratio (z) = 0.42748 0.32189
#
# Static dielectric constant tensor:
#      x y z
#    x 3.493060 0.000000 0.000000 
#    y 0.000000 3.476200 0.000000 
#    z 0.000000 0.000000 3.119870 
# 
# 
# High freq. dielectric constant tensor:
#      x y z
#    x 1.717980 0.000000 0.000000 
#    y 0.000000 1.713520 0.000000 
#    z 0.000000 0.000000 1.672700 
# 
# From -- ./inp_files/18453.got.cif
#   From: 2010.03.12/outbox.cif.g09.slc.cpg/sg46_10_cif.got.tgz:18453.got - 2010.04.14 02:56:35.
