data_PCOD8191817
_publ_section_title
;
Structure prediction by ZEFSAII (Michael W. Deem and Ramdas Pophale) SiO2 
 PCOD8191817
Probable space group: I M A 2
;
_chemical_formula_sum "Si O2"
_cell_formula_units_Z 64
_cell_length_a 8.527819
_cell_length_b 30.048785
_cell_length_c 14.584811
_cell_angle_alpha 90.000000
_cell_angle_beta 90.000000
_cell_angle_gamma 90.000000
_cell_volume 3737.366565
_symmetry_space_group_name_H-M "I M A 2"
_symmetry_group_IT_number 46
_symmetry_cell_setting 'orthorhombic'
loop_
_space_group_symop_operation_xyz
x,y,z
-x,-y,z
1/2-x,y,z
1/2+x,-y,z
1/2+x,1/2+y,1/2+z
1/2-x,1/2-y,1/2+z
-x,1/2+y,1/2+z
x,1/2-y,1/2+z
loop_
_atom_site_type_symbol
_atom_site_label
_atom_site_fract_x
_atom_site_fract_y
_atom_site_fract_z
Si Si1 0.936966 0.196563 0.513630
Si Si2 0.064801 0.452506 0.582482
Si Si3 0.568546 0.275471 0.207257
Si Si4 0.434828 0.635181 0.536873
Si Si5 0.936561 0.215024 0.908889
Si Si6 0.071513 0.182982 0.201801
Si Si7 0.065644 0.546414 0.783482
Si Si8 0.930239 0.628156 0.880910
O O1 0.750000 0.195434 0.507987
O O2 0.997505 0.197586 0.619470
O O3 0.999970 0.240890 0.460947
O O4 0.006997 0.151178 0.473083
O O5 0.250000 0.451544 0.572456
O O6 0.000000 0.500000 0.549721
O O7 0.988222 0.415329 0.514888
O O8 0.018458 0.442701 0.687621
O O9 0.750000 0.285833 0.214943
O O10 0.490439 0.287557 0.305643
O O11 0.544973 0.223696 0.185724
O O12 0.250000 0.638180 0.551393
O O13 0.491764 0.670049 0.459732
O O14 0.524528 0.645008 0.631025
O O15 0.750000 0.217629 0.904828
O O16 0.250000 0.198290 0.186490
O O17 0.045422 0.164698 0.302924
O O18 0.250000 0.542953 0.765463
O O19 0.000000 0.500000 0.823150
O O20 0.029478 0.584157 0.858479
O O21 0.750000 0.614190 0.892223
#
# Coordination Sequence:
#
# PCOD8191817 Si02
#       8
#     8   8   8   8   8   8   8   8
#     4  10  19  32  51  73  96 133 176 211 251 302
#     4  11  21  34  50  74 103 134 167 206 250 301
#     4  10  19  34  51  69  99 134 173 216 253 300
#     4  11  20  33  51  73  99 136 173 208 250 301
#     4   9  18  31  50  74  98 129 171 212 252 298
#     4  11  21  30  45  70 101 134 170 211 252 297
#     4  11  21  34  53  75 102 135 167 206 249 302
#     4  11  22  34  48  72 104 137 171 210 251 300
#
# _framework density 17.124357
#
# number of rings (size 3 to 8) (size 9 to 14) (size 15 to 20)
#    0.000    1.500    3.750    4.125    0.000    1.500 
#    0.000    1.250    0.000    0.000    0.000    0.875 
#    0.000    4.000    0.000    0.000    0.000    0.000 
#
# Total GULP energy -396755.858963 kJ/mol
# GULP energy per Si atom -12398.620593 kJ/mol
# Density = 1.708538 g / cm^3
# Si number density = 17.124357 Si / 1000 Ang^3
#
#
#
# Elastic Constant Matrix: (Units=GPa)
#
#
# Indices 1 2 3 4 5 6 
#
# 1 40.2363 17.2513 33.1014 -0.0001 0.0000 0.0000
# 2 17.2513 105.2314 32.2964 0.0001 -0.0001 0.0000
# 3 33.1014 32.2964 72.3928 -0.0008 0.0001 -0.0001
# 4 -0.0001 0.0001 -0.0008 24.7937 0.0000 0.0000
# 5 0.0000 -0.0001 0.0001 0.0000 12.5767 -0.0001
# 6 0.0000 0.0000 -0.0001 0.0000 -0.0001 27.9146
#
#
#
# Elastic Compliance Matrix: (Units=1/GPa)
#
#
# Indices 1 2 3 4 5 6 
#
# 1 0.039948 -0.001092 -0.017779 0.000000 0.000000 0.000000
# 2 -0.001092 0.011040 -0.004426 0.000000 0.000000 0.000000
# 3 -0.017779 -0.004426 0.023917 0.000001 0.000000 0.000000
# 4 0.000000 0.000000 0.000001 0.040333 0.000000 0.000000
# 5 0.000000 0.000000 0.000000 0.000000 0.079512 0.000000
# 6 0.000000 0.000000 0.000000 0.000000 0.000000 0.035824
#
#
# Mechanical properties :
#
#
# Convention : Reuss Voigt Hill
#
# Bulk Modulus (GPa) = 35.32153 42.57320 38.94736
# Shear Modulus (GPa) = 17.44564 22.07109 19.75837
#
# Velocity S-wave (km/s) = 3.19527 3.59398 3.40047
# Velocity P-wave (km/s) = 5.85527 6.49133 6.18149
#
# Compressibility (1/GPa) = 0.02831135
#
# Stress axis : x y z
#
# Youngs Moduli (GPa) = 25.03276 90.57729 41.81083
#
# Poissons Ratio (x) = 0.09896 0.74334
# Poissons Ratio (y) = 0.02735 0.18505
# Poissons Ratio (z) = 0.44505 0.40088
#
# Static dielectric constant tensor:
#      x y z
#    x 3.075200 0.000000 0.000000 
#    y 0.000000 3.292900 0.000000 
#    z 0.000000 0.000000 3.265590 
# 
# 
# High freq. dielectric constant tensor:
#      x y z
#    x 1.657550 0.000000 0.000000 
#    y 0.000000 1.655250 0.000000 
#    z 0.000000 0.000000 1.633180 
# 
# From -- ./inp_files/14746.got.cif
#   From: 2010.03.12/outbox.cif.g09.slc.cpg/sg46_8_cif.got.tgz:14746.got - 2010.04.14 02:56:35.
