data_PCOD8191041
_publ_section_title
;
Structure prediction by ZEFSAII (Michael W. Deem and Ramdas Pophale) SiO2 
 PCOD8191041
Probable space group: I B A 2
;
_chemical_formula_sum "Si O2"
_cell_formula_units_Z 64
_cell_length_a 10.993775
_cell_length_b 19.029400
_cell_length_c 13.232791
_cell_angle_alpha 90.000000
_cell_angle_beta 90.000000
_cell_angle_gamma 90.000000
_cell_volume 2768.365273
_symmetry_space_group_name_H-M "I B A 2"
_symmetry_group_IT_number 45
_symmetry_cell_setting 'orthorhombic'
loop_
_space_group_symop_operation_xyz
x,y,z
-x,-y,z
-x,y,1/2+z
x,-y,1/2+z
1/2+x,1/2+y,1/2+z
1/2-x,1/2-y,1/2+z
1/2-x,1/2+y,z
1/2+x,1/2-y,z
loop_
_atom_site_type_symbol
_atom_site_label
_atom_site_fract_x
_atom_site_fract_y
_atom_site_fract_z
Si Si1 0.124882 0.467300 0.975410
Si Si2 0.412485 0.226078 0.983435
Si Si3 0.722400 0.605820 0.463339
Si Si4 0.916892 0.565742 0.754231
Si Si5 0.480676 0.333864 0.326241
Si Si6 0.201755 0.238457 0.684690
Si Si7 0.682894 0.616688 0.690034
Si Si8 0.908597 0.648850 0.121086
O O1 0.226566 0.526477 0.954512
O O2 0.093946 0.422794 0.874332
O O3 0.000000 0.500000 0.016466
O O4 0.162893 0.414558 0.064847
O O5 0.330793 0.264392 0.066714
O O6 0.538120 0.199987 0.034146
O O7 0.333558 0.159753 0.942206
O O8 0.439598 0.284160 0.898727
O O9 0.615735 0.616732 0.382853
O O10 0.655220 0.617436 0.570932
O O11 0.779514 0.553898 0.711854
O O12 0.000000 0.500000 0.729032
O O13 0.977915 0.630007 0.693696
O O14 0.413667 0.281950 0.250315
O O15 0.563399 0.387532 0.259913
O O16 0.246153 0.313360 0.724175
O O17 0.313776 0.184950 0.696419
#
# Coordination Sequence:
#
# PCOD8191041 Si02
#       8
#     8   8   8   8   8   8   8   8
#     4  11  24  42  74 102 134 179 242 307 352 424
#     4  11  23  43  68 101 147 188 237 299 368 428
#     4  11  23  46  68 104 141 187 245 301 361 438
#     4  11  25  43  75 103 135 180 249 298 358 421
#     4  12  26  40  70 102 149 188 234 289 373 451
#     4  11  25  40  67 108 142 188 235 290 366 438
#     4  11  24  46  69 101 147 183 236 302 357 434
#     4  12  23  43  72 104 144 186 232 304 366 418
#
# _framework density 23.118335999999999
#
# number of rings (size 3 to 8) (size 9 to 14) (size 15 to 20)
#    0.000    0.750    3.750    4.875    7.000    0.000 
#    0.000    0.625    0.000    0.000    0.000    0.000 
#    0.000    0.000    0.000    0.000    0.000    0.000 
#
# Total GULP energy -396788.908083 kJ/mol
# GULP energy per Si atom -12399.653378 kJ/mol
# Density = 2.306572 g / cm^3
# Si number density = 23.118336 Si / 1000 Ang^3
#
#
#
# Elastic Constant Matrix: (Units=GPa)
#
#
# Indices 1 2 3 4 5 6 
#
# 1 116.4496 29.6813 40.1956 0.0001 0.0000 0.0000
# 2 29.6813 57.6163 28.5495 0.0004 0.0000 0.0000
# 3 40.1956 28.5495 94.4834 0.0007 -0.0001 0.0000
# 4 0.0001 0.0004 0.0007 17.0839 -0.0001 0.0000
# 5 0.0000 0.0000 -0.0001 -0.0001 53.5658 0.0000
# 6 0.0000 0.0000 0.0000 0.0000 0.0000 30.2527
#
#
#
# Elastic Compliance Matrix: (Units=1/GPa)
#
#
# Indices 1 2 3 4 5 6 
#
# 1 0.010744 -0.003846 -0.003409 0.000000 0.000000 0.000000
# 2 -0.003846 0.021789 -0.004948 0.000000 0.000000 0.000000
# 3 -0.003409 -0.004948 0.013529 0.000000 0.000000 0.000000
# 4 0.000000 0.000000 0.000000 0.058535 0.000000 0.000000
# 5 0.000000 0.000000 0.000000 0.000000 0.018669 0.000000
# 6 0.000000 0.000000 0.000000 0.000000 0.000000 0.033055
#
#
# Mechanical properties :
#
#
# Convention : Reuss Voigt Hill
#
# Bulk Modulus (GPa) = 46.17314 51.71135 48.94224
# Shear Modulus (GPa) = 26.60358 31.52201 29.06279
#
# Velocity S-wave (km/s) = 3.39596 3.69658 3.54945
# Velocity P-wave (km/s) = 5.94917 6.37466 6.16558
#
# Compressibility (1/GPa) = 0.02165761
#
# Stress axis : x y z
#
# Youngs Moduli (GPa) = 93.07261 45.89457 73.91481
#
# Poissons Ratio (x) = 0.17650 0.25196
# Poissons Ratio (y) = 0.35795 0.36571
# Poissons Ratio (z) = 0.31727 0.22707
#
# Static dielectric constant tensor:
#      x y z
#    x 4.159280 0.000000 0.000000 
#    y 0.000000 4.036330 0.000000 
#    z 0.000000 0.000000 4.246720 
# 
# 
# High freq. dielectric constant tensor:
#      x y z
#    x 1.909140 0.000000 0.000000 
#    y 0.000000 1.893560 0.000000 
#    z 0.000000 0.000000 1.927410 
# 
# From -- ./inp_files/6306.got.cif
#   From: 2010.03.12/outbox.cif.g09.slc.cpg/sg45_4_cif.got.tgz:6306.got - 2010.04.14 02:50:11.
