data_PCOD8191963
_publ_section_title
;
Structure prediction by ZEFSAII (Michael W. Deem and Ramdas Pophale) SiO2 
 PCOD8191963
Probable space group: I M A 2
;
_chemical_formula_sum "Si O2"
_cell_formula_units_Z 48
_cell_length_a 10.415525
_cell_length_b 25.643742
_cell_length_c 9.963857
_cell_angle_alpha 90.000000
_cell_angle_beta 90.000000
_cell_angle_gamma 90.000000
_cell_volume 2661.276815
_symmetry_space_group_name_H-M "I M A 2"
_symmetry_group_IT_number 46
_symmetry_cell_setting 'orthorhombic'
loop_
_space_group_symop_operation_xyz
x,y,z
-x,-y,z
1/2-x,y,z
1/2+x,-y,z
1/2+x,1/2+y,1/2+z
1/2-x,1/2-y,1/2+z
-x,1/2+y,1/2+z
x,1/2-y,1/2+z
loop_
_atom_site_type_symbol
_atom_site_label
_atom_site_fract_x
_atom_site_fract_y
_atom_site_fract_z
Si Si1 0.888750 0.196141 0.515390
Si Si2 0.398942 0.045544 0.688827
Si Si3 0.102859 0.116486 0.450755
Si Si4 0.517336 0.256029 0.270087
Si Si5 0.099447 0.139810 0.877443
Si Si6 0.398354 0.151290 0.170526
O O1 0.750000 0.167369 0.501730
O O2 0.899268 0.236909 0.394685
O O3 0.885434 0.228011 0.653290
O O4 0.007738 0.157004 0.520897
O O5 0.250000 0.029186 0.719310
O O6 0.409170 0.062452 0.531801
O O7 0.448403 0.092424 0.784125
O O8 0.500000 0.000000 0.715753
O O9 0.250000 0.137667 0.462534
O O10 0.063838 0.111453 0.292685
O O11 0.431186 0.304742 0.312819
O O12 0.427284 0.209924 0.215938
O O13 0.250000 0.134891 0.885872
O O14 0.035802 0.135745 0.027946
O O15 0.250000 0.147492 0.141545
#
# Coordination Sequence:
#
# PCOD8191963 Si02
#       6
#     8   8   8   8   8   8
#     4  11  22  33  49  75 112 149 180 214 260 316
#     4  10  21  38  59  82 105 134 178 232 283 329
#     4   9  19  36  57  78 104 137 181 225 264 315
#     4  11  19  33  49  76 113 149 182 211 262 315
#     4  10  19  33  54  81 110 141 183 228 266 314
#     4   9  18  31  53  82 110 143 178 217 259 310
#
# _framework density 18.036456000000001
#
# number of rings (size 3 to 8) (size 9 to 14) (size 15 to 20)
#    0.000    2.000    3.333    1.000    0.000    2.000 
#    0.000    0.833    0.000    0.000    0.000    0.000 
#    0.000    0.000    0.000    0.000    0.000    0.000 
#
# Total GULP energy -297351.570171 kJ/mol
# GULP energy per Si atom -12389.648757 kJ/mol
# Density = 1.799540 g / cm^3
# Si number density = 18.036456 Si / 1000 Ang^3
#
#
#
# Elastic Constant Matrix: (Units=GPa)
#
#
# Indices 1 2 3 4 5 6 
#
# 1 45.7016 24.4346 22.9647 -0.0017 0.0000 0.0001
# 2 24.4346 76.3164 44.3908 -0.0009 0.0008 0.0004
# 3 22.9647 44.3908 134.9207 0.0072 -0.0091 -0.0040
# 4 -0.0017 -0.0009 0.0072 15.7201 -0.0027 -0.0003
# 5 0.0000 0.0008 -0.0091 -0.0027 3.9277 0.0014
# 6 0.0001 0.0004 -0.0040 -0.0003 0.0014 20.8513
#
#
#
# Elastic Compliance Matrix: (Units=1/GPa)
#
#
# Indices 1 2 3 4 5 6 
#
# 1 0.026899 -0.007357 -0.002158 0.000003 -0.000004 0.000000
# 2 -0.007357 0.018217 -0.004741 0.000002 -0.000015 -0.000001
# 3 -0.002158 -0.004741 0.009339 -0.000005 0.000023 0.000002
# 4 0.000003 0.000002 -0.000005 0.063613 0.000044 0.000001
# 5 -0.000004 -0.000015 0.000023 0.000044 0.254603 -0.000017
# 6 0.000000 -0.000001 0.000002 0.000001 -0.000017 0.047959
#
#
# Mechanical properties :
#
#
# Convention : Reuss Voigt Hill
#
# Bulk Modulus (GPa) = 38.54751 48.94655 43.74703
# Shear Modulus (GPa) = 10.92205 19.10973 15.01589
#
# Velocity S-wave (km/s) = 2.46347 3.25854 2.88849
# Velocity P-wave (km/s) = 5.43231 6.43070 5.95247
#
# Compressibility (1/GPa) = 0.02594201
#
# Stress axis : x y z
#
# Youngs Moduli (GPa) = 37.17623 54.89424 107.07782
#
# Poissons Ratio (x) = 0.40387 0.23105
# Poissons Ratio (y) = 0.27351 0.50769
# Poissons Ratio (z) = 0.08022 0.26027
#
# Static dielectric constant tensor:
#      x y z
#    x 3.126820 0.000000 0.000000 
#    y 0.000000 3.057850 -0.000020 
#    z 0.000000 -0.000020 4.152920 
# 
# 
# High freq. dielectric constant tensor:
#      x y z
#    x 1.682100 0.000000 0.000000 
#    y 0.000000 1.657600 0.000000 
#    z 0.000000 0.000000 1.726660 
# 
# From -- ./inp_files/4715.got.cif
#   From: 2010.03.12/outbox.cif.g09.slc.cpg/sg46_3_cif.got.tgz:4715.got - 2010.04.14 02:56:35.
