data_PCOD8191392
_publ_section_title
;
Structure prediction by ZEFSAII (Michael W. Deem and Ramdas Pophale) SiO2 
 PCOD8191392
Probable space group: I M A 2
;
_chemical_formula_sum "Si O2"
_cell_formula_units_Z 64
_cell_length_a 8.846113
_cell_length_b 26.128106
_cell_length_c 18.380618
_cell_angle_alpha 90.000000
_cell_angle_beta 90.000000
_cell_angle_gamma 90.000000
_cell_volume 4248.352274
_symmetry_space_group_name_H-M "I M A 2"
_symmetry_group_IT_number 46
_symmetry_cell_setting 'orthorhombic'
loop_
_space_group_symop_operation_xyz
x,y,z
-x,-y,z
1/2-x,y,z
1/2+x,-y,z
1/2+x,1/2+y,1/2+z
1/2-x,1/2-y,1/2+z
-x,1/2+y,1/2+z
x,1/2-y,1/2+z
loop_
_atom_site_type_symbol
_atom_site_label
_atom_site_fract_x
_atom_site_fract_y
_atom_site_fract_z
Si Si1 0.078582 0.197208 0.599290
Si Si2 0.073810 0.851382 0.060870
Si Si3 0.071708 0.855373 0.726139
Si Si4 0.569788 0.945757 0.810985
Si Si5 0.072291 0.746656 0.309834
Si Si6 0.928588 0.251321 0.474761
Si Si7 0.070607 0.946573 0.964521
Si Si8 0.419420 0.197994 0.187057
O O1 0.250000 0.177298 0.592148
O O2 0.070758 0.250504 0.641053
O O3 0.978905 0.156063 0.643383
O O4 0.007835 0.205499 0.519382
O O5 0.250000 0.847384 0.075564
O O6 0.994511 0.847001 0.139433
O O7 0.022304 0.806399 0.006285
O O8 0.028479 0.905216 0.025468
O O9 0.250000 0.865822 0.729065
O O10 0.023370 0.808351 0.778080
O O11 0.980171 0.904844 0.751312
O O12 0.750000 0.949688 0.815187
O O13 0.503401 0.928890 0.888886
O O14 0.500000 0.000000 0.787659
O O15 0.250000 0.752421 0.305450
O O16 0.013014 0.751165 0.392090
O O17 0.002869 0.793319 0.263630
O O18 0.750000 0.243657 0.479885
O O19 0.250000 0.951608 0.953163
O O20 0.000000 0.000000 0.990875
O O21 0.250000 0.181359 0.204613
#
# Coordination Sequence:
#
# PCOD8191392 Si02
#       8
#     8   8   8   8   8   8   8   8
#     4   9  17  28  40  59  84 109 137 172 211 249
#     4   9  17  29  44  59  80 111 145 174 206 248
#     4  10  18  30  46  62  82 112 146 177 209 249
#     4  11  21  32  45  62  85 112 142 178 214 249
#     4   9  17  28  43  61  84 113 144 174 208 251
#     4   9  16  27  42  60  81 110 144 174 204 245
#     4  10  19  31  45  62  84 111 143 179 214 250
#     4   9  17  27  40  59  83 108 138 174 211 247
#
# _framework density 15.064664
#
# number of rings (size 3 to 8) (size 9 to 14) (size 15 to 20)
#    0.000    2.500    0.000    4.125    0.000    7.000 
#    0.000    2.500    0.000    0.000    0.000    0.000 
#    0.000    1.000    0.000    5.250    0.000    5.000 
#
# Total GULP energy -396789.777575 kJ/mol
# GULP energy per Si atom -12399.680549 kJ/mol
# Density = 1.503038 g / cm^3
# Si number density = 15.064664 Si / 1000 Ang^3
#
#
#
# Elastic Constant Matrix: (Units=GPa)
#
#
# Indices 1 2 3 4 5 6 
#
# 1 72.7315 38.2452 40.9774 0.0000 0.0000 0.0000
# 2 38.2452 72.0243 50.7668 0.0000 0.0000 0.0000
# 3 40.9774 50.7668 109.2545 0.0000 0.0000 0.0000
# 4 0.0000 0.0000 0.0000 25.9155 0.0000 0.0000
# 5 0.0000 0.0000 0.0000 0.0000 23.9125 0.0000
# 6 0.0000 0.0000 0.0000 0.0000 0.0000 22.1719
#
#
#
# Elastic Compliance Matrix: (Units=1/GPa)
#
#
# Indices 1 2 3 4 5 6 
#
# 1 0.020101 -0.007970 -0.003836 0.000000 0.000000 0.000000
# 2 -0.007970 0.023807 -0.008073 0.000000 0.000000 0.000000
# 3 -0.003836 -0.008073 0.014343 0.000000 0.000000 0.000000
# 4 0.000000 0.000000 0.000000 0.038587 0.000000 0.000000
# 5 0.000000 0.000000 0.000000 0.000000 0.041819 0.000000
# 6 0.000000 0.000000 0.000000 0.000000 0.000000 0.045102
#
#
# Mechanical properties :
#
#
# Convention : Reuss Voigt Hill
#
# Bulk Modulus (GPa) = 54.07413 57.10988 55.59200
# Shear Modulus (GPa) = 21.76933 22.66803 22.21868
#
# Velocity S-wave (km/s) = 3.80552 3.88327 3.84459
# Velocity P-wave (km/s) = 7.43518 7.62224 7.52929
#
# Compressibility (1/GPa) = 0.01849313
#
# Stress axis : x y z
#
# Youngs Moduli (GPa) = 49.74775 42.00522 69.72164
#
# Poissons Ratio (x) = 0.33479 0.26744
# Poissons Ratio (y) = 0.39650 0.56284
# Poissons Ratio (z) = 0.19082 0.33910
#
# Static dielectric constant tensor:
#      x y z
#    x 2.973170 0.000000 0.000000 
#    y 0.000000 2.713390 0.000000 
#    z 0.000000 0.000000 2.957050 
# 
# 
# High freq. dielectric constant tensor:
#      x y z
#    x 1.588860 0.000000 0.000000 
#    y 0.000000 1.541900 0.000000 
#    z 0.000000 0.000000 1.566380 
# 
# From -- ./inp_files/18626.got.cif
#   From: 2010.03.12/outbox.cif.g09.slc.cpg/sg46_10_cif.got.tgz:18626.got - 2010.04.14 02:56:35.
