data_PCOD8191886
_publ_section_title
;
Structure prediction by ZEFSAII (Michael W. Deem and Ramdas Pophale) SiO2 
 PCOD8191886
Probable space group: I M A 2
;
_chemical_formula_sum "Si O2"
_cell_formula_units_Z 64
_cell_length_a 16.802754
_cell_length_b 22.233825
_cell_length_c 8.795922
_cell_angle_alpha 90.000000
_cell_angle_beta 90.000000
_cell_angle_gamma 90.000000
_cell_volume 3286.064031
_symmetry_space_group_name_H-M "I M A 2"
_symmetry_group_IT_number 46
_symmetry_cell_setting 'orthorhombic'
loop_
_space_group_symop_operation_xyz
x,y,z
-x,-y,z
1/2-x,y,z
1/2+x,-y,z
1/2+x,1/2+y,1/2+z
1/2-x,1/2-y,1/2+z
-x,1/2+y,1/2+z
x,1/2-y,1/2+z
loop_
_atom_site_type_symbol
_atom_site_label
_atom_site_fract_x
_atom_site_fract_y
_atom_site_fract_z
Si Si1 0.062120 0.553514 0.761010
Si Si2 0.662585 0.488663 0.026833
Si Si3 0.427256 0.409153 0.194848
Si Si4 0.538770 0.388257 0.454717
Si Si5 0.538158 0.339218 0.973923
Si Si6 0.441784 0.226406 0.020342
Si Si7 0.839020 0.134457 0.696356
Si Si8 0.340410 0.205504 0.751799
O O1 0.139294 0.531366 0.855154
O O2 0.075046 0.565928 0.581121
O O3 0.000000 0.500000 0.783940
O O4 0.036679 0.618654 0.826094
O O5 0.750000 0.518545 0.014689
O O6 0.598606 0.532555 0.102792
O O7 0.665026 0.433971 0.142240
O O8 0.469497 0.422902 0.357596
O O9 0.496025 0.376362 0.105445
O O10 0.351769 0.364296 0.206125
O O11 0.495973 0.332387 0.540106
O O12 0.610672 0.362515 0.352536
O O13 0.495425 0.276842 0.935384
O O14 0.623899 0.326850 0.055102
O O15 0.406683 0.251440 0.176637
O O16 0.361236 0.212014 0.928156
O O17 0.750000 0.159104 0.729099
O O18 0.250000 0.225251 0.718637
#
# Coordination Sequence:
#
# PCOD8191886 Si02
#       8
#     8   8   8   8   8   8   8   8
#     4  11  21  33  54  84 112 145 185 230 289 337
#     4  10  20  36  57  79 108 144 186 232 278 336
#     4   9  18  34  55  80 106 147 192 225 263 334
#     4  10  22  34  56  82 114 150 186 238 286 341
#     4   9  18  35  59  78 107 144 192 232 266 338
#     4  10  20  36  55  80 110 149 193 227 276 331
#     4   9  20  36  56  80 104 139 186 235 283 330
#     4  10  19  32  54  81 113 147 184 228 273 321
#
# _framework density 19.476186999999999
#
# number of rings (size 3 to 8) (size 9 to 14) (size 15 to 20)
#    0.000    2.250    1.250    2.250    1.750    0.500 
#    0.000    0.625    0.000    3.750    0.000    0.000 
#    0.000    0.000    0.000    0.000    0.000    0.000 
#
# Total GULP energy -396449.452784 kJ/mol
# GULP energy per Si atom -12389.045400 kJ/mol
# Density = 1.943186 g / cm^3
# Si number density = 19.476187 Si / 1000 Ang^3
#
#
#
# Elastic Constant Matrix: (Units=GPa)
#
#
# Indices 1 2 3 4 5 6 
#
# 1 108.8886 24.0237 30.0592 0.0000 0.0000 0.0000
# 2 24.0237 44.6012 22.1081 0.0000 0.0000 0.0000
# 3 30.0592 22.1081 90.4166 0.0000 0.0000 0.0000
# 4 0.0000 0.0000 0.0000 22.3192 0.0000 0.0000
# 5 0.0000 0.0000 0.0000 0.0000 20.3481 0.0000
# 6 0.0000 0.0000 0.0000 0.0000 0.0000 15.2685
#
#
#
# Elastic Compliance Matrix: (Units=1/GPa)
#
#
# Indices 1 2 3 4 5 6 
#
# 1 0.010893 -0.004634 -0.002488 0.000000 0.000000 0.000000
# 2 -0.004634 0.027484 -0.005180 0.000000 0.000000 0.000000
# 3 -0.002488 -0.005180 0.013154 0.000000 0.000000 0.000000
# 4 0.000000 0.000000 0.000000 0.044804 0.000000 0.000000
# 5 0.000000 0.000000 0.000000 0.000000 0.049145 0.000000
# 6 0.000000 0.000000 0.000000 0.000000 0.000000 0.065494
#
#
# Mechanical properties :
#
#
# Convention : Reuss Voigt Hill
#
# Bulk Modulus (GPa) = 37.13732 44.03203 40.58468
# Shear Modulus (GPa) = 20.44539 22.76821 21.60680
#
# Velocity S-wave (km/s) = 3.24352 3.42281 3.33437
# Velocity P-wave (km/s) = 5.75645 6.18693 5.97557
#
# Compressibility (1/GPa) = 0.02692709
#
# Stress axis : x y z
#
# Youngs Moduli (GPa) = 91.80228 36.38425 76.02427
#
# Poissons Ratio (x) = 0.16860 0.18917
# Poissons Ratio (y) = 0.42540 0.39379
# Poissons Ratio (z) = 0.22844 0.18846
#
# Static dielectric constant tensor:
#      x y z
#    x 3.710310 0.000000 0.000000 
#    y 0.000000 3.452900 0.000000 
#    z 0.000000 0.000000 3.618570 
# 
# 
# High freq. dielectric constant tensor:
#      x y z
#    x 1.750140 0.000000 0.000000 
#    y 0.000000 1.744860 0.000000 
#    z 0.000000 0.000000 1.757900 
# 
# From -- ./inp_files/7028.got.cif
#   From: 2010.03.12/outbox.cif.g09.slc.cpg/sg46_4_cif.got.tgz:7028.got - 2010.04.14 02:56:35.
