data_PCOD8191226
_publ_section_title
;
Structure prediction by ZEFSAII (Michael W. Deem and Ramdas Pophale) SiO2 
 PCOD8191226
Probable space group: I M A 2
;
_chemical_formula_sum "Si O2"
_cell_formula_units_Z 64
_cell_length_a 15.479742
_cell_length_b 15.967904
_cell_length_c 13.792711
_cell_angle_alpha 90.000000
_cell_angle_beta 90.000000
_cell_angle_gamma 90.000000
_cell_volume 3409.268984
_symmetry_space_group_name_H-M "I M A 2"
_symmetry_group_IT_number 46
_symmetry_cell_setting 'orthorhombic'
loop_
_space_group_symop_operation_xyz
x,y,z
-x,-y,z
1/2-x,y,z
1/2+x,-y,z
1/2+x,1/2+y,1/2+z
1/2-x,1/2-y,1/2+z
-x,1/2+y,1/2+z
x,1/2-y,1/2+z
loop_
_atom_site_type_symbol
_atom_site_label
_atom_site_fract_x
_atom_site_fract_y
_atom_site_fract_z
Si Si1 0.345303 0.239386 0.338370
Si Si2 0.995017 0.091084 0.643709
Si Si3 0.113032 0.074902 0.823524
Si Si4 0.973975 0.760948 0.509444
Si Si5 0.149156 0.669714 0.467447
Si Si6 0.157428 0.602532 0.261995
Si Si7 0.653841 0.841369 0.134581
Si Si8 0.404383 0.492997 0.536041
O O1 0.250000 0.211241 0.378044
O O2 0.335180 0.338213 0.316120
O O3 0.426188 0.221254 0.408141
O O4 0.368142 0.185069 0.243579
O O5 0.897552 0.119830 0.665461
O O6 0.030888 0.085680 0.753573
O O7 0.039542 0.155385 0.572086
O O8 0.000000 0.000000 0.593265
O O9 0.167841 0.996663 0.784704
O O10 0.085910 0.057256 0.934071
O O11 0.920305 0.690029 0.563044
O O12 0.075698 0.736592 0.500955
O O13 0.250000 0.701047 0.478821
O O14 0.124272 0.652322 0.356092
O O15 0.140803 0.583114 0.526410
O O16 0.250000 0.638387 0.233612
O O17 0.750000 0.807698 0.107386
O O18 0.651936 0.941387 0.115181
O O19 0.500000 0.500000 0.579518
#
# Coordination Sequence:
#
# PCOD8191226 Si02
#       8
#     8   8   8   8   8   8   8   8
#     4  11  22  36  54  84 117 147 184 233 283 338
#     4  10  21  36  55  80 109 147 187 231 275 336
#     4  10  17  31  54  84 115 138 174 226 290 340
#     4  12  22  37  60  80 114 150 192 230 287 331
#     4  10  21  35  56  86 120 149 184 231 285 340
#     4   9  18  32  53  82 111 140 173 227 288 336
#     4  11  23  35  55  86 116 150 188 226 280 344
#     4  11  18  33  58  88 118 153 180 229 286 344
#
# _framework density 18.772352999999999
#
# number of rings (size 3 to 8) (size 9 to 14) (size 15 to 20)
#    0.000    1.500    3.750    3.750    0.000    1.500 
#    0.000    1.250    0.000    0.000    0.000    0.000 
#    0.000    0.000    0.000    0.000    0.000    0.000 
#
# Total GULP energy -396472.552675 kJ/mol
# GULP energy per Si atom -12389.767271 kJ/mol
# Density = 1.872963 g / cm^3
# Si number density = 18.772353 Si / 1000 Ang^3
#
#
#
# Elastic Constant Matrix: (Units=GPa)
#
#
# Indices 1 2 3 4 5 6 
#
# 1 108.0086 16.5092 36.4202 0.0000 0.0000 0.0000
# 2 16.5092 53.7674 31.3948 0.0000 0.0000 0.0000
# 3 36.4202 31.3948 72.9213 0.0000 0.0000 0.0000
# 4 0.0000 0.0000 0.0000 26.6962 0.0000 0.0000
# 5 0.0000 0.0000 0.0000 0.0000 16.6536 0.0000
# 6 0.0000 0.0000 0.0000 0.0000 0.0000 18.1274
#
#
#
# Elastic Compliance Matrix: (Units=1/GPa)
#
#
# Indices 1 2 3 4 5 6 
#
# 1 0.011136 -0.000229 -0.005463 0.000000 0.000000 0.000000
# 2 -0.000229 0.024849 -0.010584 0.000000 0.000000 0.000000
# 3 -0.005463 -0.010584 0.020998 0.000000 0.000000 0.000000
# 4 0.000000 0.000000 0.000000 0.037458 0.000000 0.000000
# 5 0.000000 0.000000 0.000000 0.000000 0.060047 0.000000
# 6 0.000000 0.000000 0.000000 0.000000 0.000000 0.055165
#
#
# Mechanical properties :
#
#
# Convention : Reuss Voigt Hill
#
# Bulk Modulus (GPa) = 40.93139 44.81616 42.87378
# Shear Modulus (GPa) = 19.97210 22.32030 21.14620
#
# Velocity S-wave (km/s) = 3.26530 3.45193 3.35991
# Velocity P-wave (km/s) = 6.00564 6.30976 6.15958
#
# Compressibility (1/GPa) = 0.02443113
#
# Stress axis : x y z
#
# Youngs Moduli (GPa) = 89.80161 40.24334 47.62277
#
# Poissons Ratio (x) = 0.00923 0.26016
# Poissons Ratio (y) = 0.02060 0.50402
# Poissons Ratio (z) = 0.49058 0.42592
#
# Static dielectric constant tensor:
#      x y z
#    x 3.576530 0.000000 0.000000 
#    y 0.000000 3.400230 0.000000 
#    z 0.000000 0.000000 3.185920 
# 
# 
# High freq. dielectric constant tensor:
#      x y z
#    x 1.743870 0.000000 0.000000 
#    y 0.000000 1.708660 0.000000 
#    z 0.000000 0.000000 1.699250 
# 
# From -- ./inp_files/11337.got.cif
#   From: 2010.03.12/outbox.cif.g09.slc.cpg/sg46_6_cif.got.tgz:11337.got - 2010.04.14 02:56:35.
