data_PCOD8191373
_publ_section_title
;
Structure prediction by ZEFSAII (Michael W. Deem and Ramdas Pophale) SiO2 
 PCOD8191373
Probable space group: I M A 2
;
_chemical_formula_sum "Si O2"
_cell_formula_units_Z 52
_cell_length_a 21.702926
_cell_length_b 16.462286
_cell_length_c 8.717707
_cell_angle_alpha 90.000000
_cell_angle_beta 90.000000
_cell_angle_gamma 90.000000
_cell_volume 3114.660394
_symmetry_space_group_name_H-M "I M A 2"
_symmetry_group_IT_number 46
_symmetry_cell_setting 'orthorhombic'
loop_
_space_group_symop_operation_xyz
x,y,z
-x,-y,z
1/2-x,y,z
1/2+x,-y,z
1/2+x,1/2+y,1/2+z
1/2-x,1/2-y,1/2+z
-x,1/2+y,1/2+z
x,1/2-y,1/2+z
loop_
_atom_site_type_symbol
_atom_site_label
_atom_site_fract_x
_atom_site_fract_y
_atom_site_fract_z
Si Si1 0.678829 0.177409 0.082920
Si Si2 0.499165 0.749164 0.197459
Si Si3 0.500000 0.000000 0.803144
Si Si4 0.580790 0.472998 0.020764
Si Si5 0.940046 0.146463 0.939904
Si Si6 0.179909 0.649789 0.938921
Si Si7 0.034819 0.133122 0.447042
O O1 0.750000 0.154213 0.044589
O O2 0.631739 0.123425 0.976992
O O3 0.663286 0.164201 0.261144
O O4 0.665423 0.270767 0.038764
O O5 0.461834 0.806294 0.087593
O O6 0.445484 0.703378 0.291331
O O7 0.542442 0.804028 0.307082
O O8 0.541236 0.683961 0.106223
O O9 0.560655 0.001090 0.693992
O O10 0.511068 0.073940 0.918845
O O11 0.585017 0.560396 0.932917
O O12 0.531685 0.411190 0.945677
O O13 0.645153 0.427248 0.012756
O O14 0.250000 0.624506 0.955222
#
# Coordination Sequence:
#
# PCOD8191373 Si02
#       7
#     8   8   4   8   8   8   8
#     4  10  21  33  49  76 104 139 182 211 243 302
#     4  10  18  29  48  70  92 129 167 199 256 307
#     4  10  22  32  46  72 102 132 172 208 266 298
#     4  10  18  33  46  69 100 132 160 217 251 306
#     4  11  19  32  47  69 100 136 162 212 249 303
#     4  10  21  35  52  74 104 141 179 210 250 305
#     4   9  18  30  48  68  98 124 163 205 256 306
#
# _framework density 16.695239000000001
#
# number of rings (size 3 to 8) (size 9 to 14) (size 15 to 20)
#    0.000    2.154    3.077    3.692    2.154    2.462 
#    0.000    0.000    0.000    0.000    0.000    1.077 
#    0.000    0.000    0.000    0.000    0.000    0.000 
#
# Total GULP energy -322097.811062 kJ/mol
# GULP energy per Si atom -12388.377349 kJ/mol
# Density = 1.665724 g / cm^3
# Si number density = 16.695239 Si / 1000 Ang^3
#
#
#
# Elastic Constant Matrix: (Units=GPa)
#
#
# Indices 1 2 3 4 5 6 
#
# 1 75.0207 48.9968 40.1321 0.0000 0.0000 0.0000
# 2 48.9968 109.0009 50.7950 0.0000 0.0000 0.0000
# 3 40.1321 50.7950 92.7822 0.0000 0.0000 0.0000
# 4 0.0000 0.0000 0.0000 -324.2139 0.0000 0.0000
# 5 0.0000 0.0000 0.0000 0.0000 19.8809 0.0000
# 6 0.0000 0.0000 0.0000 0.0000 0.0000 30.5867
#
#
#
# Elastic Compliance Matrix: (Units=1/GPa)
#
#
# Indices 1 2 3 4 5 6 
#
# 1 0.020548 -0.006840 -0.005143 0.000000 0.000000 0.000000
# 2 -0.006840 0.014593 -0.005031 0.000000 0.000000 0.000000
# 3 -0.005143 -0.005031 0.015757 0.000000 0.000000 0.000000
# 4 0.000000 0.000000 0.000000 -0.003084 0.000000 0.000000
# 5 0.000000 0.000000 0.000000 0.000000 0.050300 0.000000
# 6 0.000000 0.000000 0.000000 0.000000 0.000000 0.032694
#
#
# Mechanical properties :
#
#
# Convention : Reuss Voigt Hill
#
# Bulk Modulus (GPa) = 59.27565 61.85017 60.56291
# Shear Modulus (GPa) = 29.33264 -45.62393 -8.14564
#
# Velocity S-wave (km/s) = 4.19614 -5.23324 -2.21125
# Velocity P-wave (km/s) = 7.68495 0.78182 5.46213
#
# Compressibility (1/GPa) = 0.01687033
#
# Stress axis : x y z
#
# Youngs Moduli (GPa) = 48.66608 68.52548 63.46462
#
# Poissons Ratio (x) = 0.46870 0.32642
# Poissons Ratio (y) = 0.33286 0.31927
# Poissons Ratio (z) = 0.25031 0.34473
#
# Static dielectric constant tensor:
#      x y z
#    x 3.059800 0.000000 0.000000 
#    y 0.000000 3.524330 0.000000 
#    z 0.000000 0.000000 3.384580 
# 
# 
# High freq. dielectric constant tensor:
#      x y z
#    x 1.596840 0.000000 0.000000 
#    y 0.000000 1.636880 0.000000 
#    z 0.000000 0.000000 1.655850 
# 
# From -- ./inp_files/8240.got.cif
#   From: 2010.03.12/outbox.cif.g09.slc.cpg/sg46_5_cif.got.tgz:8240.got - 2010.04.14 02:56:35.
