data_PCOD8191595
_publ_section_title
;
Structure prediction by ZEFSAII (Michael W. Deem and Ramdas Pophale) SiO2 
 PCOD8191595
Probable space group: I M A 2
;
_chemical_formula_sum "Si O2"
_cell_formula_units_Z 56
_cell_length_a 14.815989
_cell_length_b 9.386936
_cell_length_c 19.567545
_cell_angle_alpha 90.000000
_cell_angle_beta 90.000000
_cell_angle_gamma 90.000000
_cell_volume 2721.390379
_symmetry_space_group_name_H-M "I M A 2"
_symmetry_group_IT_number 46
_symmetry_cell_setting 'orthorhombic'
loop_
_space_group_symop_operation_xyz
x,y,z
-x,-y,z
1/2-x,y,z
1/2+x,-y,z
1/2+x,1/2+y,1/2+z
1/2-x,1/2-y,1/2+z
-x,1/2+y,1/2+z
x,1/2-y,1/2+z
loop_
_atom_site_type_symbol
_atom_site_label
_atom_site_fract_x
_atom_site_fract_y
_atom_site_fract_z
Si Si1 0.647091 0.857048 0.656850
Si Si2 0.978993 0.660857 0.741938
Si Si3 0.957205 0.798330 0.392833
Si Si4 0.149729 0.728545 0.941711
Si Si5 0.352599 0.046045 0.510190
Si Si6 0.348416 0.022483 0.903616
Si Si7 0.592880 0.420738 0.263068
O O1 0.750000 0.805383 0.652973
O O2 0.588838 0.728365 0.686869
O O3 0.609077 0.894889 0.581455
O O4 0.642691 0.002132 0.700560
O O5 0.928218 0.661004 0.815787
O O6 0.000000 0.500000 0.719017
O O7 0.070722 0.756015 0.744697
O O8 0.913208 0.903240 0.447101
O O9 0.926516 0.638053 0.411164
O O10 0.065875 0.809229 0.392070
O O11 0.250000 0.701270 0.908218
O O12 0.141149 0.897142 0.960844
O O13 0.142168 0.627260 0.008755
O O14 0.250000 0.098834 0.499869
O O15 0.250000 0.097120 0.910832
O O16 0.348777 0.936496 0.831597
O O17 0.500000 0.500000 0.278914
#
# Coordination Sequence:
#
# PCOD8191595 Si02
#       7
#     8   8   8   8   8   8   8
#     4  10  22  43  67  90 125 172 221 268 321 394
#     4  11  23  38  61  93 131 165 217 272 322 387
#     4  12  21  37  61  91 125 168 206 260 321 384
#     4  10  21  36  57  88 123 155 203 261 315 375
#     4  10  23  41  62  92 126 166 212 261 325 390
#     4  11  20  34  58  91 124 159 206 260 311 372
#     4  10  18  35  60  85 120 162 211 255 308 375
#
# _framework density 20.577715999999999
#
# number of rings (size 3 to 8) (size 9 to 14) (size 15 to 20)
#    0.000    1.429    4.286    2.571    0.000    4.000 
#    0.000    5.000    0.000    3.429    0.000    0.000 
#    0.000    0.000    0.000    0.000    0.000    0.000 
#
# Total GULP energy -346933.258443 kJ/mol
# GULP energy per Si atom -12390.473516 kJ/mol
# Density = 2.053088 g / cm^3
# Si number density = 20.577716 Si / 1000 Ang^3
#
#
#
# Elastic Constant Matrix: (Units=GPa)
#
#
# Indices 1 2 3 4 5 6 
#
# 1 105.4460 40.9829 38.6011 0.0000 0.0000 0.0000
# 2 40.9829 159.5850 55.5661 0.0000 0.0000 0.0000
# 3 38.6011 55.5661 101.6017 0.0000 0.0000 0.0000
# 4 0.0000 0.0000 0.0000 26.7649 0.0000 0.0000
# 5 0.0000 0.0000 0.0000 0.0000 21.8259 0.0000
# 6 0.0000 0.0000 0.0000 0.0000 0.0000 28.2096
#
#
#
# Elastic Compliance Matrix: (Units=1/GPa)
#
#
# Indices 1 2 3 4 5 6 
#
# 1 0.011399 -0.001753 -0.003372 0.000000 0.000000 0.000000
# 2 -0.001753 0.008010 -0.003714 0.000000 0.000000 0.000000
# 3 -0.003372 -0.003714 0.013155 0.000000 0.000000 0.000000
# 4 0.000000 0.000000 0.000000 0.037362 0.000000 0.000000
# 5 0.000000 0.000000 0.000000 0.000000 0.045817 0.000000
# 6 0.000000 0.000000 0.000000 0.000000 0.000000 0.035449
#
#
# Mechanical properties :
#
#
# Convention : Reuss Voigt Hill
#
# Bulk Modulus (GPa) = 67.18390 70.77031 68.97711
# Shear Modulus (GPa) = 28.76311 30.79225 29.77768
#
# Velocity S-wave (km/s) = 3.74274 3.87251 3.80818
# Velocity P-wave (km/s) = 7.16919 7.37981 7.27526
#
# Compressibility (1/GPa) = 0.01488452
#
# Stress axis : x y z
#
# Youngs Moduli (GPa) = 87.72395 124.84586 76.01728
#
# Poissons Ratio (x) = 0.21890 0.25633
# Poissons Ratio (y) = 0.15381 0.28236
# Poissons Ratio (z) = 0.29580 0.46374
#
# Static dielectric constant tensor:
#      x y z
#    x 3.900940 0.000000 0.000000 
#    y 0.000000 3.986690 0.000000 
#    z 0.000000 0.000000 3.528020 
# 
# 
# High freq. dielectric constant tensor:
#      x y z
#    x 1.810760 0.000000 0.000000 
#    y 0.000000 1.807570 0.000000 
#    z 0.000000 0.000000 1.769820 
# 
# From -- ./inp_files/22017.got.cif
#   From: 2010.03.12/outbox.cif.g09.slc.cpg/sg46_12_cif.got.tgz:22017.got - 2010.04.14 02:56:35.
