data_PCOD8191401
_publ_section_title
;
Structure prediction by ZEFSAII (Michael W. Deem and Ramdas Pophale) SiO2 
 PCOD8191401
Probable space group: I M A 2
;
_chemical_formula_sum "Si O2"
_cell_formula_units_Z 64
_cell_length_a 8.774210
_cell_length_b 14.790099
_cell_length_c 27.650862
_cell_angle_alpha 90.000000
_cell_angle_beta 90.000000
_cell_angle_gamma 90.000000
_cell_volume 3588.292028
_symmetry_space_group_name_H-M "I M A 2"
_symmetry_group_IT_number 46
_symmetry_cell_setting 'orthorhombic'
loop_
_space_group_symop_operation_xyz
x,y,z
-x,-y,z
1/2-x,y,z
1/2+x,-y,z
1/2+x,1/2+y,1/2+z
1/2-x,1/2-y,1/2+z
-x,1/2+y,1/2+z
x,1/2-y,1/2+z
loop_
_atom_site_type_symbol
_atom_site_label
_atom_site_fract_x
_atom_site_fract_y
_atom_site_fract_z
Si Si1 0.427172 0.091684 0.452780
Si Si2 0.069375 0.780391 0.264078
Si Si3 0.068083 0.903217 0.177089
Si Si4 0.928919 0.407874 0.409182
Si Si5 0.425612 0.215896 0.985575
Si Si6 0.068725 0.593807 0.849721
Si Si7 0.430504 0.095720 0.075186
Si Si8 0.070051 0.908005 0.799059
O O1 0.250000 0.073238 0.443569
O O2 0.453872 0.175975 0.489011
O O3 0.504664 0.117777 0.402256
O O4 0.500000 0.000000 0.474933
O O5 0.250000 0.782959 0.263841
O O6 0.008945 0.829399 0.215813
O O7 0.011466 0.830837 0.312167
O O8 0.011771 0.676556 0.266762
O O9 0.250000 0.910334 0.175422
O O10 0.004640 0.872127 0.125325
O O11 0.000000 0.000000 0.191973
O O12 0.750000 0.417436 0.411719
O O13 0.985172 0.392493 0.354230
O O14 0.000000 0.500000 0.430520
O O15 0.978622 0.323319 0.441232
O O16 0.250000 0.194221 0.974821
O O17 0.476100 0.171141 0.035971
O O18 0.250000 0.587545 0.852309
O O19 0.000000 0.500000 0.830827
O O20 0.250000 0.085261 0.081580
O O21 0.500000 0.000000 0.058543
O O22 0.250000 0.916434 0.796983
O O23 0.000000 0.000000 0.777471
#
# Coordination Sequence:
#
# PCOD8191401 Si02
#       8
#     8   8   8   8   8   8   8   8
#     4  10  20  34  49  69  97 129 163 202 240 279
#     4   9  18  31  49  70  96 127 160 194 234 281
#     4  10  19  33  52  74  98 125 153 189 234 283
#     4  10  19  30  48  72 101 132 163 197 236 282
#     4  10  21  34  50  71  97 127 162 201 241 283
#     4  10  18  30  47  70  99 131 161 193 233 281
#     4  10  20  35  52  73  99 125 152 190 237 286
#     4   9  18  33  48  67  95 128 162 198 234 273
#
# _framework density 17.835784
#
# number of rings (size 3 to 8) (size 9 to 14) (size 15 to 20)
#    0.000    2.250    0.000    4.875    0.000    4.500 
#    0.000    4.375    0.000    0.750    0.000    5.250 
#    0.000    0.000    0.000    0.000    0.000    0.000 
#
# Total GULP energy -396770.318388 kJ/mol
# GULP energy per Si atom -12399.072450 kJ/mol
# Density = 1.779519 g / cm^3
# Si number density = 17.835784 Si / 1000 Ang^3
#
#
#
# Elastic Constant Matrix: (Units=GPa)
#
#
# Indices 1 2 3 4 5 6 
#
# 1 68.9869 39.6013 32.7477 0.0000 0.0000 0.0000
# 2 39.6013 155.4997 79.2815 0.0000 0.0000 0.0000
# 3 32.7477 79.2815 91.2757 0.0000 0.0000 0.0000
# 4 0.0000 0.0000 0.0000 32.0857 0.0000 0.0000
# 5 0.0000 0.0000 0.0000 0.0000 18.0752 0.0000
# 6 0.0000 0.0000 0.0000 0.0000 0.0000 27.1091
#
#
#
# Elastic Compliance Matrix: (Units=1/GPa)
#
#
# Indices 1 2 3 4 5 6 
#
# 1 0.017921 -0.002308 -0.004425 0.000000 0.000000 0.000000
# 2 -0.002308 0.011840 -0.009456 0.000000 0.000000 0.000000
# 3 -0.004425 -0.009456 0.020757 0.000000 0.000000 0.000000
# 4 0.000000 0.000000 0.000000 0.031167 0.000000 0.000000
# 5 0.000000 0.000000 0.000000 0.000000 0.055325 0.000000
# 6 0.000000 0.000000 0.000000 0.000000 0.000000 0.036888
#
#
# Mechanical properties :
#
#
# Convention : Reuss Voigt Hill
#
# Bulk Modulus (GPa) = 55.12744 68.78036 61.95390
# Shear Modulus (GPa) = 23.54932 26.39613 24.97272
#
# Velocity S-wave (km/s) = 3.63759 3.85119 3.74591
# Velocity P-wave (km/s) = 6.97268 7.64345 7.31576
#
# Compressibility (1/GPa) = 0.01813979
#
# Stress axis : x y z
#
# Youngs Moduli (GPa) = 55.80101 84.46150 48.17701
#
# Poissons Ratio (x) = 0.19492 0.21319
# Poissons Ratio (y) = 0.12878 0.45556
# Poissons Ratio (z) = 0.24692 0.79866
#
# Static dielectric constant tensor:
#      x y z
#    x 3.258510 0.000000 0.000000 
#    y 0.000000 3.509140 0.000000 
#    z 0.000000 0.000000 3.241600 
# 
# 
# High freq. dielectric constant tensor:
#      x y z
#    x 1.689770 0.000000 0.000000 
#    y 0.000000 1.694480 0.000000 
#    z 0.000000 0.000000 1.666030 
# 
# From -- ./inp_files/25286.got.cif
#   From: 2010.03.12/outbox.cif.g09.slc.cpg/sg46_13_cif.got.tgz:25286.got - 2010.04.14 02:56:35.
