data_PCOD8191324
_publ_section_title
;
Structure prediction by ZEFSAII (Michael W. Deem and Ramdas Pophale) SiO2 
 PCOD8191324
Probable space group: I M A 2
;
_chemical_formula_sum "Si O2"
_cell_formula_units_Z 56
_cell_length_a 9.191856
_cell_length_b 20.758713
_cell_length_c 14.155457
_cell_angle_alpha 90.000000
_cell_angle_beta 90.000000
_cell_angle_gamma 90.000000
_cell_volume 2701.018330
_symmetry_space_group_name_H-M "I M A 2"
_symmetry_group_IT_number 46
_symmetry_cell_setting 'orthorhombic'
loop_
_space_group_symop_operation_xyz
x,y,z
-x,-y,z
1/2-x,y,z
1/2+x,-y,z
1/2+x,1/2+y,1/2+z
1/2-x,1/2-y,1/2+z
-x,1/2+y,1/2+z
x,1/2-y,1/2+z
loop_
_atom_site_type_symbol
_atom_site_label
_atom_site_fract_x
_atom_site_fract_y
_atom_site_fract_z
Si Si1 0.080087 0.065237 0.103460
Si Si2 0.578640 0.756745 0.777278
Si Si3 0.585332 0.627339 0.412123
Si Si4 0.082117 0.565510 0.980740
Si Si5 0.589390 0.333754 0.130574
Si Si6 0.093924 0.946284 0.774688
Si Si7 0.580678 0.124927 0.280339
O O1 0.250000 0.050687 0.123456
O O2 0.003589 0.090152 0.197056
O O3 0.064517 0.122440 0.025274
O O4 0.000000 0.000000 0.070174
O O5 0.750000 0.743354 0.767114
O O6 0.542846 0.803898 0.865841
O O7 0.522165 0.781535 0.674096
O O8 0.492943 0.692701 0.803711
O O9 0.750000 0.612463 0.382855
O O10 0.486976 0.570563 0.371482
O O11 0.250000 0.555477 0.009475
O O12 0.062686 0.579181 0.870626
O O13 0.000000 0.500000 0.008284
O O14 0.024048 0.628103 0.039741
O O15 0.750000 0.303225 0.107560
O O16 0.612314 0.384421 0.212484
O O17 0.250000 0.975609 0.801150
O O18 0.000000 0.000000 0.719368
O O19 0.750000 0.135121 0.254729
#
# Coordination Sequence:
#
# PCOD8191324 Si02
#       7
#     8   8   8   8   8   8   8
#     4  11  23  40  61  87 117 152 194 240 289 341
#     4  10  21  39  61  87 117 151 191 235 284 341
#     4   9  20  37  57  82 114 148 186 232 284 341
#     4  10  22  39  60  86 116 151 192 236 286 339
#     4   9  19  36  56  82 115 149 186 231 282 341
#     4  10  18  28  48  77 111 148 185 227 279 336
#     4  11  24  41  60  83 114 155 197 241 288 337
#
# _framework density 20.732921000000001
#
# number of rings (size 3 to 8) (size 9 to 14) (size 15 to 20)
#    0.000    2.000    0.000    3.000    0.000    7.429 
#    0.000    2.857    0.000    0.000    0.000    0.000 
#    0.000    0.000    0.000    0.000    0.000    0.000 
#
# Total GULP energy -347039.611209 kJ/mol
# GULP energy per Si atom -12394.271829 kJ/mol
# Density = 2.068573 g / cm^3
# Si number density = 20.732921 Si / 1000 Ang^3
#
#
#
# Elastic Constant Matrix: (Units=GPa)
#
#
# Indices 1 2 3 4 5 6 
#
# 1 122.7226 40.6365 31.4193 0.0000 0.0000 0.0000
# 2 40.6365 76.7462 17.4066 -0.0001 0.0000 0.0000
# 3 31.4193 17.4066 93.4996 -0.0002 0.0000 0.0000
# 4 0.0000 -0.0001 -0.0002 18.0967 0.0000 0.0000
# 5 0.0000 0.0000 0.0000 0.0000 31.2403 0.0000
# 6 0.0000 0.0000 0.0000 0.0000 0.0000 36.9412
#
#
#
# Elastic Compliance Matrix: (Units=1/GPa)
#
#
# Indices 1 2 3 4 5 6 
#
# 1 0.010449 -0.004945 -0.002591 0.000000 0.000000 0.000000
# 2 -0.004945 0.015945 -0.001307 0.000000 0.000000 0.000000
# 3 -0.002591 -0.001307 0.011809 0.000000 0.000000 0.000000
# 4 0.000000 0.000000 0.000000 0.055259 0.000000 0.000000
# 5 0.000000 0.000000 0.000000 0.000000 0.032010 0.000000
# 6 0.000000 0.000000 0.000000 0.000000 0.000000 0.027070
#
#
# Mechanical properties :
#
#
# Convention : Reuss Voigt Hill
#
# Bulk Modulus (GPa) = 48.73768 52.43258 50.58513
# Shear Modulus (GPa) = 28.23807 30.82270 29.53038
#
# Velocity S-wave (km/s) = 3.69452 3.85990 3.77812
# Velocity P-wave (km/s) = 6.46202 6.72380 6.59421
#
# Compressibility (1/GPa) = 0.02051801
#
# Stress axis : x y z
#
# Youngs Moduli (GPa) = 95.70112 62.71659 84.68079
#
# Poissons Ratio (x) = 0.31014 0.21938
# Poissons Ratio (y) = 0.47326 0.11065
# Poissons Ratio (z) = 0.24793 0.08195
#
# Static dielectric constant tensor:
#      x y z
#    x 4.117750 0.000000 0.000000 
#    y 0.000000 3.786590 0.000000 
#    z 0.000000 0.000000 3.720230 
# 
# 
# High freq. dielectric constant tensor:
#      x y z
#    x 1.819370 0.000000 0.000000 
#    y 0.000000 1.803060 0.000000 
#    z 0.000000 0.000000 1.809010 
# 
# From -- ./inp_files/14141.got.cif
#   From: 2010.03.12/outbox.cif.g09.slc.cpg/sg46_8_cif.got.tgz:14141.got - 2010.04.14 02:56:35.
