data_PCOD8191279
_publ_section_title
;
Structure prediction by ZEFSAII (Michael W. Deem and Ramdas Pophale) SiO2 
 PCOD8191279
Probable space group: I M A 2
;
_chemical_formula_sum "Si O2"
_cell_formula_units_Z 56
_cell_length_a 8.966937
_cell_length_b 13.606954
_cell_length_c 29.421033
_cell_angle_alpha 90.000000
_cell_angle_beta 90.000000
_cell_angle_gamma 90.000000
_cell_volume 3589.739652
_symmetry_space_group_name_H-M "I M A 2"
_symmetry_group_IT_number 46
_symmetry_cell_setting 'orthorhombic'
loop_
_space_group_symop_operation_xyz
x,y,z
-x,-y,z
1/2-x,y,z
1/2+x,-y,z
1/2+x,1/2+y,1/2+z
1/2-x,1/2-y,1/2+z
-x,1/2+y,1/2+z
x,1/2-y,1/2+z
loop_
_atom_site_type_symbol
_atom_site_label
_atom_site_fract_x
_atom_site_fract_y
_atom_site_fract_z
Si Si1 0.575052 0.600134 0.522200
Si Si2 0.577220 0.102808 0.289846
Si Si3 0.926969 0.213133 0.102392
Si Si4 0.424206 0.895104 0.191989
Si Si5 0.425911 0.103584 0.560912
Si Si6 0.579712 0.707579 0.968131
Si Si7 0.424833 0.605725 0.888225
O O1 0.500000 0.500000 0.504747
O O2 0.750000 0.586096 0.532197
O O3 0.494582 0.632884 0.568321
O O4 0.549269 0.680569 0.482971
O O5 0.750000 0.080621 0.290539
O O6 0.535000 0.154836 0.241623
O O7 0.534400 0.153220 0.338258
O O8 0.500000 0.000000 0.289069
O O9 0.750000 0.219843 0.095038
O O10 0.972858 0.180941 0.153186
O O11 0.001171 0.318854 0.095215
O O12 0.250000 0.915997 0.188255
O O13 0.500000 0.000000 0.184774
O O14 0.250000 0.099765 0.569805
O O15 0.461677 0.134912 0.509367
O O16 0.500000 0.000000 0.571297
O O17 0.750000 0.692436 0.953641
O O18 0.477758 0.683987 0.925207
O O19 0.500000 0.500000 0.895889
O O20 0.250000 0.589665 0.894117
#
# Coordination Sequence:
#
# PCOD8191279 Si02
#       7
#     8   8   8   8   8   8   8
#     4  10  20  33  47  64  88 117 146 181 219 257
#     4   8  15  27  40  59  86 114 143 174 210 253
#     4  10  19  30  46  67  89 117 149 180 215 256
#     4   9  17  28  43  63  89 118 146 176 212 253
#     4  10  20  33  47  64  88 117 147 182 219 257
#     4   9  19  32  45  63  87 114 144 176 213 255
#     4  10  18  27  43  64  88 117 146 177 213 253
#
# _framework density 15.600016999999999
#
# number of rings (size 3 to 8) (size 9 to 14) (size 15 to 20)
#    0.000    2.571    0.000    3.429    0.000    7.429 
#    0.000    0.000    0.000    0.000    0.000    1.000 
#    0.000    2.286    0.000    0.000    0.000    0.000 
#
# Total GULP energy -346969.189220 kJ/mol
# GULP energy per Si atom -12391.756758 kJ/mol
# Density = 1.556451 g / cm^3
# Si number density = 15.600017 Si / 1000 Ang^3
#
#
#
# Elastic Constant Matrix: (Units=GPa)
#
#
# Indices 1 2 3 4 5 6 
#
# 1 71.0988 41.9709 56.9055 0.0000 0.0000 0.0000
# 2 41.9709 93.2788 57.3449 0.0000 0.0000 0.0000
# 3 56.9055 57.3449 143.5142 0.0000 0.0000 0.0000
# 4 0.0000 0.0000 0.0000 16.6178 0.0000 0.0000
# 5 0.0000 0.0000 0.0000 0.0000 21.7347 0.0000
# 6 0.0000 0.0000 0.0000 0.0000 0.0000 26.7315
#
#
#
# Elastic Compliance Matrix: (Units=1/GPa)
#
#
# Indices 1 2 3 4 5 6 
#
# 1 0.023106 -0.006316 -0.006638 0.000000 0.000000 0.000000
# 2 -0.006316 0.015938 -0.003864 0.000000 0.000000 0.000000
# 3 -0.006638 -0.003864 0.011144 0.000000 0.000000 0.000000
# 4 0.000000 0.000000 0.000000 0.060176 0.000000 0.000000
# 5 0.000000 0.000000 0.000000 0.000000 0.046009 0.000000
# 6 0.000000 0.000000 0.000000 0.000000 0.000000 0.037409
#
#
# Mechanical properties :
#
#
# Convention : Reuss Voigt Hill
#
# Bulk Modulus (GPa) = 60.41567 68.92604 64.67086
# Shear Modulus (GPa) = 21.46502 23.12816 22.29659
#
# Velocity S-wave (km/s) = 3.71342 3.85460 3.78467
# Velocity P-wave (km/s) = 7.56294 8.00561 7.78742
#
# Compressibility (1/GPa) = 0.01655200
#
# Stress axis : x y z
#
# Youngs Moduli (GPa) = 43.27797 62.74376 89.73261
#
# Poissons Ratio (x) = 0.39627 0.59569
# Poissons Ratio (y) = 0.27333 0.34674
# Poissons Ratio (z) = 0.28730 0.24245
#
# Static dielectric constant tensor:
#      x y z
#    x 3.023560 0.000000 0.000000 
#    y 0.000000 2.759530 0.000000 
#    z 0.000000 0.000000 3.475470 
# 
# 
# High freq. dielectric constant tensor:
#      x y z
#    x 1.613360 0.000000 0.000000 
#    y 0.000000 1.564690 0.000000 
#    z 0.000000 0.000000 1.602410 
# 
# From -- ./inp_files/25234.got.cif
#   From: 2010.03.12/outbox.cif.g09.slc.cpg/sg46_13_cif.got.tgz:25234.got - 2010.04.14 02:56:35.
