data_PCOD8191785
_publ_section_title
;
Structure prediction by ZEFSAII (Michael W. Deem and Ramdas Pophale) SiO2 
 PCOD8191785
Probable space group: I M A 2
;
_chemical_formula_sum "Si O2"
_cell_formula_units_Z 64
_cell_length_a 8.808903
_cell_length_b 14.446860
_cell_length_c 27.687941
_cell_angle_alpha 90.000000
_cell_angle_beta 90.000000
_cell_angle_gamma 90.000000
_cell_volume 3523.594738
_symmetry_space_group_name_H-M "I M A 2"
_symmetry_group_IT_number 46
_symmetry_cell_setting 'orthorhombic'
loop_
_space_group_symop_operation_xyz
x,y,z
-x,-y,z
1/2-x,y,z
1/2+x,-y,z
1/2+x,1/2+y,1/2+z
1/2-x,1/2-y,1/2+z
-x,1/2+y,1/2+z
x,1/2-y,1/2+z
loop_
_atom_site_type_symbol
_atom_site_label
_atom_site_fract_x
_atom_site_fract_y
_atom_site_fract_z
Si Si1 0.928487 0.404068 0.387950
Si Si2 0.428739 0.590697 0.762179
Si Si3 0.919886 0.647060 0.667828
Si Si4 0.573831 0.209682 0.794751
Si Si5 0.927526 0.090825 0.610366
Si Si6 0.069897 0.708953 0.574333
Si Si7 0.581828 0.854652 0.703818
Si Si8 0.430892 0.401109 0.489662
O O1 0.750000 0.418184 0.397747
O O2 0.959596 0.324590 0.348694
O O3 0.000000 0.500000 0.369129
O O4 0.011404 0.372434 0.436711
O O5 0.500000 0.500000 0.788345
O O6 0.250000 0.581286 0.762205
O O7 0.488143 0.588757 0.707148
O O8 0.481582 0.683651 0.790219
O O9 0.750000 0.606446 0.660771
O O10 0.910299 0.750344 0.686536
O O11 0.010217 0.643353 0.617385
O O12 0.750000 0.203524 0.781320
O O13 0.488374 0.142165 0.757411
O O14 0.750000 0.080532 0.608142
O O15 0.979516 0.184410 0.583289
O O16 0.978582 0.089676 0.666305
O O17 0.000000 0.000000 0.584787
O O18 0.250000 0.698486 0.570474
O O19 0.989745 0.678070 0.525299
O O20 0.750000 0.898760 0.705204
O O21 0.500000 0.500000 0.504959
O O22 0.250000 0.406769 0.490702
#
# Coordination Sequence:
#
# PCOD8191785 Si02
#       8
#     8   8   8   8   8   8   8   8
#     4  10  20  36  56  78 102 129 162 204 254 308
#     4  10  19  32  49  72 102 138 175 211 250 295
#     4   9  17  30  47  70  98 131 169 208 246 290
#     4   9  19  34  52  73 102 137 171 207 252 303
#     4  10  20  33  51  74 105 141 176 212 251 296
#     4  10  20  35  54  77 104 136 171 211 256 303
#     4   9  17  29  47  70  99 132 169 209 247 289
#     4  11  22  37  57  80 104 130 162 206 256 310
#
# _framework density 18.163270000000001
#
# number of rings (size 3 to 8) (size 9 to 14) (size 15 to 20)
#    0.000    2.250    0.000    4.125    0.000    7.000 
#    0.000    3.750    0.000    0.750    0.000    1.750 
#    0.000    0.000    0.000    0.000    0.000    0.000 
#
# Total GULP energy -396755.258484 kJ/mol
# GULP energy per Si atom -12398.601828 kJ/mol
# Density = 1.812193 g / cm^3
# Si number density = 18.163270 Si / 1000 Ang^3
#
#
#
# Elastic Constant Matrix: (Units=GPa)
#
#
# Indices 1 2 3 4 5 6 
#
# 1 106.4895 45.8083 47.8176 0.0000 0.0000 0.0000
# 2 45.8083 100.1161 57.0847 0.0000 0.0000 0.0000
# 3 47.8176 57.0847 100.0049 0.0000 0.0000 0.0000
# 4 0.0000 0.0000 0.0000 22.3171 0.0000 0.0000
# 5 0.0000 0.0000 0.0000 0.0000 29.0315 0.0000
# 6 0.0000 0.0000 0.0000 0.0000 0.0000 29.7143
#
#
#
# Elastic Compliance Matrix: (Units=1/GPa)
#
#
# Indices 1 2 3 4 5 6 
#
# 1 0.012731 -0.003490 -0.004095 0.000000 0.000000 0.000000
# 2 -0.003490 0.015765 -0.007330 0.000000 0.000000 0.000000
# 3 -0.004095 -0.007330 0.016142 0.000000 0.000000 0.000000
# 4 0.000000 0.000000 0.000000 0.044809 0.000000 0.000000
# 5 0.000000 0.000000 0.000000 0.000000 0.034445 0.000000
# 6 0.000000 0.000000 0.000000 0.000000 0.000000 0.033654
#
#
# Mechanical properties :
#
#
# Convention : Reuss Voigt Hill
#
# Bulk Modulus (GPa) = 67.53603 67.55907 67.54755
# Shear Modulus (GPa) = 25.99956 26.60591 26.30274
#
# Velocity S-wave (km/s) = 3.78754 3.83145 3.80956
# Velocity P-wave (km/s) = 7.50938 7.53986 7.52463
#
# Compressibility (1/GPa) = 0.01480691
#
# Stress axis : x y z
#
# Youngs Moduli (GPa) = 78.55021 63.43261 61.95134
#
# Poissons Ratio (x) = 0.22138 0.25369
# Poissons Ratio (y) = 0.27414 0.45411
# Poissons Ratio (z) = 0.32167 0.46497
#
# Static dielectric constant tensor:
#      x y z
#    x 3.535250 0.000000 0.000000 
#    y 0.000000 3.483520 0.000000 
#    z 0.000000 0.000000 3.204360 
# 
# 
# High freq. dielectric constant tensor:
#      x y z
#    x 1.719940 0.000000 0.000000 
#    y 0.000000 1.700380 0.000000 
#    z 0.000000 0.000000 1.677440 
# 
# From -- ./inp_files/23222.got.cif
#   From: 2010.03.12/outbox.cif.g09.slc.cpg/sg46_12_cif.got.tgz:23222.got - 2010.04.14 02:56:35.
