data_PCOD8191537
_publ_section_title
;
Structure prediction by ZEFSAII (Michael W. Deem and Ramdas Pophale) SiO2 
 PCOD8191537
Probable space group: I M A 2
;
_chemical_formula_sum "Si O2"
_cell_formula_units_Z 64
_cell_length_a 16.078938
_cell_length_b 9.152542
_cell_length_c 21.805610
_cell_angle_alpha 90.000000
_cell_angle_beta 90.000000
_cell_angle_gamma 90.000000
_cell_volume 3208.982372
_symmetry_space_group_name_H-M "I M A 2"
_symmetry_group_IT_number 46
_symmetry_cell_setting 'orthorhombic'
loop_
_space_group_symop_operation_xyz
x,y,z
-x,-y,z
1/2-x,y,z
1/2+x,-y,z
1/2+x,1/2+y,1/2+z
1/2-x,1/2-y,1/2+z
-x,1/2+y,1/2+z
x,1/2-y,1/2+z
loop_
_atom_site_type_symbol
_atom_site_label
_atom_site_fract_x
_atom_site_fract_y
_atom_site_fract_z
Si Si1 0.345805 0.224537 0.164360
Si Si2 0.906411 0.945122 0.574309
Si Si3 0.086583 0.434486 0.258764
Si Si4 0.081887 0.905531 0.348299
Si Si5 0.029662 0.348187 0.389078
Si Si6 0.158263 0.846077 0.676786
Si Si7 0.655067 0.882147 0.442246
Si Si8 0.591917 0.440703 0.711332
O O1 0.250000 0.274727 0.158857
O O2 0.396971 0.284030 0.105170
O O3 0.389946 0.283719 0.225945
O O4 0.349854 0.050358 0.172606
O O5 0.862412 0.945786 0.508988
O O6 0.857397 0.054653 0.618021
O O7 0.000000 0.000000 0.566280
O O8 0.082949 0.400729 0.330430
O O9 0.153179 0.557391 0.239273
O O10 0.000000 0.500000 0.232985
O O11 0.123904 0.909416 0.280979
O O12 0.053066 0.742373 0.368791
O O13 0.144475 0.981483 0.395963
O O14 0.000000 0.000000 0.346307
O O15 0.091223 0.252311 0.430901
O O16 0.000000 0.500000 0.422344
O O17 0.250000 0.778633 0.673619
O O18 0.093335 0.713182 0.676276
O O19 0.750000 0.825271 0.437375
O O20 0.500000 0.500000 0.711301
#
# Coordination Sequence:
#
# PCOD8191537 Si02
#       8
#     8   8   8   8   8   8   8   8
#     4  11  21  33  53  83 117 147 184 236 287 330
#     4  11  22  41  63  80 104 148 198 233 276 345
#     4  10  18  33  55  80 110 151 189 223 271 337
#     4   9  19  36  58  84 115 155 198 234 276 343
#     4  10  20  37  60  85 117 154 194 237 285 346
#     4  11  22  35  55  86 120 150 187 236 288 339
#     4  11  23  40  62  86 114 150 195 244 291 340
#     4  11  20  35  56  84 119 153 190 231 282 340
#
# _framework density 19.944018
#
# number of rings (size 3 to 8) (size 9 to 14) (size 15 to 20)
#    0.000    1.500    0.000   10.500    0.000    3.000 
#    0.000    3.750    0.000    0.000    0.000    0.000 
#    0.000    0.000    0.000    0.000    0.000    0.000 
#
# Total GULP energy -396659.792520 kJ/mol
# GULP energy per Si atom -12395.618516 kJ/mol
# Density = 1.989862 g / cm^3
# Si number density = 19.944018 Si / 1000 Ang^3
#
#
#
# Elastic Constant Matrix: (Units=GPa)
#
#
# Indices 1 2 3 4 5 6 
#
# 1 87.3813 27.8959 34.0227 0.0000 0.0000 0.0000
# 2 27.8959 130.3361 43.6264 0.0000 0.0000 0.0000
# 3 34.0227 43.6264 99.1069 0.0000 0.0000 0.0000
# 4 0.0000 0.0000 0.0000 14.8453 0.0000 0.0000
# 5 0.0000 0.0000 0.0000 0.0000 31.6412 0.0000
# 6 0.0000 0.0000 0.0000 0.0000 0.0000 31.8174
#
#
#
# Elastic Compliance Matrix: (Units=1/GPa)
#
#
# Indices 1 2 3 4 5 6 
#
# 1 0.013477 -0.001567 -0.003937 0.000000 0.000000 0.000000
# 2 -0.001567 0.009180 -0.003503 0.000000 0.000000 0.000000
# 3 -0.003937 -0.003503 0.012984 0.000000 0.000000 0.000000
# 4 0.000000 0.000000 0.000000 0.067361 0.000000 0.000000
# 5 0.000000 0.000000 0.000000 0.000000 0.031604 0.000000
# 6 0.000000 0.000000 0.000000 0.000000 0.000000 0.031429
#
#
# Mechanical properties :
#
#
# Convention : Reuss Voigt Hill
#
# Bulk Modulus (GPa) = 56.73000 58.65713 57.69356
# Shear Modulus (GPa) = 26.32600 29.74607 28.03603
#
# Velocity S-wave (km/s) = 3.63711 3.86616 3.75338
# Velocity P-wave (km/s) = 6.79297 7.02882 6.91190
#
# Compressibility (1/GPa) = 0.01762736
#
# Stress axis : x y z
#
# Youngs Moduli (GPa) = 74.19963 108.92718 77.01913
#
# Poissons Ratio (x) = 0.17066 0.30322
# Poissons Ratio (y) = 0.11625 0.26982
# Poissons Ratio (z) = 0.29212 0.38161
#
# Static dielectric constant tensor:
#      x y z
#    x 3.582430 0.000000 0.000000 
#    y 0.000000 3.960180 0.000000 
#    z 0.000000 0.000000 3.548030 
# 
# 
# High freq. dielectric constant tensor:
#      x y z
#    x 1.771920 0.000000 0.000000 
#    y 0.000000 1.786370 0.000000 
#    z 0.000000 0.000000 1.757500 
# 
# From -- ./inp_files/23708.got.cif
#   From: 2010.03.12/outbox.cif.g09.slc.cpg/sg46_12_cif.got.tgz:23708.got - 2010.04.14 02:56:35.
