data_PCOD8191219
_publ_section_title
;
Structure prediction by ZEFSAII (Michael W. Deem and Ramdas Pophale) SiO2 
 PCOD8191219
Probable space group: I M A 2
;
_chemical_formula_sum "Si O2"
_cell_formula_units_Z 64
_cell_length_a 16.823660
_cell_length_b 12.015273
_cell_length_c 18.453723
_cell_angle_alpha 90.000000
_cell_angle_beta 90.000000
_cell_angle_gamma 90.000000
_cell_volume 3730.251581
_symmetry_space_group_name_H-M "I M A 2"
_symmetry_group_IT_number 46
_symmetry_cell_setting 'orthorhombic'
loop_
_space_group_symop_operation_xyz
x,y,z
-x,-y,z
1/2-x,y,z
1/2+x,-y,z
1/2+x,1/2+y,1/2+z
1/2-x,1/2-y,1/2+z
-x,1/2+y,1/2+z
x,1/2-y,1/2+z
loop_
_atom_site_type_symbol
_atom_site_label
_atom_site_fract_x
_atom_site_fract_y
_atom_site_fract_z
Si Si1 0.421162 0.327907 0.394030
Si Si2 0.966846 0.877001 0.199847
Si Si3 0.660696 0.283424 0.490303
Si Si4 0.841038 0.397405 0.882625
Si Si5 0.838931 0.054852 0.853089
Si Si6 0.659118 0.629956 0.824177
Si Si7 0.498017 0.371753 0.538427
Si Si8 0.565030 0.270088 0.292636
O O1 0.389426 0.449197 0.375248
O O2 0.354813 0.238432 0.372885
O O3 0.443580 0.311803 0.478460
O O4 0.500503 0.308225 0.350306
O O5 0.888362 0.865526 0.248502
O O6 0.951919 0.858993 0.114585
O O7 0.026143 0.774386 0.218784
O O8 0.000000 0.000000 0.214092
O O9 0.750000 0.291986 0.526562
O O10 0.644096 0.156323 0.462652
O O11 0.660081 0.359329 0.419160
O O12 0.588880 0.322435 0.542975
O O13 0.750000 0.379474 0.861223
O O14 0.864793 0.527308 0.877063
O O15 0.891238 0.338527 0.821126
O O16 0.750000 0.018285 0.832133
O O17 0.877142 0.122081 0.784231
O O18 0.750000 0.623600 0.800238
O O19 0.500000 0.500000 0.515604
#
# Coordination Sequence:
#
# PCOD8191219 Si02
#       8
#     8   8   8   8   8   8   8   8
#     4  11  19  31  54  76 105 135 177 216 260 309
#     4  10  21  33  52  77 109 140 171 207 269 322
#     4   9  17  30  50  75 104 133 164 219 267 303
#     4   9  16  29  51  76 100 130 176 221 262 300
#     4  10  18  30  49  78 102 130 174 220 264 302
#     4  10  21  36  53  77 106 140 177 219 263 315
#     4  11  19  34  50  78 111 141 167 213 264 326
#     4  10  17  31  52  75  99 134 171 219 261 302
#
# _framework density 17.157019999999999
#
# number of rings (size 3 to 8) (size 9 to 14) (size 15 to 20)
#    0.000    2.000    5.000    1.875    0.000    0.000 
#    0.000    5.000    0.000    6.000    0.000    5.250 
#    0.000    0.000    0.000    0.000    0.000    0.000 
#
# Total GULP energy -396493.594628 kJ/mol
# GULP energy per Si atom -12390.424832 kJ/mol
# Density = 1.711797 g / cm^3
# Si number density = 17.157020 Si / 1000 Ang^3
#
#
#
# Elastic Constant Matrix: (Units=GPa)
#
#
# Indices 1 2 3 4 5 6 
#
# 1 73.7997 33.9204 37.6871 0.0000 0.0000 0.0000
# 2 33.9204 80.2628 37.1800 0.0000 0.0000 0.0000
# 3 37.6871 37.1800 79.5487 0.0000 0.0000 0.0000
# 4 0.0000 0.0000 0.0000 12.9761 0.0000 0.0000
# 5 0.0000 0.0000 0.0000 0.0000 19.5834 0.0000
# 6 0.0000 0.0000 0.0000 0.0000 0.0000 30.3818
#
#
#
# Elastic Compliance Matrix: (Units=1/GPa)
#
#
# Indices 1 2 3 4 5 6 
#
# 1 0.019336 -0.005014 -0.006817 0.000000 0.000000 0.000000
# 2 -0.005014 0.017202 -0.005665 0.000000 0.000000 0.000000
# 3 -0.006817 -0.005665 0.018448 0.000000 0.000000 0.000000
# 4 0.000000 0.000000 0.000000 0.077065 0.000000 0.000000
# 5 0.000000 0.000000 0.000000 0.000000 0.051064 0.000000
# 6 0.000000 0.000000 0.000000 0.000000 0.000000 0.032914
#
#
# Mechanical properties :
#
#
# Convention : Reuss Voigt Hill
#
# Bulk Modulus (GPa) = 50.01282 50.13178 50.07230
# Shear Modulus (GPa) = 19.40351 20.90985 20.15668
#
# Velocity S-wave (km/s) = 3.36659 3.49482 3.43131
# Velocity P-wave (km/s) = 6.65772 6.75040 6.70422
#
# Compressibility (1/GPa) = 0.01999487
#
# Stress axis : x y z
#
# Youngs Moduli (GPa) = 51.71690 58.13276 54.20564
#
# Poissons Ratio (x) = 0.29147 0.36954
# Poissons Ratio (y) = 0.25930 0.30706
# Poissons Ratio (z) = 0.35257 0.32930
#
# Static dielectric constant tensor:
#      x y z
#    x 3.309370 0.000000 0.000000 
#    y 0.000000 3.698380 0.000000 
#    z 0.000000 0.000000 2.880010 
# 
# 
# High freq. dielectric constant tensor:
#      x y z
#    x 1.672690 0.000000 0.000000 
#    y 0.000000 1.668630 0.000000 
#    z 0.000000 0.000000 1.617060 
# 
# From -- ./inp_files/19615.got.cif
#   From: 2010.03.12/outbox.cif.g09.slc.cpg/sg46_10_cif.got.tgz:19615.got - 2010.04.14 02:56:35.
