data_PCOD8191299
_publ_section_title
;
Structure prediction by ZEFSAII (Michael W. Deem and Ramdas Pophale) SiO2 
 PCOD8191299
Probable space group: I M A 2
;
_chemical_formula_sum "Si O2"
_cell_formula_units_Z 64
_cell_length_a 8.857880
_cell_length_b 26.362993
_cell_length_c 18.401654
_cell_angle_alpha 90.000000
_cell_angle_beta 90.000000
_cell_angle_gamma 90.000000
_cell_volume 4297.158446
_symmetry_space_group_name_H-M "I M A 2"
_symmetry_group_IT_number 46
_symmetry_cell_setting 'orthorhombic'
loop_
_space_group_symop_operation_xyz
x,y,z
-x,-y,z
1/2-x,y,z
1/2+x,-y,z
1/2+x,1/2+y,1/2+z
1/2-x,1/2-y,1/2+z
-x,1/2+y,1/2+z
x,1/2-y,1/2+z
loop_
_atom_site_type_symbol
_atom_site_label
_atom_site_fract_x
_atom_site_fract_y
_atom_site_fract_z
Si Si1 0.427956 0.748528 0.351290
Si Si2 0.575988 0.297122 0.635265
Si Si3 0.071624 0.252025 0.506725
Si Si4 0.574162 0.791486 0.721062
Si Si5 0.571723 0.551617 0.011209
Si Si6 0.575545 0.650525 0.086014
Si Si7 0.575861 0.146647 0.275018
Si Si8 0.426728 0.051613 0.344927
O O1 0.250000 0.739843 0.346408
O O2 0.484263 0.740546 0.432334
O O3 0.512925 0.704834 0.303428
O O4 0.474955 0.804165 0.321847
O O5 0.750000 0.292775 0.612261
O O6 0.474997 0.297718 0.561942
O O7 0.531444 0.249662 0.683982
O O8 0.549767 0.345415 0.688223
O O9 0.250000 0.253347 0.493715
O O10 0.013137 0.199340 0.542300
O O11 0.750000 0.775153 0.719062
O O12 0.551877 0.842907 0.673290
O O13 0.500000 0.500000 0.041709
O O14 0.750000 0.547035 0.019698
O O15 0.522725 0.560880 0.928011
O O16 0.501461 0.598221 0.058048
O O17 0.750000 0.647319 0.065883
O O18 0.750000 0.134924 0.291641
O O19 0.476394 0.099046 0.297127
O O20 0.250000 0.045216 0.338274
O O21 0.500000 0.000000 0.314526
#
# Coordination Sequence:
#
# PCOD8191299 Si02
#       8
#     8   8   8   8   8   8   8   8
#     4  10  19  29  41  60  86 113 138 172 212 248
#     4   9  17  29  42  59  84 110 134 169 212 249
#     4  10  18  28  43  62  82 109 144 175 202 245
#     4   9  16  27  42  59  79 107 140 172 203 243
#     4   9  17  29  41  57  80 106 136 171 207 240
#     4   8  15  27  42  58  79 106 137 171 205 237
#     4   9  18  30  43  59  82 111 142 171 206 250
#     4  10  19  29  43  60  82 110 141 177 212 244
#
# _framework density 14.893561999999999
#
# number of rings (size 3 to 8) (size 9 to 14) (size 15 to 20)
#    0.000    2.750    0.000    4.125    0.000    4.500 
#    0.000    3.750    0.000    0.000    0.000    0.000 
#    0.000    1.000    0.000    9.250    0.000    3.875 
#
# Total GULP energy -396571.913723 kJ/mol
# GULP energy per Si atom -12392.872304 kJ/mol
# Density = 1.485966 g / cm^3
# Si number density = 14.893562 Si / 1000 Ang^3
#
#
#
# Elastic Constant Matrix: (Units=GPa)
#
#
# Indices 1 2 3 4 5 6 
#
# 1 42.9890 31.9758 24.6657 0.0000 0.0000 0.0000
# 2 31.9758 71.7602 47.1377 0.0000 0.0000 0.0000
# 3 24.6657 47.1377 96.4915 0.0000 0.0000 0.0000
# 4 0.0000 0.0000 0.0000 22.0322 0.0000 0.0000
# 5 0.0000 0.0000 0.0000 0.0000 24.8730 0.0000
# 6 0.0000 0.0000 0.0000 0.0000 0.0000 20.3480
#
#
#
# Elastic Compliance Matrix: (Units=1/GPa)
#
#
# Indices 1 2 3 4 5 6 
#
# 1 0.035043 -0.014329 -0.001958 0.000000 0.000000 0.000000
# 2 -0.014329 0.026379 -0.009224 0.000000 0.000000 0.000000
# 3 -0.001958 -0.009224 0.015370 0.000000 0.000000 0.000000
# 4 0.000000 0.000000 0.000000 0.045388 0.000000 0.000000
# 5 0.000000 0.000000 0.000000 0.000000 0.040204 0.000000
# 6 0.000000 0.000000 0.000000 0.000000 0.000000 0.049145
#
#
# Mechanical properties :
#
#
# Convention : Reuss Voigt Hill
#
# Bulk Modulus (GPa) = 38.80325 46.53323 42.66824
# Shear Modulus (GPa) = 18.44057 20.61473 19.52765
#
# Velocity S-wave (km/s) = 3.52256 3.72443 3.62490
# Velocity P-wave (km/s) = 6.53107 7.05740 6.79933
#
# Compressibility (1/GPa) = 0.02577104
#
# Stress axis : x y z
#
# Youngs Moduli (GPa) = 28.53621 37.90896 65.06125
#
# Poissons Ratio (x) = 0.54319 0.12740
# Poissons Ratio (y) = 0.40889 0.60011
# Poissons Ratio (z) = 0.05588 0.34966
#
# Static dielectric constant tensor:
#      x y z
#    x 2.869120 0.000000 0.000000 
#    y 0.000000 2.805250 0.000000 
#    z 0.000000 0.000000 3.088110 
# 
# 
# High freq. dielectric constant tensor:
#      x y z
#    x 1.575560 0.000000 0.000000 
#    y 0.000000 1.531850 0.000000 
#    z 0.000000 0.000000 1.563660 
# 
# From -- ./inp_files/18635.got.cif
#   From: 2010.03.12/outbox.cif.g09.slc.cpg/sg46_10_cif.got.tgz:18635.got - 2010.04.14 02:56:35.
