data_PCOD8191258
_publ_section_title
;
Structure prediction by ZEFSAII (Michael W. Deem and Ramdas Pophale) SiO2 
 PCOD8191258
Probable space group: I M A 2
;
_chemical_formula_sum "Si O2"
_cell_formula_units_Z 64
_cell_length_a 8.804480
_cell_length_b 25.066313
_cell_length_c 20.386337
_cell_angle_alpha 90.000000
_cell_angle_beta 90.000000
_cell_angle_gamma 90.000000
_cell_volume 4499.180003
_symmetry_space_group_name_H-M "I M A 2"
_symmetry_group_IT_number 46
_symmetry_cell_setting 'orthorhombic'
loop_
_space_group_symop_operation_xyz
x,y,z
-x,-y,z
1/2-x,y,z
1/2+x,-y,z
1/2+x,1/2+y,1/2+z
1/2-x,1/2-y,1/2+z
-x,1/2+y,1/2+z
x,1/2-y,1/2+z
loop_
_atom_site_type_symbol
_atom_site_label
_atom_site_fract_x
_atom_site_fract_y
_atom_site_fract_z
Si Si1 0.430093 0.947442 0.329760
Si Si2 0.426089 0.083746 0.197865
Si Si3 0.570915 0.332339 0.871737
Si Si4 0.922849 0.703574 0.744446
Si Si5 0.930234 0.055267 0.059571
Si Si6 0.924582 0.273535 0.622033
Si Si7 0.423606 0.741458 0.985641
Si Si8 0.928751 0.842455 0.021557
O O1 0.250000 0.951138 0.329046
O O2 0.495227 0.948265 0.256521
O O3 0.485709 0.893638 0.367511
O O4 0.500000 0.000000 0.365630
O O5 0.250000 0.067350 0.192198
O O6 0.444521 0.145760 0.213459
O O7 0.511102 0.066918 0.132393
O O8 0.750000 0.330679 0.862729
O O9 0.500599 0.294782 0.815420
O O10 0.517136 0.307800 0.941687
O O11 0.750000 0.721344 0.752832
O O12 0.004212 0.743909 0.692147
O O13 0.750000 0.052780 0.058610
O O14 0.989209 0.100978 0.009124
O O15 0.000000 0.000000 0.033846
O O16 0.750000 0.290408 0.632376
O O17 0.937994 0.228004 0.564332
O O18 0.019778 0.324481 0.594961
O O19 0.250000 0.753710 0.967193
O O20 0.516964 0.796271 0.970465
O O21 0.750000 0.850347 0.018188
#
# Coordination Sequence:
#
# PCOD8191258 Si02
#       8
#     8   8   8   8   8   8   8   8
#     4  10  19  29  40  53  75 105 136 170 206 243
#     4  10  18  28  39  52  74 103 138 174 205 239
#     4   9  18  31  45  60  80 107 142 175 208 248
#     4  10  18  26  40  61  84 106 136 175 210 243
#     4  12  22  30  40  55  77 105 138 174 206 240
#     4   9  16  27  44  59  77 105 135 166 205 246
#     4   8  16  30  46  61  76 102 138 172 207 252
#     4  10  18  29  43  59  78 101 132 168 207 247
#
# _framework density 14.224814
#
# number of rings (size 3 to 8) (size 9 to 14) (size 15 to 20)
#    0.750    1.500    1.250    3.750    0.000    2.000 
#    0.000    0.000    0.000    0.000    0.000    0.000 
#    0.000    0.000    0.000    1.125    0.000   14.750 
#
# Total GULP energy -396417.721380 kJ/mol
# GULP energy per Si atom -12388.053793 kJ/mol
# Density = 1.419244 g / cm^3
# Si number density = 14.224814 Si / 1000 Ang^3
#
#
#
# Elastic Constant Matrix: (Units=GPa)
#
#
# Indices 1 2 3 4 5 6 
#
# 1 80.9844 31.2621 24.8827 0.0000 0.0000 0.0000
# 2 31.2621 70.2623 39.6515 -0.0001 0.0000 0.0000
# 3 24.8827 39.6515 63.2373 0.0000 0.0000 0.0000
# 4 0.0000 -0.0001 0.0000 19.8427 0.0000 0.0000
# 5 0.0000 0.0000 0.0000 0.0000 14.7910 0.0000
# 6 0.0000 0.0000 0.0000 0.0000 0.0000 17.7163
#
#
#
# Elastic Compliance Matrix: (Units=1/GPa)
#
#
# Indices 1 2 3 4 5 6 
#
# 1 0.015199 -0.005243 -0.002693 0.000000 0.000000 0.000000
# 2 -0.005243 0.023835 -0.012882 0.000000 0.000000 0.000000
# 3 -0.002693 -0.012882 0.024951 0.000000 0.000000 0.000000
# 4 0.000000 0.000000 0.000000 0.050396 0.000000 0.000000
# 5 0.000000 0.000000 0.000000 0.000000 0.067609 0.000000
# 6 0.000000 0.000000 0.000000 0.000000 0.000000 0.056445
#
#
# Mechanical properties :
#
#
# Convention : Reuss Voigt Hill
#
# Bulk Modulus (GPa) = 44.74587 45.11963 44.93275
# Shear Modulus (GPa) = 17.39001 18.38252 17.88627
#
# Velocity S-wave (km/s) = 3.50024 3.59874 3.54983
# Velocity P-wave (km/s) = 6.91810 7.00398 6.96117
#
# Compressibility (1/GPa) = 0.02234843
#
# Stress axis : x y z
#
# Youngs Moduli (GPa) = 65.79184 41.95514 40.07903
#
# Poissons Ratio (x) = 0.21996 0.10795
# Poissons Ratio (y) = 0.34493 0.51631
# Poissons Ratio (z) = 0.17720 0.54047
#
# Static dielectric constant tensor:
#      x y z
#    x 2.843470 0.000000 0.000000 
#    y 0.000000 2.794980 0.000000 
#    z 0.000000 0.000000 2.671520 
# 
# 
# High freq. dielectric constant tensor:
#      x y z
#    x 1.559290 0.000000 0.000000 
#    y 0.000000 1.513900 0.000000 
#    z 0.000000 0.000000 1.504190 
# 
# From -- ./inp_files/21518.got.cif
#   From: 2010.03.12/outbox.cif.g09.slc.cpg/sg46_11_cif.got.tgz:21518.got - 2010.04.14 02:56:35.
