data_PCOD8191377
_publ_section_title
;
Structure prediction by ZEFSAII (Michael W. Deem and Ramdas Pophale) SiO2 
 PCOD8191377
Probable space group: I M A 2
;
_chemical_formula_sum "Si O2"
_cell_formula_units_Z 64
_cell_length_a 13.875808
_cell_length_b 14.037656
_cell_length_c 18.552321
_cell_angle_alpha 90.000000
_cell_angle_beta 90.000000
_cell_angle_gamma 90.000000
_cell_volume 3613.691944
_symmetry_space_group_name_H-M "I M A 2"
_symmetry_group_IT_number 46
_symmetry_cell_setting 'orthorhombic'
loop_
_space_group_symop_operation_xyz
x,y,z
-x,-y,z
1/2-x,y,z
1/2+x,-y,z
1/2+x,1/2+y,1/2+z
1/2-x,1/2-y,1/2+z
-x,1/2+y,1/2+z
x,1/2-y,1/2+z
loop_
_atom_site_type_symbol
_atom_site_label
_atom_site_fract_x
_atom_site_fract_y
_atom_site_fract_z
Si Si1 0.024145 0.147138 0.161390
Si Si2 0.360411 0.189173 0.735576
Si Si3 0.019593 0.262607 0.023107
Si Si4 0.363524 0.589285 0.002351
Si Si5 0.639240 0.576221 0.101290
Si Si6 0.862837 0.960445 0.371184
Si Si7 0.861928 0.755554 0.890487
Si Si8 0.636611 0.025782 0.213917
O O1 0.067427 0.231409 0.208245
O O2 0.006341 0.178413 0.079733
O O3 0.918815 0.121994 0.192729
O O4 0.098474 0.058971 0.162755
O O5 0.250000 0.224965 0.724989
O O6 0.378203 0.093261 0.687514
O O7 0.379488 0.175632 0.820934
O O8 0.086280 0.346422 0.052972
O O9 0.916549 0.309046 0.003035
O O10 0.070412 0.210129 0.955522
O O11 0.250000 0.610224 0.995854
O O12 0.389506 0.530805 0.076421
O O13 0.403962 0.525790 0.935735
O O14 0.750000 0.591703 0.081031
O O15 0.750000 0.960526 0.378438
O O16 0.894963 0.004186 0.295518
O O17 0.898181 0.851731 0.373790
O O18 0.750000 0.758971 0.913346
O O19 0.750000 0.039951 0.203632
#
# Coordination Sequence:
#
# PCOD8191377 Si02
#       8
#     8   8   8   8   8   8   8   8
#     4  10  21  32  48  76  99 131 170 198 252 307
#     4   9  17  30  48  71 103 133 164 204 244 288
#     4  11  21  30  47  74 103 133 164 205 248 295
#     4  10  20  32  47  72 105 138 167 198 241 299
#     4   9  17  30  46  69 101 134 167 200 239 291
#     4   9  17  29  47  75 100 127 161 190 246 308
#     4  10  18  29  48  76 104 129 161 203 251 299
#     4  10  20  35  54  73 100 130 163 209 250 299
#
# _framework density 17.710419000000002
#
# number of rings (size 3 to 8) (size 9 to 14) (size 15 to 20)
#    0.000    2.250    2.500    1.125    1.750    2.000 
#    0.000    0.000    0.000    0.000   13.000    0.000 
#    0.000    0.000    0.000    0.000    0.000    0.000 
#
# Total GULP energy -396635.839462 kJ/mol
# GULP energy per Si atom -12394.869983 kJ/mol
# Density = 1.767011 g / cm^3
# Si number density = 17.710419 Si / 1000 Ang^3
#
#
#
# Elastic Constant Matrix: (Units=GPa)
#
#
# Indices 1 2 3 4 5 6 
#
# 1 76.7731 25.7261 40.4992 0.0000 0.0000 0.0000
# 2 25.7261 42.7096 42.8761 0.0000 0.0000 0.0000
# 3 40.4992 42.8761 133.3635 0.0000 0.0000 0.0000
# 4 0.0000 0.0000 0.0000 14.3513 0.0000 0.0000
# 5 0.0000 0.0000 0.0000 0.0000 16.0804 0.0000
# 6 0.0000 0.0000 0.0000 0.0000 0.0000 17.2458
#
#
#
# Elastic Compliance Matrix: (Units=1/GPa)
#
#
# Indices 1 2 3 4 5 6 
#
# 1 0.016980 -0.007459 -0.002758 0.000000 0.000000 0.000000
# 2 -0.007459 0.037848 -0.009903 0.000000 0.000000 0.000000
# 3 -0.002758 -0.009903 0.011520 0.000000 0.000000 0.000000
# 4 0.000000 0.000000 0.000000 0.069680 0.000000 0.000000
# 5 0.000000 0.000000 0.000000 0.000000 0.062188 0.000000
# 6 0.000000 0.000000 0.000000 0.000000 0.000000 0.057985
#
#
# Mechanical properties :
#
#
# Convention : Reuss Voigt Hill
#
# Bulk Modulus (GPa) = 38.30297 52.33876 45.32087
# Shear Modulus (GPa) = 16.38569 19.11847 17.75208
#
# Velocity S-wave (km/s) = 3.04501 3.28915 3.16943
# Velocity P-wave (km/s) = 5.83413 6.63636 6.24814
#
# Compressibility (1/GPa) = 0.02610763
#
# Stress axis : x y z
#
# Youngs Moduli (GPa) = 58.89332 26.42113 86.80688
#
# Poissons Ratio (x) = 0.19707 0.23945
# Poissons Ratio (y) = 0.43926 0.85967
# Poissons Ratio (z) = 0.16245 0.26165
#
# Static dielectric constant tensor:
#      x y z
#    x 3.286640 0.000000 0.000000 
#    y 0.000000 3.026850 0.000000 
#    z 0.000000 0.000000 3.614780 
# 
# 
# High freq. dielectric constant tensor:
#      x y z
#    x 1.690060 0.000000 0.000000 
#    y 0.000000 1.636280 0.000000 
#    z 0.000000 0.000000 1.687810 
# 
# From -- ./inp_files/19730.got.cif
#   From: 2010.03.12/outbox.cif.g09.slc.cpg/sg46_10_cif.got.tgz:19730.got - 2010.04.14 02:56:35.
