data_PCOD8191579
_publ_section_title
;
Structure prediction by ZEFSAII (Michael W. Deem and Ramdas Pophale) SiO2 
 PCOD8191579
Probable space group: I M A 2
;
_chemical_formula_sum "Si O2"
_cell_formula_units_Z 64
_cell_length_a 13.644108
_cell_length_b 24.338061
_cell_length_c 9.113682
_cell_angle_alpha 90.000000
_cell_angle_beta 90.000000
_cell_angle_gamma 90.000000
_cell_volume 3026.390706
_symmetry_space_group_name_H-M "I M A 2"
_symmetry_group_IT_number 46
_symmetry_cell_setting 'orthorhombic'
loop_
_space_group_symop_operation_xyz
x,y,z
-x,-y,z
1/2-x,y,z
1/2+x,-y,z
1/2+x,1/2+y,1/2+z
1/2-x,1/2-y,1/2+z
-x,1/2+y,1/2+z
x,1/2-y,1/2+z
loop_
_atom_site_type_symbol
_atom_site_label
_atom_site_fract_x
_atom_site_fract_y
_atom_site_fract_z
Si Si1 0.854435 0.598710 0.771300
Si Si2 0.144578 0.582056 0.064730
Si Si3 0.046121 0.881544 0.108887
Si Si4 0.363546 0.373175 0.101135
Si Si5 0.498069 0.562145 0.312959
Si Si6 0.365734 0.723868 0.736320
Si Si7 0.106186 0.981671 0.292518
Si Si8 0.542808 0.191781 0.529072
O O1 0.750000 0.627765 0.732795
O O2 0.844967 0.535164 0.718488
O O3 0.942583 0.629793 0.690948
O O4 0.870412 0.596225 0.945769
O O5 0.250000 0.604051 0.115368
O O6 0.093351 0.556953 0.205357
O O7 0.161381 0.536945 0.938813
O O8 0.081999 0.631011 0.995741
O O9 0.111227 0.826957 0.127064
O O10 0.105180 0.932963 0.174122
O O11 0.023888 0.893628 0.939434
O O12 0.250000 0.358223 0.140315
O O13 0.406633 0.414529 0.225579
O O14 0.429196 0.316738 0.081849
O O15 0.500000 0.500000 0.378338
O O16 0.250000 0.723368 0.778609
O O17 0.393739 0.780154 0.656262
O O18 0.437594 0.723673 0.877576
O O19 0.000000 0.000000 0.345360
#
# Coordination Sequence:
#
# PCOD8191579 Si02
#       8
#     8   8   8   8   8   8   8   8
#     4  10  19  36  64  91 117 160 210 259 312 374
#     4  11  21  37  60  88 122 163 210 260 313 378
#     4  11  23  40  58  88 132 167 206 263 317 378
#     4  10  22  44  69  93 127 170 217 269 321 380
#     4  11  23  38  58  91 137 177 211 260 311 373
#     4  12  25  43  68  95 125 164 205 262 331 390
#     4  10  18  34  59  87 120 160 208 254 309 372
#     4  11  24  44  66  95 126 157 211 267 325 386
#
# _framework density 21.147303000000001
#
# number of rings (size 3 to 8) (size 9 to 14) (size 15 to 20)
#    0.000    1.250    2.500    6.000    3.500    3.000 
#    0.000    2.500    0.000    0.000    0.000    0.000 
#    0.000    0.000    0.000    0.000    0.000    0.000 
#
# Total GULP energy -396573.371018 kJ/mol
# GULP energy per Si atom -12392.917844 kJ/mol
# Density = 2.109917 g / cm^3
# Si number density = 21.147303 Si / 1000 Ang^3
#
#
#
# Elastic Constant Matrix: (Units=GPa)
#
#
# Indices 1 2 3 4 5 6 
#
# 1 142.9311 25.0873 24.4249 -0.0005 0.0020 -0.0002
# 2 25.0873 59.6580 8.3535 -0.0098 -0.0028 -0.0001
# 3 24.4249 8.3535 72.5278 -0.0256 0.0252 0.0011
# 4 -0.0005 -0.0098 -0.0256 33.0336 0.0132 0.0004
# 5 0.0020 -0.0028 0.0252 0.0132 153.8038 -0.0034
# 6 -0.0002 -0.0001 0.0011 0.0004 -0.0034 19.4814
#
#
#
# Elastic Compliance Matrix: (Units=1/GPa)
#
#
# Indices 1 2 3 4 5 6 
#
# 1 0.007921 -0.003006 -0.002321 -0.000003 0.000000 0.000000
# 2 -0.003006 0.018178 -0.001081 0.000004 0.000001 0.000000
# 3 -0.002321 -0.001081 0.014694 0.000011 -0.000002 -0.000001
# 4 -0.000003 0.000004 0.000011 0.030272 -0.000003 -0.000001
# 5 0.000000 0.000001 -0.000002 -0.000003 0.006502 0.000001
# 6 0.000000 0.000000 -0.000001 -0.000001 0.000001 0.051331
#
#
# Mechanical properties :
#
#
# Convention : Reuss Voigt Hill
#
# Bulk Modulus (GPa) = 35.74541 43.42758 39.58650
# Shear Modulus (GPa) = 33.10400 55.74717 44.42559
#
# Velocity S-wave (km/s) = 3.96081 5.13990 4.58839
# Velocity P-wave (km/s) = 6.15281 7.47028 6.84333
#
# Compressibility (1/GPa) = 0.02797562
#
# Stress axis : x y z
#
# Youngs Moduli (GPa) = 126.25293 55.01271 68.05467
#
# Poissons Ratio (x) = 0.16535 0.15797
# Poissons Ratio (y) = 0.37948 0.07359
# Poissons Ratio (z) = 0.29306 0.05949
#
# Static dielectric constant tensor:
#      x y z
#    x 4.090970 0.000030 0.000030 
#    y 0.000030 3.765830 0.000000 
#    z 0.000030 0.000000 3.679980 
# 
# 
# High freq. dielectric constant tensor:
#      x y z
#    x 1.835210 0.000000 0.000000 
#    y 0.000000 1.812180 0.000000 
#    z 0.000000 0.000000 1.819930 
# 
# From -- ./inp_files/6117.got.cif
#   From: 2010.03.12/outbox.cif.g09.slc.cpg/sg46_4_cif.got.tgz:6117.got - 2010.04.14 02:56:35.
