data_PCOD8191510
_publ_section_title
;
Structure prediction by ZEFSAII (Michael W. Deem and Ramdas Pophale) SiO2 
 PCOD8191510
Probable space group: I M A 2
;
_chemical_formula_sum "Si O2"
_cell_formula_units_Z 48
_cell_length_a 8.580147
_cell_length_b 9.565869
_cell_length_c 30.692628
_cell_angle_alpha 90.000000
_cell_angle_beta 90.000000
_cell_angle_gamma 90.000000
_cell_volume 2519.145391
_symmetry_space_group_name_H-M "I M A 2"
_symmetry_group_IT_number 46
_symmetry_cell_setting 'orthorhombic'
loop_
_space_group_symop_operation_xyz
x,y,z
-x,-y,z
1/2-x,y,z
1/2+x,-y,z
1/2+x,1/2+y,1/2+z
1/2-x,1/2-y,1/2+z
-x,1/2+y,1/2+z
x,1/2-y,1/2+z
loop_
_atom_site_type_symbol
_atom_site_label
_atom_site_fract_x
_atom_site_fract_y
_atom_site_fract_z
Si Si1 0.434900 0.851490 0.737630
Si Si2 0.065679 0.344801 0.986564
Si Si3 0.433931 0.345846 0.809324
Si Si4 0.432425 0.645954 0.138935
Si Si5 0.565192 0.155512 0.397199
Si Si6 0.065338 0.655073 0.562458
O O1 0.250000 0.846022 0.743323
O O2 0.516179 0.735662 0.766581
O O3 0.488882 0.821731 0.687992
O O4 0.500000 0.000000 0.753184
O O5 0.250000 0.354994 0.985173
O O6 0.000000 0.500000 0.994688
O O7 0.003360 0.276762 0.941273
O O8 0.011768 0.241468 0.023940
O O9 0.500000 0.500000 0.804035
O O10 0.250000 0.351295 0.813787
O O11 0.504640 0.270514 0.852819
O O12 0.500000 0.500000 0.121309
O O13 0.250000 0.626838 0.138036
O O14 0.485130 0.772333 0.107826
O O15 0.750000 0.158064 0.399006
O O16 0.500000 0.000000 0.395328
O O17 0.250000 0.653277 0.556175
O O18 0.000000 0.500000 0.562703
#
# Coordination Sequence:
#
# PCOD8191510 Si02
#       6
#     8   8   8   8   8   8
#     4  10  20  37  57  82 112 146 184 227 274 326
#     4  11  21  36  58  84 111 145 185 228 271 323
#     4  11  21  35  55  82 113 148 185 228 275 325
#     4   9  20  37  59  82 108 141 184 228 271 323
#     4  10  18  32  54  81 110 143 182 228 271 319
#     4  11  23  39  56  81 113 147 182 225 277 330
#
# _framework density 19.054081
#
# number of rings (size 3 to 8) (size 9 to 14) (size 15 to 20)
#    0.000    1.667    0.000    8.000    0.000    4.000 
#    0.000    2.500    0.000    0.000    0.000    0.000 
#    0.000    0.000    0.000    0.000    0.000    0.000 
#
# Total GULP energy -297592.539207 kJ/mol
# GULP energy per Si atom -12399.689134 kJ/mol
# Density = 1.901071 g / cm^3
# Si number density = 19.054081 Si / 1000 Ang^3
#
#
#
# Elastic Constant Matrix: (Units=GPa)
#
#
# Indices 1 2 3 4 5 6 
#
# 1 145.4730 55.2073 66.5010 0.0000 0.0000 0.0000
# 2 55.2073 104.6206 75.8389 0.0000 0.0000 0.0000
# 3 66.5010 75.8389 143.7905 0.0000 0.0000 0.0000
# 4 0.0000 0.0000 0.0000 31.1325 0.0000 0.0000
# 5 0.0000 0.0000 0.0000 0.0000 39.1666 0.0000
# 6 0.0000 0.0000 0.0000 0.0000 0.0000 31.9112
#
#
#
# Elastic Compliance Matrix: (Units=1/GPa)
#
#
# Indices 1 2 3 4 5 6 
#
# 1 0.009221 -0.002873 -0.002749 0.000000 0.000000 0.000000
# 2 -0.002873 0.016370 -0.007305 0.000000 0.000000 0.000000
# 3 -0.002749 -0.007305 0.012079 0.000000 0.000000 0.000000
# 4 0.000000 0.000000 0.000000 0.032121 0.000000 0.000000
# 5 0.000000 0.000000 0.000000 0.000000 0.025532 0.000000
# 6 0.000000 0.000000 0.000000 0.000000 0.000000 0.031337
#
#
# Mechanical properties :
#
#
# Convention : Reuss Voigt Hill
#
# Bulk Modulus (GPa) = 84.63760 87.66427 86.15093
# Shear Modulus (GPa) = 31.95838 33.53119 32.74479
#
# Velocity S-wave (km/s) = 4.09986 4.19954 4.15000
# Velocity P-wave (km/s) = 8.18095 8.34403 8.26289
#
# Compressibility (1/GPa) = 0.01181508
#
# Stress axis : x y z
#
# Youngs Moduli (GPa) = 108.44483 61.08789 82.78757
#
# Poissons Ratio (x) = 0.17550 0.22762
# Poissons Ratio (y) = 0.31155 0.60478
# Poissons Ratio (z) = 0.29816 0.44626
#
# Static dielectric constant tensor:
#      x y z
#    x 3.618640 0.000000 0.000000 
#    y 0.000000 3.276660 0.000000 
#    z 0.000000 0.000000 4.451540 
# 
# 
# High freq. dielectric constant tensor:
#      x y z
#    x 1.759010 0.000000 0.000000 
#    y 0.000000 1.712560 0.000000 
#    z 0.000000 0.000000 1.763190 
# 
# From -- ./inp_files/24993.got.cif
#   From: 2010.03.12/outbox.cif.g09.slc.cpg/sg46_13_cif.got.tgz:24993.got - 2010.04.14 02:56:35.
