data_PCOD8191683
_publ_section_title
;
Structure prediction by ZEFSAII (Michael W. Deem and Ramdas Pophale) SiO2 
 PCOD8191683
Probable space group: I M A 2
;
_chemical_formula_sum "Si O2"
_cell_formula_units_Z 56
_cell_length_a 9.159322
_cell_length_b 21.129944
_cell_length_c 14.188610
_cell_angle_alpha 90.000000
_cell_angle_beta 90.000000
_cell_angle_gamma 90.000000
_cell_volume 2746.006271
_symmetry_space_group_name_H-M "I M A 2"
_symmetry_group_IT_number 46
_symmetry_cell_setting 'orthorhombic'
loop_
_space_group_symop_operation_xyz
x,y,z
-x,-y,z
1/2-x,y,z
1/2+x,-y,z
1/2+x,1/2+y,1/2+z
1/2-x,1/2-y,1/2+z
-x,1/2+y,1/2+z
x,1/2-y,1/2+z
loop_
_atom_site_type_symbol
_atom_site_label
_atom_site_fract_x
_atom_site_fract_y
_atom_site_fract_z
Si Si1 0.924305 0.933767 0.973300
Si Si2 0.082686 0.372329 0.894741
Si Si3 0.906636 0.447055 0.757238
Si Si4 0.587118 0.339910 0.609020
Si Si5 0.077161 0.237570 0.256553
Si Si6 0.420085 0.436091 0.082058
Si Si7 0.078220 0.378987 0.274189
O O1 0.750000 0.938033 0.991210
O O2 0.964313 0.920366 0.864731
O O3 0.000000 0.000000 0.002625
O O4 0.990063 0.873932 0.029438
O O5 0.250000 0.383835 0.868629
O O6 0.033712 0.305634 0.847616
O O7 0.991665 0.429916 0.851936
O O8 0.056239 0.378292 0.007112
O O9 0.750000 0.475359 0.785339
O O10 0.886749 0.387607 0.692772
O O11 0.000000 0.500000 0.701682
O O12 0.750000 0.319718 0.571371
O O13 0.499524 0.282166 0.657530
O O14 0.250000 0.235166 0.238150
O O15 0.018792 0.307294 0.282775
O O16 0.500000 0.500000 0.049982
O O17 0.250000 0.452207 0.091378
O O18 0.487354 0.412554 0.181423
O O19 0.250000 0.374267 0.263208
#
# Coordination Sequence:
#
# PCOD8191683 Si02
#       7
#     8   8   8   8   8   8   8
#     4  11  22  37  58  84 113 149 191 236 284 334
#     4   9  18  31  51  77 105 136 172 215 264 318
#     4  10  19  30  47  71 103 138 173 215 265 320
#     4  10  21  36  54  80 112 145 181 226 278 335
#     4   9  18  36  59  83 110 143 182 223 272 331
#     4  10  20  35  54  79 109 141 179 223 268 319
#     4   9  20  37  58  82 109 144 188 232 273 323
#
# _framework density 20.393253999999999
#
# number of rings (size 3 to 8) (size 9 to 14) (size 15 to 20)
#    0.000    2.286    0.000    2.571    0.000    5.714 
#    0.000    7.143    0.000    3.429    0.000    0.000 
#    0.000    0.000    0.000    0.000    0.000    0.000 
#
# Total GULP energy -346985.880054 kJ/mol
# GULP energy per Si atom -12392.352859 kJ/mol
# Density = 2.034684 g / cm^3
# Si number density = 20.393254 Si / 1000 Ang^3
#
#
#
# Elastic Constant Matrix: (Units=GPa)
#
#
# Indices 1 2 3 4 5 6 
#
# 1 85.2377 23.4981 27.3219 0.0000 0.0001 0.0000
# 2 23.4981 83.9474 18.7727 0.0001 0.0000 0.0000
# 3 27.3219 18.7727 99.3756 0.0001 -0.0003 0.0000
# 4 0.0000 0.0001 0.0001 22.6165 -0.0001 0.0000
# 5 0.0001 0.0000 -0.0003 -0.0001 118.0828 0.0000
# 6 0.0000 0.0000 0.0000 0.0000 0.0000 22.0068
#
#
#
# Elastic Compliance Matrix: (Units=1/GPa)
#
#
# Indices 1 2 3 4 5 6 
#
# 1 0.013597 -0.003101 -0.003153 0.000000 0.000000 0.000000
# 2 -0.003101 0.013145 -0.001631 0.000000 0.000000 0.000000
# 3 -0.003153 -0.001631 0.011238 0.000000 0.000000 0.000000
# 4 0.000000 0.000000 0.000000 0.044215 0.000000 0.000000
# 5 0.000000 0.000000 0.000000 0.000000 0.008469 0.000000
# 6 0.000000 0.000000 0.000000 0.000000 0.000000 0.045441
#
#
# Mechanical properties :
#
#
# Convention : Reuss Voigt Hill
#
# Bulk Modulus (GPa) = 45.02197 45.30513 45.16355
# Shear Modulus (GPa) = 31.39190 45.80573 38.59881
#
# Velocity S-wave (km/s) = 3.92768 4.74447 4.35527
# Velocity P-wave (km/s) = 6.53405 7.23030 6.89097
#
# Compressibility (1/GPa) = 0.02221138
#
# Stress axis : x y z
#
# Youngs Moduli (GPa) = 73.54388 76.07510 88.98684
#
# Poissons Ratio (x) = 0.23592 0.28054
# Poissons Ratio (y) = 0.22807 0.14510
# Poissons Ratio (z) = 0.23185 0.12404
#
# Static dielectric constant tensor:
#      x y z
#    x 3.890830 0.000000 0.000000 
#    y 0.000000 3.755500 0.000000 
#    z 0.000000 0.000000 3.781830 
# 
# 
# High freq. dielectric constant tensor:
#      x y z
#    x 1.784700 0.000000 0.000000 
#    y 0.000000 1.790030 0.000000 
#    z 0.000000 0.000000 1.794840 
# 
# From -- ./inp_files/14142.got.cif
#   From: 2010.03.12/outbox.cif.g09.slc.cpg/sg46_8_cif.got.tgz:14142.got - 2010.04.14 02:56:35.
