data_PCOD8191378
_publ_section_title
;
Structure prediction by ZEFSAII (Michael W. Deem and Ramdas Pophale) SiO2 
 PCOD8191378
Probable space group: I M A 2
;
_chemical_formula_sum "Si O2"
_cell_formula_units_Z 56
_cell_length_a 9.119498
_cell_length_b 20.685123
_cell_length_c 14.193340
_cell_angle_alpha 90.000000
_cell_angle_beta 90.000000
_cell_angle_gamma 90.000000
_cell_volume 2677.402388
_symmetry_space_group_name_H-M "I M A 2"
_symmetry_group_IT_number 46
_symmetry_cell_setting 'orthorhombic'
loop_
_space_group_symop_operation_xyz
x,y,z
-x,-y,z
1/2-x,y,z
1/2+x,-y,z
1/2+x,1/2+y,1/2+z
1/2-x,1/2-y,1/2+z
-x,1/2+y,1/2+z
x,1/2-y,1/2+z
loop_
_atom_site_type_symbol
_atom_site_label
_atom_site_fract_x
_atom_site_fract_y
_atom_site_fract_z
Si Si1 0.923047 0.068108 0.089550
Si Si2 0.577941 0.757336 0.781372
Si Si3 0.576803 0.632157 0.428043
Si Si4 0.079658 0.565606 0.986960
Si Si5 0.910761 0.333767 0.135213
Si Si6 0.089583 0.944424 0.783307
Si Si7 0.582437 0.125547 0.290473
O O1 0.750000 0.063107 0.069057
O O2 0.956253 0.085753 0.197460
O O3 0.000000 0.000000 0.066299
O O4 0.994302 0.126966 0.028587
O O5 0.750000 0.756746 0.768124
O O6 0.533945 0.802982 0.869992
O O7 0.514554 0.778667 0.678843
O O8 0.521304 0.686635 0.804949
O O9 0.750000 0.627025 0.443012
O O10 0.514702 0.570856 0.371702
O O11 0.250000 0.557171 0.013242
O O12 0.053431 0.577233 0.876867
O O13 0.000000 0.500000 0.017934
O O14 0.020129 0.628491 0.045204
O O15 0.750000 0.304104 0.109663
O O16 0.888985 0.384392 0.217449
O O17 0.250000 0.968023 0.817762
O O18 0.000000 0.000000 0.727478
O O19 0.750000 0.150233 0.289391
#
# Coordination Sequence:
#
# PCOD8191378 Si02
#       7
#     8   8   8   8   8   8   8
#     4  11  23  39  60  86 114 150 192 236 286 337
#     4  10  22  39  60  86 115 149 191 235 283 335
#     4  10  21  37  56  81 113 147 185 233 284 337
#     4  10  21  38  60  87 116 150 190 233 282 336
#     4   9  19  35  56  82 114 149 185 227 280 339
#     4  10  18  29  48  76 110 147 184 226 277 335
#     4  10  23  41  60  82 114 154 193 234 283 337
#
# _framework density 20.915794999999999
#
# number of rings (size 3 to 8) (size 9 to 14) (size 15 to 20)
#    0.000    2.000    0.000    3.000    0.000    5.714 
#    0.000    4.286    0.000    0.000    0.000    0.000 
#    0.000    0.000    0.000    0.000    0.000    0.000 
#
# Total GULP energy -347089.332528 kJ/mol
# GULP energy per Si atom -12396.047590 kJ/mol
# Density = 2.086819 g / cm^3
# Si number density = 20.915795 Si / 1000 Ang^3
#
#
#
# Elastic Constant Matrix: (Units=GPa)
#
#
# Indices 1 2 3 4 5 6 
#
# 1 89.9770 37.0290 28.1442 0.0001 0.0000 0.0000
# 2 37.0290 69.7443 9.3233 -0.0002 0.0000 0.0000
# 3 28.1442 9.3233 102.8163 -0.0002 0.0000 0.0000
# 4 0.0001 -0.0002 -0.0002 12.7407 0.0000 0.0000
# 5 0.0000 0.0000 0.0000 0.0000 27.8575 0.0000
# 6 0.0000 0.0000 0.0000 0.0000 0.0000 36.9840
#
#
#
# Elastic Compliance Matrix: (Units=1/GPa)
#
#
# Indices 1 2 3 4 5 6 
#
# 1 0.015380 -0.007696 -0.003512 0.000000 0.000000 0.000000
# 2 -0.007696 0.018365 0.000441 0.000000 0.000000 0.000000
# 3 -0.003512 0.000441 0.010647 0.000000 0.000000 0.000000
# 4 0.000000 0.000000 0.000000 0.078488 0.000000 0.000000
# 5 0.000000 0.000000 0.000000 0.000000 0.035897 0.000000
# 6 0.000000 0.000000 0.000000 0.000000 0.000000 0.027039
#
#
# Mechanical properties :
#
#
# Convention : Reuss Voigt Hill
#
# Bulk Modulus (GPa) = 43.74692 45.72563 44.73628
# Shear Modulus (GPa) = 23.25912 28.05251 25.65581
#
# Velocity S-wave (km/s) = 3.33834 3.66623 3.50612
# Velocity P-wave (km/s) = 5.98502 6.31117 6.15026
#
# Compressibility (1/GPa) = 0.02285875
#
# Stress axis : x y z
#
# Youngs Moduli (GPa) = 65.02077 54.45112 93.91937
#
# Poissons Ratio (x) = 0.41906 0.32985
# Poissons Ratio (y) = 0.50040 -0.04145
# Poissons Ratio (z) = 0.22836 -0.02403
#
# Static dielectric constant tensor:
#      x y z
#    x 3.843780 0.000000 0.000000 
#    y 0.000000 3.653880 0.000000 
#    z 0.000000 0.000000 3.899670 
# 
# 
# High freq. dielectric constant tensor:
#      x y z
#    x 1.820060 0.000000 0.000000 
#    y 0.000000 1.807370 0.000000 
#    z 0.000000 0.000000 1.823070 
# 
# From -- ./inp_files/14167.got.cif
#   From: 2010.03.12/outbox.cif.g09.slc.cpg/sg46_8_cif.got.tgz:14167.got - 2010.04.14 02:56:35.
