data_PCOD8191623
_publ_section_title
;
Structure prediction by ZEFSAII (Michael W. Deem and Ramdas Pophale) SiO2 
 PCOD8191623
Probable space group: I M A 2
;
_chemical_formula_sum "Si O2"
_cell_formula_units_Z 44
_cell_length_a 14.049845
_cell_length_b 9.394894
_cell_length_c 17.150905
_cell_angle_alpha 90.000000
_cell_angle_beta 90.000000
_cell_angle_gamma 90.000000
_cell_volume 2263.864654
_symmetry_space_group_name_H-M "I M A 2"
_symmetry_group_IT_number 46
_symmetry_cell_setting 'orthorhombic'
loop_
_space_group_symop_operation_xyz
x,y,z
-x,-y,z
1/2-x,y,z
1/2+x,-y,z
1/2+x,1/2+y,1/2+z
1/2-x,1/2-y,1/2+z
-x,1/2+y,1/2+z
x,1/2-y,1/2+z
loop_
_atom_site_type_symbol
_atom_site_label
_atom_site_fract_x
_atom_site_fract_y
_atom_site_fract_z
Si Si1 0.111200 0.865997 0.097290
Si Si2 0.250000 0.681277 0.361508
Si Si3 0.250000 0.344066 0.000501
Si Si4 0.750000 0.777506 0.318884
Si Si5 0.750000 0.420162 0.731478
Si Si6 0.411215 0.358185 0.524076
Si Si7 0.250000 0.668430 0.021880
Si Si8 0.095623 0.441983 0.351610
O O1 0.151274 0.900238 0.183529
O O2 0.156477 0.721487 0.066071
O O3 0.997661 0.847328 0.086526
O O4 0.146539 0.997919 0.044095
O O5 0.250000 0.789883 0.290369
O O6 0.250000 0.786723 0.433383
O O7 0.158375 0.581651 0.363565
O O8 0.250000 0.324141 0.908319
O O9 0.156028 0.275663 0.037827
O O10 0.250000 0.501953 0.029101
O O11 0.844529 0.679008 0.304042
O O12 0.750000 0.919697 0.267017
O O13 0.440768 0.372126 0.433345
O O14 0.000000 0.500000 0.307677
#
# Coordination Sequence:
#
# PCOD8191623 Si02
#       8
#     8   4   4   4   4   8   4   8
#     4  10  21  37  65  81 122 158 211 239 298 373
#     4  11  20  36  62  87 126 158 198 249 308 367
#     4  10  20  31  62  93 124 142 205 269 307 325
#     4   9  21  36  58  90 126 157 193 251 309 363
#     4  11  23  41  55  93 128 162 190 241 318 373
#     4  10  18  38  62  93 106 158 210 258 286 354
#     4  11  18  34  59  93 116 159 196 268 298 348
#     4  10  18  37  66  90 113 150 210 256 296 348
#
# _framework density 19.435790000000001
#
# number of rings (size 3 to 8) (size 9 to 14) (size 15 to 20)
#    0.000    1.818    4.545    1.636    0.000    0.727 
#    6.545    7.273    0.000    0.000    0.000    0.000 
#    0.000    0.000    0.000    0.000    0.000    0.000 
#
# Total GULP energy -272540.015739 kJ/mol
# GULP energy per Si atom -12388.182534 kJ/mol
# Density = 1.939155 g / cm^3
# Si number density = 19.435790 Si / 1000 Ang^3
#
#
#
# Elastic Constant Matrix: (Units=GPa)
#
#
# Indices 1 2 3 4 5 6 
#
# 1 151.2572 75.8187 43.3427 0.0000 0.0000 0.0000
# 2 75.8187 168.4280 38.5358 0.0000 0.0000 0.0000
# 3 43.3427 38.5358 69.9960 0.0000 0.0000 0.0000
# 4 0.0000 0.0000 0.0000 29.9840 0.0000 0.0000
# 5 0.0000 0.0000 0.0000 0.0000 25.3566 0.0000
# 6 0.0000 0.0000 0.0000 0.0000 0.0000 32.6338
#
#
#
# Elastic Compliance Matrix: (Units=1/GPa)
#
#
# Indices 1 2 3 4 5 6 
#
# 1 0.009427 -0.003327 -0.004006 0.000000 0.000000 0.000000
# 2 -0.003327 0.007967 -0.002326 0.000000 0.000000 0.000000
# 3 -0.004006 -0.002326 0.018047 0.000000 0.000000 0.000000
# 4 0.000000 0.000000 0.000000 0.033351 0.000000 0.000000
# 5 0.000000 0.000000 0.000000 0.000000 0.039437 0.000000
# 6 0.000000 0.000000 0.000000 0.000000 0.000000 0.030643
#
#
# Mechanical properties :
#
#
# Convention : Reuss Voigt Hill
#
# Bulk Modulus (GPa) = 62.01933 78.34174 70.18053
# Shear Modulus (GPa) = 30.56889 33.06047 31.81468
#
# Velocity S-wave (km/s) = 3.97017 4.12880 4.05027
# Velocity P-wave (km/s) = 7.27980 7.94511 7.61972
#
# Compressibility (1/GPa) = 0.01612401
#
# Stress axis : x y z
#
# Youngs Moduli (GPa) = 106.08113 125.51552 55.40956
#
# Poissons Ratio (x) = 0.41760 0.22194
# Poissons Ratio (y) = 0.35294 0.12889
# Poissons Ratio (z) = 0.42491 0.29196
#
# Static dielectric constant tensor:
#      x y z
#    x 3.612230 0.000000 0.000000 
#    y 0.000000 3.651510 0.000000 
#    z 0.000000 0.000000 3.290890 
# 
# 
# High freq. dielectric constant tensor:
#      x y z
#    x 1.761510 0.000000 0.000000 
#    y 0.000000 1.763050 0.000000 
#    z 0.000000 0.000000 1.726150 
# 
# From -- ./inp_files/19365.got.cif
#   From: 2010.03.12/outbox.cif.g09.slc.cpg/sg46_10_cif.got.tgz:19365.got - 2010.04.14 02:56:35.
