data_PCOD8191323
_publ_section_title
;
Structure prediction by ZEFSAII (Michael W. Deem and Ramdas Pophale) SiO2 
 PCOD8191323
Probable space group: I M A 2
;
_chemical_formula_sum "Si O2"
_cell_formula_units_Z 60
_cell_length_a 9.672815
_cell_length_b 10.757487
_cell_length_c 32.588783
_cell_angle_alpha 90.000000
_cell_angle_beta 90.000000
_cell_angle_gamma 90.000000
_cell_volume 3391.031734
_symmetry_space_group_name_H-M "I M A 2"
_symmetry_group_IT_number 46
_symmetry_cell_setting 'orthorhombic'
loop_
_space_group_symop_operation_xyz
x,y,z
-x,-y,z
1/2-x,y,z
1/2+x,-y,z
1/2+x,1/2+y,1/2+z
1/2-x,1/2-y,1/2+z
-x,1/2+y,1/2+z
x,1/2-y,1/2+z
loop_
_atom_site_type_symbol
_atom_site_label
_atom_site_fract_x
_atom_site_fract_y
_atom_site_fract_z
Si Si1 0.900731 0.298691 0.855790
Si Si2 0.910489 0.876303 0.195695
Si Si3 0.410192 0.380163 0.790444
Si Si4 0.587205 0.875325 0.649257
Si Si5 0.000000 0.500000 0.918650
Si Si6 0.404533 0.883502 0.925818
Si Si7 0.900015 0.712258 0.971878
Si Si8 0.402850 0.108084 0.557031
O O1 0.750000 0.314246 0.834438
O O2 0.905258 0.170084 0.880138
O O3 0.021414 0.281724 0.821618
O O4 0.915312 0.409776 0.888566
O O5 0.750000 0.906348 0.185521
O O6 0.929470 0.842296 0.243414
O O7 0.960748 0.750264 0.173007
O O8 0.000000 0.000000 0.183984
O O9 0.500000 0.500000 0.801239
O O10 0.250000 0.400770 0.801551
O O11 0.750000 0.901439 0.657626
O O12 0.554668 0.840927 0.601898
O O13 0.500000 0.000000 0.662214
O O14 0.098886 0.421363 0.948980
O O15 0.250000 0.916303 0.940389
O O16 0.467969 0.788870 0.958378
O O17 0.500000 0.000000 0.925699
O O18 0.750000 0.772008 0.960668
O O19 0.910242 0.710199 0.021433
O O20 0.250000 0.051377 0.560695
O O21 0.500000 0.000000 0.541775
#
# Coordination Sequence:
#
# PCOD8191323 Si02
#       8
#     8   8   8   8   4   8   8   8
#     4  10  20  32  49  74 101 128 164 206 251 300
#     4   9  19  35  54  78 106 139 176 219 267 321
#     4  10  19  31  50  74 103 133 166 209 260 309
#     4   9  18  34  55  79 109 140 176 219 266 321
#     4  10  18  28  48  76 106 130 162 194 248 300
#     4  10  22  38  53  69  94 133 177 215 253 304
#     4  10  19  31  50  75 103 134 167 207 254 301
#     4   9  17  30  50  76 105 136 167 209 258 306
#
# _framework density 17.693729999999999
#
# number of rings (size 3 to 8) (size 9 to 14) (size 15 to 20)
#    0.000    2.400    1.333    1.200    0.000    4.800 
#    0.000    1.333    0.000    4.800    0.000    0.000 
#    0.000    0.000    0.000    0.000    0.000    0.000 
#
# Total GULP energy -371676.039573 kJ/mol
# GULP energy per Si atom -12389.201319 kJ/mol
# Density = 1.765346 g / cm^3
# Si number density = 17.693730 Si / 1000 Ang^3
#
#
#
# Elastic Constant Matrix: (Units=GPa)
#
#
# Indices 1 2 3 4 5 6 
#
# 1 132.8990 51.8505 50.0765 0.0000 0.0000 0.0000
# 2 51.8505 84.3354 39.6777 0.0000 0.0000 0.0000
# 3 50.0765 39.6777 86.0898 0.0000 0.0000 0.0000
# 4 0.0000 0.0000 0.0000 15.1128 0.0000 0.0000
# 5 0.0000 0.0000 0.0000 0.0000 25.0668 0.0000
# 6 0.0000 0.0000 0.0000 0.0000 0.0000 28.7404
#
#
#
# Elastic Compliance Matrix: (Units=1/GPa)
#
#
# Indices 1 2 3 4 5 6 
#
# 1 0.010960 -0.004774 -0.004175 0.000000 0.000000 0.000000
# 2 -0.004774 0.017220 -0.005159 0.000000 0.000000 0.000000
# 3 -0.004175 -0.005159 0.016422 0.000000 0.000000 0.000000
# 4 0.000000 0.000000 0.000000 0.066169 0.000000 0.000000
# 5 0.000000 0.000000 0.000000 0.000000 0.039893 0.000000
# 6 0.000000 0.000000 0.000000 0.000000 0.000000 0.034794
#
#
# Mechanical properties :
#
#
# Convention : Reuss Voigt Hill
#
# Bulk Modulus (GPa) = 61.03063 65.17039 63.10051
# Shear Modulus (GPa) = 22.81664 24.56532 23.69098
#
# Velocity S-wave (km/s) = 3.59490 3.73012 3.66313
# Velocity P-wave (km/s) = 7.19714 7.44742 7.32335
#
# Compressibility (1/GPa) = 0.01638522
#
# Stress axis : x y z
#
# Youngs Moduli (GPa) = 91.23792 58.07160 60.89332
#
# Poissons Ratio (x) = 0.27725 0.25423
# Poissons Ratio (y) = 0.43560 0.31417
# Poissons Ratio (z) = 0.38091 0.29961
#
# Static dielectric constant tensor:
#      x y z
#    x 3.484920 0.000000 0.000000 
#    y 0.000000 3.264500 0.000000 
#    z 0.000000 0.000000 3.349970 
# 
# 
# High freq. dielectric constant tensor:
#      x y z
#    x 1.696810 0.000000 0.000000 
#    y 0.000000 1.654940 0.000000 
#    z 0.000000 0.000000 1.683740 
# 
# From -- ./inp_files/25184.got.cif
#   From: 2010.03.12/outbox.cif.g09.slc.cpg/sg46_13_cif.got.tgz:25184.got - 2010.04.14 02:56:35.
