data_PCOD8191389
_publ_section_title
;
Structure prediction by ZEFSAII (Michael W. Deem and Ramdas Pophale) SiO2 
 PCOD8191389
Probable space group: I M A 2
;
_chemical_formula_sum "Si O2"
_cell_formula_units_Z 64
_cell_length_a 8.638400
_cell_length_b 18.588183
_cell_length_c 26.573649
_cell_angle_alpha 90.000000
_cell_angle_beta 90.000000
_cell_angle_gamma 90.000000
_cell_volume 4266.988220
_symmetry_space_group_name_H-M "I M A 2"
_symmetry_group_IT_number 46
_symmetry_cell_setting 'orthorhombic'
loop_
_space_group_symop_operation_xyz
x,y,z
-x,-y,z
1/2-x,y,z
1/2+x,-y,z
1/2+x,1/2+y,1/2+z
1/2-x,1/2-y,1/2+z
-x,1/2+y,1/2+z
x,1/2-y,1/2+z
loop_
_atom_site_type_symbol
_atom_site_label
_atom_site_fract_x
_atom_site_fract_y
_atom_site_fract_z
Si Si1 0.067084 0.922713 0.233300
Si Si2 0.068009 0.330983 0.934582
Si Si3 0.433055 0.077028 0.339910
Si Si4 0.565280 0.844822 0.140428
Si Si5 0.933248 0.921830 0.530753
Si Si6 0.572399 0.216660 0.993649
Si Si7 0.070978 0.289925 0.085844
Si Si8 0.928928 0.075184 0.045537
O O1 0.250000 0.928195 0.235522
O O2 0.003229 0.897126 0.287075
O O3 0.014442 0.865025 0.192417
O O4 0.000000 0.000000 0.217956
O O5 0.250000 0.317140 0.936940
O O6 0.018515 0.364186 0.881227
O O7 0.979694 0.253642 0.940896
O O8 0.013272 0.387162 0.977804
O O9 0.250000 0.069408 0.334787
O O10 0.500000 0.000000 0.356208
O O11 0.750000 0.848553 0.145409
O O12 0.502932 0.762791 0.129043
O O13 0.514675 0.897752 0.095692
O O14 0.750000 0.926887 0.531608
O O15 0.994345 0.871248 0.577696
O O16 0.000000 0.000000 0.538435
O O17 0.750000 0.236875 0.005912
O O18 0.454157 0.250564 0.033097
O O19 0.551129 0.130271 0.998185
O O20 0.250000 0.296297 0.096899
O O21 0.750000 0.065372 0.059671
O O22 0.000000 0.000000 0.027571
#
# Coordination Sequence:
#
# PCOD8191389 Si02
#       8
#     8   8   8   8   8   8   8   8
#     4  11  21  32  44  60  83 109 138 174 209 244
#     4   9  18  30  43  58  81 111 141 169 202 243
#     4  10  19  31  45  62  83 109 141 175 207 242
#     4  10  18  30  46  60  78 109 142 173 207 245
#     4   9  16  26  39  59  83 108 136 165 197 235
#     4   9  17  27  41  60  81 104 136 172 203 237
#     4   8  16  29  42  56  79 108 137 167 203 243
#     4  10  19  29  41  61  85 110 139 171 204 243
#
# _framework density 14.998868999999999
#
# number of rings (size 3 to 8) (size 9 to 14) (size 15 to 20)
#    0.000    2.500    0.000    4.875    0.000    5.000 
#    0.000    0.000    0.000    0.000    0.000    0.000 
#    0.000    1.000    0.000    9.000    0.000    5.375 
#
# Total GULP energy -396454.045717 kJ/mol
# GULP energy per Si atom -12389.188929 kJ/mol
# Density = 1.496473 g / cm^3
# Si number density = 14.998869 Si / 1000 Ang^3
#
#
#
# Elastic Constant Matrix: (Units=GPa)
#
#
# Indices 1 2 3 4 5 6 
#
# 1 52.8367 33.6714 33.6876 0.0000 0.0000 0.0000
# 2 33.6714 116.1741 62.9540 0.0000 0.0000 0.0000
# 3 33.6876 62.9540 88.9782 0.0000 0.0000 0.0000
# 4 0.0000 0.0000 0.0000 27.4840 0.0000 0.0000
# 5 0.0000 0.0000 0.0000 0.0000 19.8763 0.0000
# 6 0.0000 0.0000 0.0000 0.0000 0.0000 23.3941
#
#
#
# Elastic Compliance Matrix: (Units=1/GPa)
#
#
# Indices 1 2 3 4 5 6 
#
# 1 0.025819 -0.003545 -0.007267 0.000000 0.000000 0.000000
# 2 -0.003545 0.014447 -0.008879 0.000000 0.000000 0.000000
# 3 -0.007267 -0.008879 0.020272 0.000000 0.000000 0.000000
# 4 0.000000 0.000000 0.000000 0.036385 0.000000 0.000000
# 5 0.000000 0.000000 0.000000 0.000000 0.050311 0.000000
# 6 0.000000 0.000000 0.000000 0.000000 0.000000 0.042746
#
#
# Mechanical properties :
#
#
# Convention : Reuss Voigt Hill
#
# Bulk Modulus (GPa) = 47.26961 57.62388 52.44675
# Shear Modulus (GPa) = 21.14935 22.66261 21.90598
#
# Velocity S-wave (km/s) = 3.75915 3.89132 3.82581
# Velocity P-wave (km/s) = 7.10109 7.66107 7.38639
#
# Compressibility (1/GPa) = 0.02115524
#
# Stress axis : x y z
#
# Youngs Moduli (GPa) = 38.73162 69.21873 49.32894
#
# Poissons Ratio (x) = 0.24541 0.35845
# Poissons Ratio (y) = 0.13732 0.43800
# Poissons Ratio (z) = 0.28145 0.61461
#
# Static dielectric constant tensor:
#      x y z
#    x 2.963030 0.000000 0.000000 
#    y 0.000000 3.267000 0.000000 
#    z 0.000000 0.000000 2.843000 
# 
# 
# High freq. dielectric constant tensor:
#      x y z
#    x 1.584980 0.000000 0.000000 
#    y 0.000000 1.567760 0.000000 
#    z 0.000000 0.000000 1.539760 
# 
# From -- ./inp_files/24399.got.cif
#   From: 2010.03.12/outbox.cif.g09.slc.cpg/sg46_13_cif.got.tgz:24399.got - 2010.04.14 02:56:35.
