data_PCOD8191414
_publ_section_title
;
Structure prediction by ZEFSAII (Michael W. Deem and Ramdas Pophale) SiO2 
 PCOD8191414
Probable space group: I M A 2
;
_chemical_formula_sum "Si O2"
_cell_formula_units_Z 48
_cell_length_a 16.101015
_cell_length_b 18.419321
_cell_length_c 9.117986
_cell_angle_alpha 90.000000
_cell_angle_beta 90.000000
_cell_angle_gamma 90.000000
_cell_volume 2704.118954
_symmetry_space_group_name_H-M "I M A 2"
_symmetry_group_IT_number 46
_symmetry_cell_setting 'orthorhombic'
loop_
_space_group_symop_operation_xyz
x,y,z
-x,-y,z
1/2-x,y,z
1/2+x,-y,z
1/2+x,1/2+y,1/2+z
1/2-x,1/2-y,1/2+z
-x,1/2+y,1/2+z
x,1/2-y,1/2+z
loop_
_atom_site_type_symbol
_atom_site_label
_atom_site_fract_x
_atom_site_fract_y
_atom_site_fract_z
Si Si1 0.024477 0.919428 0.334020
Si Si2 0.652965 0.173219 0.484667
Si Si3 0.414170 0.290677 0.827181
Si Si4 0.924491 0.297893 0.298133
Si Si5 0.000019 0.082182 0.992556
Si Si6 0.656900 0.674055 0.529803
O O1 0.111308 0.896981 0.408013
O O2 0.953515 0.864516 0.393150
O O3 0.033357 0.912789 0.158502
O O4 0.000000 0.000000 0.383632
O O5 0.750000 0.158113 0.487581
O O6 0.634097 0.245822 0.393532
O O7 0.620238 0.181597 0.648909
O O8 0.488878 0.241954 0.760558
O O9 0.348998 0.310955 0.702027
O O10 0.364590 0.249949 0.953074
O O11 0.939515 0.370958 0.390775
O O12 0.000000 0.000000 0.934932
O O13 0.094427 0.110796 0.980853
O O14 0.750000 0.649049 0.490321
#
# Coordination Sequence:
#
# PCOD8191414 Si02
#       6
#     8   8   8   8   8   8
#     4   9  18  35  55  74 101 138 173 205 252 317
#     4  11  21  34  53  80 105 132 174 225 264 300
#     4   9  17  31  51  72  96 130 165 196 246 305
#     4  10  19  34  55  75 102 138 173 209 258 316
#     4   9  19  36  55  74 101 139 174 203 253 318
#     4  10  18  30  49  75  99 123 161 210 247 286
#
# _framework density 17.750699000000001
#
# number of rings (size 3 to 8) (size 9 to 14) (size 15 to 20)
#    0.000    2.333    0.000    6.000    0.000    0.667 
#    0.000   10.833    0.000    0.000    0.000    0.000 
#    0.000    0.000    0.000    0.000    0.000    0.000 
#
# Total GULP energy -297621.850129 kJ/mol
# GULP energy per Si atom -12400.910422 kJ/mol
# Density = 1.771030 g / cm^3
# Si number density = 17.750699 Si / 1000 Ang^3
#
#
#
# Elastic Constant Matrix: (Units=GPa)
#
#
# Indices 1 2 3 4 5 6 
#
# 1 130.2902 54.2390 52.0790 0.0000 0.0000 0.0000
# 2 54.2390 145.0869 44.6508 0.0000 0.0000 0.0000
# 3 52.0790 44.6508 73.6073 0.0000 0.0000 0.0000
# 4 0.0000 0.0000 0.0000 26.7969 0.0000 0.0000
# 5 0.0000 0.0000 0.0000 0.0000 19.8013 0.0000
# 6 0.0000 0.0000 0.0000 0.0000 0.0000 14.9679
#
#
#
# Elastic Compliance Matrix: (Units=1/GPa)
#
#
# Indices 1 2 3 4 5 6 
#
# 1 0.011224 -0.002154 -0.006634 0.000000 0.000000 0.000000
# 2 -0.002154 0.008888 -0.003867 0.000000 0.000000 0.000000
# 3 -0.006634 -0.003867 0.020626 0.000000 0.000000 0.000000
# 4 0.000000 0.000000 0.000000 0.037318 0.000000 0.000000
# 5 0.000000 0.000000 0.000000 0.000000 0.050502 0.000000
# 6 0.000000 0.000000 0.000000 0.000000 0.000000 0.066810
#
#
# Mechanical properties :
#
#
# Convention : Reuss Voigt Hill
#
# Bulk Modulus (GPa) = 64.82781 72.32467 68.57624
# Shear Modulus (GPa) = 22.14155 25.51428 23.82792
#
# Velocity S-wave (km/s) = 3.53563 3.79538 3.66780
# Velocity P-wave (km/s) = 7.29850 7.74853 7.52688
#
# Compressibility (1/GPa) = 0.01542548
#
# Stress axis : x y z
#
# Youngs Moduli (GPa) = 89.09641 112.51241 48.48353
#
# Poissons Ratio (x) = 0.24237 0.32166
# Poissons Ratio (y) = 0.19193 0.18750
# Poissons Ratio (z) = 0.59110 0.43513
#
# Static dielectric constant tensor:
#      x y z
#    x 3.189820 0.000000 0.000000 
#    y 0.000000 3.395860 0.000000 
#    z 0.000000 0.000000 3.231530 
# 
# 
# High freq. dielectric constant tensor:
#      x y z
#    x 1.675690 0.000000 0.000000 
#    y 0.000000 1.683300 0.000000 
#    z 0.000000 0.000000 1.686380 
# 
# From -- ./inp_files/5688.got.cif
#   From: 2010.03.12/outbox.cif.g09.slc.cpg/sg46_3_cif.got.tgz:5688.got - 2010.04.14 02:56:35.
