data_PCOD8191309
_publ_section_title
;
Structure prediction by ZEFSAII (Michael W. Deem and Ramdas Pophale) SiO2 
 PCOD8191309
Probable space group: I M A 2
;
_chemical_formula_sum "Si O2"
_cell_formula_units_Z 56
_cell_length_a 8.528130
_cell_length_b 21.985531
_cell_length_c 17.745300
_cell_angle_alpha 90.000000
_cell_angle_beta 90.000000
_cell_angle_gamma 90.000000
_cell_volume 3327.163301
_symmetry_space_group_name_H-M "I M A 2"
_symmetry_group_IT_number 46
_symmetry_cell_setting 'orthorhombic'
loop_
_space_group_symop_operation_xyz
x,y,z
-x,-y,z
1/2-x,y,z
1/2+x,-y,z
1/2+x,1/2+y,1/2+z
1/2-x,1/2-y,1/2+z
-x,1/2+y,1/2+z
x,1/2-y,1/2+z
loop_
_atom_site_type_symbol
_atom_site_label
_atom_site_fract_x
_atom_site_fract_y
_atom_site_fract_z
Si Si1 0.568078 0.848653 0.607730
Si Si2 0.066296 0.350805 0.353988
Si Si3 0.430125 0.187656 0.447994
Si Si4 0.432591 0.933928 0.728039
Si Si5 0.067084 0.687554 0.498088
Si Si6 0.566935 0.709990 0.647496
Si Si7 0.432377 0.777005 0.303161
O O1 0.750000 0.862738 0.624541
O O2 0.530285 0.856898 0.518210
O O3 0.459477 0.894848 0.652674
O O4 0.527229 0.780647 0.634109
O O5 0.250000 0.352025 0.368483
O O6 0.021078 0.405320 0.299018
O O7 0.976514 0.362035 0.433969
O O8 0.020270 0.286757 0.315949
O O9 0.250000 0.180961 0.424353
O O10 0.458846 0.255442 0.477386
O O11 0.534756 0.176774 0.373206
O O12 0.250000 0.936848 0.746107
O O13 0.500000 0.000000 0.712357
O O14 0.250000 0.703832 0.493921
O O15 0.017887 0.668780 0.583031
O O16 0.750000 0.696025 0.645807
O O17 0.495910 0.690826 0.727904
O O18 0.250000 0.763243 0.296210
#
# Coordination Sequence:
#
# PCOD8191309 Si02
#       7
#     8   8   8   8   8   8   8
#     4   9  18  32  48  64  87 120 156 192 234 278
#     4  11  20  33  48  63  89 122 156 192 236 280
#     4   9  17  29  44  62  88 121 153 185 228 279
#     4  12  24  36  51  69  91 120 160 202 241 278
#     4  10  18  28  43  65  90 117 154 191 227 274
#     4  10  18  29  45  65  93 126 156 187 230 279
#     4  11  19  27  43  68  94 122 157 192 228 273
#
# _framework density 16.831154999999999
#
# number of rings (size 3 to 8) (size 9 to 14) (size 15 to 20)
#    0.000    1.714    1.429    8.571    0.000    2.857 
#    0.000    0.000    0.000    0.000    0.000    0.000 
#    0.000    1.143    0.000    8.000    0.000    6.286 
#
# Total GULP energy -347112.079452 kJ/mol
# GULP energy per Si atom -12396.859980 kJ/mol
# Density = 1.679285 g / cm^3
# Si number density = 16.831155 Si / 1000 Ang^3
#
#
#
# Elastic Constant Matrix: (Units=GPa)
#
#
# Indices 1 2 3 4 5 6 
#
# 1 89.0683 13.6055 37.3431 0.0000 0.0000 0.0000
# 2 13.6055 29.8608 20.9201 0.0000 0.0000 0.0000
# 3 37.3431 20.9201 141.2083 0.0000 0.0000 0.0000
# 4 0.0000 0.0000 0.0000 -8.2090 0.0000 0.0000
# 5 0.0000 0.0000 0.0000 0.0000 32.3748 0.0000
# 6 0.0000 0.0000 0.0000 0.0000 0.0000 16.5095
#
#
#
# Elastic Compliance Matrix: (Units=1/GPa)
#
#
# Indices 1 2 3 4 5 6 
#
# 1 0.013028 -0.003930 -0.002863 0.000000 0.000000 0.000000
# 2 -0.003930 0.038553 -0.004672 0.000000 0.000000 0.000000
# 3 -0.002863 -0.004672 0.008531 0.000000 0.000000 0.000000
# 4 0.000000 0.000000 0.000000 -0.121818 0.000000 0.000000
# 5 0.000000 0.000000 0.000000 0.000000 0.030888 0.000000
# 6 0.000000 0.000000 0.000000 0.000000 0.000000 0.060571
#
#
# Mechanical properties :
#
#
# Convention : Reuss Voigt Hill
#
# Bulk Modulus (GPa) = 26.89555 44.87497 35.88526
# Shear Modulus (GPa) = 76.83085 20.68631 48.75858
#
# Velocity S-wave (km/s) = 6.76366 3.50958 5.38815
# Velocity P-wave (km/s) = 8.77556 6.56830 7.75091
#
# Compressibility (1/GPa) = 0.03718087
#
# Stress axis : x y z
#
# Youngs Moduli (GPa) = 76.75738 25.93852 117.21837
#
# Poissons Ratio (x) = 0.10194 0.33560
# Poissons Ratio (y) = 0.30167 0.54768
# Poissons Ratio (z) = 0.21976 0.12119
#
# Static dielectric constant tensor:
#      x y z
#    x 3.197240 0.000000 0.000000 
#    y 0.000000 2.636600 0.000000 
#    z 0.000000 0.000000 3.882830 
# 
# 
# High freq. dielectric constant tensor:
#      x y z
#    x 1.666730 0.000000 0.000000 
#    y 0.000000 1.560780 0.000000 
#    z 0.000000 0.000000 1.674570 
# 
# From -- ./inp_files/18483.got.cif
#   From: 2010.03.12/outbox.cif.g09.slc.cpg/sg46_10_cif.got.tgz:18483.got - 2010.04.14 02:56:35.
