data_PCOD8191087
_publ_section_title
;
Structure prediction by ZEFSAII (Michael W. Deem and Ramdas Pophale) SiO2 
 PCOD8191087
Probable space group: I B A 2
;
_chemical_formula_sum "Si O2"
_cell_formula_units_Z 52
_cell_length_a 13.812196
_cell_length_b 9.091532
_cell_length_c 18.193739
_cell_angle_alpha 90.000000
_cell_angle_beta 90.000000
_cell_angle_gamma 90.000000
_cell_volume 2284.660980
_symmetry_space_group_name_H-M "I B A 2"
_symmetry_group_IT_number 45
_symmetry_cell_setting 'orthorhombic'
loop_
_space_group_symop_operation_xyz
x,y,z
-x,-y,z
-x,y,1/2+z
x,-y,1/2+z
1/2+x,1/2+y,1/2+z
1/2-x,1/2-y,1/2+z
1/2-x,1/2+y,z
1/2+x,1/2-y,z
loop_
_atom_site_type_symbol
_atom_site_label
_atom_site_fract_x
_atom_site_fract_y
_atom_site_fract_z
Si Si1 0.475523 0.209932 0.335430
Si Si2 0.361922 0.279303 0.933840
Si Si3 0.139868 0.085595 0.145334
Si Si4 0.500000 0.000000 0.705030
Si Si5 0.822333 0.603146 0.115182
Si Si6 0.000000 0.000000 0.771089
Si Si7 0.330562 0.944522 0.949736
Si Si8 0.000000 0.000000 0.023298
O O1 0.587623 0.222422 0.359562
O O2 0.474648 0.138035 0.255591
O O3 0.444733 0.379982 0.322981
O O4 0.413610 0.115431 0.394294
O O5 0.271387 0.385693 0.917353
O O6 0.328609 0.120820 0.967199
O O7 0.442070 0.374367 0.978148
O O8 0.191719 0.240470 0.152943
O O9 0.218145 0.962880 0.129792
O O10 0.084147 0.065830 0.221298
O O11 0.069813 0.093417 0.075270
O O12 0.408200 0.014530 0.652776
O O13 0.845626 0.626245 0.029294
#
# Coordination Sequence:
#
# PCOD8191087 Si02
#       8
#     8   8   8   4   8   4   8   4
#     4  12  27  51  72 109 153 206 252 313 388 467
#     4  12  27  47  79 111 153 198 253 320 382 460
#     4  11  26  45  75 109 152 192 259 310 387 453
#     4  12  28  48  72 106 152 202 254 302 392 458
#     4  12  27  46  75 111 147 199 252 322 375 452
#     4  11  27  48  74 106 150 212 242 316 380 472
#     4  12  28  48  79 118 151 199 264 322 385 453
#     4  11  25  46  74 112 152 192 252 320 388 458
#
# _framework density 22.760487000000001
#
# number of rings (size 3 to 8) (size 9 to 14) (size 15 to 20)
#    0.000    0.308    4.615    2.308   10.769    2.462 
#    0.000    0.000    0.000    0.000    0.000    0.000 
#    0.000    0.000    0.000    0.000    0.000    0.000 
#
# Total GULP energy -322209.884300 kJ/mol
# GULP energy per Si atom -12392.687858 kJ/mol
# Density = 2.270868 g / cm^3
# Si number density = 22.760487 Si / 1000 Ang^3
#
#
#
# Elastic Constant Matrix: (Units=GPa)
#
#
# Indices 1 2 3 4 5 6 
#
# 1 133.0411 50.5403 45.3390 0.0000 0.0000 0.0000
# 2 50.5403 154.5131 23.7922 0.0000 0.0000 0.0000
# 3 45.3390 23.7922 82.9275 0.0000 0.0000 0.0000
# 4 0.0000 0.0000 0.0000 62.3793 0.0000 0.0000
# 5 0.0000 0.0000 0.0000 0.0000 40.0507 0.0000
# 6 0.0000 0.0000 0.0000 0.0000 0.0000 47.3375
#
#
#
# Elastic Compliance Matrix: (Units=1/GPa)
#
#
# Indices 1 2 3 4 5 6 
#
# 1 0.010130 -0.002574 -0.004800 0.000000 0.000000 0.000000
# 2 -0.002574 0.007425 -0.000723 0.000000 0.000000 0.000000
# 3 -0.004800 -0.000723 0.014890 0.000000 0.000000 0.000000
# 4 0.000000 0.000000 0.000000 0.016031 0.000000 0.000000
# 5 0.000000 0.000000 0.000000 0.000000 0.024968 0.000000
# 6 0.000000 0.000000 0.000000 0.000000 0.000000 0.021125
#
#
# Mechanical properties :
#
#
# Convention : Reuss Voigt Hill
#
# Bulk Modulus (GPa) = 61.53241 67.75830 64.64535
# Shear Modulus (GPa) = 43.03606 46.67417 44.85511
#
# Velocity S-wave (km/s) = 4.35308 4.53334 4.44412
# Velocity P-wave (km/s) = 7.23596 7.56547 7.40255
#
# Compressibility (1/GPa) = 0.01625160
#
# Stress axis : x y z
#
# Youngs Moduli (GPa) = 98.71456 134.67418 67.15755
#
# Poissons Ratio (x) = 0.34671 0.32235
# Poissons Ratio (y) = 0.25413 0.04854
# Poissons Ratio (z) = 0.47382 0.09735
#
# Static dielectric constant tensor:
#      x y z
#    x 4.130640 0.000000 0.000000 
#    y 0.000000 4.419060 0.000000 
#    z 0.000000 0.000000 4.165970 
# 
# 
# High freq. dielectric constant tensor:
#      x y z
#    x 1.897750 0.000000 0.000000 
#    y 0.000000 1.924280 0.000000 
#    z 0.000000 0.000000 1.901490 
# 
# From -- ./inp_files/8858.got.cif
#   From: 2010.03.12/outbox.cif.g09.slc.cpg/sg45_5_cif.got.tgz:8858.got - 2010.04.14 02:50:11.
