data_PCOD8191381
_publ_section_title
;
Structure prediction by ZEFSAII (Michael W. Deem and Ramdas Pophale) SiO2 
 PCOD8191381
Probable space group: I M A 2
;
_chemical_formula_sum "Si O2"
_cell_formula_units_Z 48
_cell_length_a 9.040745
_cell_length_b 13.537833
_cell_length_c 18.658983
_cell_angle_alpha 90.000000
_cell_angle_beta 90.000000
_cell_angle_gamma 90.000000
_cell_volume 2283.712039
_symmetry_space_group_name_H-M "I M A 2"
_symmetry_group_IT_number 46
_symmetry_cell_setting 'orthorhombic'
loop_
_space_group_symop_operation_xyz
x,y,z
-x,-y,z
1/2-x,y,z
1/2+x,-y,z
1/2+x,1/2+y,1/2+z
1/2-x,1/2-y,1/2+z
-x,1/2+y,1/2+z
x,1/2-y,1/2+z
loop_
_atom_site_type_symbol
_atom_site_label
_atom_site_fract_x
_atom_site_fract_y
_atom_site_fract_z
Si Si1 0.085983 0.757703 0.058860
Si Si2 0.078536 0.186374 0.315393
Si Si3 0.421742 0.406747 0.314184
Si Si4 0.925711 0.100244 0.444806
Si Si5 0.914134 0.415282 0.166569
Si Si6 0.576767 0.604580 0.660841
O O1 0.250000 0.799925 0.040592
O O2 0.100039 0.684715 0.124861
O O3 0.980693 0.845454 0.086725
O O4 0.021340 0.695469 0.991610
O O5 0.250000 0.159952 0.328844
O O6 0.043445 0.297513 0.343988
O O7 0.040596 0.170788 0.231316
O O8 0.976201 0.115155 0.362747
O O9 0.500000 0.500000 0.355396
O O10 0.250000 0.428658 0.316668
O O11 0.479724 0.401826 0.233867
O O12 0.750000 0.088721 0.450853
O O13 0.000000 0.000000 0.474144
O O14 0.750000 0.450407 0.189894
O O15 0.000000 0.500000 0.119962
O O16 0.500000 0.500000 0.671596
O O17 0.750000 0.588172 0.651611
#
# Coordination Sequence:
#
# PCOD8191381 Si02
#       6
#     8   8   8   8   8   8
#     4  10  22  39  58  86 119 155 200 246 297 359
#     4  10  22  40  61  89 124 162 206 251 301 361
#     4  10  19  33  53  83 118 150 193 240 291 350
#     4  11  24  41  63  91 124 162 203 247 302 364
#     4  10  18  29  50  79 113 148 185 232 285 341
#     4  11  23  40  63  90 120 157 203 254 306 363
#
# _framework density 21.018412000000001
#
# number of rings (size 3 to 8) (size 9 to 14) (size 15 to 20)
#    0.000    1.667    1.667    4.000    0.000    6.000 
#    0.000    0.833    0.000    2.000    0.000    0.000 
#    0.000    0.000    0.000    0.000    0.000    0.000 
#
# Total GULP energy -297356.700831 kJ/mol
# GULP energy per Si atom -12389.862535 kJ/mol
# Density = 2.097057 g / cm^3
# Si number density = 21.018412 Si / 1000 Ang^3
#
#
#
# Elastic Constant Matrix: (Units=GPa)
#
#
# Indices 1 2 3 4 5 6 
#
# 1 104.8336 65.0370 31.0500 0.0000 0.0000 0.0000
# 2 65.0370 106.1253 23.0987 0.0000 0.0000 0.0000
# 3 31.0500 23.0987 66.9492 0.0000 0.0000 0.0000
# 4 0.0000 0.0000 0.0000 12.5653 0.0000 0.0000
# 5 0.0000 0.0000 0.0000 0.0000 20.2829 0.0000
# 6 0.0000 0.0000 0.0000 0.0000 0.0000 39.4436
#
#
#
# Elastic Compliance Matrix: (Units=1/GPa)
#
#
# Indices 1 2 3 4 5 6 
#
# 1 0.016565 -0.009168 -0.004520 0.000000 0.000000 0.000000
# 2 -0.009168 0.015262 -0.001014 0.000000 0.000000 0.000000
# 3 -0.004520 -0.001014 0.017383 0.000000 0.000000 0.000000
# 4 0.000000 0.000000 0.000000 0.079584 0.000000 0.000000
# 5 0.000000 0.000000 0.000000 0.000000 0.049303 0.000000
# 6 0.000000 0.000000 0.000000 0.000000 0.000000 0.025353
#
#
# Mechanical properties :
#
#
# Convention : Reuss Voigt Hill
#
# Bulk Modulus (GPa) = 50.48665 57.36438 53.92552
# Shear Modulus (GPa) = 20.88085 25.03987 22.96036
#
# Velocity S-wave (km/s) = 3.15533 3.45531 3.30872
# Velocity P-wave (km/s) = 6.11123 6.57804 6.34893
#
# Compressibility (1/GPa) = 0.01980721
#
# Stress axis : x y z
#
# Youngs Moduli (GPa) = 60.36754 65.52276 57.52898
#
# Poissons Ratio (x) = 0.60071 0.26001
# Poissons Ratio (y) = 0.55345 0.05831
# Poissons Ratio (z) = 0.27284 0.06642
#
# Static dielectric constant tensor:
#      x y z
#    x 4.089050 0.000000 0.000000 
#    y 0.000000 5.675940 0.000000 
#    z 0.000000 0.000000 3.516540 
# 
# 
# High freq. dielectric constant tensor:
#      x y z
#    x 1.828400 0.000000 0.000000 
#    y 0.000000 1.833840 0.000000 
#    z 0.000000 0.000000 1.792450 
# 
# From -- ./inp_files/18172.got.cif
#   From: 2010.03.12/outbox.cif.g09.slc.cpg/sg46_10_cif.got.tgz:18172.got - 2010.04.14 02:56:35.
