data_PCOD8191897
_publ_section_title
;
Structure prediction by ZEFSAII (Michael W. Deem and Ramdas Pophale) SiO2 
 PCOD8191897
Probable space group: I M A 2
;
_chemical_formula_sum "Si O2"
_cell_formula_units_Z 64
_cell_length_a 9.166116
_cell_length_b 32.454856
_cell_length_c 11.568726
_cell_angle_alpha 90.000000
_cell_angle_beta 90.000000
_cell_angle_gamma 90.000000
_cell_volume 3441.522163
_symmetry_space_group_name_H-M "I M A 2"
_symmetry_group_IT_number 46
_symmetry_cell_setting 'orthorhombic'
loop_
_space_group_symop_operation_xyz
x,y,z
-x,-y,z
1/2-x,y,z
1/2+x,-y,z
1/2+x,1/2+y,1/2+z
1/2-x,1/2-y,1/2+z
-x,1/2+y,1/2+z
x,1/2-y,1/2+z
loop_
_atom_site_type_symbol
_atom_site_label
_atom_site_fract_x
_atom_site_fract_y
_atom_site_fract_z
Si Si1 0.089038 0.687493 0.118610
Si Si2 0.082241 0.282491 0.913704
Si Si3 0.921219 0.624862 0.543677
Si Si4 0.078359 0.646962 0.778101
Si Si5 0.079819 0.040856 0.651606
Si Si6 0.079274 0.041562 0.915130
Si Si7 0.415421 0.188356 0.845845
Si Si8 0.908815 0.100835 0.498351
O O1 0.250000 0.707460 0.134838
O O2 0.105035 0.645617 0.050696
O O3 0.019822 0.677135 0.241198
O O4 0.987308 0.717220 0.041965
O O5 0.250000 0.296745 0.922056
O O6 0.068184 0.236183 0.871469
O O7 0.999964 0.311537 0.822350
O O8 0.750000 0.625967 0.573395
O O9 0.967363 0.580366 0.492732
O O10 0.963132 0.660731 0.454127
O O11 0.014521 0.633051 0.656650
O O12 0.250000 0.656472 0.767505
O O13 0.049210 0.608330 0.864304
O O14 0.250000 0.033801 0.640376
O O15 0.034464 0.052005 0.782835
O O16 0.034215 0.076497 0.563945
O O17 0.000000 0.000000 0.609513
O O18 0.250000 0.033054 0.923978
O O19 0.000000 0.000000 0.958572
O O20 0.250000 0.177036 0.811125
O O21 0.750000 0.078618 0.509023
#
# Coordination Sequence:
#
# PCOD8191897 Si02
#       8
#     8   8   8   8   8   8   8   8
#     4  10  21  36  55  80 109 140 178 227 279 329
#     4  10  21  37  57  79 108 147 187 230 281 335
#     4  10  21  38  58  83 113 149 193 237 281 338
#     4  10  22  39  57  80 111 148 189 235 285 337
#     4  10  19  32  55  85 114 143 178 224 279 333
#     4   9  19  35  56  83 115 147 182 229 282 337
#     4  10  22  37  56  81 110 144 187 233 276 333
#     4   9  19  36  54  75 107 142 179 223 272 328
#
# _framework density 18.596423000000001
#
# number of rings (size 3 to 8) (size 9 to 14) (size 15 to 20)
#    0.000    2.250    0.000    3.000    1.750    6.500 
#    0.000    0.625    0.000    1.500    0.000    0.000 
#    0.000    0.000    0.000    0.000    0.000    0.000 
#
# Total GULP energy -396798.677998 kJ/mol
# GULP energy per Si atom -12399.958687 kJ/mol
# Density = 1.855410 g / cm^3
# Si number density = 18.596423 Si / 1000 Ang^3
#
#
#
# Elastic Constant Matrix: (Units=GPa)
#
#
# Indices 1 2 3 4 5 6 
#
# 1 103.3186 38.6841 64.0816 0.0010 0.0023 0.0000
# 2 38.6841 74.8974 40.0201 0.0029 0.0061 0.0008
# 3 64.0816 40.0201 124.2220 0.0078 0.0159 0.0041
# 4 0.0010 0.0029 0.0078 13.7099 0.0097 0.0015
# 5 0.0023 0.0061 0.0159 0.0097 10.5830 0.0046
# 6 0.0000 0.0008 0.0041 0.0015 0.0046 23.6520
#
#
#
# Elastic Compliance Matrix: (Units=1/GPa)
#
#
# Indices 1 2 3 4 5 6 
#
# 1 0.015382 -0.004475 -0.006493 0.000004 0.000009 0.000001
# 2 -0.004475 0.017430 -0.003307 -0.000001 -0.000004 0.000000
# 3 -0.006493 -0.003307 0.012465 -0.000006 -0.000015 -0.000002
# 4 0.000004 -0.000001 -0.000006 0.072940 -0.000067 -0.000005
# 5 0.000009 -0.000004 -0.000015 -0.000067 0.094491 -0.000019
# 6 0.000001 0.000000 -0.000002 -0.000005 -0.000019 0.042280
#
#
# Mechanical properties :
#
#
# Convention : Reuss Voigt Hill
#
# Bulk Modulus (GPa) = 59.78511 65.33440 62.55976
# Shear Modulus (GPa) = 17.29433 20.23248 18.76341
#
# Velocity S-wave (km/s) = 3.05287 3.30203 3.17989
# Velocity P-wave (km/s) = 6.68170 7.05315 6.86994
#
# Compressibility (1/GPa) = 0.01672657
#
# Stress axis : x y z
#
# Youngs Moduli (GPa) = 65.01303 57.37284 80.22469
#
# Poissons Ratio (x) = 0.25674 0.52091
# Poissons Ratio (y) = 0.29093 0.26529
# Poissons Ratio (z) = 0.42213 0.18972
#
# Static dielectric constant tensor:
#      x y z
#    x 3.625100 -0.000010 0.000000 
#    y -0.000010 3.405800 0.000000 
#    z 0.000000 0.000000 3.546280 
# 
# 
# High freq. dielectric constant tensor:
#      x y z
#    x 1.730600 0.000000 0.000000 
#    y 0.000000 1.714460 0.000000 
#    z 0.000000 0.000000 1.721090 
# 
# From -- ./inp_files/9746.got.cif
#   From: 2010.03.12/outbox.cif.g09.slc.cpg/sg46_5_cif.got.tgz:9746.got - 2010.04.14 02:56:35.
