data_PCOD8191257
_publ_section_title
;
Structure prediction by ZEFSAII (Michael W. Deem and Ramdas Pophale) SiO2 
 PCOD8191257
Probable space group: I M A 2
;
_chemical_formula_sum "Si O2"
_cell_formula_units_Z 48
_cell_length_a 8.877830
_cell_length_b 24.587181
_cell_length_c 14.025969
_cell_angle_alpha 90.000000
_cell_angle_beta 90.000000
_cell_angle_gamma 90.000000
_cell_volume 3061.599918
_symmetry_space_group_name_H-M "I M A 2"
_symmetry_group_IT_number 46
_symmetry_cell_setting 'orthorhombic'
loop_
_space_group_symop_operation_xyz
x,y,z
-x,-y,z
1/2-x,y,z
1/2+x,-y,z
1/2+x,1/2+y,1/2+z
1/2-x,1/2-y,1/2+z
-x,1/2+y,1/2+z
x,1/2-y,1/2+z
loop_
_atom_site_type_symbol
_atom_site_label
_atom_site_fract_x
_atom_site_fract_y
_atom_site_fract_z
Si Si1 0.916210 0.226230 0.377060
Si Si2 0.583031 0.160667 0.200410
Si Si3 0.425085 0.444152 0.747765
Si Si4 0.426165 0.443591 0.970168
Si Si5 0.572630 0.732475 0.206836
Si Si6 0.929392 0.161492 0.556075
O O1 0.750000 0.252988 0.388357
O O2 0.901784 0.171166 0.313943
O O3 0.981562 0.206970 0.478508
O O4 0.026398 0.267859 0.319861
O O5 0.750000 0.157964 0.153412
O O6 0.496666 0.104095 0.184694
O O7 0.489239 0.211780 0.156808
O O8 0.500000 0.500000 0.713751
O O9 0.250000 0.447043 0.724964
O O10 0.457083 0.433453 0.858789
O O11 0.500000 0.500000 0.003088
O O12 0.250000 0.445368 0.992437
O O13 0.501296 0.396628 0.032437
O O14 0.750000 0.728760 0.195667
O O15 0.494465 0.680857 0.157334
O O16 0.750000 0.156805 0.559432
#
# Coordination Sequence:
#
# PCOD8191257 Si02
#       6
#     8   8   8   8   8   8
#     4   8  17  30  44  60  83 114 146 180 217 255
#     4   9  16  29  42  57  82 111 144 180 214 249
#     4  10  18  26  40  60  84 115 147 177 212 257
#     4  10  19  28  39  58  84 113 146 179 212 255
#     4  10  19  29  43  63  86 113 146 182 220 263
#     4  11  19  30  47  64  86 118 150 181 221 262
#
# _framework density 15.678076000000001
#
# number of rings (size 3 to 8) (size 9 to 14) (size 15 to 20)
#    1.000    1.333    1.667    3.000    0.000    2.667 
#    0.000    0.000    0.000    0.000    0.000    0.000 
#    0.000    1.333    0.000    5.000    0.000    8.500 
#
# Total GULP energy -297377.008374 kJ/mol
# GULP energy per Si atom -12390.708682 kJ/mol
# Density = 1.564239 g / cm^3
# Si number density = 15.678076 Si / 1000 Ang^3
#
#
#
# Elastic Constant Matrix: (Units=GPa)
#
#
# Indices 1 2 3 4 5 6 
#
# 1 103.4826 46.5868 21.1230 0.0000 0.0000 0.0000
# 2 46.5868 80.2400 21.1098 0.0001 -0.0001 0.0000
# 3 21.1230 21.1098 32.9825 0.0001 0.0000 0.0000
# 4 0.0000 0.0001 0.0001 25.1346 0.0000 0.0000
# 5 0.0000 -0.0001 0.0000 0.0000 14.7120 0.0000
# 6 0.0000 0.0000 0.0000 0.0000 0.0000 31.4530
#
#
#
# Elastic Compliance Matrix: (Units=1/GPa)
#
#
# Indices 1 2 3 4 5 6 
#
# 1 0.013593 -0.006736 -0.004394 0.000000 0.000000 0.000000
# 2 -0.006736 0.018324 -0.007414 0.000000 0.000000 0.000000
# 3 -0.004394 -0.007414 0.037878 0.000000 0.000000 0.000000
# 4 0.000000 0.000000 0.000000 0.039786 0.000000 0.000000
# 5 0.000000 0.000000 0.000000 0.000000 0.067972 0.000000
# 6 0.000000 0.000000 0.000000 0.000000 0.000000 0.031793
#
#
# Mechanical properties :
#
#
# Convention : Reuss Voigt Hill
#
# Bulk Modulus (GPa) = 30.57433 43.81603 37.19518
# Shear Modulus (GPa) = 19.42980 22.78561 21.10770
#
# Velocity S-wave (km/s) = 3.52418 3.81641 3.67320
# Velocity P-wave (km/s) = 6.00862 6.88680 6.46264
#
# Compressibility (1/GPa) = 0.03270718
#
# Stress axis : x y z
#
# Youngs Moduli (GPa) = 73.56825 54.57344 26.40027
#
# Poissons Ratio (x) = 0.36760 0.11601
# Poissons Ratio (y) = 0.49555 0.19573
# Poissons Ratio (z) = 0.32327 0.40461
#
# Static dielectric constant tensor:
#      x y z
#    x 3.019520 0.000000 0.000000 
#    y 0.000000 2.834490 0.000000 
#    z 0.000000 0.000000 2.547090 
# 
# 
# High freq. dielectric constant tensor:
#      x y z
#    x 1.618860 0.000000 0.000000 
#    y 0.000000 1.586040 0.000000 
#    z 0.000000 0.000000 1.543390 
# 
# From -- ./inp_files/18409.got.cif
#   From: 2010.03.12/outbox.cif.g09.slc.cpg/sg46_10_cif.got.tgz:18409.got - 2010.04.14 02:56:35.
