data_PCOD8191119
_publ_section_title
;
Structure prediction by ZEFSAII (Michael W. Deem and Ramdas Pophale) SiO2 
 PCOD8191119
Probable space group: I B A 2
;
_chemical_formula_sum "Si O2"
_cell_formula_units_Z 48
_cell_length_a 16.808146
_cell_length_b 9.305566
_cell_length_c 13.282854
_cell_angle_alpha 90.000000
_cell_angle_beta 90.000000
_cell_angle_gamma 90.000000
_cell_volume 2077.562055
_symmetry_space_group_name_H-M "I B A 2"
_symmetry_group_IT_number 45
_symmetry_cell_setting 'orthorhombic'
loop_
_space_group_symop_operation_xyz
x,y,z
-x,-y,z
-x,y,1/2+z
x,-y,1/2+z
1/2+x,1/2+y,1/2+z
1/2-x,1/2-y,1/2+z
1/2-x,1/2+y,z
1/2+x,1/2-y,z
loop_
_atom_site_type_symbol
_atom_site_label
_atom_site_fract_x
_atom_site_fract_y
_atom_site_fract_z
Si Si1 0.640518 0.886422 0.973660
Si Si2 0.910098 0.496241 0.771168
Si Si3 0.816810 0.136041 0.450560
Si Si4 0.849404 0.195649 0.227542
Si Si5 0.421262 0.408125 0.043537
Si Si6 0.816002 0.635688 0.116192
O O1 0.595131 0.982024 0.891433
O O2 0.724320 0.836275 0.927029
O O3 0.581605 0.754013 0.999048
O O4 0.668205 0.976813 0.070913
O O5 0.862392 0.635262 0.734752
O O6 0.872109 0.357472 0.715061
O O7 0.000000 0.500000 0.735312
O O8 0.855240 0.136206 0.340055
O O9 0.846074 0.255475 0.530149
O O10 0.842027 0.984850 0.499514
O O11 0.917498 0.110721 0.164725
O O12 0.771769 0.168417 0.157805
O O13 0.500000 0.500000 0.013558
#
# Coordination Sequence:
#
# PCOD8191119 Si02
#       6
#     8   8   8   8   8   8
#     4  12  24  49  77 113 150 209 265 319 390 473
#     4  12  29  47  80 115 156 206 262 329 394 479
#     4  12  25  45  79 114 146 206 266 323 384 479
#     4  12  26  48  77 115 153 202 269 318 401 472
#     4  12  30  48  75 114 166 204 256 337 405 465
#     4  12  24  47  81 109 149 204 265 320 382 482
#
# _framework density 23.104002000000001
#
# number of rings (size 3 to 8) (size 9 to 14) (size 15 to 20)
#    0.000    0.000    8.333    0.000    4.667    2.667 
#    0.000    0.000    0.000    0.000    0.000    0.000 
#    0.000    0.000    0.000    0.000    0.000    0.000 
#
# Total GULP energy -297396.015834 kJ/mol
# GULP energy per Si atom -12391.500660 kJ/mol
# Density = 2.305142 g / cm^3
# Si number density = 23.104002 Si / 1000 Ang^3
#
#
#
# Elastic Constant Matrix: (Units=GPa)
#
#
# Indices 1 2 3 4 5 6 
#
# 1 94.0498 45.4157 30.9547 0.0000 0.0000 0.0000
# 2 45.4157 127.7421 63.4212 0.0000 0.0000 0.0000
# 3 30.9547 63.4212 160.0781 0.0000 0.0000 0.0000
# 4 0.0000 0.0000 0.0000 29.5581 0.0000 0.0000
# 5 0.0000 0.0000 0.0000 0.0000 20.1992 0.0000
# 6 0.0000 0.0000 0.0000 0.0000 0.0000 39.3962
#
#
#
# Elastic Compliance Matrix: (Units=1/GPa)
#
#
# Indices 1 2 3 4 5 6 
#
# 1 0.012928 -0.004177 -0.000845 0.000000 0.000000 0.000000
# 2 -0.004177 0.011094 -0.003588 0.000000 0.000000 0.000000
# 3 -0.000845 -0.003588 0.007832 0.000000 0.000000 0.000000
# 4 0.000000 0.000000 0.000000 0.033832 0.000000 0.000000
# 5 0.000000 0.000000 0.000000 0.000000 0.049507 0.000000
# 6 0.000000 0.000000 0.000000 0.000000 0.000000 0.025383
#
#
# Mechanical properties :
#
#
# Convention : Reuss Voigt Hill
#
# Bulk Modulus (GPa) = 68.33011 73.49481 70.91246
# Shear Modulus (GPa) = 30.73649 33.96926 32.35288
#
# Velocity S-wave (km/s) = 3.65136 3.83858 3.74614
# Velocity P-wave (km/s) = 6.88591 7.17814 7.03354
#
# Compressibility (1/GPa) = 0.01463484
#
# Stress axis : x y z
#
# Youngs Moduli (GPa) = 77.35369 90.13530 127.68365
#
# Poissons Ratio (x) = 0.37645 0.10791
# Poissons Ratio (y) = 0.32307 0.45811
# Poissons Ratio (z) = 0.06538 0.32339
#
# Static dielectric constant tensor:
#      x y z
#    x 3.953730 0.000000 0.000000 
#    y 0.000000 4.144010 0.000000 
#    z 0.000000 0.000000 4.430630 
# 
# 
# High freq. dielectric constant tensor:
#      x y z
#    x 1.894990 0.000000 0.000000 
#    y 0.000000 1.909120 0.000000 
#    z 0.000000 0.000000 1.938800 
# 
# From -- ./inp_files/6752.got.cif
#   From: 2010.03.12/outbox.cif.g09.slc.cpg/sg45_4_cif.got.tgz:6752.got - 2010.04.14 02:50:11.
