data_PCOD8191206
_publ_section_title
;
Structure prediction by ZEFSAII (Michael W. Deem and Ramdas Pophale) SiO2 
 PCOD8191206
Probable space group: I M A 2
;
_chemical_formula_sum "Si O2"
_cell_formula_units_Z 64
_cell_length_a 16.979190
_cell_length_b 8.574990
_cell_length_c 24.063981
_cell_angle_alpha 90.000000
_cell_angle_beta 90.000000
_cell_angle_gamma 90.000000
_cell_volume 3503.628629
_symmetry_space_group_name_H-M "I M A 2"
_symmetry_group_IT_number 46
_symmetry_cell_setting 'orthorhombic'
loop_
_space_group_symop_operation_xyz
x,y,z
-x,-y,z
1/2-x,y,z
1/2+x,-y,z
1/2+x,1/2+y,1/2+z
1/2-x,1/2-y,1/2+z
-x,1/2+y,1/2+z
x,1/2-y,1/2+z
loop_
_atom_site_type_symbol
_atom_site_label
_atom_site_fract_x
_atom_site_fract_y
_atom_site_fract_z
Si Si1 0.157720 0.330478 0.943380
Si Si2 0.523879 0.679063 0.374686
Si Si3 0.341691 0.183897 0.177899
Si Si4 0.839827 0.819794 0.054104
Si Si5 0.073530 0.887990 0.171418
Si Si6 0.074854 0.884708 0.048255
Si Si7 0.066909 0.879305 0.457226
Si Si8 0.519251 0.822491 0.746089
O O1 0.250000 0.294080 0.934798
O O2 0.109603 0.224990 0.899305
O O3 0.142810 0.516926 0.939462
O O4 0.123847 0.282902 0.004457
O O5 0.500000 0.500000 0.385783
O O6 0.457368 0.785225 0.402505
O O7 0.524795 0.722646 0.310263
O O8 0.250000 0.228346 0.186862
O O9 0.374341 0.220891 0.115215
O O10 0.396176 0.282372 0.219232
O O11 0.351208 0.996295 0.187200
O O12 0.750000 0.777012 0.057217
O O13 0.850351 0.002561 0.039980
O O14 0.079483 0.811038 0.110182
O O15 0.056528 0.761376 0.218696
O O16 0.000000 0.000000 0.170028
O O17 0.082449 0.741220 0.006674
O O18 0.000000 0.000000 0.038349
O O19 0.000000 0.000000 0.476291
O O20 0.500000 0.000000 0.737260
#
# Coordination Sequence:
#
# PCOD8191206 Si02
#       8
#     8   8   8   8   8   8   8   8
#     4  10  21  35  52  77 105 131 164 209 257 300
#     4  10  21  38  55  71  96 135 176 210 250 300
#     4   9  18  34  55  76 101 136 171 201 243 301
#     4   9  18  33  51  73 103 135 164 198 244 297
#     4   8  17  31  50  75 102 132 168 207 244 292
#     4  10  17  29  50  75 100 132 172 201 234 293
#     4  10  20  31  49  75 102 131 165 208 253 297
#     4  10  21  35  53  76 101 130 168 214 258 296
#
# _framework density 18.266776
#
# number of rings (size 3 to 8) (size 9 to 14) (size 15 to 20)
#    0.000    2.500    0.000    3.375    0.000    7.000 
#    0.000    1.250    0.000    1.500    0.000    0.000 
#    0.000    0.000    0.000    0.000    0.000    0.000 
#
# Total GULP energy -396486.419050 kJ/mol
# GULP energy per Si atom -12390.200595 kJ/mol
# Density = 1.822520 g / cm^3
# Si number density = 18.266776 Si / 1000 Ang^3
#
#
#
# Elastic Constant Matrix: (Units=GPa)
#
#
# Indices 1 2 3 4 5 6 
#
# 1 57.5988 32.7907 48.4123 0.0000 0.0000 0.0000
# 2 32.7907 99.3111 81.5189 0.0000 0.0000 0.0000
# 3 48.4123 81.5189 147.8212 0.0000 0.0000 0.0000
# 4 0.0000 0.0000 0.0000 33.2811 0.0000 0.0000
# 5 0.0000 0.0000 0.0000 0.0000 16.2235 0.0000
# 6 0.0000 0.0000 0.0000 0.0000 0.0000 21.9944
#
#
#
# Elastic Compliance Matrix: (Units=1/GPa)
#
#
# Indices 1 2 3 4 5 6 
#
# 1 0.024354 -0.002730 -0.006471 0.000000 0.000000 0.000000
# 2 -0.002730 0.018703 -0.009420 0.000000 0.000000 0.000000
# 3 -0.006471 -0.009420 0.014079 0.000000 0.000000 0.000000
# 4 0.000000 0.000000 0.000000 0.030047 0.000000 0.000000
# 5 0.000000 0.000000 0.000000 0.000000 0.061639 0.000000
# 6 0.000000 0.000000 0.000000 0.000000 0.000000 0.045466
#
#
# Mechanical properties :
#
#
# Convention : Reuss Voigt Hill
#
# Bulk Modulus (GPa) = 50.26393 70.01942 60.14168
# Shear Modulus (GPa) = 20.99412 23.76710 22.38061
#
# Velocity S-wave (km/s) = 3.39382 3.61100 3.50410
# Velocity P-wave (km/s) = 6.55238 7.46998 7.02618
#
# Compressibility (1/GPa) = 0.01989498
#
# Stress axis : x y z
#
# Youngs Moduli (GPa) = 41.06053 53.46668 71.02738
#
# Poissons Ratio (x) = 0.14596 0.45960
# Poissons Ratio (y) = 0.11209 0.66909
# Poissons Ratio (z) = 0.26569 0.50367
#
# Static dielectric constant tensor:
#      x y z
#    x 7.688140 0.000000 0.000000 
#    y 0.000000 4.370460 0.000000 
#    z 0.000000 0.000000 3.712710 
# 
# 
# High freq. dielectric constant tensor:
#      x y z
#    x 1.694400 0.000000 0.000000 
#    y 0.000000 1.700980 0.000000 
#    z 0.000000 0.000000 1.712460 
# 
# From -- ./inp_files/23787.got.cif
#   From: 2010.03.12/outbox.cif.g09.slc.cpg/sg46_12_cif.got.tgz:23787.got - 2010.04.14 02:56:35.
