data_PCOD8191432
_publ_section_title
;
Structure prediction by ZEFSAII (Michael W. Deem and Ramdas Pophale) SiO2 
 PCOD8191432
Probable space group: I M A 2
;
_chemical_formula_sum "Si O2"
_cell_formula_units_Z 64
_cell_length_a 8.824283
_cell_length_b 17.808911
_cell_length_c 20.448460
_cell_angle_alpha 90.000000
_cell_angle_beta 90.000000
_cell_angle_gamma 90.000000
_cell_volume 3213.493291
_symmetry_space_group_name_H-M "I M A 2"
_symmetry_group_IT_number 46
_symmetry_cell_setting 'orthorhombic'
loop_
_space_group_symop_operation_xyz
x,y,z
-x,-y,z
1/2-x,y,z
1/2+x,-y,z
1/2+x,1/2+y,1/2+z
1/2-x,1/2-y,1/2+z
-x,1/2+y,1/2+z
x,1/2-y,1/2+z
loop_
_atom_site_type_symbol
_atom_site_label
_atom_site_fract_x
_atom_site_fract_y
_atom_site_fract_z
Si Si1 0.426833 0.642634 0.574820
Si Si2 0.920824 0.814794 0.716420
Si Si3 0.079176 0.314794 0.933221
Si Si4 0.426400 0.138113 0.208048
Si Si5 0.578245 0.703662 0.074820
Si Si6 0.572432 0.076504 0.336273
Si Si7 0.427568 0.923496 0.813368
Si Si8 0.926400 0.861887 0.941592
O O1 0.250000 0.624167 0.574820
O O2 0.503594 0.608561 0.639880
O O3 0.452963 0.731850 0.574820
O O4 0.503596 0.608561 0.509760
O O5 0.750000 0.830209 0.741536
O O6 0.956601 0.726485 0.718035
O O7 0.940701 0.844705 0.641333
O O8 0.036958 0.856545 0.763218
O O9 0.250000 0.330210 0.908104
O O10 0.043399 0.226485 0.931605
O O11 0.963041 0.356545 0.886423
O O12 0.059299 0.344705 0.008307
O O13 0.250000 0.119124 0.208912
O O14 0.506743 0.092944 0.265224
O O15 0.750000 0.739770 0.074820
O O16 0.750000 0.066646 0.330882
O O17 0.500000 0.000000 0.363900
O O18 0.250000 0.933354 0.818758
O O19 0.493256 0.907056 0.884417
O O20 0.500000 0.000000 0.785741
O O21 0.750000 0.880876 0.940727
#
# Coordination Sequence:
#
# PCOD8191432 Si02
#       8
#     8   8   8   8   8   8   8   8
#     4  10  18  30  53  86 117 142 177 224 269 318
#     4   9  18  35  59  85 112 144 181 222 271 327
#     4   9  18  35  59  85 112 144 181 222 271 327
#     4  10  20  37  60  84 112 146 182 223 274 327
#     4   8  16  32  55  82 113 146 178 220 275 326
#     4  12  25  39  55  78 110 147 187 230 276 326
#     4  12  25  39  55  78 110 147 187 230 276 326
#     4  10  20  37  60  84 112 146 182 223 274 327
#
# _framework density 19.916021000000001
#
# number of rings (size 3 to 8) (size 9 to 14) (size 15 to 20)
#    0.000    2.000    0.000    6.375    0.000    8.000 
#    0.000    1.250    0.000    0.000    0.000    0.000 
#    0.000    0.000    0.000    0.000    0.000    0.000 
#
# Total GULP energy -396788.667766 kJ/mol
# GULP energy per Si atom -12399.645868 kJ/mol
# Density = 1.987069 g / cm^3
# Si number density = 19.916021 Si / 1000 Ang^3
#
#
#
# Elastic Constant Matrix: (Units=GPa)
#
#
# Indices 1 2 3 4 5 6 
#
# 1 140.7231 23.7055 37.6278 0.0000 0.0000 0.0000
# 2 23.7055 31.1413 6.9842 0.0000 0.0000 0.0000
# 3 37.6278 6.9842 97.4949 0.0000 0.0000 0.0000
# 4 0.0000 0.0000 0.0000 1.4607 0.0000 0.0000
# 5 0.0000 0.0000 0.0000 0.0000 36.2945 0.0000
# 6 0.0000 0.0000 0.0000 0.0000 0.0000 27.6743
#
#
#
# Elastic Compliance Matrix: (Units=1/GPa)
#
#
# Indices 1 2 3 4 5 6 
#
# 1 0.008945 -0.006133 -0.003013 0.000000 0.000000 0.000000
# 2 -0.006133 0.036842 -0.000272 0.000000 0.000000 0.000000
# 3 -0.003013 -0.000272 0.011439 0.000000 0.000000 0.000000
# 4 0.000000 0.000000 0.000000 0.684603 0.000000 0.000000
# 5 0.000000 0.000000 0.000000 0.000000 0.027552 0.000000
# 6 0.000000 0.000000 0.000000 0.000000 0.000000 0.036135
#
#
# Mechanical properties :
#
#
# Convention : Reuss Voigt Hill
#
# Bulk Modulus (GPa) = 26.04906 45.11048 35.57977
# Shear Modulus (GPa) = 5.97265 26.48869 16.23067
#
# Velocity S-wave (km/s) = 1.73362 3.65090 2.85784
# Velocity P-wave (km/s) = 4.13704 6.36173 5.36594
#
# Compressibility (1/GPa) = 0.03838910
#
# Stress axis : x y z
#
# Youngs Moduli (GPa) = 111.79464 27.14325 87.41831
#
# Poissons Ratio (x) = 0.16648 0.26338
# Poissons Ratio (y) = 0.68568 0.02378
# Poissons Ratio (z) = 0.33683 0.00738
#
# Static dielectric constant tensor:
#      x y z
#    x 3.553400 0.000000 0.000000 
#    y 0.000000 3.289280 0.000000 
#    z 0.000000 0.000000 3.989820 
# 
# 
# High freq. dielectric constant tensor:
#      x y z
#    x 1.779660 0.000000 0.000000 
#    y 0.000000 1.735500 0.000000 
#    z 0.000000 0.000000 1.798690 
# 
# From -- ./inp_files/21345.got.cif
#   From: 2010.03.12/outbox.cif.g09.slc.cpg/sg46_11_cif.got.tgz:21345.got - 2010.04.14 02:56:35.
