data_PCOD8191708
_publ_section_title
;
Structure prediction by ZEFSAII (Michael W. Deem and Ramdas Pophale) SiO2 
 PCOD8191708
Probable space group: I M A 2
;
_chemical_formula_sum "Si O2"
_cell_formula_units_Z 64
_cell_length_a 8.827563
_cell_length_b 31.278794
_cell_length_c 12.123347
_cell_angle_alpha 90.000000
_cell_angle_beta 90.000000
_cell_angle_gamma 90.000000
_cell_volume 3347.444317
_symmetry_space_group_name_H-M "I M A 2"
_symmetry_group_IT_number 46
_symmetry_cell_setting 'orthorhombic'
loop_
_space_group_symop_operation_xyz
x,y,z
-x,-y,z
1/2-x,y,z
1/2+x,-y,z
1/2+x,1/2+y,1/2+z
1/2-x,1/2-y,1/2+z
-x,1/2+y,1/2+z
x,1/2-y,1/2+z
loop_
_atom_site_type_symbol
_atom_site_label
_atom_site_fract_x
_atom_site_fract_y
_atom_site_fract_z
Si Si1 0.070254 0.956607 0.000000
Si Si2 0.930405 0.374921 0.112942
Si Si3 0.570254 0.043393 0.475342
Si Si4 0.430577 0.666026 0.737671
Si Si5 0.930663 0.202836 0.010005
Si Si6 0.429837 0.570638 0.737671
Si Si7 0.930405 0.374921 0.362401
Si Si8 0.069337 0.797164 0.465338
O O1 0.250000 0.959148 0.993428
O O2 0.012756 0.952542 0.126728
O O3 0.010251 0.916364 0.929071
O O4 0.000000 0.000000 0.950128
O O5 0.750000 0.375007 0.112379
O O6 0.993532 0.376442 0.237672
O O7 0.989748 0.416364 0.046272
O O8 0.990552 0.331553 0.054910
O O9 0.750000 0.040852 0.481913
O O10 0.512754 0.047458 0.348614
O O11 0.500000 0.000000 0.525215
O O12 0.250000 0.664918 0.737672
O O13 0.491872 0.690020 0.630051
O O14 0.496438 0.618342 0.737671
O O15 0.491872 0.690020 0.845292
O O16 0.750000 0.203344 0.007321
O O17 0.990551 0.168447 0.920432
O O18 0.996518 0.250000 0.987672
O O19 0.250000 0.572933 0.737672
O O20 0.750000 0.375008 0.362965
O O21 0.250000 0.796656 0.468021
#
# Coordination Sequence:
#
# PCOD8191708 Si02
#       8
#     8   8   8   8   8   8   8   8
#     4  10  19  31  47  66  88 117 151 185 223 264
#     4   9  17  28  40  57  84 116 147 180 219 263
#     4  10  19  31  47  66  88 117 151 185 223 264
#     4   9  14  23  37  54  80 114 147 177 215 262
#     4   9  16  23  35  56  82 114 148 179 213 260
#     4   9  15  27  44  62  86 116 148 181 221 266
#     4   9  17  28  40  57  84 116 147 180 219 263
#     4   9  16  23  35  56  82 114 148 179 213 260
#
# _framework density 19.119063000000001
#
# number of rings (size 3 to 8) (size 9 to 14) (size 15 to 20)
#    0.000    2.750    2.500    0.375    1.750    0.500 
#    0.000    0.000    0.000    0.000    0.000    0.000 
#    0.000    1.000    0.000    1.500    0.000    1.000 
#
# Total GULP energy -396658.492178 kJ/mol
# GULP energy per Si atom -12395.577881 kJ/mol
# Density = 1.907555 g / cm^3
# Si number density = 19.119063 Si / 1000 Ang^3
#
#
#
# Elastic Constant Matrix: (Units=GPa)
#
#
# Indices 1 2 3 4 5 6 
#
# 1 3.6646 11.3867 8.7259 -0.0012 0.0007 0.0005
# 2 11.3867 196.1691 83.9150 -0.0039 0.0008 -0.0001
# 3 8.7259 83.9150 162.7516 -0.0096 0.0012 0.0004
# 4 -0.0012 -0.0039 -0.0096 29.1270 0.0014 0.0001
# 5 0.0007 0.0008 0.0012 0.0014 3.9769 -0.0015
# 6 0.0005 -0.0001 0.0004 0.0001 -0.0015 16.0201
#
#
#
# Elastic Compliance Matrix: (Units=1/GPa)
#
#
# Indices 1 2 3 4 5 6 
#
# 1 0.346444 -0.015606 -0.010528 0.000009 -0.000054 -0.000011
# 2 -0.015606 0.007243 -0.002898 -0.000001 0.000002 0.000001
# 3 -0.010528 -0.002898 0.008203 0.000002 0.000000 0.000000
# 4 0.000009 -0.000001 0.000002 0.034332 -0.000012 0.000000
# 5 -0.000054 0.000002 0.000000 -0.000012 0.251455 0.000023
# 6 -0.000011 0.000001 0.000000 0.000000 0.000023 0.062422
#
#
# Mechanical properties :
#
#
# Convention : Reuss Voigt Hill
#
# Bulk Modulus (GPa) = 3.29135 63.40447 33.34791
# Shear Modulus (GPa) = 5.75084 27.06198 16.40641
#
# Velocity S-wave (km/s) = 1.73621 3.76632 2.93254
# Velocity P-wave (km/s) = 2.39677 7.22139 5.38020
#
# Compressibility (1/GPa) = 0.30382664
#
# Stress axis : x y z
#
# Youngs Moduli (GPa) = 2.88647 138.06236 121.90770
#
# Poissons Ratio (x) = 2.15459 1.28345
# Poissons Ratio (y) = 0.04505 0.35327
# Poissons Ratio (z) = 0.03039 0.40008
#
# Static dielectric constant tensor:
#      x y z
#    x 2.571980 0.000000 0.000000 
#    y 0.000000 3.743130 0.000000 
#    z 0.000000 0.000000 3.773020 
# 
# 
# High freq. dielectric constant tensor:
#      x y z
#    x 1.648370 0.000000 0.000000 
#    y 0.000000 1.762020 0.000000 
#    z 0.000000 0.000000 1.753450 
# 
# From -- ./inp_files/10574.got.cif
#   From: 2010.03.12/outbox.cif.g09.slc.cpg/sg46_6_cif.got.tgz:10574.got - 2010.04.14 02:56:35.
