data_PCOD8191222
_publ_section_title
;
Structure prediction by ZEFSAII (Michael W. Deem and Ramdas Pophale) SiO2 
 PCOD8191222
Probable space group: I M A 2
;
_chemical_formula_sum "Si O2"
_cell_formula_units_Z 40
_cell_length_a 15.857850
_cell_length_b 24.714558
_cell_length_c 5.239893
_cell_angle_alpha 90.000000
_cell_angle_beta 90.000000
_cell_angle_gamma 90.000000
_cell_volume 2053.617573
_symmetry_space_group_name_H-M "I M A 2"
_symmetry_group_IT_number 46
_symmetry_cell_setting 'orthorhombic'
loop_
_space_group_symop_operation_xyz
x,y,z
-x,-y,z
1/2-x,y,z
1/2+x,-y,z
1/2+x,1/2+y,1/2+z
1/2-x,1/2-y,1/2+z
-x,1/2+y,1/2+z
x,1/2-y,1/2+z
loop_
_atom_site_type_symbol
_atom_site_label
_atom_site_fract_x
_atom_site_fract_y
_atom_site_fract_z
Si Si1 0.156390 0.451930 0.715850
Si Si2 0.250000 0.555316 0.686667
Si Si3 0.080776 0.283674 0.211122
Si Si4 0.884648 0.283739 0.208790
Si Si5 0.651012 0.901113 0.715873
Si Si6 0.750000 0.125618 0.687333
O O1 0.250000 0.425180 0.716854
O O2 0.166009 0.517449 0.711708
O O3 0.108604 0.428963 0.465448
O O4 0.108886 0.430412 0.969254
O O5 0.250000 0.580789 0.406568
O O6 0.250000 0.599471 0.907672
O O7 0.105350 0.249874 0.460758
O O8 0.135309 0.337567 0.211335
O O9 0.982587 0.299117 0.211559
O O10 0.859452 0.251359 0.954770
O O11 0.833927 0.339228 0.216762
O O12 0.750000 0.914117 0.717602
#
# Coordination Sequence:
#
# PCOD8191222 Si02
#       6
#     8   4   8   8   8   4
#     4   8  17  31  49  74  98 135 168 204 253 302
#     4  10  20  33  54  84 102 125 172 218 266 280
#     4  10  21  34  50  75 108 137 167 213 251 294
#     4  10  21  37  53  76 108 138 164 202 262 305
#     4  10  17  31  53  74  97 143 173 197 248 306
#     4  12  20  33  60  80  98 129 178 214 242 316
#
# _framework density 19.477823000000001
#
# number of rings (size 3 to 8) (size 9 to 14) (size 15 to 20)
#    0.600    1.600    0.000    4.200    0.000    0.800 
#    0.000    0.000    0.000    7.200    0.000    0.000 
#    0.000    0.000    0.000    0.000    0.000    0.000 
#
# Total GULP energy -247923.713021 kJ/mol
# GULP energy per Si atom -12396.185651 kJ/mol
# Density = 1.943349 g / cm^3
# Si number density = 19.477823 Si / 1000 Ang^3
#
#
#
# Elastic Constant Matrix: (Units=GPa)
#
#
# Indices 1 2 3 4 5 6 
#
# 1 13.3030 10.4319 14.4799 0.0000 0.0003 0.0000
# 2 10.4319 97.2410 46.6647 -0.0001 0.0004 0.0000
# 3 14.4799 46.6647 173.1111 0.0000 -0.0022 0.0000
# 4 0.0000 -0.0001 0.0000 44.7762 -0.0002 -0.0001
# 5 0.0003 0.0004 -0.0022 -0.0002 0.6397 -0.0001
# 6 0.0000 0.0000 0.0000 -0.0001 -0.0001 -2.0600
#
#
#
# Elastic Compliance Matrix: (Units=1/GPa)
#
#
# Indices 1 2 3 4 5 6 
#
# 1 0.086294 -0.006654 -0.005424 0.000000 -0.000057 0.000001
# 2 -0.006654 0.012325 -0.002766 0.000000 -0.000015 0.000000
# 3 -0.005424 -0.002766 0.006976 0.000000 0.000029 0.000000
# 4 0.000000 0.000000 0.000000 0.022333 0.000008 -0.000001
# 5 -0.000057 -0.000015 0.000029 0.000008 1.563166 -0.000080
# 6 0.000001 0.000000 0.000000 -0.000001 -0.000080 -0.485441
#
#
# Mechanical properties :
#
#
# Convention : Reuss Voigt Hill
#
# Bulk Modulus (GPa) = 13.17426 47.42315 30.29871
# Shear Modulus (GPa) = 3.96623 22.80975 13.38799
#
# Velocity S-wave (km/s) = 1.42853 3.42579 2.62457
# Velocity P-wave (km/s) = 3.08210 6.32836 4.97732
#
# Compressibility (1/GPa) = 0.07590557
#
# Stress axis : x y z
#
# Youngs Moduli (GPa) = 11.58832 81.13688 143.35072
#
# Poissons Ratio (x) = 0.53992 0.77757
# Poissons Ratio (y) = 0.07711 0.39647
# Poissons Ratio (z) = 0.06286 0.22440
#
# Static dielectric constant tensor:
#      x y z
#    x 3.061190 0.000000 -0.000010 
#    y 0.000000 3.354430 0.000000 
#    z -0.000010 0.000000 4.309320 
# 
# 
# High freq. dielectric constant tensor:
#      x y z
#    x 1.706120 0.000000 0.000000 
#    y 0.000000 1.757460 0.000000 
#    z 0.000000 0.000000 1.791460 
# 
# From -- ./inp_files/2021.got.cif
#   From: 2010.03.12/outbox.cif.g09.slc.cpg/sg46_2_cif.got.tgz:2021.got - 2010.04.14 02:56:35.
