data_PCOD8191973
_publ_section_title
;
Structure prediction by ZEFSAII (Michael W. Deem and Ramdas Pophale) SiO2 
 PCOD8191973
Probable space group: I M A 2
;
_chemical_formula_sum "Si O2"
_cell_formula_units_Z 64
_cell_length_a 18.103490
_cell_length_b 9.940588
_cell_length_c 18.251852
_cell_angle_alpha 90.000000
_cell_angle_beta 90.000000
_cell_angle_gamma 90.000000
_cell_volume 3284.591157
_symmetry_space_group_name_H-M "I M A 2"
_symmetry_group_IT_number 46
_symmetry_cell_setting 'orthorhombic'
loop_
_space_group_symop_operation_xyz
x,y,z
-x,-y,z
1/2-x,y,z
1/2+x,-y,z
1/2+x,1/2+y,1/2+z
1/2-x,1/2-y,1/2+z
-x,1/2+y,1/2+z
x,1/2-y,1/2+z
loop_
_atom_site_type_symbol
_atom_site_label
_atom_site_fract_x
_atom_site_fract_y
_atom_site_fract_z
Si Si1 0.580092 0.038045 0.534960
Si Si2 0.166754 0.705479 0.523457
Si Si3 0.334307 0.090342 0.042370
Si Si4 0.168447 0.788198 0.851830
Si Si5 0.665860 0.841570 0.631701
Si Si6 0.043974 0.616544 0.879186
Si Si7 0.446465 0.370150 0.412823
Si Si8 0.835350 0.924014 0.789270
O O1 0.609445 0.187075 0.557478
O O2 0.580131 0.033650 0.446854
O O3 0.500000 0.000000 0.568101
O O4 0.634555 0.925386 0.564159
O O5 0.250000 0.760207 0.534624
O O6 0.154767 0.565033 0.565974
O O7 0.152832 0.673580 0.436973
O O8 0.250000 0.108392 0.010459
O O9 0.397643 0.129639 0.985513
O O10 0.344698 0.183237 0.114203
O O11 0.250000 0.726561 0.842669
O O12 0.108613 0.676105 0.827655
O O13 0.158778 0.915770 0.799694
O O14 0.750000 0.883704 0.637307
O O15 0.631592 0.881664 0.710201
O O16 0.000000 0.500000 0.834300
O O17 0.995249 0.736190 0.913083
O O18 0.500000 0.500000 0.406388
O O19 0.389812 0.354400 0.346067
O O20 0.750000 0.877206 0.800939
#
# Coordination Sequence:
#
# PCOD8191973 Si02
#       8
#     8   8   8   8   8   8   8   8
#     4  10  19  34  50  79 115 148 183 235 284 346
#     4   9  16  29  54  81 108 143 190 239 289 337
#     4  10  19  33  54  85 115 145 189 245 297 348
#     4   9  16  32  55  81 109 149 198 243 281 338
#     4  10  22  37  57  82 115 152 191 240 294 349
#     4  10  20  33  52  84 118 144 183 245 296 346
#     4  12  20  34  59  86 111 152 199 240 293 339
#     4  10  20  37  59  85 113 150 203 245 280 345
#
# _framework density 19.484919999999999
#
# number of rings (size 3 to 8) (size 9 to 14) (size 15 to 20)
#    0.000    2.000    2.500    3.000    0.000    1.000 
#    0.000    1.250    2.750    0.750    0.000    0.000 
#    0.000    0.000    0.000    0.000    0.000    0.000 
#
# Total GULP energy -396569.225934 kJ/mol
# GULP energy per Si atom -12392.788310 kJ/mol
# Density = 1.944057 g / cm^3
# Si number density = 19.484920 Si / 1000 Ang^3
#
#
#
# Elastic Constant Matrix: (Units=GPa)
#
#
# Indices 1 2 3 4 5 6 
#
# 1 101.4554 55.2976 38.4543 0.0000 0.0000 0.0000
# 2 55.2976 124.2988 32.1897 0.0000 0.0000 0.0000
# 3 38.4543 32.1897 59.6488 0.0000 0.0000 0.0000
# 4 0.0000 0.0000 0.0000 22.6474 0.0000 0.0000
# 5 0.0000 0.0000 0.0000 0.0000 14.7720 0.0000
# 6 0.0000 0.0000 0.0000 0.0000 0.0000 31.9826
#
#
#
# Elastic Compliance Matrix: (Units=1/GPa)
#
#
# Indices 1 2 3 4 5 6 
#
# 1 0.015266 -0.004932 -0.007180 0.000000 0.000000 0.000000
# 2 -0.004932 0.010946 -0.002727 0.000000 0.000000 0.000000
# 3 -0.007180 -0.002727 0.022865 0.000000 0.000000 0.000000
# 4 0.000000 0.000000 0.000000 0.044155 0.000000 0.000000
# 5 0.000000 0.000000 0.000000 0.000000 0.067696 0.000000
# 6 0.000000 0.000000 0.000000 0.000000 0.000000 0.031267
#
#
# Mechanical properties :
#
#
# Convention : Reuss Voigt Hill
#
# Bulk Modulus (GPa) = 51.55099 59.69847 55.62473
# Shear Modulus (GPa) = 21.89712 24.51115 23.20414
#
# Velocity S-wave (km/s) = 3.35595 3.55061 3.45465
# Velocity P-wave (km/s) = 6.44444 6.89304 6.67251
#
# Compressibility (1/GPa) = 0.01939827
#
# Stress axis : x y z
#
# Youngs Moduli (GPa) = 65.50392 91.36106 43.73408
#
# Poissons Ratio (x) = 0.45061 0.31402
# Poissons Ratio (y) = 0.32307 0.11927
# Poissons Ratio (z) = 0.47033 0.24916
#
# Static dielectric constant tensor:
#      x y z
#    x 3.969010 0.000000 0.000000 
#    y 0.000000 3.738110 0.000000 
#    z 0.000000 0.000000 3.141230 
# 
# 
# High freq. dielectric constant tensor:
#      x y z
#    x 1.776270 0.000000 0.000000 
#    y 0.000000 1.761010 0.000000 
#    z 0.000000 0.000000 1.703830 
# 
# From -- ./inp_files/20226.got.cif
#   From: 2010.03.12/outbox.cif.g09.slc.cpg/sg46_11_cif.got.tgz:20226.got - 2010.04.14 02:56:35.
