data_PCOD8191799
_publ_section_title
;
Structure prediction by ZEFSAII (Michael W. Deem and Ramdas Pophale) SiO2 
 PCOD8191799
Probable space group: I M A 2
;
_chemical_formula_sum "Si O2"
_cell_formula_units_Z 48
_cell_length_a 8.600074
_cell_length_b 17.414727
_cell_length_c 18.397032
_cell_angle_alpha 90.000000
_cell_angle_beta 90.000000
_cell_angle_gamma 90.000000
_cell_volume 2755.285601
_symmetry_space_group_name_H-M "I M A 2"
_symmetry_group_IT_number 46
_symmetry_cell_setting 'orthorhombic'
loop_
_space_group_symop_operation_xyz
x,y,z
-x,-y,z
1/2-x,y,z
1/2+x,-y,z
1/2+x,1/2+y,1/2+z
1/2-x,1/2-y,1/2+z
-x,1/2+y,1/2+z
x,1/2-y,1/2+z
loop_
_atom_site_type_symbol
_atom_site_label
_atom_site_fract_x
_atom_site_fract_y
_atom_site_fract_z
Si Si1 0.569499 0.312174 0.296120
Si Si2 0.432782 0.082492 0.321491
Si Si3 0.566129 0.918072 0.690874
Si Si4 0.929968 0.686816 0.697026
Si Si5 0.429823 0.709677 0.923477
Si Si6 0.067695 0.788413 0.587611
O O1 0.750000 0.300339 0.273738
O O2 0.511767 0.396140 0.269678
O O3 0.456053 0.256187 0.252502
O O4 0.545906 0.291653 0.381409
O O5 0.250000 0.077882 0.323196
O O6 0.486772 0.110667 0.240599
O O7 0.483582 0.140612 0.384026
O O8 0.500000 0.000000 0.338999
O O9 0.750000 0.922131 0.698960
O O10 0.520827 0.856954 0.628601
O O11 0.500000 0.000000 0.666449
O O12 0.750000 0.681468 0.675466
O O13 0.028797 0.705579 0.624548
O O14 0.250000 0.687343 0.923950
O O15 0.493572 0.717258 0.005101
O O16 0.250000 0.804369 0.591405
#
# Coordination Sequence:
#
# PCOD8191799 Si02
#       6
#     8   8   8   8   8   8
#     4   9  16  30  50  70  92 122 158 196 233 277
#     4  10  20  32  49  71  97 127 160 196 237 280
#     4  11  21  33  49  71  97 127 160 197 237 281
#     4   9  17  30  47  69  93 122 160 198 233 276
#     4   9  19  33  50  72  99 127 157 191 234 284
#     4  10  19  32  50  73  98 127 158 192 234 282
#
# _framework density 17.421060000000001
#
# number of rings (size 3 to 8) (size 9 to 14) (size 15 to 20)
#    0.000    2.333    0.000    5.500    0.000    4.667 
#    0.000    0.000    0.000    1.000    0.000    2.333 
#    0.000    0.000    0.000    0.000    0.000    0.000 
#
# Total GULP energy -297374.559240 kJ/mol
# GULP energy per Si atom -12390.606635 kJ/mol
# Density = 1.738141 g / cm^3
# Si number density = 17.421060 Si / 1000 Ang^3
#
#
#
# Elastic Constant Matrix: (Units=GPa)
#
#
# Indices 1 2 3 4 5 6 
#
# 1 61.9353 22.9654 41.8477 0.0000 0.0000 0.0000
# 2 22.9654 35.8185 58.1366 0.0000 0.0000 0.0000
# 3 41.8477 58.1366 141.9121 0.0000 0.0000 0.0000
# 4 0.0000 0.0000 0.0000 20.9526 0.0000 0.0000
# 5 0.0000 0.0000 0.0000 0.0000 23.0456 0.0000
# 6 0.0000 0.0000 0.0000 0.0000 0.0000 26.6482
#
#
#
# Elastic Compliance Matrix: (Units=1/GPa)
#
#
# Indices 1 2 3 4 5 6 
#
# 1 0.021381 -0.010371 -0.002056 0.000000 0.000000 0.000000
# 2 -0.010371 0.088351 -0.033136 0.000000 0.000000 0.000000
# 3 -0.002056 -0.033136 0.021228 0.000000 0.000000 0.000000
# 4 0.000000 0.000000 0.000000 0.047727 0.000000 0.000000
# 5 0.000000 0.000000 0.000000 0.000000 0.043392 0.000000
# 6 0.000000 0.000000 0.000000 0.000000 0.000000 0.037526
#
#
# Mechanical properties :
#
#
# Convention : Reuss Voigt Hill
#
# Bulk Modulus (GPa) = 25.10506 53.95169 39.52837
# Shear Modulus (GPa) = 13.73591 21.91034 17.82312
#
# Velocity S-wave (km/s) = 2.81101 3.55024 3.20203
# Velocity P-wave (km/s) = 4.99777 6.91680 6.03406
#
# Compressibility (1/GPa) = 0.03983261
#
# Stress axis : x y z
#
# Youngs Moduli (GPa) = 46.77103 11.31846 47.10820
#
# Poissons Ratio (x) = 0.11739 0.09686
# Poissons Ratio (y) = 0.48507 1.56099
# Poissons Ratio (z) = 0.09617 0.37505
#
# Static dielectric constant tensor:
#      x y z
#    x 3.264810 0.000000 0.000000 
#    y 0.000000 3.293640 0.000000 
#    z 0.000000 0.000000 3.580780 
# 
# 
# High freq. dielectric constant tensor:
#      x y z
#    x 1.685500 0.000000 0.000000 
#    y 0.000000 1.648710 0.000000 
#    z 0.000000 0.000000 1.664040 
# 
# From -- ./inp_files/18266.got.cif
#   From: 2010.03.12/outbox.cif.g09.slc.cpg/sg46_10_cif.got.tgz:18266.got - 2010.04.14 02:56:35.
