data_PCOD8191612
_publ_section_title
;
Structure prediction by ZEFSAII (Michael W. Deem and Ramdas Pophale) SiO2 
 PCOD8191612
Probable space group: I M A 2
;
_chemical_formula_sum "Si O2"
_cell_formula_units_Z 64
_cell_length_a 20.627715
_cell_length_b 18.482033
_cell_length_c 9.109774
_cell_angle_alpha 90.000000
_cell_angle_beta 90.000000
_cell_angle_gamma 90.000000
_cell_volume 3473.029455
_symmetry_space_group_name_H-M "I M A 2"
_symmetry_group_IT_number 46
_symmetry_cell_setting 'orthorhombic'
loop_
_space_group_symop_operation_xyz
x,y,z
-x,-y,z
1/2-x,y,z
1/2+x,-y,z
1/2+x,1/2+y,1/2+z
1/2-x,1/2-y,1/2+z
-x,1/2+y,1/2+z
x,1/2-y,1/2+z
loop_
_atom_site_type_symbol
_atom_site_label
_atom_site_fract_x
_atom_site_fract_y
_atom_site_fract_z
Si Si1 0.572423 0.472069 0.250000
Si Si2 0.981734 0.319277 0.601747
Si Si3 0.177136 0.422011 0.595730
Si Si4 0.823732 0.679735 0.331695
Si Si5 0.521545 0.325043 0.251274
Si Si6 0.389899 0.326226 0.795756
Si Si7 0.603719 0.889676 0.602513
Si Si8 0.572004 0.468902 0.577715
O O1 0.500000 0.500000 0.260465
O O2 0.573064 0.387388 0.205321
O O3 0.609105 0.523753 0.134132
O O4 0.600916 0.474695 0.413380
O O5 0.987223 0.312676 0.425814
O O6 0.951533 0.246723 0.671532
O O7 0.933102 0.386415 0.636544
O O8 0.051613 0.328807 0.678449
O O9 0.250000 0.453613 0.591086
O O10 0.157044 0.386061 0.440433
O O11 0.173563 0.357655 0.715382
O O12 0.126609 0.482837 0.657870
O O13 0.750000 0.704390 0.358484
O O14 0.872392 0.747080 0.357179
O O15 0.831378 0.648554 0.165643
O O16 0.452049 0.349696 0.194032
O O17 0.408498 0.377317 0.931966
O O18 0.500000 0.500000 0.593729
#
# Coordination Sequence:
#
# PCOD8191612 Si02
#       8
#     8   8   8   8   8   8   8   8
#     4   8  17  33  55  73 107 147 179 232 282 327
#     4  11  21  34  56  84 116 149 184 232 293 341
#     4  11  23  40  57  80 114 156 199 236 284 340
#     4  11  23  37  56  78 112 161 201 226 271 338
#     4  10  20  35  52  81 113 144 182 232 290 345
#     4  12  23  33  52  84 119 154 191 231 277 341
#     4  11  20  35  55  76 112 151 196 227 277 331
#     4  10  18  36  60  80 107 146 195 236 284 335
#
# _framework density 18.427716
#
# number of rings (size 3 to 8) (size 9 to 14) (size 15 to 20)
#    0.000    1.500    3.750    3.375    0.000    2.000 
#    9.000    0.000    0.000    0.000    0.000    4.375 
#    0.000    0.000    0.000    0.000    0.000    0.000 
#
# Total GULP energy -396459.901247 kJ/mol
# GULP energy per Si atom -12389.371914 kJ/mol
# Density = 1.838577 g / cm^3
# Si number density = 18.427716 Si / 1000 Ang^3
#
#
#
# Elastic Constant Matrix: (Units=GPa)
#
#
# Indices 1 2 3 4 5 6 
#
# 1 64.1942 44.6628 17.6639 0.0000 0.0000 0.0000
# 2 44.6628 148.3269 44.9483 0.0000 0.0000 0.0000
# 3 17.6639 44.9483 87.5103 0.0000 0.0000 0.0000
# 4 0.0000 0.0000 0.0000 27.0768 0.0000 0.0000
# 5 0.0000 0.0000 0.0000 0.0000 14.5707 0.0000
# 6 0.0000 0.0000 0.0000 0.0000 0.0000 22.9242
#
#
#
# Elastic Compliance Matrix: (Units=1/GPa)
#
#
# Indices 1 2 3 4 5 6 
#
# 1 0.019796 -0.005626 -0.001106 0.000000 0.000000 0.000000
# 2 -0.005626 0.009583 -0.003787 0.000000 0.000000 0.000000
# 3 -0.001106 -0.003787 0.013596 0.000000 0.000000 0.000000
# 4 0.000000 0.000000 0.000000 0.036932 0.000000 0.000000
# 5 0.000000 0.000000 0.000000 0.000000 0.068631 0.000000
# 6 0.000000 0.000000 0.000000 0.000000 0.000000 0.043622
#
#
# Mechanical properties :
#
#
# Convention : Reuss Voigt Hill
#
# Bulk Modulus (GPa) = 45.58389 57.17573 51.37981
# Shear Modulus (GPa) = 22.67473 25.76477 24.21975
#
# Velocity S-wave (km/s) = 3.51161 3.74325 3.62928
# Velocity P-wave (km/s) = 6.42123 7.05528 6.74570
#
# Compressibility (1/GPa) = 0.02193758
#
# Stress axis : x y z
#
# Youngs Moduli (GPa) = 50.51493 104.34799 73.55332
#
# Poissons Ratio (x) = 0.58702 0.08138
# Poissons Ratio (y) = 0.28417 0.27853
# Poissons Ratio (z) = 0.05589 0.39515
#
# Static dielectric constant tensor:
#      x y z
#    x 2.979130 0.000000 0.000000 
#    y 0.000000 3.893920 0.000000 
#    z 0.000000 0.000000 3.377960 
# 
# 
# High freq. dielectric constant tensor:
#      x y z
#    x 1.662480 0.000000 0.000000 
#    y 0.000000 1.724250 0.000000 
#    z 0.000000 0.000000 1.710910 
# 
# From -- ./inp_files/7548.got.cif
#   From: 2010.03.12/outbox.cif.g09.slc.cpg/sg46_4_cif.got.tgz:7548.got - 2010.04.14 02:56:35.
