data_PCOD8191716
_publ_section_title
;
Structure prediction by ZEFSAII (Michael W. Deem and Ramdas Pophale) SiO2 
 PCOD8191716
Probable space group: I M A 2
;
_chemical_formula_sum "Si O2"
_cell_formula_units_Z 64
_cell_length_a 9.017191
_cell_length_b 27.437980
_cell_length_c 14.611862
_cell_angle_alpha 90.000000
_cell_angle_beta 90.000000
_cell_angle_gamma 90.000000
_cell_volume 3615.172011
_symmetry_space_group_name_H-M "I M A 2"
_symmetry_group_IT_number 46
_symmetry_cell_setting 'orthorhombic'
loop_
_space_group_symop_operation_xyz
x,y,z
-x,-y,z
1/2-x,y,z
1/2+x,-y,z
1/2+x,1/2+y,1/2+z
1/2-x,1/2-y,1/2+z
-x,1/2+y,1/2+z
x,1/2-y,1/2+z
loop_
_atom_site_type_symbol
_atom_site_label
_atom_site_fract_x
_atom_site_fract_y
_atom_site_fract_z
Si Si1 0.075352 0.638182 0.265620
Si Si2 0.920409 0.671102 0.641226
Si Si3 0.577173 0.549333 0.951625
Si Si4 0.579269 0.329168 0.462801
Si Si5 0.574759 0.218035 0.461764
Si Si6 0.925180 0.949646 0.661707
Si Si7 0.923518 0.642490 0.839060
Si Si8 0.574441 0.717136 0.147199
O O1 0.250000 0.636521 0.243856
O O2 0.044656 0.637874 0.374499
O O3 0.993607 0.592038 0.223927
O O4 0.006077 0.687716 0.227071
O O5 0.750000 0.670579 0.615430
O O6 0.954546 0.638452 0.730440
O O7 0.970054 0.726606 0.661158
O O8 0.001058 0.648716 0.552659
O O9 0.500000 0.500000 0.918417
O O10 0.750000 0.540684 0.940398
O O11 0.521567 0.592986 0.887025
O O12 0.535725 0.562030 0.056245
O O13 0.750000 0.329234 0.486948
O O14 0.527324 0.273793 0.443922
O O15 0.750000 0.211594 0.474868
O O16 0.519172 0.187387 0.375590
O O17 0.489360 0.197813 0.550868
O O18 0.750000 0.952758 0.677855
O O19 0.000000 0.000000 0.692145
O O20 0.750000 0.652471 0.858477
O O21 0.750000 0.707604 0.150852
#
# Coordination Sequence:
#
# PCOD8191716 Si02
#       8
#     8   8   8   8   8   8   8   8
#     4  11  21  33  51  75 101 132 169 209 250 299
#     4   9  19  33  50  71  98 133 172 209 247 291
#     4   9  19  34  52  73 100 127 154 192 241 293
#     4   9  20  35  49  69 101 135 169 209 249 287
#     4  10  19  31  48  72 101 135 169 203 245 296
#     4  10  20  35  54  77 103 132 162 199 249 303
#     4  10  19  32  50  74 101 129 163 206 248 292
#     4  10  19  31  47  71 102 135 168 205 247 295
#
# _framework density 17.703168999999999
#
# number of rings (size 3 to 8) (size 9 to 14) (size 15 to 20)
#    0.000    2.250    0.000    3.000    0.000    4.500 
#    0.000    0.000    0.000    0.750    0.000    3.500 
#    0.000    0.000    0.000    0.000    0.000    0.000 
#
# Total GULP energy -396859.421630 kJ/mol
# GULP energy per Si atom -12401.856926 kJ/mol
# Density = 1.766288 g / cm^3
# Si number density = 17.703169 Si / 1000 Ang^3
#
#
#
# Elastic Constant Matrix: (Units=GPa)
#
#
# Indices 1 2 3 4 5 6 
#
# 1 67.6319 37.6115 47.3065 0.0000 0.0000 0.0000
# 2 37.6115 83.2816 56.7874 -0.0001 0.0000 0.0000
# 3 47.3065 56.7874 113.0052 -0.0004 0.0000 0.0000
# 4 0.0000 -0.0001 -0.0004 27.7873 0.0000 0.0000
# 5 0.0000 0.0000 0.0000 0.0000 30.2545 0.0000
# 6 0.0000 0.0000 0.0000 0.0000 0.0000 26.5395
#
#
#
# Elastic Compliance Matrix: (Units=1/GPa)
#
#
# Indices 1 2 3 4 5 6 
#
# 1 0.022558 -0.005702 -0.006578 0.000000 0.000000 0.000000
# 2 -0.005702 0.019708 -0.007517 0.000000 0.000000 0.000000
# 3 -0.006578 -0.007517 0.015380 0.000000 0.000000 0.000000
# 4 0.000000 0.000000 0.000000 0.035988 0.000000 0.000000
# 5 0.000000 0.000000 0.000000 0.000000 0.033053 0.000000
# 6 0.000000 0.000000 0.000000 0.000000 0.000000 0.037680
#
#
# Mechanical properties :
#
#
# Convention : Reuss Voigt Hill
#
# Bulk Modulus (GPa) = 55.39340 60.81438 58.10389
# Shear Modulus (GPa) = 23.81207 25.06381 24.43794
#
# Velocity S-wave (km/s) = 3.67150 3.76677 3.71944
# Velocity P-wave (km/s) = 7.02362 7.30376 7.16506
#
# Compressibility (1/GPa) = 0.01805269
#
# Stress axis : x y z
#
# Youngs Moduli (GPa) = 44.32994 50.74046 65.01969
#
# Poissons Ratio (x) = 0.28935 0.42768
# Poissons Ratio (y) = 0.25279 0.48872
# Poissons Ratio (z) = 0.29159 0.38139
#
# Static dielectric constant tensor:
#      x y z
#    x 3.307140 0.000000 0.000000 
#    y 0.000000 3.176180 0.000000 
#    z 0.000000 0.000000 3.350780 
# 
# 
# High freq. dielectric constant tensor:
#      x y z
#    x 1.691360 0.000000 0.000000 
#    y 0.000000 1.660670 0.000000 
#    z 0.000000 0.000000 1.684310 
# 
# From -- ./inp_files/9753.got.cif
#   From: 2010.03.12/outbox.cif.g09.slc.cpg/sg46_5_cif.got.tgz:9753.got - 2010.04.14 02:56:35.
