data_PCOD8191068
_publ_section_title
;
Structure prediction by ZEFSAII (Michael W. Deem and Ramdas Pophale) SiO2 
 PCOD8191068
Probable space group: I B A 2
;
_chemical_formula_sum "Si O2"
_cell_formula_units_Z 56
_cell_length_a 10.667202
_cell_length_b 19.245013
_cell_length_c 11.325620
_cell_angle_alpha 90.000000
_cell_angle_beta 90.000000
_cell_angle_gamma 90.000000
_cell_volume 2325.041526
_symmetry_space_group_name_H-M "I B A 2"
_symmetry_group_IT_number 45
_symmetry_cell_setting 'orthorhombic'
loop_
_space_group_symop_operation_xyz
x,y,z
-x,-y,z
-x,y,1/2+z
x,-y,1/2+z
1/2+x,1/2+y,1/2+z
1/2-x,1/2-y,1/2+z
1/2-x,1/2+y,z
1/2+x,1/2-y,z
loop_
_atom_site_type_symbol
_atom_site_label
_atom_site_fract_x
_atom_site_fract_y
_atom_site_fract_z
Si Si1 0.136871 0.892640 0.037430
Si Si2 0.445339 0.292080 0.616520
Si Si3 0.500000 0.500000 0.399996
Si Si4 0.747043 0.178721 0.427118
Si Si5 0.500000 0.000000 0.206188
Si Si6 0.232893 0.176378 0.315063
Si Si7 0.942145 0.350499 0.133853
Si Si8 0.238287 0.953858 0.266840
O O1 0.214631 0.940530 0.127692
O O2 0.085462 0.823528 0.103478
O O3 0.227236 0.871996 0.929942
O O4 0.016102 0.933773 0.985755
O O5 0.375678 0.305506 0.493799
O O6 0.379802 0.335430 0.721730
O O7 0.450030 0.208751 0.637785
O O8 0.375592 0.498881 0.319245
O O9 0.713699 0.244309 0.349176
O O10 0.637238 0.160790 0.517072
O O11 0.759831 0.117065 0.336249
O O12 0.498324 0.071479 0.129857
O O13 0.629859 0.004342 0.281543
O O14 0.364289 0.159950 0.253821
#
# Coordination Sequence:
#
# PCOD8191068 Si02
#       8
#     8   8   4   8   4   8   8   8
#     4  12  25  45  77 110 147 200 261 332 391 459
#     4  11  24  46  75 109 142 199 274 330 383 451
#     4  12  26  50  80 110 150 204 268 332 388 466
#     4  11  25  46  77 110 148 202 262 329 385 458
#     4  12  30  50  74 116 170 212 242 318 406 498
#     4  11  25  44  72 108 148 199 259 326 382 462
#     4  11  26  47  73 108 159 201 257 315 395 479
#     4  12  28  50  77 114 157 208 263 319 396 480
#
# _framework density 24.085591999999998
#
# number of rings (size 3 to 8) (size 9 to 14) (size 15 to 20)
#    0.000    0.571    2.857    3.857    8.000    2.857 
#    0.000    0.000    0.000    0.000    0.000    0.000 
#    0.000    0.000    0.000    0.000    0.000    0.000 
#
# Total GULP energy -347240.982046 kJ/mol
# GULP energy per Si atom -12401.463645 kJ/mol
# Density = 2.403077 g / cm^3
# Si number density = 24.085592 Si / 1000 Ang^3
#
#
#
# Elastic Constant Matrix: (Units=GPa)
#
#
# Indices 1 2 3 4 5 6 
#
# 1 118.9191 30.3410 38.2988 -0.0003 0.0002 0.0000
# 2 30.3410 131.2808 31.7578 0.0015 -0.0007 0.0004
# 3 38.2988 31.7578 121.3481 0.0014 -0.0007 0.0004
# 4 -0.0003 0.0015 0.0014 34.2749 -0.0009 0.0003
# 5 0.0002 -0.0007 -0.0007 -0.0009 20.3194 -0.0003
# 6 0.0000 0.0004 0.0004 0.0003 -0.0003 34.3291
#
#
#
# Elastic Compliance Matrix: (Units=1/GPa)
#
#
# Indices 1 2 3 4 5 6 
#
# 1 0.009664 -0.001597 -0.002632 0.000000 0.000000 0.000000
# 2 -0.001597 0.008396 -0.001693 0.000000 0.000000 0.000000
# 3 -0.002632 -0.001693 0.009515 0.000000 0.000000 0.000000
# 4 0.000000 0.000000 0.000000 0.029176 0.000001 0.000000
# 5 0.000000 0.000000 0.000000 0.000001 0.049214 0.000000
# 6 0.000000 0.000000 0.000000 0.000000 0.000000 0.029130
#
#
# Mechanical properties :
#
#
# Convention : Reuss Voigt Hill
#
# Bulk Modulus (GPa) = 63.57228 63.59366 63.58297
# Shear Modulus (GPa) = 32.85523 35.86136 34.35830
#
# Velocity S-wave (km/s) = 3.69738 3.86283 3.78101
# Velocity P-wave (km/s) = 6.68425 6.80851 6.74666
#
# Compressibility (1/GPa) = 0.01573013
#
# Stress axis : x y z
#
# Youngs Moduli (GPa) = 103.47450 119.10533 105.10081
#
# Poissons Ratio (x) = 0.19019 0.27665
# Poissons Ratio (y) = 0.16523 0.17797
# Poissons Ratio (z) = 0.27237 0.20168
#
# Static dielectric constant tensor:
#      x y z
#    x 4.340720 0.000000 0.000000 
#    y 0.000000 4.507130 0.000000 
#    z 0.000000 0.000000 4.389990 
# 
# 
# High freq. dielectric constant tensor:
#      x y z
#    x 1.951720 0.000000 0.000000 
#    y 0.000000 1.968180 0.000000 
#    z 0.000000 0.000000 1.959700 
# 
# From -- ./inp_files/3796.got.cif
#   From: 2010.03.12/outbox.cif.g09.slc.cpg/sg45_2_cif.got.tgz:3796.got - 2010.04.14 02:50:11.
