data_PCOD8191275
_publ_section_title
;
Structure prediction by ZEFSAII (Michael W. Deem and Ramdas Pophale) SiO2 
 PCOD8191275
Probable space group: I M A 2
;
_chemical_formula_sum "Si O2"
_cell_formula_units_Z 64
_cell_length_a 8.699519
_cell_length_b 18.505536
_cell_length_c 26.537126
_cell_angle_alpha 90.000000
_cell_angle_beta 90.000000
_cell_angle_gamma 90.000000
_cell_volume 4272.192331
_symmetry_space_group_name_H-M "I M A 2"
_symmetry_group_IT_number 46
_symmetry_cell_setting 'orthorhombic'
loop_
_space_group_symop_operation_xyz
x,y,z
-x,-y,z
1/2-x,y,z
1/2+x,-y,z
1/2+x,1/2+y,1/2+z
1/2-x,1/2-y,1/2+z
-x,1/2+y,1/2+z
x,1/2-y,1/2+z
loop_
_atom_site_type_symbol
_atom_site_label
_atom_site_fract_x
_atom_site_fract_y
_atom_site_fract_z
Si Si1 0.429447 0.837970 0.994400
Si Si2 0.417765 0.208327 0.142983
Si Si3 0.079705 0.205605 0.539886
Si Si4 0.929320 0.077186 0.895153
Si Si5 0.433552 0.347057 0.189913
Si Si6 0.433965 0.077675 0.085250
Si Si7 0.568774 0.577580 0.291187
Si Si8 0.567915 0.077278 0.594499
O O1 0.250000 0.838074 0.007105
O O2 0.464064 0.864072 0.937884
O O3 0.493603 0.756493 0.999316
O O4 0.510223 0.895510 0.031009
O O5 0.250000 0.190650 0.165227
O O6 0.403292 0.249598 0.090496
O O7 0.499745 0.264731 0.181309
O O8 0.498766 0.131818 0.129603
O O9 0.250000 0.185568 0.519512
O O10 0.984316 0.132980 0.550948
O O11 0.750000 0.065029 0.886803
O O12 0.001865 0.107848 0.843503
O O13 0.000000 0.000000 0.910192
O O14 0.250000 0.348507 0.180993
O O15 0.479717 0.368905 0.246224
O O16 0.508004 0.401315 0.149904
O O17 0.250000 0.076908 0.084964
O O18 0.500000 0.000000 0.098154
O O19 0.500000 0.500000 0.278302
O O20 0.750000 0.570448 0.295700
O O21 0.750000 0.073774 0.595882
O O22 0.500000 0.000000 0.579646
#
# Coordination Sequence:
#
# PCOD8191275 Si02
#       8
#     8   8   8   8   8   8   8   8
#     4  10  19  30  44  62  82 109 143 175 209 253
#     4   7  13  26  41  56  77 104 133 164 203 244
#     4   9  17  30  45  61  83 110 138 172 210 249
#     4  10  20  31  43  59  83 111 142 178 213 249
#     4   9  17  30  45  61  81 109 144 178 213 254
#     4  10  18  27  41  60  83 112 140 172 208 246
#     4  10  19  29  43  60  81 108 140 177 214 251
#     4  11  20  29  43  63  87 115 145 176 208 248
#
# _framework density 14.980599
#
# number of rings (size 3 to 8) (size 9 to 14) (size 15 to 20)
#    0.000    2.500    0.000    6.000    0.000    5.000 
#    0.000    0.625    0.000    0.000    0.000    0.000 
#    0.000    1.000    0.000    9.250    0.000    2.750 
#
# Total GULP energy -396552.596605 kJ/mol
# GULP energy per Si atom -12392.268644 kJ/mol
# Density = 1.494650 g / cm^3
# Si number density = 14.980599 Si / 1000 Ang^3
#
#
#
# Elastic Constant Matrix: (Units=GPa)
#
#
# Indices 1 2 3 4 5 6 
#
# 1 84.1448 43.8093 38.5565 0.0000 0.0000 0.0000
# 2 43.8093 121.3979 62.0753 0.0000 0.0000 0.0000
# 3 38.5565 62.0753 87.2531 0.0000 0.0000 0.0000
# 4 0.0000 0.0000 0.0000 25.4750 0.0000 0.0000
# 5 0.0000 0.0000 0.0000 0.0000 17.6507 0.0000
# 6 0.0000 0.0000 0.0000 0.0000 0.0000 23.2788
#
#
#
# Elastic Compliance Matrix: (Units=1/GPa)
#
#
# Indices 1 2 3 4 5 6 
#
# 1 0.015715 -0.003333 -0.004573 0.000000 0.000000 0.000000
# 2 -0.003333 0.013654 -0.008241 0.000000 0.000000 0.000000
# 3 -0.004573 -0.008241 0.019345 0.000000 0.000000 0.000000
# 4 0.000000 0.000000 0.000000 0.039254 0.000000 0.000000
# 5 0.000000 0.000000 0.000000 0.000000 0.056655 0.000000
# 6 0.000000 0.000000 0.000000 0.000000 0.000000 0.042958
#
#
# Mechanical properties :
#
#
# Convention : Reuss Voigt Hill
#
# Bulk Modulus (GPa) = 60.90353 64.63089 62.76721
# Shear Modulus (GPa) = 22.18780 23.17122 22.67951
#
# Velocity S-wave (km/s) = 3.85268 3.93714 3.89514
# Velocity P-wave (km/s) = 7.78037 7.99405 7.88793
#
# Compressibility (1/GPa) = 0.01641941
#
# Stress axis : x y z
#
# Youngs Moduli (GPa) = 63.63371 73.23765 51.69248
#
# Poissons Ratio (x) = 0.24407 0.23641
# Poissons Ratio (y) = 0.21206 0.42602
# Poissons Ratio (z) = 0.29102 0.60359
#
# Static dielectric constant tensor:
#      x y z
#    x 2.968240 0.000000 0.000000 
#    y 0.000000 3.141490 0.000000 
#    z 0.000000 0.000000 2.808830 
# 
# 
# High freq. dielectric constant tensor:
#      x y z
#    x 1.581350 0.000000 0.000000 
#    y 0.000000 1.567590 0.000000 
#    z 0.000000 0.000000 1.539680 
# 
# From -- ./inp_files/24404.got.cif
#   From: 2010.03.12/outbox.cif.g09.slc.cpg/sg46_13_cif.got.tgz:24404.got - 2010.04.14 02:56:35.
