data_PCOD8191171
_publ_section_title
;
Structure prediction by ZEFSAII (Michael W. Deem and Ramdas Pophale) SiO2 
 PCOD8191171
Probable space group: I M A 2
;
_chemical_formula_sum "Si O2"
_cell_formula_units_Z 64
_cell_length_a 8.815853
_cell_length_b 18.812110
_cell_length_c 23.030434
_cell_angle_alpha 90.000000
_cell_angle_beta 90.000000
_cell_angle_gamma 90.000000
_cell_volume 3819.477637
_symmetry_space_group_name_H-M "I M A 2"
_symmetry_group_IT_number 46
_symmetry_cell_setting 'orthorhombic'
loop_
_space_group_symop_operation_xyz
x,y,z
-x,-y,z
1/2-x,y,z
1/2+x,-y,z
1/2+x,1/2+y,1/2+z
1/2-x,1/2-y,1/2+z
-x,1/2+y,1/2+z
x,1/2-y,1/2+z
loop_
_atom_site_type_symbol
_atom_site_label
_atom_site_fract_x
_atom_site_fract_y
_atom_site_fract_z
Si Si1 0.574624 0.714928 0.156340
Si Si2 0.925554 0.151934 0.095414
Si Si3 0.070151 0.782657 0.391251
Si Si4 0.075588 0.927423 0.449941
Si Si5 0.428707 0.286987 0.494932
Si Si6 0.573922 0.073936 0.206906
Si Si7 0.573999 0.154740 0.558417
Si Si8 0.927155 0.708371 0.768640
O O1 0.750000 0.705232 0.141706
O O2 0.512784 0.786622 0.128878
O O3 0.484319 0.648451 0.125636
O O4 0.547961 0.724030 0.225339
O O5 0.750000 0.171995 0.088060
O O6 0.945433 0.083160 0.136823
O O7 0.001628 0.145352 0.031080
O O8 0.250000 0.777445 0.395581
O O9 0.012285 0.859892 0.413952
O O10 0.999194 0.719691 0.430601
O O11 0.014849 0.770209 0.326400
O O12 0.250000 0.936295 0.435480
O O13 0.047357 0.915553 0.519371
O O14 0.000000 0.000000 0.428987
O O15 0.250000 0.296000 0.489927
O O16 0.474479 0.216887 0.530264
O O17 0.750000 0.074301 0.224401
O O18 0.493070 0.135849 0.242773
O O19 0.500000 0.000000 0.225663
O O20 0.750000 0.176119 0.556483
O O21 0.750000 0.696481 0.781104
#
# Coordination Sequence:
#
# PCOD8191171 Si02
#       8
#     8   8   8   8   8   8   8   8
#     4   9  16  26  42  63  83 105 135 173 216 258
#     4   9  16  27  43  62  83 108 138 174 218 262
#     4  10  20  33  45  60  85 116 150 182 215 255
#     4   9  19  31  43  60  82 111 145 179 210 246
#     4  10  17  26  43  64  83 106 137 175 220 260
#     4  10  20  32  46  63  86 118 152 184 218 255
#     4   9  16  27  42  61  83 106 136 173 214 259
#     4  10  20  32  45  63  87 114 148 184 216 255
#
# _framework density 16.756218000000001
#
# number of rings (size 3 to 8) (size 9 to 14) (size 15 to 20)
#    0.000    2.500    0.000    5.625    0.000    6.500 
#    0.000    1.250    0.000    0.000    0.000    0.000 
#    0.000    1.000    0.000    5.000    0.000    5.625 
#
# Total GULP energy -396424.834018 kJ/mol
# GULP energy per Si atom -12388.276063 kJ/mol
# Density = 1.671808 g / cm^3
# Si number density = 16.756218 Si / 1000 Ang^3
#
#
#
# Elastic Constant Matrix: (Units=GPa)
#
#
# Indices 1 2 3 4 5 6 
#
# 1 227.8763 13.9191 48.6458 0.0000 0.0000 0.0000
# 2 13.9191 4.4260 14.5661 0.0000 0.0000 0.0000
# 3 48.6458 14.5661 106.6680 0.0000 0.0000 0.0000
# 4 0.0000 0.0000 0.0000 17.7514 0.0000 0.0000
# 5 0.0000 0.0000 0.0000 0.0000 31.3190 0.0000
# 6 0.0000 0.0000 0.0000 0.0000 0.0000 17.8952
#
#
#
# Elastic Compliance Matrix: (Units=1/GPa)
#
#
# Indices 1 2 3 4 5 6 
#
# 1 0.005436 -0.016230 -0.000263 0.000000 0.000000 0.000000
# 2 -0.016230 0.458809 -0.055251 0.000000 0.000000 0.000000
# 3 -0.000263 -0.055251 0.017040 0.000000 0.000000 0.000000
# 4 0.000000 0.000000 0.000000 0.056334 0.000000 0.000000
# 5 0.000000 0.000000 0.000000 0.000000 0.031929 0.000000
# 6 0.000000 0.000000 0.000000 0.000000 0.000000 0.055881
#
#
# Mechanical properties :
#
#
# Convention : Reuss Voigt Hill
#
# Bulk Modulus (GPa) = 2.96037 54.80359 28.88198
# Shear Modulus (GPa) = 5.67205 30.84906 18.26056
#
# Velocity S-wave (km/s) = 1.84184 4.29540 3.30476
# Velocity P-wave (km/s) = 2.50873 7.57483 5.64233
#
# Compressibility (1/GPa) = 0.33779617
#
# Stress axis : x y z
#
# Youngs Moduli (GPa) = 183.96580 2.17956 58.68707
#
# Poissons Ratio (x) = 0.03537 0.01541
# Poissons Ratio (y) = 2.98581 3.24253
# Poissons Ratio (z) = 0.04832 0.12042
#
# Static dielectric constant tensor:
#      x y z
#    x 3.290270 0.000000 0.000000 
#    y 0.000000 2.900140 0.000000 
#    z 0.000000 0.000000 3.734720 
# 
# 
# High freq. dielectric constant tensor:
#      x y z
#    x 1.664120 0.000000 0.000000 
#    y 0.000000 1.582700 0.000000 
#    z 0.000000 0.000000 1.647350 
# 
# From -- ./inp_files/23282.got.cif
#   From: 2010.03.12/outbox.cif.g09.slc.cpg/sg46_12_cif.got.tgz:23282.got - 2010.04.14 02:56:35.
