data_PCOD8191950
_publ_section_title
;
Structure prediction by ZEFSAII (Michael W. Deem and Ramdas Pophale) SiO2 
 PCOD8191950
Probable space group: I M A 2
;
_chemical_formula_sum "Si O2"
_cell_formula_units_Z 64
_cell_length_a 21.300243
_cell_length_b 16.044478
_cell_length_c 9.359560
_cell_angle_alpha 90.000000
_cell_angle_beta 90.000000
_cell_angle_gamma 90.000000
_cell_volume 3198.641612
_symmetry_space_group_name_H-M "I M A 2"
_symmetry_group_IT_number 46
_symmetry_cell_setting 'orthorhombic'
loop_
_space_group_symop_operation_xyz
x,y,z
-x,-y,z
1/2-x,y,z
1/2+x,-y,z
1/2+x,1/2+y,1/2+z
1/2-x,1/2-y,1/2+z
-x,1/2+y,1/2+z
x,1/2-y,1/2+z
loop_
_atom_site_type_symbol
_atom_site_label
_atom_site_fract_x
_atom_site_fract_y
_atom_site_fract_z
Si Si1 0.823097 0.772449 0.059160
Si Si2 0.320096 0.045867 0.002525
Si Si3 0.590492 0.285248 0.443137
Si Si4 0.114568 0.163812 0.333530
Si Si5 0.821016 0.139935 0.485757
Si Si6 0.974930 0.333435 0.725831
Si Si7 0.884670 0.023825 0.270050
Si Si8 0.180006 0.911184 0.791162
O O1 0.750000 0.745557 0.043110
O O2 0.839805 0.858728 0.978809
O O3 0.836250 0.791766 0.226256
O O4 0.869749 0.703385 0.989066
O O5 0.250000 0.042599 0.069036
O O6 0.365067 0.994140 0.107699
O O7 0.322977 0.005796 0.846280
O O8 0.639083 0.222442 0.516572
O O9 0.539492 0.317385 0.558429
O O10 0.558492 0.238390 0.313469
O O11 0.628299 0.361630 0.378564
O O12 0.047108 0.179224 0.263573
O O13 0.118524 0.063819 0.353800
O O14 0.750000 0.169679 0.471494
O O15 0.837294 0.088459 0.344011
O O16 0.833740 0.082271 0.623299
O O17 0.951828 0.427423 0.767793
O O18 0.250000 0.873052 0.817662
#
# Coordination Sequence:
#
# PCOD8191950 Si02
#       8
#     8   8   8   8   8   8   8   8
#     4  10  22  40  63  88 116 145 189 249 310 359
#     4   9  18  34  57  85 114 150 193 243 296 346
#     4  11  20  36  54  82 119 162 196 237 287 338
#     4  11  23  41  62  90 115 152 201 244 299 359
#     4  10  21  34  52  85 120 156 197 239 290 346
#     4  11  22  37  60  84 119 161 198 241 283 347
#     4  10  21  37  59  84 119 156 199 241 291 346
#     4  10  19  33  53  81 118 155 194 240 288 344
#
# _framework density 20.008493000000001
#
# number of rings (size 3 to 8) (size 9 to 14) (size 15 to 20)
#    0.000    1.750    2.500    2.250    0.000    2.500 
#    0.000    1.250    0.000    0.000    0.000    0.000 
#    0.000    0.000    0.000    0.000    0.000    0.000 
#
# Total GULP energy -396578.272136 kJ/mol
# GULP energy per Si atom -12393.071004 kJ/mol
# Density = 1.996295 g / cm^3
# Si number density = 20.008493 Si / 1000 Ang^3
#
#
#
# Elastic Constant Matrix: (Units=GPa)
#
#
# Indices 1 2 3 4 5 6 
#
# 1 81.1827 12.0368 8.9997 0.0000 0.0000 0.0000
# 2 12.0368 79.9140 13.7411 0.0000 0.0000 0.0000
# 3 8.9997 13.7411 45.6044 0.0000 0.0000 0.0000
# 4 0.0000 0.0000 0.0000 36.0191 0.0000 0.0000
# 5 0.0000 0.0000 0.0000 0.0000 26.8854 0.0000
# 6 0.0000 0.0000 0.0000 0.0000 0.0000 21.3507
#
#
#
# Elastic Compliance Matrix: (Units=1/GPa)
#
#
# Indices 1 2 3 4 5 6 
#
# 1 0.012778 -0.001573 -0.002048 0.000000 0.000000 0.000000
# 2 -0.001573 0.013391 -0.003724 0.000000 0.000000 0.000000
# 3 -0.002048 -0.003724 0.023454 0.000000 0.000000 0.000000
# 4 0.000000 0.000000 0.000000 0.027763 0.000000 0.000000
# 5 0.000000 0.000000 0.000000 0.000000 0.037195 0.000000
# 6 0.000000 0.000000 0.000000 0.000000 0.000000 0.046837
#
#
# Mechanical properties :
#
#
# Convention : Reuss Voigt Hill
#
# Bulk Modulus (GPa) = 28.62604 30.69513 29.66058
# Shear Modulus (GPa) = 26.63092 28.31261 27.47176
#
# Velocity S-wave (km/s) = 3.65222 3.76577 3.70943
# Velocity P-wave (km/s) = 5.66771 5.85511 5.76217
#
# Compressibility (1/GPa) = 0.03493323
#
# Stress axis : x y z
#
# Youngs Moduli (GPa) = 78.25906 74.67858 42.63656
#
# Poissons Ratio (x) = 0.11743 0.08731
# Poissons Ratio (y) = 0.12307 0.15880
# Poissons Ratio (z) = 0.16026 0.27814
#
# Static dielectric constant tensor:
#      x y z
#    x 3.633980 0.000000 0.000000 
#    y 0.000000 3.668210 0.000000 
#    z 0.000000 0.000000 3.537140 
# 
# 
# High freq. dielectric constant tensor:
#      x y z
#    x 1.775340 0.000000 0.000000 
#    y 0.000000 1.782330 0.000000 
#    z 0.000000 0.000000 1.774930 
# 
# From -- ./inp_files/7560.got.cif
#   From: 2010.03.12/outbox.cif.g09.slc.cpg/sg46_4_cif.got.tgz:7560.got - 2010.04.14 02:56:35.
