data_PCOD8191415
_publ_section_title
;
Structure prediction by ZEFSAII (Michael W. Deem and Ramdas Pophale) SiO2 
 PCOD8191415
Probable space group: I M A 2
;
_chemical_formula_sum "Si O2"
_cell_formula_units_Z 48
_cell_length_a 32.939978
_cell_length_b 9.380581
_cell_length_c 7.962066
_cell_angle_alpha 90.000000
_cell_angle_beta 90.000000
_cell_angle_gamma 90.000000
_cell_volume 2460.247595
_symmetry_space_group_name_H-M "I M A 2"
_symmetry_group_IT_number 46
_symmetry_cell_setting 'orthorhombic'
loop_
_space_group_symop_operation_xyz
x,y,z
-x,-y,z
1/2-x,y,z
1/2+x,-y,z
1/2+x,1/2+y,1/2+z
1/2-x,1/2-y,1/2+z
-x,1/2+y,1/2+z
x,1/2-y,1/2+z
loop_
_atom_site_type_symbol
_atom_site_label
_atom_site_fract_x
_atom_site_fract_y
_atom_site_fract_z
Si Si1 0.167562 0.315917 0.278200
Si Si2 0.418839 0.814857 0.887291
Si Si3 0.881507 0.613760 0.974556
Si Si4 0.454592 0.953107 0.578996
Si Si5 0.630774 0.114105 0.190193
Si Si6 0.796345 0.951793 0.087645
O O1 0.128586 0.267711 0.393158
O O2 0.191684 0.178465 0.209823
O O3 0.197673 0.407995 0.392989
O O4 0.150360 0.412145 0.126987
O O5 0.449277 0.907275 0.773534
O O6 0.379938 0.767555 0.771319
O O7 0.443041 0.677655 0.956591
O O8 0.400730 0.911449 0.036414
O O9 0.875779 0.500034 0.831795
O O10 0.927134 0.593803 0.043206
O O11 0.500000 0.000000 0.542747
O O12 0.676949 0.093941 0.126004
O O13 0.750000 0.994199 0.118930
#
# Coordination Sequence:
#
# PCOD8191415 Si02
#       6
#     8   8   8   8   8   8
#     4   9  18  31  49  74 107 138 165 200 249 306
#     4   9  19  37  54  71  99 134 168 205 250 302
#     4   9  18  32  51  74 101 138 171 198 246 309
#     4  10  20  34  53  77 101 129 167 211 251 290
#     4   9  18  34  55  71  95 136 172 201 247 306
#     4  10  18  30  49  77 104 131 166 209 250 291
#
# _framework density 19.51023
#
# number of rings (size 3 to 8) (size 9 to 14) (size 15 to 20)
#    0.000    2.667    0.000    1.500    0.000    1.333 
#    0.000    9.167    0.000    0.000    0.000    0.000 
#    0.000    0.000    0.000    0.000    0.000    0.000 
#
# Total GULP energy -297367.672550 kJ/mol
# GULP energy per Si atom -12390.319690 kJ/mol
# Density = 1.946582 g / cm^3
# Si number density = 19.510230 Si / 1000 Ang^3
#
#
#
# Elastic Constant Matrix: (Units=GPa)
#
#
# Indices 1 2 3 4 5 6 
#
# 1 146.2386 37.6263 45.5659 0.0000 0.0000 0.0000
# 2 37.6263 35.9638 25.2588 0.0000 0.0000 0.0000
# 3 45.5659 25.2588 119.9497 0.0000 0.0000 0.0000
# 4 0.0000 0.0000 0.0000 26.5953 0.0000 0.0000
# 5 0.0000 0.0000 0.0000 0.0000 24.7838 0.0000
# 6 0.0000 0.0000 0.0000 0.0000 0.0000 30.2454
#
#
#
# Elastic Compliance Matrix: (Units=1/GPa)
#
#
# Indices 1 2 3 4 5 6 
#
# 1 0.009682 -0.008856 -0.001813 0.000000 0.000000 0.000000
# 2 -0.008856 0.040732 -0.005213 0.000000 0.000000 0.000000
# 3 -0.001813 -0.005213 0.010123 0.000000 0.000000 0.000000
# 4 0.000000 0.000000 0.000000 0.037601 0.000000 0.000000
# 5 0.000000 0.000000 0.000000 0.000000 0.040349 0.000000
# 6 0.000000 0.000000 0.000000 0.000000 0.000000 0.033063
#
#
# Mechanical properties :
#
#
# Convention : Reuss Voigt Hill
#
# Bulk Modulus (GPa) = 34.75453 57.67267 46.21360
# Shear Modulus (GPa) = 23.48469 29.23831 26.36150
#
# Velocity S-wave (km/s) = 3.47322 3.87539 3.67980
# Velocity P-wave (km/s) = 5.82550 7.04623 6.46474
#
# Compressibility (1/GPa) = 0.02877323
#
# Stress axis : x y z
#
# Youngs Moduli (GPa) = 103.28905 24.55054 98.78185
#
# Poissons Ratio (x) = 0.21741 0.17909
# Poissons Ratio (y) = 0.91471 0.51497
# Poissons Ratio (z) = 0.18726 0.12799
#
# Static dielectric constant tensor:
#      x y z
#    x 3.587120 0.000000 0.000000 
#    y 0.000000 3.750300 0.000000 
#    z 0.000000 0.000000 3.966390 
# 
# 
# High freq. dielectric constant tensor:
#      x y z
#    x 1.735810 0.000000 0.000000 
#    y 0.000000 1.729740 0.000000 
#    z 0.000000 0.000000 1.787040 
# 
# From -- ./inp_files/7837.got.cif
#   From: 2010.03.12/outbox.cif.g09.slc.cpg/sg46_4_cif.got.tgz:7837.got - 2010.04.14 02:56:35.
