data_PCOD8191673
_publ_section_title
;
Structure prediction by ZEFSAII (Michael W. Deem and Ramdas Pophale) SiO2 
 PCOD8191673
Probable space group: I M A 2
;
_chemical_formula_sum "Si O2"
_cell_formula_units_Z 56
_cell_length_a 8.785192
_cell_length_b 13.458272
_cell_length_c 29.158776
_cell_angle_alpha 90.000000
_cell_angle_beta 90.000000
_cell_angle_gamma 90.000000
_cell_volume 3447.544244
_symmetry_space_group_name_H-M "I M A 2"
_symmetry_group_IT_number 46
_symmetry_cell_setting 'orthorhombic'
loop_
_space_group_symop_operation_xyz
x,y,z
-x,-y,z
1/2-x,y,z
1/2+x,-y,z
1/2+x,1/2+y,1/2+z
1/2-x,1/2-y,1/2+z
-x,1/2+y,1/2+z
x,1/2-y,1/2+z
loop_
_atom_site_type_symbol
_atom_site_label
_atom_site_fract_x
_atom_site_fract_y
_atom_site_fract_z
Si Si1 0.071942 0.601097 0.406050
Si Si2 0.571726 0.899465 0.440088
Si Si3 0.928679 0.199665 0.354786
Si Si4 0.426960 0.891875 0.075900
Si Si5 0.927613 0.799693 0.991013
Si Si6 0.926839 0.393233 0.677018
Si Si7 0.430168 0.109771 0.267370
O O1 0.250000 0.587569 0.412209
O O2 0.032411 0.688513 0.370464
O O3 0.000000 0.500000 0.386303
O O4 0.002460 0.623481 0.455778
O O5 0.750000 0.911713 0.431305
O O6 0.491100 0.877945 0.391818
O O7 0.536150 0.812991 0.476407
O O8 0.500000 0.000000 0.460623
O O9 0.750000 0.182097 0.348902
O O10 0.013149 0.182365 0.307099
O O11 0.250000 0.903475 0.064558
O O12 0.450387 0.843947 0.126875
O O13 0.500000 0.000000 0.070686
O O14 0.503293 0.814677 0.041236
O O15 0.750000 0.821880 0.991787
O O16 0.750000 0.401940 0.689808
O O17 0.000000 0.500000 0.672436
O O18 0.013608 0.339795 0.719295
O O19 0.250000 0.101936 0.268362
O O20 0.500000 0.000000 0.273487
#
# Coordination Sequence:
#
# PCOD8191673 Si02
#       7
#     8   8   8   8   8   8   8
#     4  10  20  33  49  67  91 121 152 188 226 264
#     4  10  20  33  48  67  91 120 152 189 227 265
#     4  10  20  33  48  67  91 121 154 186 222 267
#     4  10  19  30  46  67  93 123 153 186 224 266
#     4  10  20  32  47  67  92 121 154 187 222 267
#     4   9  17  29  44  64  90 119 150 184 223 268
#     4  11  20  30  46  67  93 123 152 186 224 267
#
# _framework density 16.243445999999999
#
# number of rings (size 3 to 8) (size 9 to 14) (size 15 to 20)
#    0.000    2.000    0.000    5.571    0.000    5.143 
#    0.000    0.000    0.000    0.000    0.000    1.000 
#    0.000    6.857    0.000    0.000    0.000    0.000 
#
# Total GULP energy -347179.413743 kJ/mol
# GULP energy per Si atom -12399.264777 kJ/mol
# Density = 1.620648 g / cm^3
# Si number density = 16.243446 Si / 1000 Ang^3
#
#
#
# Elastic Constant Matrix: (Units=GPa)
#
#
# Indices 1 2 3 4 5 6 
#
# 1 117.2461 45.6003 61.8527 0.0000 0.0000 0.0000
# 2 45.6003 79.8156 45.5710 0.0000 0.0000 0.0000
# 3 61.8527 45.5710 131.2441 0.0000 0.0000 0.0000
# 4 0.0000 0.0000 0.0000 20.5138 0.0000 0.0000
# 5 0.0000 0.0000 0.0000 0.0000 29.1000 0.0000
# 6 0.0000 0.0000 0.0000 0.0000 0.0000 25.8271
#
#
#
# Elastic Compliance Matrix: (Units=1/GPa)
#
#
# Indices 1 2 3 4 5 6 
#
# 1 0.012658 -0.004772 -0.004309 0.000000 0.000000 0.000000
# 2 -0.004772 0.017426 -0.003802 0.000000 0.000000 0.000000
# 3 -0.004309 -0.003802 0.010970 0.000000 0.000000 0.000000
# 4 0.000000 0.000000 0.000000 0.048748 0.000000 0.000000
# 5 0.000000 0.000000 0.000000 0.000000 0.034364 0.000000
# 6 0.000000 0.000000 0.000000 0.000000 0.000000 0.038719
#
#
# Mechanical properties :
#
#
# Convention : Reuss Voigt Hill
#
# Bulk Modulus (GPa) = 65.40460 70.48376 67.94418
# Shear Modulus (GPa) = 25.80710 26.77364 26.29037
#
# Velocity S-wave (km/s) = 3.99026 4.06430 4.02745
# Velocity P-wave (km/s) = 7.84743 8.09389 7.97161
#
# Compressibility (1/GPa) = 0.01528944
#
# Stress axis : x y z
#
# Youngs Moduli (GPa) = 79.00204 57.38652 91.15774
#
# Poissons Ratio (x) = 0.27383 0.39276
# Poissons Ratio (y) = 0.37698 0.34656
# Poissons Ratio (z) = 0.34039 0.21817
#
# Static dielectric constant tensor:
#      x y z
#    x 3.258390 0.000000 0.000000 
#    y 0.000000 2.836920 0.000000 
#    z 0.000000 0.000000 3.468760 
# 
# 
# High freq. dielectric constant tensor:
#      x y z
#    x 1.649470 0.000000 0.000000 
#    y 0.000000 1.588720 0.000000 
#    z 0.000000 0.000000 1.625410 
# 
# From -- ./inp_files/25253.got.cif
#   From: 2010.03.12/outbox.cif.g09.slc.cpg/sg46_13_cif.got.tgz:25253.got - 2010.04.14 02:56:35.
