data_PCOD8191104
_publ_section_title
;
Structure prediction by ZEFSAII (Michael W. Deem and Ramdas Pophale) SiO2 
 PCOD8191104
Probable space group: I B A 2
;
_chemical_formula_sum "Si O2"
_cell_formula_units_Z 60
_cell_length_a 10.849268
_cell_length_b 18.975475
_cell_length_c 11.673524
_cell_angle_alpha 90.000000
_cell_angle_beta 90.000000
_cell_angle_gamma 90.000000
_cell_volume 2403.228546
_symmetry_space_group_name_H-M "I B A 2"
_symmetry_group_IT_number 45
_symmetry_cell_setting 'orthorhombic'
loop_
_space_group_symop_operation_xyz
x,y,z
-x,-y,z
-x,y,1/2+z
x,-y,1/2+z
1/2+x,1/2+y,1/2+z
1/2-x,1/2-y,1/2+z
1/2-x,1/2+y,z
1/2+x,1/2-y,z
loop_
_atom_site_type_symbol
_atom_site_label
_atom_site_fract_x
_atom_site_fract_y
_atom_site_fract_z
Si Si1 0.105216 0.408232 0.993900
Si Si2 0.149249 0.353194 0.226624
Si Si3 0.334742 0.394088 0.630321
Si Si4 0.795394 0.252307 0.544501
Si Si5 0.954808 0.741390 0.409237
Si Si6 0.500000 0.500000 0.015999
Si Si7 0.850832 0.111271 0.887950
Si Si8 0.345089 0.933724 0.438526
O O1 0.228492 0.361951 0.958346
O O2 0.129872 0.483688 0.935993
O O3 0.972613 0.387070 0.940108
O O4 0.087748 0.406395 0.132374
O O5 0.241689 0.305163 0.149529
O O6 0.053087 0.298799 0.286733
O O7 0.218812 0.402739 0.322041
O O8 0.361038 0.313530 0.604070
O O9 0.454517 0.438512 0.598199
O O10 0.302930 0.405437 0.761974
O O11 0.223161 0.422060 0.555822
O O12 0.674960 0.225609 0.476112
O O13 0.916692 0.282595 0.472014
O O14 0.954435 0.827086 0.390543
O O15 0.603873 0.536036 0.936883
#
# Coordination Sequence:
#
# PCOD8191104 Si02
#       8
#     8   8   8   8   8   4   8   8
#     4  11  27  46  73 110 146 195 254 303 379 450
#     4  12  26  47  76 106 152 196 238 323 365 456
#     4  12  26  47  76 109 149 199 248 316 374 450
#     4  12  27  48  73 111 149 195 251 306 379 454
#     4  12  27  48  73 111 149 195 251 306 379 454
#     4  12  26  52  70 110 152 194 262 302 386 440
#     4  12  26  47  76 109 149 199 248 316 374 450
#     4  11  27  46  73 110 146 195 254 303 379 450
#
# _framework density 24.966414
#
# number of rings (size 3 to 8) (size 9 to 14) (size 15 to 20)
#    0.000    0.267    6.667    1.200    3.733    2.133 
#    7.200    0.000    0.000    0.000    0.000    0.000 
#    0.000    0.000    0.000    0.000    0.000    0.000 
#
# Total GULP energy -371734.947613 kJ/mol
# GULP energy per Si atom -12391.164920 kJ/mol
# Density = 2.490959 g / cm^3
# Si number density = 24.966414 Si / 1000 Ang^3
#
#
#
# Elastic Constant Matrix: (Units=GPa)
#
#
# Indices 1 2 3 4 5 6 
#
# 1 127.1889 27.6590 53.9573 0.0001 0.0000 0.0000
# 2 27.6590 98.1950 48.4820 0.0011 -0.0003 -0.0001
# 3 53.9573 48.4820 185.7554 0.0013 -0.0003 -0.0003
# 4 0.0001 0.0011 0.0013 53.7067 -0.0003 -0.0003
# 5 0.0000 -0.0003 -0.0003 -0.0003 25.7739 0.0001
# 6 0.0000 -0.0001 -0.0003 -0.0003 0.0001 41.7108
#
#
#
# Elastic Compliance Matrix: (Units=1/GPa)
#
#
# Indices 1 2 3 4 5 6 
#
# 1 0.009144 -0.001451 -0.002277 0.000000 0.000000 0.000000
# 2 -0.001451 0.011921 -0.002690 0.000000 0.000000 0.000000
# 3 -0.002277 -0.002690 0.006747 0.000000 0.000000 0.000000
# 4 0.000000 0.000000 0.000000 0.018620 0.000000 0.000000
# 5 0.000000 0.000000 0.000000 0.000000 0.038799 0.000000
# 6 0.000000 0.000000 0.000000 0.000000 0.000000 0.023975
#
#
# Mechanical properties :
#
#
# Convention : Reuss Voigt Hill
#
# Bulk Modulus (GPa) = 66.77806 74.59287 70.68547
# Shear Modulus (GPa) = 39.35988 42.97438 41.16713
#
# Velocity S-wave (km/s) = 3.97484 4.15334 4.06507
# Velocity P-wave (km/s) = 6.91889 7.27616 7.09977
#
# Compressibility (1/GPa) = 0.01497498
#
# Stress axis : x y z
#
# Youngs Moduli (GPa) = 109.36107 83.88847 148.21520
#
# Poissons Ratio (x) = 0.12174 0.33754
# Poissons Ratio (y) = 0.15871 0.39866
# Poissons Ratio (z) = 0.24905 0.22564
#
# Static dielectric constant tensor:
#      x y z
#    x 4.368390 0.000000 0.000000 
#    y 0.000000 5.181860 0.000000 
#    z 0.000000 0.000000 4.477310 
# 
# 
# High freq. dielectric constant tensor:
#      x y z
#    x 1.970560 0.000000 0.000000 
#    y 0.000000 2.049650 0.000000 
#    z 0.000000 0.000000 1.995430 
# 
# From -- ./inp_files/3841.got.cif
#   From: 2010.03.12/outbox.cif.g09.slc.cpg/sg45_2_cif.got.tgz:3841.got - 2010.04.14 02:50:11.
