data_PCOD8191430
_publ_section_title
;
Structure prediction by ZEFSAII (Michael W. Deem and Ramdas Pophale) SiO2 
 PCOD8191430
Probable space group: I M A 2
;
_chemical_formula_sum "Si O2"
_cell_formula_units_Z 52
_cell_length_a 9.406553
_cell_length_b 10.735677
_cell_length_c 27.135015
_cell_angle_alpha 90.000000
_cell_angle_beta 90.000000
_cell_angle_gamma 90.000000
_cell_volume 2740.248883
_symmetry_space_group_name_H-M "I M A 2"
_symmetry_group_IT_number 46
_symmetry_cell_setting 'orthorhombic'
loop_
_space_group_symop_operation_xyz
x,y,z
-x,-y,z
1/2-x,y,z
1/2+x,-y,z
1/2+x,1/2+y,1/2+z
1/2-x,1/2-y,1/2+z
-x,1/2+y,1/2+z
x,1/2-y,1/2+z
loop_
_atom_site_type_symbol
_atom_site_label
_atom_site_fract_x
_atom_site_fract_y
_atom_site_fract_z
Si Si1 0.904113 0.841788 0.772260
Si Si2 0.587282 0.381436 0.031902
Si Si3 0.916868 0.373717 0.920395
Si Si4 0.587576 0.618907 0.704755
Si Si5 0.591601 0.266730 0.130504
Si Si6 0.580901 0.119876 0.865809
Si Si7 0.000000 0.000000 0.687085
O O1 0.750000 0.853172 0.799249
O O2 0.929083 0.702622 0.753207
O O3 0.894622 0.925678 0.723242
O O4 0.032366 0.877349 0.808670
O O5 0.500000 0.500000 0.048972
O O6 0.750000 0.422944 0.033143
O O7 0.558639 0.272300 0.071746
O O8 0.545239 0.338764 0.976849
O O9 0.750000 0.399529 0.912567
O O10 0.965697 0.251393 0.890009
O O11 0.000000 0.500000 0.903963
O O12 0.500000 0.500000 0.720156
O O13 0.750000 0.586044 0.693024
O O14 0.523415 0.677807 0.655074
O O15 0.750000 0.213066 0.139403
O O16 0.587853 0.405711 0.152979
O O17 0.750000 0.100224 0.869322
O O18 0.500000 0.000000 0.890486
#
# Coordination Sequence:
#
# PCOD8191430 Si02
#       7
#     8   8   8   8   8   8   4
#     4  10  21  35  54  79 108 140 178 223 271 328
#     4   9  17  32  54  81 111 142 180 228 279 332
#     4   9  20  38  59  84 113 147 189 239 289 343
#     4  10  22  38  54  75 107 146 186 226 271 330
#     4  10  19  31  53  81 111 145 177 220 273 327
#     4  11  23  38  58  83 113 149 190 238 289 341
#     4  10  18  30  52  84 112 138 172 214 266 328
#
# _framework density 18.976376999999999
#
# number of rings (size 3 to 8) (size 9 to 14) (size 15 to 20)
#    0.000    2.154    1.538    1.385    0.000    6.154 
#    0.000    3.846    0.000    1.846    0.000    0.000 
#    0.000    0.000    0.000    0.000    0.000    0.000 
#
# Total GULP energy -322249.658629 kJ/mol
# GULP energy per Si atom -12394.217640 kJ/mol
# Density = 1.893319 g / cm^3
# Si number density = 18.976377 Si / 1000 Ang^3
#
#
#
# Elastic Constant Matrix: (Units=GPa)
#
#
# Indices 1 2 3 4 5 6 
#
# 1 99.8965 47.3452 24.3410 0.0000 0.0000 0.0000
# 2 47.3452 115.5242 30.3064 0.0000 0.0000 0.0000
# 3 24.3410 30.3064 67.5080 0.0000 0.0000 0.0000
# 4 0.0000 0.0000 0.0000 19.2176 0.0000 0.0000
# 5 0.0000 0.0000 0.0000 0.0000 22.9263 0.0000
# 6 0.0000 0.0000 0.0000 0.0000 0.0000 30.6659
#
#
#
# Elastic Compliance Matrix: (Units=1/GPa)
#
#
# Indices 1 2 3 4 5 6 
#
# 1 0.012803 -0.004575 -0.002563 0.000000 0.000000 0.000000
# 2 -0.004575 0.011446 -0.003489 0.000000 0.000000 0.000000
# 3 -0.002563 -0.003489 0.017303 0.000000 0.000000 0.000000
# 4 0.000000 0.000000 0.000000 0.052036 0.000000 0.000000
# 5 0.000000 0.000000 0.000000 0.000000 0.043618 0.000000
# 6 0.000000 0.000000 0.000000 0.000000 0.000000 0.032609
#
#
# Mechanical properties :
#
#
# Convention : Reuss Voigt Hill
#
# Bulk Modulus (GPa) = 49.26144 54.10154 51.68149
# Shear Modulus (GPa) = 25.27357 26.62439 25.94898
#
# Velocity S-wave (km/s) = 3.65340 3.74977 3.70190
# Velocity P-wave (km/s) = 6.61908 6.87892 6.75025
#
# Compressibility (1/GPa) = 0.02029985
#
# Stress axis : x y z
#
# Youngs Moduli (GPa) = 78.10718 87.36368 57.79214
#
# Poissons Ratio (x) = 0.39967 0.14809
# Poissons Ratio (y) = 0.35732 0.20165
# Poissons Ratio (z) = 0.20015 0.30482
#
# Static dielectric constant tensor:
#      x y z
#    x 3.459580 0.000000 0.000000 
#    y 0.000000 3.541850 0.000000 
#    z 0.000000 0.000000 3.467250 
# 
# 
# High freq. dielectric constant tensor:
#      x y z
#    x 1.741460 0.000000 0.000000 
#    y 0.000000 1.729510 0.000000 
#    z 0.000000 0.000000 1.727670 
# 
# From -- ./inp_files/24179.got.cif
#   From: 2010.03.12/outbox.cif.g09.slc.cpg/sg46_13_cif.got.tgz:24179.got - 2010.04.14 02:56:35.
