data_PCOD8191379
_publ_section_title
;
Structure prediction by ZEFSAII (Michael W. Deem and Ramdas Pophale) SiO2 
 PCOD8191379
Probable space group: I M A 2
;
_chemical_formula_sum "Si O2"
_cell_formula_units_Z 40
_cell_length_a 18.496262
_cell_length_b 15.489468
_cell_length_c 7.919214
_cell_angle_alpha 90.000000
_cell_angle_beta 90.000000
_cell_angle_gamma 90.000000
_cell_volume 2268.833099
_symmetry_space_group_name_H-M "I M A 2"
_symmetry_group_IT_number 46
_symmetry_cell_setting 'orthorhombic'
loop_
_space_group_symop_operation_xyz
x,y,z
-x,-y,z
1/2-x,y,z
1/2+x,-y,z
1/2+x,1/2+y,1/2+z
1/2-x,1/2-y,1/2+z
-x,1/2+y,1/2+z
x,1/2-y,1/2+z
loop_
_atom_site_type_symbol
_atom_site_label
_atom_site_fract_x
_atom_site_fract_y
_atom_site_fract_z
Si Si1 0.488333 0.213121 0.199560
Si Si2 0.250000 0.122287 0.466791
Si Si3 0.102487 0.342354 0.405296
Si Si4 0.963734 0.127909 0.508777
Si Si5 0.750000 0.804866 0.089048
Si Si6 0.107660 0.459785 0.096906
O O1 0.419160 0.256754 0.296728
O O2 0.544003 0.158751 0.314963
O O3 0.538419 0.289382 0.128889
O O4 0.457134 0.150432 0.053918
O O5 0.250000 0.155437 0.275205
O O6 0.250000 0.200768 0.601342
O O7 0.319184 0.063796 0.502070
O O8 0.181053 0.333718 0.483244
O O9 0.103795 0.429354 0.292517
O O10 0.042675 0.085663 0.500986
O O11 0.902338 0.063113 0.577312
#
# Coordination Sequence:
#
# PCOD8191379 Si02
#       6
#     8   4   8   8   4   8
#     4   9  17  32  52  71  95 128 170 205 241 294
#     4  12  22  32  48  72 103 138 164 198 245 300
#     4  10  18  29  49  76 101 131 165 199 240 301
#     4   9  18  34  52  74  99 128 164 206 251 293
#     4  12  20  30  48  72 103 138 164 186 241 312
#     4  10  20  33  49  73 105 132 159 204 252 290
#
# _framework density 17.630208
#
# number of rings (size 3 to 8) (size 9 to 14) (size 15 to 20)
#    0.000    2.000    0.000    7.800    0.000    0.000 
#    0.000   22.000    0.000    1.200    0.000    0.000 
#    0.000    0.000    0.000    0.000    0.000    0.000 
#
# Total GULP energy -247893.413366 kJ/mol
# GULP energy per Si atom -12394.670668 kJ/mol
# Density = 1.759008 g / cm^3
# Si number density = 17.630208 Si / 1000 Ang^3
#
#
#
# Elastic Constant Matrix: (Units=GPa)
#
#
# Indices 1 2 3 4 5 6 
#
# 1 79.5628 56.4994 44.0811 0.0000 0.0000 0.0000
# 2 56.4994 109.4161 68.7393 0.0000 0.0000 0.0000
# 3 44.0811 68.7393 134.7686 0.0000 0.0000 0.0000
# 4 0.0000 0.0000 0.0000 22.2874 0.0000 0.0000
# 5 0.0000 0.0000 0.0000 0.0000 11.6449 0.0000
# 6 0.0000 0.0000 0.0000 0.0000 0.0000 17.6651
#
#
#
# Elastic Compliance Matrix: (Units=1/GPa)
#
#
# Indices 1 2 3 4 5 6 
#
# 1 0.020168 -0.009226 -0.001891 0.000000 0.000000 0.000000
# 2 -0.009226 0.017670 -0.005995 0.000000 0.000000 0.000000
# 3 -0.001891 -0.005995 0.011096 0.000000 0.000000 0.000000
# 4 0.000000 0.000000 0.000000 0.044868 0.000000 0.000000
# 5 0.000000 0.000000 0.000000 0.000000 0.085875 0.000000
# 6 0.000000 0.000000 0.000000 0.000000 0.000000 0.056609
#
#
# Mechanical properties :
#
#
# Convention : Reuss Voigt Hill
#
# Bulk Modulus (GPa) = 67.97935 73.59855 70.78895
# Shear Modulus (GPa) = 18.15454 20.61466 19.38460
#
# Velocity S-wave (km/s) = 3.21244 3.42318 3.31948
# Velocity P-wave (km/s) = 7.23891 7.58028 7.41156
#
# Compressibility (1/GPa) = 0.01471035
#
# Stress axis : x y z
#
# Youngs Moduli (GPa) = 49.58317 56.59381 90.12096
#
# Poissons Ratio (x) = 0.52216 0.17040
# Poissons Ratio (y) = 0.45747 0.54025
# Poissons Ratio (z) = 0.09375 0.33926
#
# Static dielectric constant tensor:
#      x y z
#    x 3.057000 0.000000 0.000000 
#    y 0.000000 3.334630 0.000000 
#    z 0.000000 0.000000 3.533970 
# 
# 
# High freq. dielectric constant tensor:
#      x y z
#    x 1.648410 0.000000 0.000000 
#    y 0.000000 1.657500 0.000000 
#    z 0.000000 0.000000 1.699310 
# 
# From -- ./inp_files/6498.got.cif
#   From: 2010.03.12/outbox.cif.g09.slc.cpg/sg46_4_cif.got.tgz:6498.got - 2010.04.14 02:56:35.
