data_PCOD8191473
_publ_section_title
;
Structure prediction by ZEFSAII (Michael W. Deem and Ramdas Pophale) SiO2 
 PCOD8191473
Probable space group: I M A 2
;
_chemical_formula_sum "Si O2"
_cell_formula_units_Z 44
_cell_length_a 21.577769
_cell_length_b 17.229014
_cell_length_c 4.994536
_cell_angle_alpha 90.000000
_cell_angle_beta 90.000000
_cell_angle_gamma 90.000000
_cell_volume 1856.787104
_symmetry_space_group_name_H-M "I M A 2"
_symmetry_group_IT_number 46
_symmetry_cell_setting 'orthorhombic'
loop_
_space_group_symop_operation_xyz
x,y,z
-x,-y,z
1/2-x,y,z
1/2+x,-y,z
1/2+x,1/2+y,1/2+z
1/2-x,1/2-y,1/2+z
-x,1/2+y,1/2+z
x,1/2-y,1/2+z
loop_
_atom_site_type_symbol
_atom_site_label
_atom_site_fract_x
_atom_site_fract_y
_atom_site_fract_z
Si Si1 0.750000 0.574640 0.069880
Si Si2 0.882560 0.790700 0.896825
Si Si3 0.614971 0.196151 0.261605
Si Si4 0.250000 0.176708 0.058005
Si Si5 0.435566 0.966387 0.183585
Si Si6 0.120224 0.036448 0.691616
Si Si7 0.250000 0.798727 0.171088
O O1 0.750000 0.599612 0.379680
O O2 0.686968 0.525293 0.046112
O O3 0.750000 0.646840 0.863971
O O4 0.912029 0.728389 0.687152
O O5 0.894565 0.876038 0.786730
O O6 0.809568 0.773735 0.961536
O O7 0.604331 0.236037 0.547075
O O8 0.565707 0.126324 0.231454
O O9 0.684891 0.158537 0.241271
O O10 0.427222 0.011289 0.462972
O O11 0.500000 0.000000 0.066918
O O12 0.384357 0.983540 0.955253
O O13 0.250000 0.779109 0.855793
#
# Coordination Sequence:
#
# PCOD8191473 Si02
#       7
#     4   8   8   4   8   8   4
#     4  10  20  37  61  92 126 164 215 278 345 407
#     4  11  20  34  56  86 124 170 218 268 319 381
#     4  10  21  41  68 100 129 167 218 275 339 413
#     4  10  18  31  53  85 126 173 213 258 319 385
#     4  12  26  46  68  93 134 183 222 271 342 421
#     4  11  24  42  63  94 131 169 221 282 345 412
#     4   8  16  32  60  95 130 155 196 262 334 396
#
# _framework density 23.696847000000002
#
# number of rings (size 3 to 8) (size 9 to 14) (size 15 to 20)
#    0.000    1.455    0.000    7.636    0.000    1.455 
#    0.000    7.273    0.000    0.000    0.000    0.000 
#    0.000    0.000    0.000    0.000    0.000    0.000 
#
# Total GULP energy -272575.342917 kJ/mol
# GULP energy per Si atom -12389.788314 kJ/mol
# Density = 2.364291 g / cm^3
# Si number density = 23.696847 Si / 1000 Ang^3
#
#
#
# Elastic Constant Matrix: (Units=GPa)
#
#
# Indices 1 2 3 4 5 6 
#
# 1 63.9232 41.3430 11.5640 0.0000 0.0000 0.0000
# 2 41.3430 97.9068 36.5345 0.0000 0.0000 0.0000
# 3 11.5640 36.5345 143.5478 0.0000 0.0000 0.0000
# 4 0.0000 0.0000 0.0000 47.3948 0.0000 0.0000
# 5 0.0000 0.0000 0.0000 0.0000 21.1485 0.0000
# 6 0.0000 0.0000 0.0000 0.0000 0.0000 29.9452
#
#
#
# Elastic Compliance Matrix: (Units=1/GPa)
#
#
# Indices 1 2 3 4 5 6 
#
# 1 0.021575 -0.009350 0.000642 0.000000 0.000000 0.000000
# 2 -0.009350 0.015337 -0.003150 0.000000 0.000000 0.000000
# 3 0.000642 -0.003150 0.007716 0.000000 0.000000 0.000000
# 4 0.000000 0.000000 0.000000 0.021099 0.000000 0.000000
# 5 0.000000 0.000000 0.000000 0.000000 0.047285 0.000000
# 6 0.000000 0.000000 0.000000 0.000000 0.000000 0.033394
#
#
# Mechanical properties :
#
#
# Convention : Reuss Voigt Hill
#
# Bulk Modulus (GPa) = 47.82031 53.80675 50.81353
# Shear Modulus (GPa) = 28.23349 34.09346 31.16348
#
# Velocity S-wave (km/s) = 3.45548 3.79718 3.63035
# Velocity P-wave (km/s) = 6.01201 6.47922 6.24998
#
# Compressibility (1/GPa) = 0.02091162
#
# Stress axis : x y z
#
# Youngs Moduli (GPa) = 46.35047 65.19973 129.59351
#
# Poissons Ratio (x) = 0.60960 -0.08315
# Poissons Ratio (y) = 0.43337 0.40827
# Poissons Ratio (z) = -0.02974 0.20540
#
# Static dielectric constant tensor:
#      x y z
#    x 4.536830 0.000000 0.000000 
#    y 0.000000 3.793490 0.000000 
#    z 0.000000 0.000000 4.535730 
# 
# 
# High freq. dielectric constant tensor:
#      x y z
#    x 1.910110 0.000000 0.000000 
#    y 0.000000 1.910000 0.000000 
#    z 0.000000 0.000000 1.968380 
# 
# From -- ./inp_files/2334.got.cif
#   From: 2010.03.12/outbox.cif.g09.slc.cpg/sg46_2_cif.got.tgz:2334.got - 2010.04.14 02:56:35.
