data_PCOD8191639
_publ_section_title
;
Structure prediction by ZEFSAII (Michael W. Deem and Ramdas Pophale) SiO2 
 PCOD8191639
Probable space group: I M A 2
;
_chemical_formula_sum "Si O2"
_cell_formula_units_Z 64
_cell_length_a 8.819763
_cell_length_b 18.388272
_cell_length_c 26.054603
_cell_angle_alpha 90.000000
_cell_angle_beta 90.000000
_cell_angle_gamma 90.000000
_cell_volume 4225.540752
_symmetry_space_group_name_H-M "I M A 2"
_symmetry_group_IT_number 46
_symmetry_cell_setting 'orthorhombic'
loop_
_space_group_symop_operation_xyz
x,y,z
-x,-y,z
1/2-x,y,z
1/2+x,-y,z
1/2+x,1/2+y,1/2+z
1/2-x,1/2-y,1/2+z
-x,1/2+y,1/2+z
x,1/2-y,1/2+z
loop_
_atom_site_type_symbol
_atom_site_label
_atom_site_fract_x
_atom_site_fract_y
_atom_site_fract_z
Si Si1 0.429278 0.577326 0.041820
Si Si2 0.430195 0.076741 0.349361
Si Si3 0.081733 0.713178 0.100973
Si Si4 0.569863 0.423419 0.740652
Si Si5 0.572878 0.660807 0.650962
Si Si6 0.929610 0.158830 0.440171
Si Si7 0.926343 0.577384 0.548382
Si Si8 0.916911 0.200522 0.995619
O O1 0.500000 0.500000 0.054066
O O2 0.250000 0.570883 0.040724
O O3 0.478347 0.631938 0.088074
O O4 0.485427 0.607329 0.986784
O O5 0.250000 0.069830 0.344940
O O6 0.499489 0.099997 0.294867
O O7 0.476403 0.137851 0.389960
O O8 0.500000 0.000000 0.367316
O O9 0.250000 0.710988 0.125929
O O10 0.967035 0.755048 0.138883
O O11 0.091997 0.753705 0.047221
O O12 0.500000 0.500000 0.722371
O O13 0.750000 0.430567 0.745267
O O14 0.525641 0.362676 0.699540
O O15 0.750000 0.653852 0.663174
O O16 0.523279 0.610421 0.603096
O O17 0.750000 0.150074 0.431059
O O18 0.971588 0.243319 0.451597
O O19 0.750000 0.565960 0.546410
O O20 0.000000 0.500000 0.539513
O O21 0.972329 0.631814 0.502205
O O22 0.750000 0.170086 0.982176
#
# Coordination Sequence:
#
# PCOD8191639 Si02
#       8
#     8   8   8   8   8   8   8   8
#     4   9  17  27  41  61  86 114 145 177 210 249
#     4  11  21  32  45  62  85 112 143 180 214 248
#     4   8  15  28  42  58  81 111 142 173 209 249
#     4  11  21  33  47  62  83 111 142 178 214 250
#     4  10  19  30  44  63  84 110 143 177 212 252
#     4   9  17  30  45  62  84 113 145 176 212 253
#     4  10  19  28  41  61  86 113 143 175 209 250
#     4   8  15  28  44  59  81 110 140 174 210 247
#
# _framework density 15.145989999999999
#
# number of rings (size 3 to 8) (size 9 to 14) (size 15 to 20)
#    0.000    2.500    0.000    6.000    0.000    5.000 
#    0.000    2.500    0.000    0.000    0.000    0.000 
#    0.000    1.000    0.000    8.250    0.000    5.250 
#
# Total GULP energy -396703.462215 kJ/mol
# GULP energy per Si atom -12396.983194 kJ/mol
# Density = 1.511152 g / cm^3
# Si number density = 15.145990 Si / 1000 Ang^3
#
#
#
# Elastic Constant Matrix: (Units=GPa)
#
#
# Indices 1 2 3 4 5 6 
#
# 1 78.6910 40.3337 38.3927 0.0000 0.0000 0.0000
# 2 40.3337 106.3080 47.8508 0.0000 0.0000 0.0000
# 3 38.3927 47.8508 70.0060 0.0000 0.0000 0.0000
# 4 0.0000 0.0000 0.0000 22.3647 0.0000 0.0000
# 5 0.0000 0.0000 0.0000 0.0000 21.4935 0.0000
# 6 0.0000 0.0000 0.0000 0.0000 0.0000 27.1496
#
#
#
# Elastic Compliance Matrix: (Units=1/GPa)
#
#
# Indices 1 2 3 4 5 6 
#
# 1 0.018202 -0.003485 -0.007601 0.000000 0.000000 0.000000
# 2 -0.003485 0.014254 -0.007832 0.000000 0.000000 0.000000
# 3 -0.007601 -0.007832 0.023806 0.000000 0.000000 0.000000
# 4 0.000000 0.000000 0.000000 0.044713 0.000000 0.000000
# 5 0.000000 0.000000 0.000000 0.000000 0.046526 0.000000
# 6 0.000000 0.000000 0.000000 0.000000 0.000000 0.036833
#
#
# Mechanical properties :
#
#
# Convention : Reuss Voigt Hill
#
# Bulk Modulus (GPa) = 54.26541 56.46215 55.36378
# Shear Modulus (GPa) = 21.89990 22.76340 22.33165
#
# Velocity S-wave (km/s) = 3.80665 3.88097 3.84399
# Velocity P-wave (km/s) = 7.43147 7.57906 7.50563
#
# Compressibility (1/GPa) = 0.01842794
#
# Stress axis : x y z
#
# Youngs Moduli (GPa) = 54.93774 70.15556 42.00628
#
# Poissons Ratio (x) = 0.24449 0.31927
# Poissons Ratio (y) = 0.19146 0.32898
# Poissons Ratio (z) = 0.41755 0.54944
#
# Static dielectric constant tensor:
#      x y z
#    x 2.953660 0.000000 0.000000 
#    y 0.000000 3.282780 0.000000 
#    z 0.000000 0.000000 2.746180 
# 
# 
# High freq. dielectric constant tensor:
#      x y z
#    x 1.588100 0.000000 0.000000 
#    y 0.000000 1.570030 0.000000 
#    z 0.000000 0.000000 1.545860 
# 
# From -- ./inp_files/24406.got.cif
#   From: 2010.03.12/outbox.cif.g09.slc.cpg/sg46_13_cif.got.tgz:24406.got - 2010.04.14 02:56:35.
