data_PCOD8191335
_publ_section_title
;
Structure prediction by ZEFSAII (Michael W. Deem and Ramdas Pophale) SiO2 
 PCOD8191335
Probable space group: I M A 2
;
_chemical_formula_sum "Si O2"
_cell_formula_units_Z 64
_cell_length_a 8.613638
_cell_length_b 18.430382
_cell_length_c 26.157890
_cell_angle_alpha 90.000000
_cell_angle_beta 90.000000
_cell_angle_gamma 90.000000
_cell_volume 4152.634062
_symmetry_space_group_name_H-M "I M A 2"
_symmetry_group_IT_number 46
_symmetry_cell_setting 'orthorhombic'
loop_
_space_group_symop_operation_xyz
x,y,z
-x,-y,z
1/2-x,y,z
1/2+x,-y,z
1/2+x,1/2+y,1/2+z
1/2-x,1/2-y,1/2+z
-x,1/2+y,1/2+z
x,1/2-y,1/2+z
loop_
_atom_site_type_symbol
_atom_site_label
_atom_site_fract_x
_atom_site_fract_y
_atom_site_fract_z
Si Si1 0.572328 0.838595 0.304100
Si Si2 0.567042 0.835965 0.012616
Si Si3 0.569283 0.424948 0.717367
Si Si4 0.434198 0.579861 0.416257
Si Si5 0.066794 0.079638 0.406856
Si Si6 0.934282 0.076938 0.101751
Si Si7 0.931036 0.207420 0.461283
Si Si8 0.930371 0.708773 0.369038
O O1 0.750000 0.856831 0.292079
O O2 0.474287 0.858564 0.254238
O O3 0.515575 0.885244 0.352882
O O4 0.550001 0.752201 0.315552
O O5 0.750000 0.845219 0.007049
O O6 0.484047 0.885719 0.970166
O O7 0.517875 0.751498 0.006500
O O8 0.510648 0.860050 0.068322
O O9 0.500000 0.500000 0.738882
O O10 0.750000 0.435618 0.716828
O O11 0.510451 0.408742 0.659991
O O12 0.500000 0.500000 0.411393
O O13 0.250000 0.578944 0.411914
O O14 0.508509 0.625957 0.368658
O O15 0.250000 0.078588 0.412034
O O16 0.998589 0.126474 0.454075
O O17 0.000000 0.000000 0.410927
O O18 0.750000 0.077874 0.095515
O O19 0.000000 0.000000 0.082511
O O20 0.750000 0.203277 0.473834
O O21 0.961045 0.251332 0.409598
O O22 0.750000 0.712497 0.386590
#
# Coordination Sequence:
#
# PCOD8191335 Si02
#       8
#     8   8   8   8   8   8   8   8
#     4   9  18  30  45  62  85 114 145 178 214 253
#     4  11  20  31  46  63  84 113 145 179 215 256
#     4  10  20  31  45  62  85 113 145 182 217 252
#     4  11  20  30  44  63  87 115 144 177 212 254
#     4  10  19  30  43  63  88 116 147 180 214 253
#     4  10  20  33  45  62  85 112 145 182 218 253
#     4  10  18  29  44  62  84 112 142 176 213 254
#     4   9  17  30  44  61  84 111 142 178 213 251
#
# _framework density 15.411905000000001
#
# number of rings (size 3 to 8) (size 9 to 14) (size 15 to 20)
#    0.000    2.000    0.000    7.875    0.000    5.500 
#    0.000    0.000    0.000    0.000    0.000    0.000 
#    0.000    1.000    0.000    6.750    0.000    5.000 
#
# Total GULP energy -396707.030705 kJ/mol
# GULP energy per Si atom -12397.094710 kJ/mol
# Density = 1.537683 g / cm^3
# Si number density = 15.411905 Si / 1000 Ang^3
#
#
#
# Elastic Constant Matrix: (Units=GPa)
#
#
# Indices 1 2 3 4 5 6 
#
# 1 81.2312 35.7071 29.2001 0.0000 0.0000 0.0000
# 2 35.7071 106.8827 44.9113 0.0000 0.0000 0.0000
# 3 29.2001 44.9113 68.0154 0.0000 0.0000 0.0000
# 4 0.0000 0.0000 0.0000 24.0301 0.0000 0.0000
# 5 0.0000 0.0000 0.0000 0.0000 21.8994 0.0000
# 6 0.0000 0.0000 0.0000 0.0000 0.0000 28.9920
#
#
#
# Elastic Compliance Matrix: (Units=1/GPa)
#
#
# Indices 1 2 3 4 5 6 
#
# 1 0.015337 -0.003262 -0.004430 0.000000 0.000000 0.000000
# 2 -0.003262 0.013643 -0.007608 0.000000 0.000000 0.000000
# 3 -0.004430 -0.007608 0.021628 0.000000 0.000000 0.000000
# 4 0.000000 0.000000 0.000000 0.041615 0.000000 0.000000
# 5 0.000000 0.000000 0.000000 0.000000 0.045663 0.000000
# 6 0.000000 0.000000 0.000000 0.000000 0.000000 0.034492
#
#
# Mechanical properties :
#
#
# Convention : Reuss Voigt Hill
#
# Bulk Modulus (GPa) = 49.98257 52.86294 51.42275
# Shear Modulus (GPa) = 23.84948 24.73833 24.29391
#
# Velocity S-wave (km/s) = 3.93806 4.01077 3.97458
# Velocity P-wave (km/s) = 7.29241 7.47147 7.38249
#
# Compressibility (1/GPa) = 0.02000698
#
# Stress axis : x y z
#
# Youngs Moduli (GPa) = 65.20136 73.29956 46.23594
#
# Poissons Ratio (x) = 0.23911 0.20485
# Poissons Ratio (y) = 0.21270 0.35176
# Poissons Ratio (z) = 0.28887 0.55766
#
# Static dielectric constant tensor:
#      x y z
#    x 3.053510 0.000000 0.000000 
#    y 0.000000 3.217580 0.000000 
#    z 0.000000 0.000000 2.854670 
# 
# 
# High freq. dielectric constant tensor:
#      x y z
#    x 1.611050 0.000000 0.000000 
#    y 0.000000 1.583680 0.000000 
#    z 0.000000 0.000000 1.551620 
# 
# From -- ./inp_files/24401.got.cif
#   From: 2010.03.12/outbox.cif.g09.slc.cpg/sg46_13_cif.got.tgz:24401.got - 2010.04.14 02:56:35.
