data_PCOD8191998
_publ_section_title
;
Structure prediction by ZEFSAII (Michael W. Deem and Ramdas Pophale) SiO2 
 PCOD8191998
Probable space group: I M A 2
;
_chemical_formula_sum "Si O2"
_cell_formula_units_Z 40
_cell_length_a 8.875454
_cell_length_b 19.519899
_cell_length_c 10.802557
_cell_angle_alpha 90.000000
_cell_angle_beta 90.000000
_cell_angle_gamma 90.000000
_cell_volume 1871.521024
_symmetry_space_group_name_H-M "I M A 2"
_symmetry_group_IT_number 46
_symmetry_cell_setting 'orthorhombic'
loop_
_space_group_symop_operation_xyz
x,y,z
-x,-y,z
1/2-x,y,z
1/2+x,-y,z
1/2+x,1/2+y,1/2+z
1/2-x,1/2-y,1/2+z
-x,1/2+y,1/2+z
x,1/2-y,1/2+z
loop_
_atom_site_type_symbol
_atom_site_label
_atom_site_fract_x
_atom_site_fract_y
_atom_site_fract_z
Si Si1 0.070266 0.703324 0.875000
Si Si2 0.425643 0.073955 0.471311
Si Si3 0.074022 0.709935 0.603382
Si Si4 0.575374 0.573261 0.245114
Si Si5 0.074677 0.926985 0.984302
O O1 0.250000 0.699382 0.878461
O O2 0.017207 0.733355 0.740215
O O3 0.000723 0.747630 0.988817
O O4 0.005436 0.626580 0.879764
O O5 0.250000 0.066660 0.440013
O O6 0.449245 0.105928 0.609849
O O7 0.500000 0.000000 0.455740
O O8 0.250000 0.723721 0.592023
O O9 0.040572 0.628517 0.590870
O O10 0.500000 0.500000 0.240089
O O11 0.750000 0.566792 0.278555
O O12 0.490117 0.609870 0.359015
O O13 0.250000 0.940134 0.965963
O O14 0.000000 0.000000 0.017259
#
# Coordination Sequence:
#
# PCOD8191998 Si02
#       5
#     8   8   8   8   8
#     4  10  21  40  62  86 116 156 199 242 291 349
#     4  10  21  37  58  88 120 154 194 243 296 349
#     4   9  21  38  60  87 116 153 199 241 289 350
#     4   9  17  30  50  80 115 148 185 228 282 339
#     4  10  19  33  55  85 116 151 194 240 291 345
#
# _framework density 21.372987999999999
#
# number of rings (size 3 to 8) (size 9 to 14) (size 15 to 20)
#    0.000    2.400    0.000    3.000    2.800    3.200 
#    0.000    7.000    0.000    0.000    0.000    0.000 
#    0.000    0.000    0.000    0.000    0.000    0.000 
#
# Total GULP energy -247773.990388 kJ/mol
# GULP energy per Si atom -12388.699519 kJ/mol
# Density = 2.132434 g / cm^3
# Si number density = 21.372988 Si / 1000 Ang^3
#
#
#
# Elastic Constant Matrix: (Units=GPa)
#
#
# Indices 1 2 3 4 5 6 
#
# 1 79.2994 21.4424 35.0678 -0.0001 0.0000 0.0000
# 2 21.4424 81.5045 67.4197 -0.0002 0.0001 0.0000
# 3 35.0678 67.4197 158.9307 -0.0009 0.0003 0.0000
# 4 -0.0001 -0.0002 -0.0009 34.0920 0.0001 0.0000
# 5 0.0000 0.0001 0.0003 0.0001 17.3659 0.0000
# 6 0.0000 0.0000 0.0000 0.0000 0.0000 24.4597
#
#
#
# Elastic Compliance Matrix: (Units=1/GPa)
#
#
# Indices 1 2 3 4 5 6 
#
# 1 0.014135 -0.001754 -0.002375 0.000000 0.000000 0.000000
# 2 -0.001754 0.019120 -0.007724 0.000000 0.000000 0.000000
# 3 -0.002375 -0.007724 0.010092 0.000000 0.000000 0.000000
# 4 0.000000 0.000000 0.000000 0.029332 0.000000 0.000000
# 5 0.000000 0.000000 0.000000 0.000000 0.057584 0.000000
# 6 0.000000 0.000000 0.000000 0.000000 0.000000 0.040884
#
#
# Mechanical properties :
#
#
# Convention : Reuss Voigt Hill
#
# Bulk Modulus (GPa) = 50.91185 63.06602 56.98894
# Shear Modulus (GPa) = 24.82626 28.23718 26.53172
#
# Velocity S-wave (km/s) = 3.41188 3.63872 3.52713
# Velocity P-wave (km/s) = 6.27643 6.87206 6.58099
#
# Compressibility (1/GPa) = 0.01964179
#
# Stress axis : x y z
#
# Youngs Moduli (GPa) = 70.74680 52.30197 99.08404
#
# Poissons Ratio (x) = 0.09176 0.23529
# Poissons Ratio (y) = 0.12412 0.76529
# Poissons Ratio (z) = 0.16800 0.40396
#
# Static dielectric constant tensor:
#      x y z
#    x 3.642860 0.000000 0.000000 
#    y 0.000000 3.587740 0.000000 
#    z 0.000000 0.000000 4.846320 
# 
# 
# High freq. dielectric constant tensor:
#      x y z
#    x 1.815470 0.000000 0.000000 
#    y 0.000000 1.825750 0.000000 
#    z 0.000000 0.000000 1.848750 
# 
# From -- ./inp_files/9166.got.cif
#   From: 2010.03.12/outbox.cif.g09.slc.cpg/sg46_5_cif.got.tgz:9166.got - 2010.04.14 02:56:35.
