data_PCOD8191150
_publ_section_title
;
Structure prediction by ZEFSAII (Michael W. Deem and Ramdas Pophale) SiO2 
 PCOD8191150
Probable space group: I M A 2
;
_chemical_formula_sum "Si O2"
_cell_formula_units_Z 64
_cell_length_a 14.275449
_cell_length_b 13.476828
_cell_length_c 18.590820
_cell_angle_alpha 90.000000
_cell_angle_beta 90.000000
_cell_angle_gamma 90.000000
_cell_volume 3576.646417
_symmetry_space_group_name_H-M "I M A 2"
_symmetry_group_IT_number 46
_symmetry_cell_setting 'orthorhombic'
loop_
_space_group_symop_operation_xyz
x,y,z
-x,-y,z
1/2-x,y,z
1/2+x,-y,z
1/2+x,1/2+y,1/2+z
1/2-x,1/2-y,1/2+z
-x,1/2+y,1/2+z
x,1/2-y,1/2+z
loop_
_atom_site_type_symbol
_atom_site_label
_atom_site_fract_x
_atom_site_fract_y
_atom_site_fract_z
Si Si1 0.902805 0.050996 0.112980
Si Si2 0.146227 0.121602 0.026724
Si Si3 0.641882 0.354680 0.849952
Si Si4 0.994504 0.117339 0.473171
Si Si5 0.648476 0.537835 0.754279
Si Si6 0.522793 0.775093 0.264544
Si Si7 0.498056 0.754051 0.105896
Si Si8 0.360651 0.254634 0.396386
O O1 0.910221 0.169204 0.099803
O O2 0.862285 0.996714 0.041164
O O3 0.840736 0.030255 0.183131
O O4 0.000000 0.000000 0.131380
O O5 0.250000 0.159792 0.039919
O O6 0.088970 0.183549 0.084636
O O7 0.117269 0.148239 0.944980
O O8 0.750000 0.318566 0.851261
O O9 0.632176 0.467276 0.822555
O O10 0.580736 0.282308 0.798840
O O11 0.598477 0.351120 0.929837
O O12 0.983823 0.161039 0.553662
O O13 0.086871 0.159493 0.432012
O O14 0.000000 0.000000 0.480975
O O15 0.750000 0.591926 0.763597
O O16 0.563185 0.614621 0.750140
O O17 0.512845 0.717695 0.188432
O O18 0.595342 0.720473 0.318318
O O19 0.250000 0.231678 0.390356
#
# Coordination Sequence:
#
# PCOD8191150 Si02
#       8
#     8   8   8   8   8   8   8   8
#     4  10  16  28  46  71 107 135 164 204 257 312
#     4   9  17  30  48  75 109 140 170 206 259 324
#     4  10  20  33  51  74 101 136 172 213 267 320
#     4  10  21  37  54  71 103 142 181 224 261 305
#     4  11  18  26  48  79 107 136 159 201 270 323
#     4  11  18  31  49  75 109 132 170 218 260 317
#     4  10  20  32  51  75 103 141 175 220 264 314
#     4   9  19  33  53  80 107 137 169 209 269 324
#
# _framework density 17.893856
#
# number of rings (size 3 to 8) (size 9 to 14) (size 15 to 20)
#    0.000    2.000    3.750    2.625    0.000    2.000 
#    0.000    1.875    0.000    5.250    0.000    0.000 
#    0.000    0.000    0.000    0.000    0.000    0.000 
#
# Total GULP energy -396517.539727 kJ/mol
# GULP energy per Si atom -12391.173116 kJ/mol
# Density = 1.785313 g / cm^3
# Si number density = 17.893856 Si / 1000 Ang^3
#
#
#
# Elastic Constant Matrix: (Units=GPa)
#
#
# Indices 1 2 3 4 5 6 
#
# 1 106.5361 15.3642 46.9904 0.0000 0.0000 0.0000
# 2 15.3642 44.2929 46.6575 0.0000 0.0000 0.0000
# 3 46.9904 46.6575 155.5890 0.0000 0.0000 0.0000
# 4 0.0000 0.0000 0.0000 29.7220 0.0000 0.0000
# 5 0.0000 0.0000 0.0000 0.0000 19.4363 0.0000
# 6 0.0000 0.0000 0.0000 0.0000 0.0000 7.2767
#
#
#
# Elastic Compliance Matrix: (Units=1/GPa)
#
#
# Indices 1 2 3 4 5 6 
#
# 1 0.010835 -0.000455 -0.003136 0.000000 0.000000 0.000000
# 2 -0.000455 0.033021 -0.009765 0.000000 0.000000 0.000000
# 3 -0.003136 -0.009765 0.010303 0.000000 0.000000 0.000000
# 4 0.000000 0.000000 0.000000 0.033645 0.000000 0.000000
# 5 0.000000 0.000000 0.000000 0.000000 0.051450 0.000000
# 6 0.000000 0.000000 0.000000 0.000000 0.000000 0.137425
#
#
# Mechanical properties :
#
#
# Convention : Reuss Voigt Hill
#
# Bulk Modulus (GPa) = 36.43382 58.27137 47.35259
# Shear Modulus (GPa) = 15.99797 24.44739 20.22268
#
# Velocity S-wave (km/s) = 2.99331 3.70028 3.36541
# Velocity P-wave (km/s) = 5.68786 7.13385 6.45150
#
# Compressibility (1/GPa) = 0.02744703
#
# Stress axis : x y z
#
# Youngs Moduli (GPa) = 92.29071 30.28384 97.06362
#
# Poissons Ratio (x) = 0.01378 0.30439
# Poissons Ratio (y) = 0.04201 0.94780
# Poissons Ratio (z) = 0.28942 0.29571
#
# Static dielectric constant tensor:
#      x y z
#    x 3.467150 0.000000 0.000000 
#    y 0.000000 3.054570 0.000000 
#    z 0.000000 0.000000 3.577420 
# 
# 
# High freq. dielectric constant tensor:
#      x y z
#    x 1.699110 0.000000 0.000000 
#    y 0.000000 1.636090 0.000000 
#    z 0.000000 0.000000 1.699240 
# 
# From -- ./inp_files/19728.got.cif
#   From: 2010.03.12/outbox.cif.g09.slc.cpg/sg46_10_cif.got.tgz:19728.got - 2010.04.14 02:56:35.
