data_PCOD8191080
_publ_section_title
;
Structure prediction by ZEFSAII (Michael W. Deem and Ramdas Pophale) SiO2 
 PCOD8191080
Probable space group: I B A 2
;
_chemical_formula_sum "Si O2"
_cell_formula_units_Z 48
_cell_length_a 8.476600
_cell_length_b 29.232250
_cell_length_c 8.226148
_cell_angle_alpha 90.000000
_cell_angle_beta 90.000000
_cell_angle_gamma 90.000000
_cell_volume 2038.357956
_symmetry_space_group_name_H-M "I B A 2"
_symmetry_group_IT_number 45
_symmetry_cell_setting 'orthorhombic'
loop_
_space_group_symop_operation_xyz
x,y,z
-x,-y,z
-x,y,1/2+z
x,-y,1/2+z
1/2+x,1/2+y,1/2+z
1/2-x,1/2-y,1/2+z
1/2-x,1/2+y,z
1/2+x,1/2-y,z
loop_
_atom_site_type_symbol
_atom_site_label
_atom_site_fract_x
_atom_site_fract_y
_atom_site_fract_z
Si Si1 0.731435 0.880345 0.485950
Si Si2 0.911756 0.617665 0.340717
Si Si3 0.772255 0.792864 0.925968
Si Si4 0.094884 0.210894 0.572358
Si Si5 0.347197 0.468132 0.835445
Si Si6 0.144573 0.527845 0.040210
O O1 0.648470 0.892911 0.658757
O O2 0.600057 0.872058 0.344891
O O3 0.828954 0.834300 0.498104
O O4 0.857312 0.919799 0.432695
O O5 0.816385 0.659074 0.419663
O O6 0.902326 0.574840 0.458415
O O7 0.856696 0.781324 0.757033
O O8 0.644633 0.754398 0.965898
O O9 0.905865 0.793971 0.065163
O O10 0.500000 0.500000 0.852249
O O11 0.298842 0.460899 0.648935
O O12 0.194930 0.493596 0.900306
O O13 0.000000 0.500000 0.127446
#
# Coordination Sequence:
#
# PCOD8191080 Si02
#       6
#     8   8   8   8   8   8
#     4  11  25  46  70 105 140 186 237 291 357 421
#     4  11  25  45  73 103 139 186 238 292 351 428
#     4  11  25  45  73 106 144 186 235 290 355 428
#     4  11  25  45  72 106 145 184 235 289 356 428
#     4  12  27  45  69 101 143 185 238 297 361 423
#     4  12  25  45  71 101 137 188 241 291 358 427
#
# _framework density 23.548366000000001
#
# number of rings (size 3 to 8) (size 9 to 14) (size 15 to 20)
#    0.000    0.667    1.667    5.000    2.333    8.000 
#    0.000    0.833    0.000    0.000    0.000    0.000 
#    0.000    0.000    0.000    0.000    0.000    0.000 
#
# Total GULP energy -297549.623995 kJ/mol
# GULP energy per Si atom -12397.901000 kJ/mol
# Density = 2.349477 g / cm^3
# Si number density = 23.548366 Si / 1000 Ang^3
#
#
#
# Elastic Constant Matrix: (Units=GPa)
#
#
# Indices 1 2 3 4 5 6 
#
# 1 79.6966 24.8026 18.4830 -0.0023 0.0003 0.0012
# 2 24.8026 129.3758 39.5739 0.0005 -0.0003 0.0003
# 3 18.4830 39.5739 57.0519 0.0085 0.0011 -0.0017
# 4 -0.0023 0.0005 0.0085 19.5685 -0.0004 -0.0003
# 5 0.0003 -0.0003 0.0011 -0.0004 33.0187 0.0013
# 6 0.0012 0.0003 -0.0017 -0.0003 0.0013 48.4596
#
#
#
# Elastic Compliance Matrix: (Units=1/GPa)
#
#
# Indices 1 2 3 4 5 6 
#
# 1 0.013831 -0.001626 -0.003353 0.000003 0.000000 0.000000
# 2 -0.001626 0.010002 -0.006411 0.000002 0.000000 0.000000
# 3 -0.003353 -0.006411 0.023061 -0.000010 -0.000001 0.000001
# 4 0.000003 0.000002 -0.000010 0.051103 0.000001 0.000000
# 5 0.000000 0.000000 -0.000001 0.000001 0.030286 -0.000001
# 6 0.000000 0.000000 0.000001 0.000000 -0.000001 0.020636
#
#
# Mechanical properties :
#
#
# Convention : Reuss Voigt Hill
#
# Bulk Modulus (GPa) = 41.46918 47.98259 44.72589
# Shear Modulus (GPa) = 27.81831 32.42700 30.12266
#
# Velocity S-wave (km/s) = 3.44077 3.71487 3.58045
# Velocity P-wave (km/s) = 5.78219 6.23063 6.01059
#
# Compressibility (1/GPa) = 0.02411429
#
# Stress axis : x y z
#
# Youngs Moduli (GPa) = 72.30013 99.97763 43.36261
#
# Poissons Ratio (x) = 0.16256 0.14540
# Poissons Ratio (y) = 0.11756 0.27801
# Poissons Ratio (z) = 0.24243 0.64098
#
# Static dielectric constant tensor:
#      x y z
#    x 4.339780 0.000000 -0.000010 
#    y 0.000000 4.496320 0.000000 
#    z -0.000010 0.000000 4.304280 
# 
# 
# High freq. dielectric constant tensor:
#      x y z
#    x 1.936590 0.000000 0.000000 
#    y 0.000000 1.947200 0.000000 
#    z 0.000000 0.000000 1.937630 
# 
# From -- ./inp_files/1063.got.cif
#   From: 2010.03.12/outbox.cif.g09.slc.cpg/sg45_1_cif.got.tgz:1063.got - 2010.04.14 02:50:11.
