data_PCOD8191083
_publ_section_title
;
Structure prediction by ZEFSAII (Michael W. Deem and Ramdas Pophale) SiO2 
 PCOD8191083
Probable space group: I B A 2
;
_chemical_formula_sum "Si O2"
_cell_formula_units_Z 48
_cell_length_a 13.483270
_cell_length_b 16.955224
_cell_length_c 9.555411
_cell_angle_alpha 90.000000
_cell_angle_beta 90.000000
_cell_angle_gamma 90.000000
_cell_volume 2184.480311
_symmetry_space_group_name_H-M "I B A 2"
_symmetry_group_IT_number 45
_symmetry_cell_setting 'orthorhombic'
loop_
_space_group_symop_operation_xyz
x,y,z
-x,-y,z
-x,y,1/2+z
x,-y,1/2+z
1/2+x,1/2+y,1/2+z
1/2-x,1/2-y,1/2+z
1/2-x,1/2+y,z
1/2+x,1/2-y,z
loop_
_atom_site_type_symbol
_atom_site_label
_atom_site_fract_x
_atom_site_fract_y
_atom_site_fract_z
Si Si1 0.206233 0.704059 0.913350
Si Si2 0.762886 0.032479 0.481572
Si Si3 0.978849 0.327860 0.738558
Si Si4 0.074641 0.429459 0.976472
Si Si5 0.143352 0.791902 0.170738
Si Si6 0.610673 0.469472 0.715009
O O1 0.205411 0.615251 0.973274
O O2 0.105097 0.715887 0.828036
O O3 0.300453 0.721225 0.816760
O O4 0.211912 0.765957 0.040365
O O5 0.853667 0.029077 0.373895
O O6 0.685187 0.962403 0.454707
O O7 0.813040 0.025346 0.632681
O O8 0.925700 0.375568 0.614553
O O9 0.045562 0.384084 0.835322
O O10 0.044989 0.260516 0.668596
O O11 0.000000 0.500000 0.005803
O O12 0.113934 0.882364 0.148921
O O13 0.500000 0.500000 0.705858
#
# Coordination Sequence:
#
# PCOD8191083 Si02
#       6
#     8   8   8   8   8   8
#     4  11  26  46  69 105 139 188 236 293 364 423
#     4  11  25  45  73 104 137 183 240 296 358 423
#     4  12  25  44  67 109 144 189 231 292 367 430
#     4  12  24  41  72 108 148 181 234 295 367 432
#     4  11  27  46  69 103 142 187 238 291 356 430
#     4  11  27  49  72 100 137 193 246 292 347 424
#
# _framework density 21.973189000000001
#
# number of rings (size 3 to 8) (size 9 to 14) (size 15 to 20)
#    0.000    0.667    3.333    3.000    9.333    5.333 
#    0.000    0.000    0.000    0.000    0.000    0.000 
#    0.000    0.000    0.000    0.000    0.000    0.000 
#
# Total GULP energy -297807.916349 kJ/mol
# GULP energy per Si atom -12408.663181 kJ/mol
# Density = 2.192318 g / cm^3
# Si number density = 21.973189 Si / 1000 Ang^3
#
#
#
# Elastic Constant Matrix: (Units=GPa)
#
#
# Indices 1 2 3 4 5 6 
#
# 1 100.0266 38.1432 13.1713 0.0000 0.0000 0.0000
# 2 38.1432 92.1779 51.9690 0.0000 0.0000 0.0000
# 3 13.1713 51.9690 96.2302 0.0000 0.0000 0.0000
# 4 0.0000 0.0000 0.0000 38.6011 0.0000 0.0000
# 5 0.0000 0.0000 0.0000 0.0000 33.6967 0.0000
# 6 0.0000 0.0000 0.0000 0.0000 0.0000 28.1292
#
#
#
# Elastic Compliance Matrix: (Units=1/GPa)
#
#
# Indices 1 2 3 4 5 6 
#
# 1 0.012018 -0.005817 0.001496 0.000000 0.000000 0.000000
# 2 -0.005817 0.018413 -0.009148 0.000000 0.000000 0.000000
# 3 0.001496 -0.009148 0.015127 0.000000 0.000000 0.000000
# 4 0.000000 0.000000 0.000000 0.025906 0.000000 0.000000
# 5 0.000000 0.000000 0.000000 0.000000 0.029676 0.000000
# 6 0.000000 0.000000 0.000000 0.000000 0.000000 0.035550
#
#
# Mechanical properties :
#
#
# Convention : Reuss Voigt Hill
#
# Bulk Modulus (GPa) = 53.69947 55.00020 54.34984
# Shear Modulus (GPa) = 29.44029 32.42883 30.93456
#
# Velocity S-wave (km/s) = 3.66434 3.84583 3.75618
# Velocity P-wave (km/s) = 6.51113 6.69369 6.60304
#
# Compressibility (1/GPa) = 0.01862216
#
# Stress axis : x y z
#
# Youngs Moduli (GPa) = 83.20535 54.30930 66.10620
#
# Poissons Ratio (x) = 0.31591 -0.09892
# Poissons Ratio (y) = 0.48400 0.60472
# Poissons Ratio (z) = -0.12451 0.49681
#
# Static dielectric constant tensor:
#      x y z
#    x 3.885510 0.000000 0.000000 
#    y 0.000000 4.038400 0.000000 
#    z 0.000000 0.000000 4.029110 
# 
# 
# High freq. dielectric constant tensor:
#      x y z
#    x 1.872790 0.000000 0.000000 
#    y 0.000000 1.865210 0.000000 
#    z 0.000000 0.000000 1.875730 
# 
# From -- ./inp_files/1703.got.cif
#   From: 2010.03.12/outbox.cif.g09.slc.cpg/sg45_1_cif.got.tgz:1703.got - 2010.04.14 02:50:11.
