data_PCOD8191470
_publ_section_title
;
Structure prediction by ZEFSAII (Michael W. Deem and Ramdas Pophale) SiO2 
 PCOD8191470
Probable space group: I M A 2
;
_chemical_formula_sum "Si O2"
_cell_formula_units_Z 56
_cell_length_a 8.727347
_cell_length_b 14.521430
_cell_length_c 22.330708
_cell_angle_alpha 90.000000
_cell_angle_beta 90.000000
_cell_angle_gamma 90.000000
_cell_volume 2830.050090
_symmetry_space_group_name_H-M "I M A 2"
_symmetry_group_IT_number 46
_symmetry_cell_setting 'orthorhombic'
loop_
_space_group_symop_operation_xyz
x,y,z
-x,-y,z
1/2-x,y,z
1/2+x,-y,z
1/2+x,1/2+y,1/2+z
1/2-x,1/2-y,1/2+z
-x,1/2+y,1/2+z
x,1/2-y,1/2+z
loop_
_atom_site_type_symbol
_atom_site_label
_atom_site_fract_x
_atom_site_fract_y
_atom_site_fract_z
Si Si1 0.068254 0.786550 0.527300
Si Si2 0.927868 0.790773 0.305450
Si Si3 0.568209 0.404158 0.704183
Si Si4 0.068439 0.595451 0.137882
Si Si5 0.431320 0.898629 0.414139
Si Si6 0.072480 0.406135 0.265443
Si Si7 0.929989 0.406320 0.566549
O O1 0.250000 0.789583 0.523497
O O2 0.013376 0.829045 0.590127
O O3 0.000455 0.843566 0.471413
O O4 0.011408 0.680238 0.526931
O O5 0.750000 0.816931 0.312183
O O6 0.951680 0.680032 0.310206
O O7 0.990008 0.822314 0.240996
O O8 0.025125 0.840840 0.355996
O O9 0.500000 0.500000 0.728833
O O10 0.750000 0.402134 0.713339
O O11 0.519761 0.390750 0.635252
O O12 0.250000 0.589126 0.141602
O O13 0.000000 0.500000 0.114463
O O14 0.004796 0.620609 0.202789
O O15 0.250000 0.907958 0.417521
O O16 0.500000 0.000000 0.411781
O O17 0.250000 0.425250 0.253391
O O18 0.000000 0.500000 0.292757
O O19 0.750000 0.415951 0.562771
O O20 0.000000 0.500000 0.539910
#
# Coordination Sequence:
#
# PCOD8191470 Si02
#       7
#     8   8   8   8   8   8   8
#     4   9  19  35  55  78 106 142 179 216 261 315
#     4  11  23  38  55  78 108 141 181 225 267 314
#     4  10  19  32  54  82 112 145 178 217 266 320
#     4  10  18  31  53  81 112 142 174 214 263 318
#     4  11  23  40  60  80 106 140 178 220 265 314
#     4  10  21  36  55  80 110 141 176 220 266 317
#     4   9  18  34  54  79 109 139 175 216 261 314
#
# _framework density 19.787635999999999
#
# number of rings (size 3 to 8) (size 9 to 14) (size 15 to 20)
#    0.000    2.000    0.000    4.714    0.000    4.000 
#    0.000    5.714    0.000    3.429    0.000    0.000 
#    0.000    0.000    0.000    0.000    0.000    0.000 
#
# Total GULP energy -347178.757580 kJ/mol
# GULP energy per Si atom -12399.241342 kJ/mol
# Density = 1.974260 g / cm^3
# Si number density = 19.787636 Si / 1000 Ang^3
#
#
#
# Elastic Constant Matrix: (Units=GPa)
#
#
# Indices 1 2 3 4 5 6 
#
# 1 73.6226 40.4790 24.3404 0.0000 0.0000 0.0000
# 2 40.4790 165.8407 61.0063 0.0000 0.0000 0.0000
# 3 24.3404 61.0063 67.2445 0.0000 0.0000 0.0000
# 4 0.0000 0.0000 0.0000 31.3472 0.0000 0.0000
# 5 0.0000 0.0000 0.0000 0.0000 16.7346 0.0000
# 6 0.0000 0.0000 0.0000 0.0000 0.0000 27.9413
#
#
#
# Elastic Compliance Matrix: (Units=1/GPa)
#
#
# Indices 1 2 3 4 5 6 
#
# 1 0.016195 -0.002696 -0.003416 0.000000 0.000000 0.000000
# 2 -0.002696 0.009499 -0.007642 0.000000 0.000000 0.000000
# 3 -0.003416 -0.007642 0.023041 0.000000 0.000000 0.000000
# 4 0.000000 0.000000 0.000000 0.031901 0.000000 0.000000
# 5 0.000000 0.000000 0.000000 0.000000 0.059756 0.000000
# 6 0.000000 0.000000 0.000000 0.000000 0.000000 0.035789
#
#
# Mechanical properties :
#
#
# Convention : Reuss Voigt Hill
#
# Bulk Modulus (GPa) = 47.11155 62.03992 54.57574
# Shear Modulus (GPa) = 23.72320 27.26343 25.49332
#
# Velocity S-wave (km/s) = 3.46626 3.71590 3.59325
# Velocity P-wave (km/s) = 6.31507 7.05914 6.69745
#
# Compressibility (1/GPa) = 0.02122622
#
# Stress axis : x y z
#
# Youngs Moduli (GPa) = 61.74920 105.27210 43.40176
#
# Poissons Ratio (x) = 0.28385 0.14825
# Poissons Ratio (y) = 0.16650 0.33168
# Poissons Ratio (z) = 0.21092 0.80449
#
# Static dielectric constant tensor:
#      x y z
#    x 3.521810 0.000000 0.000000 
#    y 0.000000 3.931670 0.000000 
#    z 0.000000 0.000000 3.478760 
# 
# 
# High freq. dielectric constant tensor:
#      x y z
#    x 1.765960 0.000000 0.000000 
#    y 0.000000 1.790290 0.000000 
#    z 0.000000 0.000000 1.747740 
# 
# From -- ./inp_files/21086.got.cif
#   From: 2010.03.12/outbox.cif.g09.slc.cpg/sg46_11_cif.got.tgz:21086.got - 2010.04.14 02:56:35.
