data_PCOD8191231
_publ_section_title
;
Structure prediction by ZEFSAII (Michael W. Deem and Ramdas Pophale) SiO2 
 PCOD8191231
Probable space group: I M A 2
;
_chemical_formula_sum "Si O2"
_cell_formula_units_Z 64
_cell_length_a 8.698053
_cell_length_b 30.278470
_cell_length_c 14.428948
_cell_angle_alpha 90.000000
_cell_angle_beta 90.000000
_cell_angle_gamma 90.000000
_cell_volume 3800.061664
_symmetry_space_group_name_H-M "I M A 2"
_symmetry_group_IT_number 46
_symmetry_cell_setting 'orthorhombic'
loop_
_space_group_symop_operation_xyz
x,y,z
-x,-y,z
1/2-x,y,z
1/2+x,-y,z
1/2+x,1/2+y,1/2+z
1/2-x,1/2-y,1/2+z
-x,1/2+y,1/2+z
x,1/2-y,1/2+z
loop_
_atom_site_type_symbol
_atom_site_label
_atom_site_fract_x
_atom_site_fract_y
_atom_site_fract_z
Si Si1 0.924790 0.684522 0.836200
Si Si2 0.568786 0.866263 0.510848
Si Si3 0.575827 0.630340 0.654739
Si Si4 0.068094 0.299631 0.161781
Si Si5 0.567591 0.785329 0.044728
Si Si6 0.932764 0.545521 0.923468
Si Si7 0.068381 0.954056 0.221154
Si Si8 0.571323 0.273865 0.343843
O O1 0.750000 0.702102 0.849558
O O2 0.929183 0.646960 0.759678
O O3 0.032254 0.724998 0.807341
O O4 0.997244 0.664723 0.929681
O O5 0.750000 0.865400 0.497996
O O6 0.520636 0.844876 0.608485
O O7 0.512529 0.916598 0.496143
O O8 0.750000 0.619043 0.625073
O O9 0.505925 0.668731 0.588866
O O10 0.476237 0.585440 0.650321
O O11 0.250000 0.296002 0.176216
O O12 0.007800 0.257054 0.103272
O O13 0.986836 0.305330 0.261068
O O14 0.750000 0.785036 0.049332
O O15 0.514657 0.783679 0.939223
O O16 0.750000 0.542541 0.914927
O O17 0.000000 0.500000 0.963412
O O18 0.999224 0.555845 0.822232
O O19 0.250000 0.958171 0.228792
O O20 0.000000 0.000000 0.182076
O O21 0.750000 0.280795 0.360245
#
# Coordination Sequence:
#
# PCOD8191231 Si02
#       8
#     8   8   8   8   8   8   8   8
#     4  10  17  32  52  70  97 135 175 207 241 296
#     4   9  17  30  52  73  94 128 173 211 240 286
#     4  10  19  33  53  75  98 130 171 213 249 297
#     4  10  19  35  55  72  92 131 179 212 243 294
#     4  10  20  35  56  74  94 133 178 210 246 302
#     4  10  18  31  48  72 101 132 167 207 251 297
#     4  11  21  32  48  72 103 137 168 203 248 300
#     4  12  24  34  46  72 108 136 164 212 259 297
#
# _framework density 16.841832
#
# number of rings (size 3 to 8) (size 9 to 14) (size 15 to 20)
#    0.000    1.750    3.750    3.375    0.000    1.500 
#    0.000    1.250    0.000    0.000    0.000    0.875 
#    0.000    2.000    0.000    0.000    0.000    0.000 
#
# Total GULP energy -396686.467118 kJ/mol
# GULP energy per Si atom -12396.452097 kJ/mol
# Density = 1.680350 g / cm^3
# Si number density = 16.841832 Si / 1000 Ang^3
#
#
#
# Elastic Constant Matrix: (Units=GPa)
#
#
# Indices 1 2 3 4 5 6 
#
# 1 50.0912 30.1596 11.5797 -0.0001 0.0000 0.0000
# 2 30.1596 115.7883 30.6826 0.0003 0.0001 0.0001
# 3 11.5797 30.6826 72.8820 -0.0013 -0.0004 0.0000
# 4 -0.0001 0.0003 -0.0013 27.2092 -0.0003 -0.0001
# 5 0.0000 0.0001 -0.0004 -0.0003 14.1890 -0.0002
# 6 0.0000 0.0001 0.0000 -0.0001 -0.0002 22.6203
#
#
#
# Elastic Compliance Matrix: (Units=1/GPa)
#
#
# Indices 1 2 3 4 5 6 
#
# 1 0.023789 -0.005847 -0.001318 0.000000 0.000000 0.000000
# 2 -0.005847 0.011158 -0.003768 0.000000 0.000000 0.000000
# 3 -0.001318 -0.003768 0.015517 0.000001 0.000000 0.000000
# 4 0.000000 0.000000 0.000001 0.036752 0.000001 0.000000
# 5 0.000000 0.000000 0.000000 0.000001 0.070477 0.000001
# 6 0.000000 0.000000 0.000000 0.000000 0.000001 0.044208
#
#
# Mechanical properties :
#
#
# Convention : Reuss Voigt Hill
#
# Bulk Modulus (GPa) = 34.96941 42.62280 38.79611
# Shear Modulus (GPa) = 21.43160 23.89300 22.66230
#
# Velocity S-wave (km/s) = 3.57111 3.77061 3.67222
# Velocity P-wave (km/s) = 6.14917 6.65727 6.40826
#
# Compressibility (1/GPa) = 0.02859642
#
# Stress axis : x y z
#
# Youngs Moduli (GPa) = 42.03665 89.62155 64.44666
#
# Poissons Ratio (x) = 0.52402 0.08495
# Poissons Ratio (y) = 0.24579 0.24286
# Poissons Ratio (z) = 0.05541 0.33773
#
# Static dielectric constant tensor:
#      x y z
#    x 3.005570 0.000000 0.000000 
#    y 0.000000 3.358670 0.000000 
#    z 0.000000 0.000000 3.036690 
# 
# 
# High freq. dielectric constant tensor:
#      x y z
#    x 1.634050 0.000000 0.000000 
#    y 0.000000 1.646070 0.000000 
#    z 0.000000 0.000000 1.622460 
# 
# From -- ./inp_files/14764.got.cif
#   From: 2010.03.12/outbox.cif.g09.slc.cpg/sg46_8_cif.got.tgz:14764.got - 2010.04.14 02:56:35.
