data_PCOD8191330
_publ_section_title
;
Structure prediction by ZEFSAII (Michael W. Deem and Ramdas Pophale) SiO2 
 PCOD8191330
Probable space group: I M A 2
;
_chemical_formula_sum "Si O2"
_cell_formula_units_Z 64
_cell_length_a 8.694615
_cell_length_b 23.534763
_cell_length_c 19.250377
_cell_angle_alpha 90.000000
_cell_angle_beta 90.000000
_cell_angle_gamma 90.000000
_cell_volume 3939.121934
_symmetry_space_group_name_H-M "I M A 2"
_symmetry_group_IT_number 46
_symmetry_cell_setting 'orthorhombic'
loop_
_space_group_symop_operation_xyz
x,y,z
-x,-y,z
1/2-x,y,z
1/2+x,-y,z
1/2+x,1/2+y,1/2+z
1/2-x,1/2-y,1/2+z
-x,1/2+y,1/2+z
x,1/2-y,1/2+z
loop_
_atom_site_type_symbol
_atom_site_label
_atom_site_fract_x
_atom_site_fract_y
_atom_site_fract_z
Si Si1 0.930832 0.159702 0.004640
Si Si2 0.567364 0.560425 0.876196
Si Si3 0.567786 0.721759 0.382662
Si Si4 0.932881 0.885585 0.233239
Si Si5 0.930914 0.764187 0.584914
Si Si6 0.931513 0.757984 0.236323
Si Si7 0.432277 0.061354 0.089763
Si Si8 0.069874 0.165494 0.459667
O O1 0.750000 0.151427 0.007409
O O2 0.979706 0.210157 0.055899
O O3 0.011960 0.102020 0.028217
O O4 0.983261 0.172302 0.925493
O O5 0.500000 0.500000 0.897093
O O6 0.750000 0.556884 0.878217
O O7 0.509176 0.578946 0.799803
O O8 0.500303 0.606036 0.932363
O O9 0.750000 0.713482 0.391124
O O10 0.512246 0.720726 0.302175
O O11 0.512352 0.782450 0.412482
O O12 0.750000 0.882908 0.232003
O O13 0.001269 0.821661 0.236961
O O14 0.995421 0.915840 0.163850
O O15 0.750000 0.750188 0.577764
O O16 0.978459 0.774164 0.665052
O O17 0.973150 0.820682 0.540208
O O18 0.750000 0.764278 0.242401
O O19 0.250000 0.058492 0.089793
O O20 0.500000 0.000000 0.074770
O O21 0.250000 0.160346 0.449516
#
# Coordination Sequence:
#
# PCOD8191330 Si02
#       8
#     8   8   8   8   8   8   8   8
#     4  11  21  32  45  67  97 127 158 195 238 284
#     4  10  18  29  43  62  90 124 159 190 223 262
#     4   9  16  29  50  69  88 118 154 193 239 287
#     4   9  16  27  45  68  94 122 156 194 225 266
#     4   9  16  29  50  71  90 118 156 197 239 284
#     4   9  14  25  49  75  92 115 153 194 236 284
#     4  11  21  34  50  68  94 128 167 203 237 278
#     4   8  14  25  43  64  86 115 151 187 224 269
#
# _framework density 16.247274999999998
#
# number of rings (size 3 to 8) (size 9 to 14) (size 15 to 20)
#    0.000    2.500    2.500    2.625    0.000    0.000 
#    0.000    3.750    0.000    0.000    0.000    0.875 
#    0.000    2.000    0.000    0.000    0.000    0.000 
#
# Total GULP energy -396625.703362 kJ/mol
# GULP energy per Si atom -12394.553230 kJ/mol
# Density = 1.621030 g / cm^3
# Si number density = 16.247275 Si / 1000 Ang^3
#
#
#
# Elastic Constant Matrix: (Units=GPa)
#
#
# Indices 1 2 3 4 5 6 
#
# 1 37.8580 22.6195 22.6929 0.0001 0.0000 0.0000
# 2 22.6195 109.8709 70.7193 0.0001 0.0000 0.0000
# 3 22.6929 70.7193 138.1888 0.0002 0.0000 0.0000
# 4 0.0001 0.0001 0.0002 13.7072 0.0000 0.0000
# 5 0.0000 0.0000 0.0000 0.0000 10.8593 0.0000
# 6 0.0000 0.0000 0.0000 0.0000 0.0000 21.2252
#
#
#
# Elastic Compliance Matrix: (Units=1/GPa)
#
#
# Indices 1 2 3 4 5 6 
#
# 1 0.030781 -0.004598 -0.002702 0.000000 0.000000 0.000000
# 2 -0.004598 0.014259 -0.006542 0.000000 0.000000 0.000000
# 3 -0.002702 -0.006542 0.011028 0.000000 0.000000 0.000000
# 4 0.000000 0.000000 0.000000 0.072955 0.000000 0.000000
# 5 0.000000 0.000000 0.000000 0.000000 0.092087 0.000000
# 6 0.000000 0.000000 0.000000 0.000000 0.000000 0.047114
#
#
# Mechanical properties :
#
#
# Convention : Reuss Voigt Hill
#
# Bulk Modulus (GPa) = 35.23030 57.55345 46.39187
# Shear Modulus (GPa) = 16.37362 20.48406 18.42884
#
# Velocity S-wave (km/s) = 3.17799 3.55458 3.37155
# Velocity P-wave (km/s) = 5.93271 7.23513 6.61605
#
# Compressibility (1/GPa) = 0.02838466
#
# Stress axis : x y z
#
# Youngs Moduli (GPa) = 32.48736 70.13058 90.67715
#
# Poissons Ratio (x) = 0.32247 0.24498
# Poissons Ratio (y) = 0.14938 0.59322
# Poissons Ratio (z) = 0.08777 0.45880
#
# Static dielectric constant tensor:
#      x y z
#    x 2.722790 0.000000 0.000000 
#    y 0.000000 3.085390 0.000000 
#    z 0.000000 0.000000 3.389890 
# 
# 
# High freq. dielectric constant tensor:
#      x y z
#    x 1.592580 0.000000 0.000000 
#    y 0.000000 1.600410 0.000000 
#    z 0.000000 0.000000 1.626720 
# 
# From -- ./inp_files/21431.got.cif
#   From: 2010.03.12/outbox.cif.g09.slc.cpg/sg46_11_cif.got.tgz:21431.got - 2010.04.14 02:56:35.
