data_PCOD8191805
_publ_section_title
;
Structure prediction by ZEFSAII (Michael W. Deem and Ramdas Pophale) SiO2 
 PCOD8191805
Probable space group: I M A 2
;
_chemical_formula_sum "Si O2"
_cell_formula_units_Z 64
_cell_length_a 8.937358
_cell_length_b 40.840449
_cell_length_c 9.870425
_cell_angle_alpha 90.000000
_cell_angle_beta 90.000000
_cell_angle_gamma 90.000000
_cell_volume 3602.761521
_symmetry_space_group_name_H-M "I M A 2"
_symmetry_group_IT_number 46
_symmetry_cell_setting 'orthorhombic'
loop_
_space_group_symop_operation_xyz
x,y,z
-x,-y,z
1/2-x,y,z
1/2+x,-y,z
1/2+x,1/2+y,1/2+z
1/2-x,1/2-y,1/2+z
-x,1/2+y,1/2+z
x,1/2-y,1/2+z
loop_
_atom_site_type_symbol
_atom_site_label
_atom_site_fract_x
_atom_site_fract_y
_atom_site_fract_z
Si Si1 0.082904 0.968186 0.244380
Si Si2 0.423159 0.776536 0.733094
Si Si3 0.080510 0.532297 0.421876
Si Si4 0.426224 0.347330 0.946217
Si Si5 0.926537 0.901264 0.925019
Si Si6 0.571238 0.349753 0.228202
Si Si7 0.425421 0.779106 0.425722
Si Si8 0.923477 0.903159 0.236471
O O1 0.250000 0.968768 0.301542
O O2 0.006428 0.934941 0.295597
O O3 0.079714 0.969342 0.082985
O O4 0.000000 0.000000 0.304368
O O5 0.250000 0.777081 0.769292
O O6 0.486267 0.812908 0.761761
O O7 0.452445 0.766692 0.578118
O O8 0.495985 0.748864 0.828787
O O9 0.250000 0.534107 0.366330
O O10 0.000000 0.500000 0.362181
O O11 0.988720 0.563970 0.372445
O O12 0.250000 0.345598 0.973069
O O13 0.485646 0.312299 0.897253
O O14 0.467780 0.372220 0.826564
O O15 0.507398 0.359888 0.081884
O O16 0.750000 0.900031 0.899533
O O17 0.007601 0.872803 0.843575
O O18 0.969434 0.895656 0.081787
O O19 0.750000 0.351697 0.222275
O O20 0.250000 0.785944 0.399093
O O21 0.750000 0.911577 0.244301
#
# Coordination Sequence:
#
# PCOD8191805 Si02
#       8
#     8   8   8   8   8   8   8   8
#     4   9  16  26  44  69  98 129 163 202 247 293
#     4   8  16  30  49  70  93 122 158 198 242 288
#     4   9  16  27  44  69  99 131 165 204 248 296
#     4  10  20  35  52  72 100 135 168 202 247 298
#     4  10  19  32  50  74 102 132 166 209 254 296
#     4  10  20  35  53  74 100 133 170 206 246 299
#     4   9  17  32  51  71  95 126 163 203 244 291
#     4   9  19  33  49  71 101 132 166 206 248 293
#
# _framework density 17.764150999999998
#
# number of rings (size 3 to 8) (size 9 to 14) (size 15 to 20)
#    0.000    2.750    0.000    2.625    0.000    5.500 
#    0.000    4.375    0.000    0.750    0.000    1.750 
#    0.000    0.000    0.000    0.000    0.000    0.000 
#
# Total GULP energy -396760.447640 kJ/mol
# GULP energy per Si atom -12398.763989 kJ/mol
# Density = 1.772372 g / cm^3
# Si number density = 17.764151 Si / 1000 Ang^3
#
#
#
# Elastic Constant Matrix: (Units=GPa)
#
#
# Indices 1 2 3 4 5 6 
#
# 1 89.3983 61.7703 42.2380 -0.0082 -0.0018 -0.0005
# 2 61.7703 141.7051 72.7140 0.0087 0.0007 0.0005
# 3 42.2380 72.7140 72.6037 0.0217 0.0034 0.0004
# 4 -0.0082 0.0087 0.0217 21.7901 0.0016 0.0012
# 5 -0.0018 0.0007 0.0034 0.0016 20.8348 0.0006
# 6 -0.0005 0.0005 0.0004 0.0012 0.0006 33.0033
#
#
#
# Elastic Compliance Matrix: (Units=1/GPa)
#
#
# Indices 1 2 3 4 5 6 
#
# 1 0.016857 -0.004764 -0.005035 0.000013 0.000002 0.000000
# 2 -0.004764 0.015864 -0.013117 0.000005 0.000001 0.000000
# 3 -0.005035 -0.013117 0.029839 -0.000026 -0.000005 0.000000
# 4 0.000013 0.000005 -0.000026 0.045892 -0.000004 -0.000002
# 5 0.000002 0.000001 -0.000005 -0.000004 0.047997 -0.000001
# 6 0.000000 0.000000 0.000000 -0.000002 -0.000001 0.030300
#
#
# Mechanical properties :
#
#
# Convention : Reuss Voigt Hill
#
# Bulk Modulus (GPa) = 59.77952 73.01687 66.39819
# Shear Modulus (GPa) = 20.99446 23.59129 22.29287
#
# Velocity S-wave (km/s) = 3.44153 3.64817 3.54635
# Velocity P-wave (km/s) = 7.03683 7.67712 7.36394
#
# Compressibility (1/GPa) = 0.01672814
#
# Stress axis : x y z
#
# Youngs Moduli (GPa) = 59.32338 63.03413 33.51277
#
# Poissons Ratio (x) = 0.30031 0.16874
# Poissons Ratio (y) = 0.28264 0.43958
# Poissons Ratio (z) = 0.29870 0.82681
#
# Static dielectric constant tensor:
#      x y z
#    x 3.296690 0.000000 0.000000 
#    y 0.000000 3.507580 0.000010 
#    z 0.000000 0.000010 3.081930 
# 
# 
# High freq. dielectric constant tensor:
#      x y z
#    x 1.686010 0.000000 0.000000 
#    y 0.000000 1.698810 0.000000 
#    z 0.000000 0.000000 1.655020 
# 
# From -- ./inp_files/9710.got.cif
#   From: 2010.03.12/outbox.cif.g09.slc.cpg/sg46_5_cif.got.tgz:9710.got - 2010.04.14 02:56:35.
