data_PCOD8191698
_publ_section_title
;
Structure prediction by ZEFSAII (Michael W. Deem and Ramdas Pophale) SiO2 
 PCOD8191698
Probable space group: I M A 2
;
_chemical_formula_sum "Si O2"
_cell_formula_units_Z 48
_cell_length_a 20.033049
_cell_length_b 24.293598
_cell_length_c 5.178170
_cell_angle_alpha 90.000000
_cell_angle_beta 90.000000
_cell_angle_gamma 90.000000
_cell_volume 2520.085052
_symmetry_space_group_name_H-M "I M A 2"
_symmetry_group_IT_number 46
_symmetry_cell_setting 'orthorhombic'
loop_
_space_group_symop_operation_xyz
x,y,z
-x,-y,z
1/2-x,y,z
1/2+x,-y,z
1/2+x,1/2+y,1/2+z
1/2-x,1/2-y,1/2+z
-x,1/2+y,1/2+z
x,1/2-y,1/2+z
loop_
_atom_site_type_symbol
_atom_site_label
_atom_site_fract_x
_atom_site_fract_y
_atom_site_fract_z
Si Si1 0.325784 0.451958 0.534060
Si Si2 0.375804 0.104320 0.537799
Si Si3 0.474158 0.600561 0.989975
Si Si4 0.624613 0.729205 0.208749
Si Si5 0.562306 0.460568 0.477207
Si Si6 0.523442 0.273487 0.846924
O O1 0.250000 0.470618 0.579890
O O2 0.331150 0.423894 0.255129
O O3 0.370539 0.506339 0.536467
O O4 0.346730 0.408379 0.754861
O O5 0.450645 0.080337 0.549602
O O6 0.378102 0.168690 0.593481
O O7 0.449533 0.577353 0.721456
O O8 0.471688 0.665971 0.963458
O O9 0.428536 0.578316 0.224960
O O10 0.661801 0.733423 0.487460
O O11 0.552738 0.754142 0.297085
O O12 0.500000 0.500000 0.429754
O O13 0.558304 0.265491 0.567256
#
# Coordination Sequence:
#
# PCOD8191698 Si02
#       6
#     8   8   8   8   8   8
#     4  12  27  43  59  80 116 161 203 247 294 349
#     4  12  21  37  63  84 112 157 199 236 290 353
#     4  12  21  34  58  93 116 146 191 240 296 349
#     4  10  19  30  53  86 112 154 185 232 294 333
#     4  12  23  37  59  86 116 145 195 252 297 348
#     4  10  19  30  50  84 122 153 169 225 297 344
#
# _framework density 19.046976000000001
#
# number of rings (size 3 to 8) (size 9 to 14) (size 15 to 20)
#    0.000    0.667    6.667    4.000    4.667    0.000 
#    0.000    0.000    0.000   10.000    0.000    0.000 
#    0.000   13.333    0.000    0.000    0.000    0.000 
#
# Total GULP energy -297387.080165 kJ/mol
# GULP energy per Si atom -12391.128340 kJ/mol
# Density = 1.900362 g / cm^3
# Si number density = 19.046976 Si / 1000 Ang^3
#
#
#
# Elastic Constant Matrix: (Units=GPa)
#
#
# Indices 1 2 3 4 5 6 
#
# 1 40.6112 30.7900 -3.0465 0.0000 0.0000 0.0000
# 2 30.7900 94.3514 41.0301 0.0000 0.0000 0.0000
# 3 -3.0465 41.0301 163.2098 0.0000 0.0000 0.0000
# 4 0.0000 0.0000 0.0000 45.5106 0.0000 0.0000
# 5 0.0000 0.0000 0.0000 0.0000 5.8627 0.0000
# 6 0.0000 0.0000 0.0000 0.0000 0.0000 8.7072
#
#
#
# Elastic Compliance Matrix: (Units=1/GPa)
#
#
# Indices 1 2 3 4 5 6 
#
# 1 0.034837 -0.013081 0.003939 0.000000 0.000000 0.000000
# 2 -0.013081 0.016812 -0.004471 0.000000 0.000000 0.000000
# 3 0.003939 -0.004471 0.007324 0.000000 0.000000 0.000000
# 4 0.000000 0.000000 0.000000 0.021973 0.000000 0.000000
# 5 0.000000 0.000000 0.000000 0.000000 0.170571 0.000000
# 6 0.000000 0.000000 0.000000 0.000000 0.000000 0.114848
#
#
# Mechanical properties :
#
#
# Convention : Reuss Voigt Hill
#
# Bulk Modulus (GPa) = 31.49891 48.41327 39.95609
# Shear Modulus (GPa) = 12.37094 27.30936 19.84015
#
# Velocity S-wave (km/s) = 2.55129 3.79065 3.23095
# Velocity P-wave (km/s) = 5.02515 6.68070 5.91117
#
# Compressibility (1/GPa) = 0.03174713
#
# Stress axis : x y z
#
# Youngs Moduli (GPa) = 28.70505 59.48263 136.52848
#
# Poissons Ratio (x) = 0.77811 -0.53777
# Poissons Ratio (y) = 0.37550 0.61036
# Poissons Ratio (z) = -0.11307 0.26592
#
# Static dielectric constant tensor:
#      x y z
#    x 3.082620 0.000000 0.000000 
#    y 0.000000 3.627670 0.000000 
#    z 0.000000 0.000000 5.867240 
# 
# 
# High freq. dielectric constant tensor:
#      x y z
#    x 1.667890 0.000000 0.000000 
#    y 0.000000 1.743330 0.000000 
#    z 0.000000 0.000000 1.787260 
# 
# From -- ./inp_files/2055.got.cif
#   From: 2010.03.12/outbox.cif.g09.slc.cpg/sg46_2_cif.got.tgz:2055.got - 2010.04.14 02:56:35.
