data_PCOD8191308
_publ_section_title
;
Structure prediction by ZEFSAII (Michael W. Deem and Ramdas Pophale) SiO2 
 PCOD8191308
Probable space group: I M A 2
;
_chemical_formula_sum "Si O2"
_cell_formula_units_Z 56
_cell_length_a 8.968142
_cell_length_b 13.645922
_cell_length_c 29.374790
_cell_angle_alpha 90.000000
_cell_angle_beta 90.000000
_cell_angle_gamma 90.000000
_cell_volume 3594.844683
_symmetry_space_group_name_H-M "I M A 2"
_symmetry_group_IT_number 46
_symmetry_cell_setting 'orthorhombic'
loop_
_space_group_symop_operation_xyz
x,y,z
-x,-y,z
1/2-x,y,z
1/2+x,-y,z
1/2+x,1/2+y,1/2+z
1/2-x,1/2-y,1/2+z
-x,1/2+y,1/2+z
x,1/2-y,1/2+z
loop_
_atom_site_type_symbol
_atom_site_label
_atom_site_fract_x
_atom_site_fract_y
_atom_site_fract_z
Si Si1 0.925910 0.393372 0.980070
Si Si2 0.424085 0.103514 0.650127
Si Si3 0.921012 0.101582 0.381150
Si Si4 0.425238 0.605339 0.782941
Si Si5 0.575673 0.104332 0.107458
Si Si6 0.574408 0.779654 0.560137
Si Si7 0.423306 0.723865 0.697053
O O1 0.750000 0.403277 0.990541
O O2 0.955287 0.345416 0.929446
O O3 0.000000 0.500000 0.984979
O O4 0.002257 0.318497 0.014104
O O5 0.250000 0.091060 0.657421
O O6 0.462913 0.143382 0.600010
O O7 0.484938 0.177694 0.688084
O O8 0.500000 0.000000 0.657186
O O9 0.750000 0.074478 0.379123
O O10 0.963801 0.153792 0.332972
O O11 0.000000 0.000000 0.382795
O O12 0.500000 0.500000 0.777027
O O13 0.250000 0.589547 0.776043
O O14 0.483853 0.679569 0.744487
O O15 0.750000 0.096261 0.096606
O O16 0.500060 0.175712 0.070828
O O17 0.545907 0.143810 0.158126
O O18 0.500000 0.000000 0.102454
O O19 0.750000 0.765220 0.553911
O O20 0.250000 0.752078 0.699205
#
# Coordination Sequence:
#
# PCOD8191308 Si02
#       7
#     8   8   8   8   8   8   8
#     4  10  18  28  43  64  90 119 148 180 217 259
#     4  10  20  32  46  63  86 114 145 181 218 256
#     4   8  15  26  40  60  87 116 145 175 212 255
#     4   9  16  27  43  64  90 119 147 177 212 252
#     4  10  19  31  46  65  90 118 147 181 216 254
#     4  10  20  32  46  65  87 115 149 182 217 259
#     4   9  18  30  45  65  89 117 148 178 212 253
#
# _framework density 15.577864
#
# number of rings (size 3 to 8) (size 9 to 14) (size 15 to 20)
#    0.000    2.571    0.000    2.571    0.000    4.571 
#    0.000    0.000    0.000    0.000    0.000    1.000 
#    0.000    4.571    0.000    0.000    0.000    0.000 
#
# Total GULP energy -347001.456576 kJ/mol
# GULP energy per Si atom -12392.909163 kJ/mol
# Density = 1.554241 g / cm^3
# Si number density = 15.577864 Si / 1000 Ang^3
#
#
#
# Elastic Constant Matrix: (Units=GPa)
#
#
# Indices 1 2 3 4 5 6 
#
# 1 71.2080 52.5077 52.8395 0.0000 0.0000 0.0000
# 2 52.5077 109.1641 65.2540 0.0000 0.0000 0.0000
# 3 52.8395 65.2540 137.9238 0.0000 0.0000 0.0000
# 4 0.0000 0.0000 0.0000 20.8401 0.0000 0.0000
# 5 0.0000 0.0000 0.0000 0.0000 21.5995 0.0000
# 6 0.0000 0.0000 0.0000 0.0000 0.0000 27.7379
#
#
#
# Elastic Compliance Matrix: (Units=1/GPa)
#
#
# Indices 1 2 3 4 5 6 
#
# 1 0.024213 -0.008508 -0.005251 0.000000 0.000000 0.000000
# 2 -0.008508 0.015762 -0.004198 0.000000 0.000000 0.000000
# 3 -0.005251 -0.004198 0.011248 0.000000 0.000000 0.000000
# 4 0.000000 0.000000 0.000000 0.047985 0.000000 0.000000
# 5 0.000000 0.000000 0.000000 0.000000 0.046297 0.000000
# 6 0.000000 0.000000 0.000000 0.000000 0.000000 0.036052
#
#
# Mechanical properties :
#
#
# Convention : Reuss Voigt Hill
#
# Bulk Modulus (GPa) = 65.31626 73.27761 69.29693
# Shear Modulus (GPa) = 22.46441 23.88180 23.17310
#
# Velocity S-wave (km/s) = 3.80158 3.91968 3.86108
# Velocity P-wave (km/s) = 7.82875 8.22356 8.02858
#
# Compressibility (1/GPa) = 0.01531012
#
# Stress axis : x y z
#
# Youngs Moduli (GPa) = 41.29949 63.44350 88.90252
#
# Poissons Ratio (x) = 0.53975 0.46684
# Poissons Ratio (y) = 0.35136 0.37321
# Poissons Ratio (z) = 0.21687 0.26633
#
# Static dielectric constant tensor:
#      x y z
#    x 3.050310 0.000000 0.000000 
#    y 0.000000 2.695090 0.000000 
#    z 0.000000 0.000000 3.503870 
# 
# 
# High freq. dielectric constant tensor:
#      x y z
#    x 1.611530 0.000000 0.000000 
#    y 0.000000 1.564120 0.000000 
#    z 0.000000 0.000000 1.602670 
# 
# From -- ./inp_files/25241.got.cif
#   From: 2010.03.12/outbox.cif.g09.slc.cpg/sg46_13_cif.got.tgz:25241.got - 2010.04.14 02:56:35.
