data_PCOD8191621
_publ_section_title
;
Structure prediction by ZEFSAII (Michael W. Deem and Ramdas Pophale) SiO2 
 PCOD8191621
Probable space group: I M A 2
;
_chemical_formula_sum "Si O2"
_cell_formula_units_Z 48
_cell_length_a 14.006926
_cell_length_b 9.220152
_cell_length_c 19.656954
_cell_angle_alpha 90.000000
_cell_angle_beta 90.000000
_cell_angle_gamma 90.000000
_cell_volume 2538.616721
_symmetry_space_group_name_H-M "I M A 2"
_symmetry_group_IT_number 46
_symmetry_cell_setting 'orthorhombic'
loop_
_space_group_symop_operation_xyz
x,y,z
-x,-y,z
1/2-x,y,z
1/2+x,-y,z
1/2+x,1/2+y,1/2+z
1/2-x,1/2-y,1/2+z
-x,1/2+y,1/2+z
x,1/2-y,1/2+z
loop_
_atom_site_type_symbol
_atom_site_label
_atom_site_fract_x
_atom_site_fract_y
_atom_site_fract_z
Si Si1 0.951855 0.358802 0.476500
Si Si2 0.250000 0.004062 0.212502
Si Si3 0.957474 0.342653 0.103510
Si Si4 0.448092 0.350997 0.712416
Si Si5 0.750000 0.193049 0.968590
Si Si6 0.750000 0.239659 0.323410
Si Si7 0.250000 0.768037 0.617923
Si Si8 0.460919 0.656558 0.322751
O O1 0.958519 0.225401 0.528069
O O2 0.842282 0.408872 0.466121
O O3 0.990660 0.317479 0.401678
O O4 0.000000 0.500000 0.508759
O O5 0.250000 0.906374 0.280110
O O6 0.250000 0.896957 0.146683
O O7 0.163311 0.115592 0.213336
O O8 0.850828 0.343745 0.138838
O O9 0.000000 0.500000 0.095549
O O10 0.029609 0.255894 0.150776
O O11 0.500000 0.500000 0.698069
O O12 0.483260 0.281905 0.782958
O O13 0.750000 0.302456 0.903513
O O14 0.750000 0.284763 0.037041
O O15 0.653460 0.332264 0.307757
O O16 0.500000 0.500000 0.298181
#
# Coordination Sequence:
#
# PCOD8191621 Si02
#       8
#     8   4   8   8   4   4   4   8
#     4   9  19  37  60  88 119 163 203 243 296 360
#     4  12  24  38  64  91 121 158 208 253 299 356
#     4  11  23  39  61  89 124 159 202 253 304 359
#     4  12  23  39  61  89 115 159 202 250 301 358
#     4   8  18  32  57  84 115 162 196 237 295 362
#     4  10  18  37  58  87 121 163 200 243 305 356
#     4  10  20  39  59  84 121 165 196 243 309 362
#     4  10  21  38  62  90 124 160 201 250 303 361
#
# _framework density 18.907934999999998
#
# number of rings (size 3 to 8) (size 9 to 14) (size 15 to 20)
#    0.000    1.667    3.333    1.000    2.333    2.000 
#    3.000    1.667    0.000    0.000    0.000    0.000 
#    0.000    0.000    0.000    0.000    0.000    0.000 
#
# Total GULP energy -297391.852541 kJ/mol
# GULP energy per Si atom -12391.327189 kJ/mol
# Density = 1.886490 g / cm^3
# Si number density = 18.907935 Si / 1000 Ang^3
#
#
#
# Elastic Constant Matrix: (Units=GPa)
#
#
# Indices 1 2 3 4 5 6 
#
# 1 165.1430 75.1104 42.2373 0.0000 0.0000 0.0000
# 2 75.1104 125.2762 48.7619 0.0000 0.0000 0.0000
# 3 42.2373 48.7619 104.7180 0.0000 0.0000 0.0000
# 4 0.0000 0.0000 0.0000 29.7422 0.0000 0.0000
# 5 0.0000 0.0000 0.0000 0.0000 25.2076 0.0000
# 6 0.0000 0.0000 0.0000 0.0000 0.0000 34.1934
#
#
#
# Elastic Compliance Matrix: (Units=1/GPa)
#
#
# Indices 1 2 3 4 5 6 
#
# 1 0.008465 -0.004575 -0.001284 0.000000 0.000000 0.000000
# 2 -0.004575 0.012223 -0.003846 0.000000 0.000000 0.000000
# 3 -0.001284 -0.003846 0.011858 0.000000 0.000000 0.000000
# 4 0.000000 0.000000 0.000000 0.033622 0.000000 0.000000
# 5 0.000000 0.000000 0.000000 0.000000 0.039671 0.000000
# 6 0.000000 0.000000 0.000000 0.000000 0.000000 0.029245
#
#
# Mechanical properties :
#
#
# Convention : Reuss Voigt Hill
#
# Bulk Modulus (GPa) = 76.13085 80.81737 78.47411
# Shear Modulus (GPa) = 31.47188 33.09716 32.28452
#
# Velocity S-wave (km/s) = 4.08423 4.18836 4.13662
# Velocity P-wave (km/s) = 7.91155 8.13789 8.02552
#
# Compressibility (1/GPa) = 0.01313528
#
# Stress axis : x y z
#
# Youngs Moduli (GPa) = 118.13833 81.81575 84.33078
#
# Poissons Ratio (x) = 0.37434 0.10825
# Poissons Ratio (y) = 0.54053 0.32433
# Poissons Ratio (z) = 0.15164 0.31466
#
# Static dielectric constant tensor:
#      x y z
#    x 3.614710 0.000000 0.000000 
#    y 0.000000 3.425160 0.000000 
#    z 0.000000 0.000000 3.702870 
# 
# 
# High freq. dielectric constant tensor:
#      x y z
#    x 1.751090 0.000000 0.000000 
#    y 0.000000 1.703330 0.000000 
#    z 0.000000 0.000000 1.752610 
# 
# From -- ./inp_files/21921.got.cif
#   From: 2010.03.12/outbox.cif.g09.slc.cpg/sg46_11_cif.got.tgz:21921.got - 2010.04.14 02:56:35.
