data_PCOD8191551
_publ_section_title
;
Structure prediction by ZEFSAII (Michael W. Deem and Ramdas Pophale) SiO2 
 PCOD8191551
Probable space group: I M A 2
;
_chemical_formula_sum "Si O2"
_cell_formula_units_Z 48
_cell_length_a 8.742901
_cell_length_b 20.502026
_cell_length_c 14.568894
_cell_angle_alpha 90.000000
_cell_angle_beta 90.000000
_cell_angle_gamma 90.000000
_cell_volume 2611.433218
_symmetry_space_group_name_H-M "I M A 2"
_symmetry_group_IT_number 46
_symmetry_cell_setting 'orthorhombic'
loop_
_space_group_symop_operation_xyz
x,y,z
-x,-y,z
1/2-x,y,z
1/2+x,-y,z
1/2+x,1/2+y,1/2+z
1/2-x,1/2-y,1/2+z
-x,1/2+y,1/2+z
x,1/2-y,1/2+z
loop_
_atom_site_type_symbol
_atom_site_label
_atom_site_fract_x
_atom_site_fract_y
_atom_site_fract_z
Si Si1 0.431711 0.815984 0.954900
Si Si2 0.931269 0.269212 0.259337
Si Si3 0.568353 0.311108 0.064104
Si Si4 0.431039 0.621475 0.751444
Si Si5 0.930698 0.568491 0.567446
Si Si6 0.069526 0.568412 0.948256
O O1 0.250000 0.825037 0.963625
O O2 0.486670 0.807141 0.849791
O O3 0.488799 0.753028 0.011103
O O4 0.514991 0.878811 0.993858
O O5 0.750000 0.264722 0.260495
O O6 0.989834 0.307871 0.169340
O O7 0.993548 0.195331 0.257648
O O8 0.750000 0.312816 0.058899
O O9 0.502002 0.375773 0.015635
O O10 0.250000 0.619980 0.734108
O O11 0.513321 0.584920 0.669211
O O12 0.477950 0.584711 0.844370
O O13 0.750000 0.563936 0.567320
O O14 0.000000 0.500000 0.535644
O O15 0.250000 0.564862 0.957922
O O16 0.000000 0.500000 0.979410
#
# Coordination Sequence:
#
# PCOD8191551 Si02
#       6
#     8   8   8   8   8   8
#     4  10  18  34  60  84 108 142 185 229 272 326
#     4   9  16  29  57  89 109 136 180 230 272 320
#     4   9  16  30  55  82 109 142 184 221 261 324
#     4  10  18  33  58  85 112 142 181 225 275 332
#     4  12  25  39  55  80 113 149 185 229 283 333
#     4  10  20  33  52  80 112 147 182 220 266 323
#
# _framework density 18.380711000000002
#
# number of rings (size 3 to 8) (size 9 to 14) (size 15 to 20)
#    0.000    2.000    3.333    2.000    0.000    2.000 
#    0.000    2.500    0.000    2.000    0.000    0.000 
#    0.000    0.000    0.000    0.000    0.000    0.000 
#
# Total GULP energy -297606.649028 kJ/mol
# GULP energy per Si atom -12400.277043 kJ/mol
# Density = 1.833888 g / cm^3
# Si number density = 18.380711 Si / 1000 Ang^3
#
#
#
# Elastic Constant Matrix: (Units=GPa)
#
#
# Indices 1 2 3 4 5 6 
#
# 1 44.6958 36.9386 32.7955 0.0000 0.0000 0.0000
# 2 36.9386 169.4953 83.5979 0.0000 0.0000 0.0000
# 3 32.7955 83.5979 154.1319 0.0001 0.0000 0.0000
# 4 0.0000 0.0000 0.0001 30.4424 0.0000 0.0000
# 5 0.0000 0.0000 0.0000 0.0000 16.5903 0.0000
# 6 0.0000 0.0000 0.0000 0.0000 0.0000 27.6046
#
#
#
# Elastic Compliance Matrix: (Units=1/GPa)
#
#
# Indices 1 2 3 4 5 6 
#
# 1 0.028766 -0.004437 -0.003714 0.000000 0.000000 0.000000
# 2 -0.004437 0.008739 -0.003796 0.000000 0.000000 0.000000
# 3 -0.003714 -0.003796 0.009337 0.000000 0.000000 0.000000
# 4 0.000000 0.000000 0.000000 0.032849 0.000000 0.000000
# 5 0.000000 0.000000 0.000000 0.000000 0.060276 0.000000
# 6 0.000000 0.000000 0.000000 0.000000 0.000000 0.036226
#
#
# Mechanical properties :
#
#
# Convention : Reuss Voigt Hill
#
# Bulk Modulus (GPa) = 43.57718 74.99855 59.28786
# Shear Modulus (GPa) = 24.06904 29.26020 26.66462
#
# Velocity S-wave (km/s) = 3.62259 3.99419 3.81292
# Velocity P-wave (km/s) = 6.42317 7.88434 7.19096
#
# Compressibility (1/GPa) = 0.02294779
#
# Stress axis : x y z
#
# Youngs Moduli (GPa) = 34.76361 114.42972 107.10173
#
# Poissons Ratio (x) = 0.50775 0.39778
# Poissons Ratio (y) = 0.15425 0.40653
# Poissons Ratio (z) = 0.12911 0.43434
#
# Static dielectric constant tensor:
#      x y z
#    x 2.951940 0.000000 0.000000 
#    y 0.000000 3.567440 0.000000 
#    z 0.000000 0.000000 3.648050 
# 
# 
# High freq. dielectric constant tensor:
#      x y z
#    x 1.670970 0.000000 0.000000 
#    y 0.000000 1.717670 0.000000 
#    z 0.000000 0.000000 1.720210 
# 
# From -- ./inp_files/13876.got.cif
#   From: 2010.03.12/outbox.cif.g09.slc.cpg/sg46_7_cif.got.tgz:13876.got - 2010.04.14 02:56:35.
