data_PCOD8191791
_publ_section_title
;
Structure prediction by ZEFSAII (Michael W. Deem and Ramdas Pophale) SiO2 
 PCOD8191791
Probable space group: I M A 2
;
_chemical_formula_sum "Si O2"
_cell_formula_units_Z 64
_cell_length_a 8.818191
_cell_length_b 30.011117
_cell_length_c 14.221920
_cell_angle_alpha 90.000000
_cell_angle_beta 90.000000
_cell_angle_gamma 90.000000
_cell_volume 3763.742409
_symmetry_space_group_name_H-M "I M A 2"
_symmetry_group_IT_number 46
_symmetry_cell_setting 'orthorhombic'
loop_
_space_group_symop_operation_xyz
x,y,z
-x,-y,z
1/2-x,y,z
1/2+x,-y,z
1/2+x,1/2+y,1/2+z
1/2-x,1/2-y,1/2+z
-x,1/2+y,1/2+z
x,1/2-y,1/2+z
loop_
_atom_site_type_symbol
_atom_site_label
_atom_site_fract_x
_atom_site_fract_y
_atom_site_fract_z
Si Si1 0.571388 0.273736 0.212260
Si Si2 0.571821 0.454488 0.844665
Si Si3 0.927581 0.044852 0.130295
Si Si4 0.570699 0.136477 0.040842
Si Si5 0.077431 0.368019 0.894236
Si Si6 0.076503 0.316040 0.710809
Si Si7 0.070437 0.218015 0.508460
Si Si8 0.070686 0.306338 0.392436
O O1 0.750000 0.280993 0.216357
O O2 0.527177 0.224335 0.245922
O O3 0.512568 0.282014 0.107630
O O4 0.489860 0.306619 0.285736
O O5 0.500000 0.500000 0.884661
O O6 0.750000 0.458563 0.851911
O O7 0.516041 0.446869 0.737144
O O8 0.518705 0.413004 0.909164
O O9 0.750000 0.038204 0.130226
O O10 0.975815 0.085663 0.063263
O O11 0.000000 0.000000 0.088216
O O12 0.750000 0.143639 0.052339
O O13 0.512099 0.150802 0.938555
O O14 0.481808 0.168873 0.110375
O O15 0.250000 0.378491 0.921402
O O16 0.062552 0.355712 0.784667
O O17 0.015847 0.327019 0.956250
O O18 0.250000 0.299209 0.701672
O O19 0.250000 0.217866 0.523302
O O20 0.023077 0.260952 0.446805
O O21 0.250000 0.313318 0.393047
#
# Coordination Sequence:
#
# PCOD8191791 Si02
#       8
#     8   8   8   8   8   8   8   8
#     4  12  24  36  52  75 105 138 176 224 264 299
#     4  10  19  32  49  74 105 138 172 211 257 308
#     4   9  19  32  48  72 104 137 171 211 257 307
#     4  11  21  34  50  77 107 137 177 220 262 304
#     4  10  20  34  52  74 101 138 178 216 256 306
#     4  11  20  32  50  73 104 142 179 213 255 310
#     4  10  21  37  54  74 102 137 179 216 257 312
#     4  11  22  37  55  75 102 141 180 213 257 312
#
# _framework density 17.004352000000001
#
# number of rings (size 3 to 8) (size 9 to 14) (size 15 to 20)
#    0.000    1.500    3.750    2.625    0.000    3.000 
#    0.000    0.000    0.000    0.000    0.000    0.875 
#    0.000    2.000    0.000    0.000    0.000    0.000 
#
# Total GULP energy -396816.006179 kJ/mol
# GULP energy per Si atom -12400.500193 kJ/mol
# Density = 1.696565 g / cm^3
# Si number density = 17.004352 Si / 1000 Ang^3
#
#
#
# Elastic Constant Matrix: (Units=GPa)
#
#
# Indices 1 2 3 4 5 6 
#
# 1 56.0851 36.3362 27.7733 0.0001 0.0000 0.0000
# 2 36.3362 102.3251 21.3730 0.0003 -0.0001 -0.0001
# 3 27.7733 21.3730 62.1556 -0.0006 -0.0002 -0.0001
# 4 0.0001 0.0003 -0.0006 25.3965 0.0000 0.0000
# 5 0.0000 -0.0001 -0.0002 0.0000 24.6259 -0.0001
# 6 0.0000 -0.0001 -0.0001 0.0000 -0.0001 30.7520
#
#
#
# Elastic Compliance Matrix: (Units=1/GPa)
#
#
# Indices 1 2 3 4 5 6 
#
# 1 0.027685 -0.007808 -0.009686 0.000000 0.000000 0.000000
# 2 -0.007808 0.012731 -0.000889 0.000000 0.000000 0.000000
# 3 -0.009686 -0.000889 0.020722 0.000001 0.000000 0.000000
# 4 0.000000 0.000000 0.000001 0.039376 0.000000 0.000000
# 5 0.000000 0.000000 0.000000 0.000000 0.040608 0.000000
# 6 0.000000 0.000000 0.000000 0.000000 0.000000 0.032518
#
#
# Mechanical properties :
#
#
# Convention : Reuss Voigt Hill
#
# Bulk Modulus (GPa) = 41.02880 43.50342 42.26611
# Shear Modulus (GPa) = 22.88020 25.16043 24.02031
#
# Velocity S-wave (km/s) = 3.67215 3.85079 3.76253
# Velocity P-wave (km/s) = 6.49310 6.73874 6.61706
#
# Compressibility (1/GPa) = 0.02437312
#
# Stress axis : x y z
#
# Youngs Moduli (GPa) = 36.12051 78.54773 48.25733
#
# Poissons Ratio (x) = 0.61330 0.46741
# Poissons Ratio (y) = 0.28203 0.04289
# Poissons Ratio (z) = 0.34986 0.06982
#
# Static dielectric constant tensor:
#      x y z
#    x 3.167410 0.000000 0.000000 
#    y 0.000000 3.258280 0.000000 
#    z 0.000000 0.000000 3.048670 
# 
# 
# High freq. dielectric constant tensor:
#      x y z
#    x 1.663190 0.000000 0.000000 
#    y 0.000000 1.647230 0.000000 
#    z 0.000000 0.000000 1.628280 
# 
# From -- ./inp_files/9712.got.cif
#   From: 2010.03.12/outbox.cif.g09.slc.cpg/sg46_5_cif.got.tgz:9712.got - 2010.04.14 02:56:35.
