data_PCOD8191694
_publ_section_title
;
Structure prediction by ZEFSAII (Michael W. Deem and Ramdas Pophale) SiO2 
 PCOD8191694
Probable space group: I M A 2
;
_chemical_formula_sum "Si O2"
_cell_formula_units_Z 64
_cell_length_a 14.398952
_cell_length_b 17.486652
_cell_length_c 13.650969
_cell_angle_alpha 90.000000
_cell_angle_beta 90.000000
_cell_angle_gamma 90.000000
_cell_volume 3437.170151
_symmetry_space_group_name_H-M "I M A 2"
_symmetry_group_IT_number 46
_symmetry_cell_setting 'orthorhombic'
loop_
_space_group_symop_operation_xyz
x,y,z
-x,-y,z
1/2-x,y,z
1/2+x,-y,z
1/2+x,1/2+y,1/2+z
1/2-x,1/2-y,1/2+z
-x,1/2+y,1/2+z
x,1/2-y,1/2+z
loop_
_atom_site_type_symbol
_atom_site_label
_atom_site_fract_x
_atom_site_fract_y
_atom_site_fract_z
Si Si1 0.645413 0.365693 0.421290
Si Si2 0.350493 0.522696 0.754251
Si Si3 0.642041 0.211175 0.726167
Si Si4 0.850832 0.850228 0.278726
Si Si5 0.539006 0.237449 0.529427
Si Si6 0.951190 0.159139 0.337293
Si Si7 0.147618 0.179535 0.050775
Si Si8 0.393454 0.490085 0.535607
O O1 0.750000 0.335330 0.430245
O O2 0.613725 0.352676 0.307929
O O3 0.586440 0.317579 0.499960
O O4 0.638952 0.455213 0.446829
O O5 0.250000 0.556805 0.785697
O O6 0.361625 0.439633 0.801813
O O7 0.434080 0.573052 0.799654
O O8 0.346432 0.516354 0.636514
O O9 0.750000 0.205171 0.694718
O O10 0.575474 0.204199 0.632057
O O11 0.622531 0.292741 0.775004
O O12 0.750000 0.820589 0.320220
O O13 0.853529 0.835950 0.164737
O O14 0.942549 0.810681 0.322731
O O15 0.566056 0.170977 0.452559
O O16 0.428538 0.255329 0.528187
O O17 0.250000 0.208787 0.017068
O O18 0.128555 0.096579 0.001268
O O19 0.500000 0.500000 0.556409
#
# Coordination Sequence:
#
# PCOD8191694 Si02
#       8
#     8   8   8   8   8   8   8   8
#     4  10  20  33  51  77 106 139 174 210 260 315
#     4  10  19  30  49  80 110 134 165 215 270 316
#     4  10  21  35  50  72 106 140 174 212 255 313
#     4   9  18  33  52  75 106 134 168 215 262 312
#     4  11  21  34  51  77 108 141 175 214 254 314
#     4  11  20  32  52  76 106 138 175 208 263 313
#     4  10  19  33  52  79 109 138 171 213 265 314
#     4  11  18  31  54  80 110 137 166 219 269 311
#
# _framework density 18.619968
#
# number of rings (size 3 to 8) (size 9 to 14) (size 15 to 20)
#    0.000    1.750    2.500    5.250    0.000    2.000 
#    0.000    0.000    0.000    1.500    0.000    0.000 
#    0.000    0.000    0.000    0.000    0.000    0.000 
#
# Total GULP energy -396537.036471 kJ/mol
# GULP energy per Si atom -12391.782390 kJ/mol
# Density = 1.857759 g / cm^3
# Si number density = 18.619968 Si / 1000 Ang^3
#
#
#
# Elastic Constant Matrix: (Units=GPa)
#
#
# Indices 1 2 3 4 5 6 
#
# 1 104.9540 6.3074 17.3718 0.0000 0.0000 0.0000
# 2 6.3074 41.8412 26.8754 0.0000 0.0000 0.0000
# 3 17.3718 26.8754 84.5786 0.0000 0.0000 0.0000
# 4 0.0000 0.0000 0.0000 20.2502 0.0000 0.0000
# 5 0.0000 0.0000 0.0000 0.0000 6.9473 0.0000
# 6 0.0000 0.0000 0.0000 0.0000 0.0000 11.5992
#
#
#
# Elastic Compliance Matrix: (Units=1/GPa)
#
#
# Indices 1 2 3 4 5 6 
#
# 1 0.009865 -0.000233 -0.001952 0.000000 0.000000 0.000000
# 2 -0.000233 0.030034 -0.009496 0.000000 0.000000 0.000000
# 3 -0.001952 -0.009496 0.015242 0.000000 0.000000 0.000000
# 4 0.000000 0.000000 0.000000 0.049382 0.000000 0.000000
# 5 0.000000 0.000000 0.000000 0.000000 0.143940 0.000000
# 6 0.000000 0.000000 0.000000 0.000000 0.000000 0.086213
#
#
# Mechanical properties :
#
#
# Convention : Reuss Voigt Hill
#
# Bulk Modulus (GPa) = 31.46741 36.94256 34.20498
# Shear Modulus (GPa) = 13.56368 19.81397 16.68882
#
# Velocity S-wave (km/s) = 2.70191 3.26563 2.99705
# Velocity P-wave (km/s) = 5.16432 5.83973 5.51238
#
# Compressibility (1/GPa) = 0.03177891
#
# Stress axis : x y z
#
# Youngs Moduli (GPa) = 101.36738 33.29528 65.60997
#
# Poissons Ratio (x) = 0.00777 0.12808
# Poissons Ratio (y) = 0.02364 0.62301
# Poissons Ratio (z) = 0.19788 0.31616
#
# Static dielectric constant tensor:
#      x y z
#    x 4.021130 0.000000 0.000000 
#    y 0.000000 3.248800 0.000000 
#    z 0.000000 0.000000 3.230710 
# 
# 
# High freq. dielectric constant tensor:
#      x y z
#    x 1.749150 0.000000 0.000000 
#    y 0.000000 1.688580 0.000000 
#    z 0.000000 0.000000 1.694270 
# 
# From -- ./inp_files/11319.got.cif
#   From: 2010.03.12/outbox.cif.g09.slc.cpg/sg46_6_cif.got.tgz:11319.got - 2010.04.14 02:56:35.
