data_PCOD8191088
_publ_section_title
;
Structure prediction by ZEFSAII (Michael W. Deem and Ramdas Pophale) SiO2 
 PCOD8191088
Probable space group: I B A 2
;
_chemical_formula_sum "Si O2"
_cell_formula_units_Z 40
_cell_length_a 9.836261
_cell_length_b 17.507765
_cell_length_c 9.155156
_cell_angle_alpha 90.000000
_cell_angle_beta 90.000000
_cell_angle_gamma 90.000000
_cell_volume 1576.618076
_symmetry_space_group_name_H-M "I B A 2"
_symmetry_group_IT_number 45
_symmetry_cell_setting 'orthorhombic'
loop_
_space_group_symop_operation_xyz
x,y,z
-x,-y,z
-x,y,1/2+z
x,-y,1/2+z
1/2+x,1/2+y,1/2+z
1/2-x,1/2-y,1/2+z
1/2-x,1/2+y,z
1/2+x,1/2-y,z
loop_
_atom_site_type_symbol
_atom_site_label
_atom_site_fract_x
_atom_site_fract_y
_atom_site_fract_z
Si Si1 0.284624 0.926725 0.049730
Si Si2 0.746098 0.313336 0.298259
Si Si3 0.560904 0.150157 0.548267
Si Si4 0.724195 0.420410 0.875392
Si Si5 0.533326 0.294231 0.891507
O O1 0.445544 0.913173 0.078125
O O2 0.205402 0.932718 0.202347
O O3 0.236109 0.854472 0.955567
O O4 0.247723 0.000757 0.957633
O O5 0.823640 0.361491 0.173819
O O6 0.587265 0.296327 0.269194
O O7 0.832430 0.236206 0.309153
O O8 0.639284 0.129949 0.398757
O O9 0.504294 0.236542 0.525085
O O10 0.586424 0.378709 0.938928
#
# Coordination Sequence:
#
# PCOD8191088 Si02
#       5
#     8   8   8   8   8
#     4  11  26  48  73 112 153 210 258 324 394 469
#     4  11  26  46  77 115 154 195 263 323 399 470
#     4  11  25  46  78 115 153 202 264 330 391 478
#     4  12  26  48  76 109 158 206 266 324 392 477
#     4  11  26  44  77 117 152 203 254 331 398 468
#
# _framework density 25.370760000000001
#
# number of rings (size 3 to 8) (size 9 to 14) (size 15 to 20)
#    0.000    0.800    2.000    4.200    5.600    2.400 
#    0.000    2.000    0.000    0.000    0.000    0.000 
#    0.000    0.000    0.000    0.000    0.000    0.000 
#
# Total GULP energy -247814.460808 kJ/mol
# GULP energy per Si atom -12390.723040 kJ/mol
# Density = 2.531302 g / cm^3
# Si number density = 25.370760 Si / 1000 Ang^3
#
#
#
# Elastic Constant Matrix: (Units=GPa)
#
#
# Indices 1 2 3 4 5 6 
#
# 1 153.5865 66.5905 18.4208 -0.0001 0.0000 0.0000
# 2 66.5905 123.5097 52.9879 -0.0007 0.0001 0.0000
# 3 18.4208 52.9879 125.3758 -0.0007 0.0000 -0.0001
# 4 -0.0001 -0.0007 -0.0007 35.8783 0.0001 0.0000
# 5 0.0000 0.0001 0.0000 0.0001 38.5295 0.0000
# 6 0.0000 0.0000 -0.0001 0.0000 0.0000 46.4381
#
#
#
# Elastic Compliance Matrix: (Units=1/GPa)
#
#
# Indices 1 2 3 4 5 6 
#
# 1 0.008570 -0.004984 0.000847 0.000000 0.000000 0.000000
# 2 -0.004984 0.012788 -0.004672 0.000000 0.000000 0.000000
# 3 0.000847 -0.004672 0.009826 0.000000 0.000000 0.000000
# 4 0.000000 0.000000 0.000000 0.027872 0.000000 0.000000
# 5 0.000000 0.000000 0.000000 0.000000 0.025954 0.000000
# 6 0.000000 0.000000 0.000000 0.000000 0.000000 0.021534
#
#
# Mechanical properties :
#
#
# Convention : Reuss Voigt Hill
#
# Bulk Modulus (GPa) = 73.71265 75.38560 74.54913
# Shear Modulus (GPa) = 38.85423 41.80070 40.32746
#
# Velocity S-wave (km/s) = 3.91763 4.06346 3.99121
# Velocity P-wave (km/s) = 7.04138 7.19678 7.11950
#
# Compressibility (1/GPa) = 0.01356619
#
# Stress axis : x y z
#
# Youngs Moduli (GPa) = 116.68089 78.19609 101.76805
#
# Poissons Ratio (x) = 0.38975 -0.08623
# Poissons Ratio (y) = 0.58157 0.47551
# Poissons Ratio (z) = -0.09886 0.36537
#
# Static dielectric constant tensor:
#      x y z
#    x 4.966290 0.000000 0.000000 
#    y 0.000000 4.571940 0.000000 
#    z 0.000000 0.000000 4.373420 
# 
# 
# High freq. dielectric constant tensor:
#      x y z
#    x 2.020860 0.000000 0.000000 
#    y 0.000000 2.009590 0.000000 
#    z 0.000000 0.000000 2.003050 
# 
# From -- ./inp_files/1252.got.cif
#   From: 2010.03.12/outbox.cif.g09.slc.cpg/sg45_1_cif.got.tgz:1252.got - 2010.04.14 02:50:11.
