data_PCOD8191346
_publ_section_title
;
Structure prediction by ZEFSAII (Michael W. Deem and Ramdas Pophale) SiO2 
 PCOD8191346
Probable space group: I M A 2
;
_chemical_formula_sum "Si O2"
_cell_formula_units_Z 56
_cell_length_a 8.515877
_cell_length_b 18.455539
_cell_length_c 21.134425
_cell_angle_alpha 90.000000
_cell_angle_beta 90.000000
_cell_angle_gamma 90.000000
_cell_volume 3321.594021
_symmetry_space_group_name_H-M "I M A 2"
_symmetry_group_IT_number 46
_symmetry_cell_setting 'orthorhombic'
loop_
_space_group_symop_operation_xyz
x,y,z
-x,-y,z
1/2-x,y,z
1/2+x,-y,z
1/2+x,1/2+y,1/2+z
1/2-x,1/2-y,1/2+z
-x,1/2+y,1/2+z
x,1/2-y,1/2+z
loop_
_atom_site_type_symbol
_atom_site_label
_atom_site_fract_x
_atom_site_fract_y
_atom_site_fract_z
Si Si1 0.436479 0.419671 0.844890
Si Si2 0.435763 0.078874 0.089132
Si Si3 0.564931 0.653468 0.973453
Si Si4 0.567101 0.649775 0.718056
Si Si5 0.564786 0.079419 0.597973
Si Si6 0.932296 0.287852 0.528399
Si Si7 0.067015 0.213604 0.648418
O O1 0.500000 0.500000 0.846519
O O2 0.250000 0.420811 0.842731
O O3 0.495557 0.377596 0.906836
O O4 0.508833 0.378962 0.783160
O O5 0.250000 0.078682 0.089021
O O6 0.501947 0.106790 0.157147
O O7 0.494558 0.131760 0.032920
O O8 0.500000 0.000000 0.074225
O O9 0.750000 0.644605 0.981742
O O10 0.482379 0.607605 0.028667
O O11 0.516827 0.738405 0.975112
O O12 0.750000 0.632948 0.720593
O O13 0.538069 0.736962 0.710867
O O14 0.750000 0.079343 0.604846
O O15 0.489149 0.130324 0.653604
O O16 0.500000 0.000000 0.609714
O O17 0.750000 0.293755 0.512256
O O18 0.959225 0.247524 0.594332
O O19 0.250000 0.217739 0.628326
#
# Coordination Sequence:
#
# PCOD8191346 Si02
#       7
#     8   8   8   8   8   8   8
#     4  10  20  32  46  66  92 123 156 186 217 256
#     4  10  18  29  46  68  94 120 149 185 227 270
#     4  10  19  31  46  64  90 122 155 188 223 263
#     4   8  16  30  46  65  91 122 152 183 219 262
#     4  11  20  30  45  66  92 118 149 186 228 272
#     4  10  18  29  45  64  88 117 151 187 226 270
#     4   9  16  29  47  65  88 116 148 185 226 269
#
# _framework density 16.859375
#
# number of rings (size 3 to 8) (size 9 to 14) (size 15 to 20)
#    0.000    2.286    0.000    7.286    0.000    2.286 
#    0.000    3.571    0.000    0.000    0.000    1.000 
#    0.000    4.571    0.000    0.000    0.000    0.000 
#
# Total GULP energy -347020.218098 kJ/mol
# GULP energy per Si atom -12393.579218 kJ/mol
# Density = 1.682100 g / cm^3
# Si number density = 16.859375 Si / 1000 Ang^3
#
#
#
# Elastic Constant Matrix: (Units=GPa)
#
#
# Indices 1 2 3 4 5 6 
#
# 1 60.3209 30.5422 18.2044 0.0000 0.0000 0.0000
# 2 30.5422 166.9892 65.2112 0.0000 0.0000 0.0000
# 3 18.2044 65.2112 78.4759 0.0000 0.0000 0.0000
# 4 0.0000 0.0000 0.0000 33.4629 0.0000 0.0000
# 5 0.0000 0.0000 0.0000 0.0000 11.9802 0.0000
# 6 0.0000 0.0000 0.0000 0.0000 0.0000 29.8467
#
#
#
# Elastic Compliance Matrix: (Units=1/GPa)
#
#
# Indices 1 2 3 4 5 6 
#
# 1 0.018521 -0.002531 -0.002193 0.000000 0.000000 0.000000
# 2 -0.002531 0.009211 -0.007067 0.000000 0.000000 0.000000
# 3 -0.002193 -0.007067 0.019124 0.000000 0.000000 0.000000
# 4 0.000000 0.000000 0.000000 0.029884 0.000000 0.000000
# 5 0.000000 0.000000 0.000000 0.000000 0.083471 0.000000
# 6 0.000000 0.000000 0.000000 0.000000 0.000000 0.033504
#
#
# Mechanical properties :
#
#
# Convention : Reuss Voigt Hill
#
# Bulk Modulus (GPa) = 42.96657 59.30017 51.13337
# Shear Modulus (GPa) = 22.21660 27.84650 25.03155
#
# Velocity S-wave (km/s) = 3.63403 4.06851 3.85739
# Velocity P-wave (km/s) = 6.56878 7.57101 7.08763
#
# Compressibility (1/GPa) = 0.02327391
#
# Stress axis : x y z
#
# Youngs Moduli (GPa) = 53.99145 108.56473 52.29020
#
# Poissons Ratio (x) = 0.27478 0.11469
# Poissons Ratio (y) = 0.13666 0.36954
# Poissons Ratio (z) = 0.11842 0.76723
#
# Static dielectric constant tensor:
#      x y z
#    x 3.091360 0.000000 0.000000 
#    y 0.000000 3.546830 0.000000 
#    z 0.000000 0.000000 3.168860 
# 
# 
# High freq. dielectric constant tensor:
#      x y z
#    x 1.651560 0.000000 0.000000 
#    y 0.000000 1.660100 0.000000 
#    z 0.000000 0.000000 1.604460 
# 
# From -- ./inp_files/21383.got.cif
#   From: 2010.03.12/outbox.cif.g09.slc.cpg/sg46_11_cif.got.tgz:21383.got - 2010.04.14 02:56:35.
