data_PCOD8191424
_publ_section_title
;
Structure prediction by ZEFSAII (Michael W. Deem and Ramdas Pophale) SiO2 
 PCOD8191424
Probable space group: I M A 2
;
_chemical_formula_sum "Si O2"
_cell_formula_units_Z 48
_cell_length_a 9.143630
_cell_length_b 13.801908
_cell_length_c 18.295105
_cell_angle_alpha 90.000000
_cell_angle_beta 90.000000
_cell_angle_gamma 90.000000
_cell_volume 2308.833836
_symmetry_space_group_name_H-M "I M A 2"
_symmetry_group_IT_number 46
_symmetry_cell_setting 'orthorhombic'
loop_
_space_group_symop_operation_xyz
x,y,z
-x,-y,z
1/2-x,y,z
1/2+x,-y,z
1/2+x,1/2+y,1/2+z
1/2-x,1/2-y,1/2+z
-x,1/2+y,1/2+z
x,1/2-y,1/2+z
loop_
_atom_site_type_symbol
_atom_site_label
_atom_site_fract_x
_atom_site_fract_y
_atom_site_fract_z
Si Si1 0.091044 0.588843 0.914010
Si Si2 0.592927 0.415667 0.083781
Si Si3 0.072935 0.806031 0.929193
Si Si4 0.924363 0.598361 0.294763
Si Si5 0.919454 0.600526 0.566778
Si Si6 0.913813 0.771778 0.660479
O O1 0.250000 0.587762 0.875712
O O2 0.022071 0.696523 0.907005
O O3 0.000000 0.500000 0.877685
O O4 0.110600 0.564845 0.998751
O O5 0.500000 0.500000 0.122348
O O6 0.750000 0.415277 0.122659
O O7 0.515699 0.314363 0.097274
O O8 0.250000 0.812333 0.933954
O O9 0.006556 0.878862 0.870075
O O10 0.002388 0.836538 0.005777
O O11 0.750000 0.585248 0.306526
O O12 0.959676 0.688854 0.240287
O O13 0.000000 0.500000 0.264608
O O14 0.750000 0.584497 0.543685
O O15 0.926741 0.656362 0.645778
O O16 0.000000 0.500000 0.578456
O O17 0.750000 0.807904 0.644659
#
# Coordination Sequence:
#
# PCOD8191424 Si02
#       6
#     8   8   8   8   8   8
#     4   9  19  33  53  83 117 151 191 238 289 346
#     4  10  18  30  51  81 115 149 186 233 287 343
#     4  11  22  40  62  90 124 161 204 250 299 357
#     4  11  24  42  62  89 122 161 202 247 301 362
#     4  11  23  40  63  90 119 157 201 251 304 360
#     4  10  22  39  59  85 117 153 198 245 298 356
#
# _framework density 20.789717
#
# number of rings (size 3 to 8) (size 9 to 14) (size 15 to 20)
#    0.000    1.667    1.667    3.000    0.000    5.333 
#    0.000    0.833    0.000    4.000    0.000    0.000 
#    0.000    0.000    0.000    0.000    0.000    0.000 
#
# Total GULP energy -297362.241815 kJ/mol
# GULP energy per Si atom -12390.093409 kJ/mol
# Density = 2.074240 g / cm^3
# Si number density = 20.789717 Si / 1000 Ang^3
#
#
#
# Elastic Constant Matrix: (Units=GPa)
#
#
# Indices 1 2 3 4 5 6 
#
# 1 122.3731 58.1838 30.0553 0.0000 0.0000 0.0000
# 2 58.1838 134.5867 31.3247 0.0000 0.0000 0.0000
# 3 30.0553 31.3247 62.5768 0.0000 0.0000 0.0000
# 4 0.0000 0.0000 0.0000 23.6663 0.0000 0.0000
# 5 0.0000 0.0000 0.0000 0.0000 14.4570 0.0000
# 6 0.0000 0.0000 0.0000 0.0000 0.0000 35.3105
#
#
#
# Elastic Compliance Matrix: (Units=1/GPa)
#
#
# Indices 1 2 3 4 5 6 
#
# 1 0.010836 -0.003931 -0.003236 0.000000 0.000000 0.000000
# 2 -0.003931 0.009836 -0.003036 0.000000 0.000000 0.000000
# 3 -0.003236 -0.003036 0.019054 0.000000 0.000000 0.000000
# 4 0.000000 0.000000 0.000000 0.042254 0.000000 0.000000
# 5 0.000000 0.000000 0.000000 0.000000 0.069171 0.000000
# 6 0.000000 0.000000 0.000000 0.000000 0.000000 0.028320
#
#
# Mechanical properties :
#
#
# Convention : Reuss Voigt Hill
#
# Bulk Modulus (GPa) = 51.76062 62.07380 56.91721
# Shear Modulus (GPa) = 24.23444 28.01828 26.12636
#
# Velocity S-wave (km/s) = 3.41793 3.67508 3.54884
# Velocity P-wave (km/s) = 6.36613 6.92323 6.65051
#
# Compressibility (1/GPa) = 0.01931971
#
# Stress axis : x y z
#
# Youngs Moduli (GPa) = 92.28707 101.66524 52.48120
#
# Poissons Ratio (x) = 0.39966 0.16986
# Poissons Ratio (y) = 0.36280 0.15932
# Poissons Ratio (z) = 0.29869 0.30862
#
# Static dielectric constant tensor:
#      x y z
#    x 4.240250 0.000000 0.000000 
#    y 0.000000 3.907400 0.000000 
#    z 0.000000 0.000000 3.377010 
# 
# 
# High freq. dielectric constant tensor:
#      x y z
#    x 1.826550 0.000000 0.000000 
#    y 0.000000 1.820860 0.000000 
#    z 0.000000 0.000000 1.777540 
# 
# From -- ./inp_files/18187.got.cif
#   From: 2010.03.12/outbox.cif.g09.slc.cpg/sg46_10_cif.got.tgz:18187.got - 2010.04.14 02:56:35.
