data_PCOD8191821
_publ_section_title
;
Structure prediction by ZEFSAII (Michael W. Deem and Ramdas Pophale) SiO2 
 PCOD8191821
Probable space group: I M A 2
;
_chemical_formula_sum "Si O2"
_cell_formula_units_Z 64
_cell_length_a 8.958920
_cell_length_b 19.587903
_cell_length_c 20.631326
_cell_angle_alpha 90.000000
_cell_angle_beta 90.000000
_cell_angle_gamma 90.000000
_cell_volume 3620.518281
_symmetry_space_group_name_H-M "I M A 2"
_symmetry_group_IT_number 46
_symmetry_cell_setting 'orthorhombic'
loop_
_space_group_symop_operation_xyz
x,y,z
-x,-y,z
1/2-x,y,z
1/2+x,-y,z
1/2+x,1/2+y,1/2+z
1/2-x,1/2-y,1/2+z
-x,1/2+y,1/2+z
x,1/2-y,1/2+z
loop_
_atom_site_type_symbol
_atom_site_label
_atom_site_fract_x
_atom_site_fract_y
_atom_site_fract_z
Si Si1 0.573802 0.069286 0.537530
Si Si2 0.924587 0.432284 0.794135
Si Si3 0.074193 0.297365 0.986748
Si Si4 0.424327 0.067615 0.157018
Si Si5 0.922147 0.787041 0.110942
Si Si6 0.926359 0.287005 0.229498
Si Si7 0.576251 0.290068 0.856443
Si Si8 0.424210 0.567800 0.186673
O O1 0.750000 0.065643 0.527138
O O2 0.509186 0.131458 0.496862
O O3 0.528161 0.079949 0.612339
O O4 0.500000 0.000000 0.510935
O O5 0.750000 0.444900 0.782365
O O6 0.951738 0.369952 0.842775
O O7 0.000000 0.500000 0.824795
O O8 0.000803 0.415320 0.725739
O O9 0.250000 0.309912 0.985524
O O10 0.027186 0.243558 0.042140
O O11 0.018680 0.266916 0.918539
O O12 0.250000 0.053761 0.167932
O O13 0.451716 0.131564 0.109332
O O14 0.500000 0.000000 0.126127
O O15 0.750000 0.770855 0.124569
O O16 0.013315 0.753093 0.168175
O O17 0.750000 0.280486 0.224921
O O18 0.984823 0.254270 0.296094
O O19 0.977023 0.366204 0.227250
O O20 0.750000 0.275135 0.869047
O O21 0.500000 0.500000 0.215623
O O22 0.250000 0.556017 0.192251
#
# Coordination Sequence:
#
# PCOD8191821 Si02
#       8
#     8   8   8   8   8   8   8   8
#     4  10  19  33  53  77 108 143 180 217 261 313
#     4  10  19  32  51  75 105 139 175 212 255 307
#     4  11  23  37  53  76 108 144 181 220 267 318
#     4  10  19  32  52  79 108 135 170 215 263 312
#     4  10  21  35  54  80 107 137 175 221 266 314
#     4  10  19  35  57  80 105 138 178 220 264 314
#     4  10  22  37  53  75 106 142 181 221 263 314
#     4   9  18  31  52  80 107 136 170 215 264 313
#
# _framework density 17.677026999999999
#
# number of rings (size 3 to 8) (size 9 to 14) (size 15 to 20)
#    0.000    2.000    2.500    2.250    0.000    4.000 
#    0.000    1.250    0.000    0.750    0.000    5.250 
#    0.000    0.000    0.000    0.000    0.000    0.000 
#
# Total GULP energy -396831.393236 kJ/mol
# GULP energy per Si atom -12400.981039 kJ/mol
# Density = 1.763679 g / cm^3
# Si number density = 17.677027 Si / 1000 Ang^3
#
#
#
# Elastic Constant Matrix: (Units=GPa)
#
#
# Indices 1 2 3 4 5 6 
#
# 1 71.4769 42.5733 42.1311 0.0000 0.0000 0.0000
# 2 42.5733 117.7374 63.4750 0.0000 0.0000 0.0000
# 3 42.1311 63.4750 106.6878 0.0000 0.0000 0.0000
# 4 0.0000 0.0000 0.0000 24.3413 0.0000 0.0000
# 5 0.0000 0.0000 0.0000 0.0000 20.1450 0.0000
# 6 0.0000 0.0000 0.0000 0.0000 0.0000 28.3132
#
#
#
# Elastic Compliance Matrix: (Units=1/GPa)
#
#
# Indices 1 2 3 4 5 6 
#
# 1 0.019605 -0.004292 -0.005189 0.000000 0.000000 0.000000
# 2 -0.004292 0.013444 -0.006304 0.000000 0.000000 0.000000
# 3 -0.005189 -0.006304 0.015173 0.000000 0.000000 0.000000
# 4 0.000000 0.000000 0.000000 0.041082 0.000000 0.000000
# 5 0.000000 0.000000 0.000000 0.000000 0.049640 0.000000
# 6 0.000000 0.000000 0.000000 0.000000 0.000000 0.035319
#
#
# Mechanical properties :
#
#
# Convention : Reuss Voigt Hill
#
# Bulk Modulus (GPa) = 60.04816 65.80676 62.92746
# Shear Modulus (GPa) = 23.65375 24.40808 24.03092
#
# Velocity S-wave (km/s) = 3.66198 3.71992 3.69106
# Velocity P-wave (km/s) = 7.20580 7.46716 7.33764
#
# Compressibility (1/GPa) = 0.01665330
#
# Stress axis : x y z
#
# Youngs Moduli (GPa) = 51.00673 74.38340 65.90829
#
# Poissons Ratio (x) = 0.31924 0.34198
# Poissons Ratio (y) = 0.21891 0.41547
# Poissons Ratio (z) = 0.26466 0.46889
#
# Static dielectric constant tensor:
#      x y z
#    x 3.343730 0.000000 0.000000 
#    y 0.000000 3.556550 0.000000 
#    z 0.000000 0.000000 3.128990 
# 
# 
# High freq. dielectric constant tensor:
#      x y z
#    x 1.689420 0.000000 0.000000 
#    y 0.000000 1.689590 0.000000 
#    z 0.000000 0.000000 1.657150 
# 
# From -- ./inp_files/21457.got.cif
#   From: 2010.03.12/outbox.cif.g09.slc.cpg/sg46_11_cif.got.tgz:21457.got - 2010.04.14 02:56:35.
