data_PCOD8191359
_publ_section_title
;
Structure prediction by ZEFSAII (Michael W. Deem and Ramdas Pophale) SiO2 
 PCOD8191359
Probable space group: I M A 2
;
_chemical_formula_sum "Si O2"
_cell_formula_units_Z 56
_cell_length_a 8.617234
_cell_length_b 18.436820
_cell_length_c 20.904005
_cell_angle_alpha 90.000000
_cell_angle_beta 90.000000
_cell_angle_gamma 90.000000
_cell_volume 3321.111088
_symmetry_space_group_name_H-M "I M A 2"
_symmetry_group_IT_number 46
_symmetry_cell_setting 'orthorhombic'
loop_
_space_group_symop_operation_xyz
x,y,z
-x,-y,z
1/2-x,y,z
1/2+x,-y,z
1/2+x,1/2+y,1/2+z
1/2-x,1/2-y,1/2+z
-x,1/2+y,1/2+z
x,1/2-y,1/2+z
loop_
_atom_site_type_symbol
_atom_site_label
_atom_site_fract_x
_atom_site_fract_y
_atom_site_fract_z
Si Si1 0.078280 0.210065 0.324070
Si Si2 0.580920 0.713269 0.188746
Si Si3 0.066697 0.576705 0.762751
Si Si4 0.935663 0.577840 0.257191
Si Si5 0.935287 0.856745 0.136598
Si Si6 0.067225 0.653469 0.379262
Si Si7 0.066075 0.420374 0.500770
O O1 0.250000 0.196597 0.353395
O O2 0.097357 0.247137 0.256099
O O3 0.988967 0.134385 0.315751
O O4 0.980780 0.262909 0.369961
O O5 0.750000 0.695528 0.159911
O O6 0.497741 0.635985 0.204046
O O7 0.499105 0.772784 0.142223
O O8 0.250000 0.574638 0.761430
O O9 0.000000 0.500000 0.785018
O O10 0.007052 0.593616 0.691535
O O11 0.750000 0.578460 0.257163
O O12 0.000000 0.500000 0.237181
O O13 0.991392 0.599311 0.327744
O O14 0.750000 0.855738 0.145685
O O15 0.986405 0.889534 0.069302
O O16 0.250000 0.645008 0.373756
O O17 0.008628 0.631909 0.448852
O O18 0.250000 0.421581 0.493117
O O19 0.000000 0.500000 0.491514
#
# Coordination Sequence:
#
# PCOD8191359 Si02
#       7
#     8   8   8   8   8   8   8
#     4   9  17  32  50  68  92 121 155 193 236 283
#     4   7  13  27  46  65  86 115 148 186 231 278
#     4  11  20  30  47  72 100 128 158 194 238 282
#     4  10  18  29  46  68  95 123 153 191 235 281
#     4   9  18  33  50  67  91 125 163 200 238 281
#     4  11  21  33  48  67  93 124 159 195 235 282
#     4  11  22  34  48  67  93 126 163 199 236 279
#
# _framework density 16.861826000000001
#
# number of rings (size 3 to 8) (size 9 to 14) (size 15 to 20)
#    0.000    2.286    0.000    6.429    0.000    2.286 
#    0.000    0.714    0.000    0.000    0.000    1.000 
#    0.000    4.571    0.000    0.000    0.000    0.000 
#
# Total GULP energy -347000.342271 kJ/mol
# GULP energy per Si atom -12392.869367 kJ/mol
# Density = 1.682345 g / cm^3
# Si number density = 16.861826 Si / 1000 Ang^3
#
#
#
# Elastic Constant Matrix: (Units=GPa)
#
#
# Indices 1 2 3 4 5 6 
#
# 1 84.6075 37.8053 22.0394 0.0000 0.0000 0.0000
# 2 37.8053 146.3918 46.7669 0.0000 0.0000 0.0000
# 3 22.0394 46.7669 53.8292 0.0000 0.0000 0.0000
# 4 0.0000 0.0000 0.0000 27.8012 0.0000 0.0000
# 5 0.0000 0.0000 0.0000 0.0000 17.6252 0.0000
# 6 0.0000 0.0000 0.0000 0.0000 0.0000 27.8782
#
#
#
# Elastic Compliance Matrix: (Units=1/GPa)
#
#
# Indices 1 2 3 4 5 6 
#
# 1 0.013833 -0.002440 -0.003543 0.000000 0.000000 0.000000
# 2 -0.002440 0.009886 -0.007590 0.000000 0.000000 0.000000
# 3 -0.003543 -0.007590 0.026622 0.000000 0.000000 0.000000
# 4 0.000000 0.000000 0.000000 0.035970 0.000000 0.000000
# 5 0.000000 0.000000 0.000000 0.000000 0.056737 0.000000
# 6 0.000000 0.000000 0.000000 0.000000 0.000000 0.035870
#
#
# Mechanical properties :
#
#
# Convention : Reuss Voigt Hill
#
# Bulk Modulus (GPa) = 43.11513 55.33909 49.22711
# Shear Modulus (GPa) = 23.38684 26.54205 24.96445
#
# Velocity S-wave (km/s) = 3.72824 3.97179 3.85194
# Velocity P-wave (km/s) = 6.64517 7.34329 7.00293
#
# Compressibility (1/GPa) = 0.02319372
#
# Stress axis : x y z
#
# Youngs Moduli (GPa) = 72.29250 101.15529 37.56294
#
# Poissons Ratio (x) = 0.24684 0.13310
# Poissons Ratio (y) = 0.17641 0.28509
# Poissons Ratio (z) = 0.25617 0.76773
#
# Static dielectric constant tensor:
#      x y z
#    x 3.163630 0.000000 0.000000 
#    y 0.000000 3.544720 0.000000 
#    z 0.000000 0.000000 2.986120 
# 
# 
# High freq. dielectric constant tensor:
#      x y z
#    x 1.650960 0.000000 0.000000 
#    y 0.000000 1.662260 0.000000 
#    z 0.000000 0.000000 1.606390 
# 
# From -- ./inp_files/21234.got.cif
#   From: 2010.03.12/outbox.cif.g09.slc.cpg/sg46_11_cif.got.tgz:21234.got - 2010.04.14 02:56:35.
