data_PCOD8191345
_publ_section_title
;
Structure prediction by ZEFSAII (Michael W. Deem and Ramdas Pophale) SiO2 
 PCOD8191345
Probable space group: I M A 2
;
_chemical_formula_sum "Si O2"
_cell_formula_units_Z 64
_cell_length_a 8.940036
_cell_length_b 26.332269
_cell_length_c 18.160105
_cell_angle_alpha 90.000000
_cell_angle_beta 90.000000
_cell_angle_gamma 90.000000
_cell_volume 4275.096338
_symmetry_space_group_name_H-M "I M A 2"
_symmetry_group_IT_number 46
_symmetry_cell_setting 'orthorhombic'
loop_
_space_group_symop_operation_xyz
x,y,z
-x,-y,z
1/2-x,y,z
1/2+x,-y,z
1/2+x,1/2+y,1/2+z
1/2-x,1/2-y,1/2+z
-x,1/2+y,1/2+z
x,1/2-y,1/2+z
loop_
_atom_site_type_symbol
_atom_site_label
_atom_site_fract_x
_atom_site_fract_y
_atom_site_fract_z
Si Si1 0.574173 0.052182 0.232380
Si Si2 0.074657 0.551847 0.563798
Si Si3 0.418272 0.288757 0.365946
Si Si4 0.418468 0.245735 0.218847
Si Si5 0.077426 0.144369 0.311786
Si Si6 0.920939 0.198501 0.433602
Si Si7 0.079304 0.353885 0.497339
Si Si8 0.076394 0.741227 0.570259
O O1 0.750000 0.046745 0.241601
O O2 0.528672 0.063590 0.147983
O O3 0.517201 0.097656 0.282332
O O4 0.500000 0.000000 0.259540
O O5 0.250000 0.545943 0.554749
O O6 0.000000 0.500000 0.536258
O O7 0.018858 0.596956 0.512251
O O8 0.250000 0.265861 0.380931
O O9 0.438313 0.292301 0.277417
O O10 0.547286 0.252633 0.396379
O O11 0.432881 0.342066 0.409411
O O12 0.250000 0.244717 0.187222
O O13 0.454387 0.193110 0.260803
O O14 0.534021 0.255209 0.153480
O O15 0.250000 0.129042 0.312482
O O16 0.025178 0.155844 0.395914
O O17 0.750000 0.182875 0.419772
O O18 0.953672 0.208274 0.520496
O O19 0.250000 0.364530 0.520744
O O20 0.022485 0.306277 0.544763
O O21 0.250000 0.725450 0.566013
#
# Coordination Sequence:
#
# PCOD8191345 Si02
#       8
#     8   8   8   8   8   8   8   8
#     4  10  20  32  45  61  83 110 140 175 210 243
#     4  10  20  32  45  62  84 110 141 175 209 244
#     4   8  16  29  42  58  80 107 139 172 206 245
#     4   9  17  28  42  60  83 111 141 172 206 246
#     4  10  19  30  44  61  82 110 143 174 207 248
#     4   9  17  28  41  58  81 108 138 172 207 243
#     4  10  18  29  45  61  81 111 143 174 209 247
#     4  10  19  28  40  61  86 111 141 174 207 246
#
# _framework density 14.970424
#
# number of rings (size 3 to 8) (size 9 to 14) (size 15 to 20)
#    0.000    2.500    0.000    3.750    0.000    8.000 
#    0.000    0.000    0.000    0.000    0.000    0.000 
#    0.000    1.000    0.000    7.750    0.000    4.750 
#
# Total GULP energy -396651.907567 kJ/mol
# GULP energy per Si atom -12395.372111 kJ/mol
# Density = 1.493635 g / cm^3
# Si number density = 14.970424 Si / 1000 Ang^3
#
#
#
# Elastic Constant Matrix: (Units=GPa)
#
#
# Indices 1 2 3 4 5 6 
#
# 1 62.0977 27.5684 32.6806 0.0000 0.0000 0.0000
# 2 27.5684 70.5039 40.2960 0.0000 0.0000 0.0000
# 3 32.6806 40.2960 82.4488 0.0001 0.0000 0.0000
# 4 0.0000 0.0000 0.0001 20.8265 0.0000 0.0000
# 5 0.0000 0.0000 0.0000 0.0000 22.5108 0.0000
# 6 0.0000 0.0000 0.0000 0.0000 0.0000 25.1978
#
#
#
# Elastic Compliance Matrix: (Units=1/GPa)
#
#
# Indices 1 2 3 4 5 6 
#
# 1 0.021507 -0.004908 -0.006126 0.000000 0.000000 0.000000
# 2 -0.004908 0.020802 -0.008221 0.000000 0.000000 0.000000
# 3 -0.006126 -0.008221 0.018575 0.000000 0.000000 0.000000
# 4 0.000000 0.000000 0.000000 0.048016 0.000000 0.000000
# 5 0.000000 0.000000 0.000000 0.000000 0.044423 0.000000
# 6 0.000000 0.000000 0.000000 0.000000 0.000000 0.039686
#
#
# Mechanical properties :
#
#
# Convention : Reuss Voigt Hill
#
# Bulk Modulus (GPa) = 44.69739 46.23782 45.46761
# Shear Modulus (GPa) = 20.92267 21.34073 21.13170
#
# Velocity S-wave (km/s) = 3.74250 3.77971 3.76115
# Velocity P-wave (km/s) = 6.97116 7.07117 7.02134
#
# Compressibility (1/GPa) = 0.02237267
#
# Stress axis : x y z
#
# Youngs Moduli (GPa) = 46.49743 48.07339 53.83654
#
# Poissons Ratio (x) = 0.23596 0.32979
# Poissons Ratio (y) = 0.22823 0.44259
# Poissons Ratio (z) = 0.28483 0.39521
#
# Static dielectric constant tensor:
#      x y z
#    x 2.992400 0.000000 0.000000 
#    y 0.000000 2.689800 0.000000 
#    z 0.000000 0.000000 2.994090 
# 
# 
# High freq. dielectric constant tensor:
#      x y z
#    x 1.591420 0.000000 0.000000 
#    y 0.000000 1.535600 0.000000 
#    z 0.000000 0.000000 1.560520 
# 
# From -- ./inp_files/18636.got.cif
#   From: 2010.03.12/outbox.cif.g09.slc.cpg/sg46_10_cif.got.tgz:18636.got - 2010.04.14 02:56:35.
