data_PCOD8191321
_publ_section_title
;
Structure prediction by ZEFSAII (Michael W. Deem and Ramdas Pophale) SiO2 
 PCOD8191321
Probable space group: I M A 2
;
_chemical_formula_sum "Si O2"
_cell_formula_units_Z 64
_cell_length_a 9.197222
_cell_length_b 33.121463
_cell_length_c 11.652658
_cell_angle_alpha 90.000000
_cell_angle_beta 90.000000
_cell_angle_gamma 90.000000
_cell_volume 3549.696166
_symmetry_space_group_name_H-M "I M A 2"
_symmetry_group_IT_number 46
_symmetry_cell_setting 'orthorhombic'
loop_
_space_group_symop_operation_xyz
x,y,z
-x,-y,z
1/2-x,y,z
1/2+x,-y,z
1/2+x,1/2+y,1/2+z
1/2-x,1/2-y,1/2+z
-x,1/2+y,1/2+z
x,1/2-y,1/2+z
loop_
_atom_site_type_symbol
_atom_site_label
_atom_site_fract_x
_atom_site_fract_y
_atom_site_fract_z
Si Si1 0.587066 0.183025 0.250000
Si Si2 0.582573 0.827999 0.839660
Si Si3 0.083246 0.728159 0.176323
Si Si4 0.418987 0.628305 0.540140
Si Si5 0.911178 0.610928 0.133964
Si Si6 0.082294 0.315779 0.979886
Si Si7 0.919169 0.039937 0.973027
Si Si8 0.581927 0.461213 0.207480
O O1 0.750000 0.179583 0.301653
O O2 0.573519 0.223626 0.175744
O O3 0.555335 0.144763 0.168297
O O4 0.470080 0.184527 0.350055
O O5 0.750000 0.815805 0.861999
O O6 0.498249 0.789195 0.788966
O O7 0.569431 0.863416 0.748366
O O8 0.511639 0.843418 0.956516
O O9 0.250000 0.713078 0.178706
O O10 0.009635 0.714675 0.057794
O O11 0.250000 0.631295 0.503121
O O12 0.469053 0.581198 0.536813
O O13 0.750000 0.591698 0.131413
O O14 0.031352 0.576359 0.131390
O O15 0.937599 0.638641 0.023744
O O16 0.250000 0.302247 0.986877
O O17 0.750000 0.031763 0.991276
O O18 0.958958 0.046348 0.839901
O O19 0.000000 0.000000 0.021960
O O20 0.500000 0.500000 0.159216
O O21 0.750000 0.468117 0.188510
#
# Coordination Sequence:
#
# PCOD8191321 Si02
#       8
#     8   8   8   8   8   8   8   8
#     4  10  23  39  57  79 106 144 187 229 270 323
#     4  10  20  33  52  80 109 141 179 221 273 324
#     4  10  21  37  57  79 107 143 183 225 273 326
#     4  10  20  36  55  80 112 146 186 229 272 327
#     4   9  18  33  51  73 104 139 173 216 265 318
#     4  10  22  39  57  79 108 140 180 227 275 325
#     4   9  18  31  50  77 110 144 178 220 274 329
#     4  10  18  28  47  77 109 141 173 213 267 322
#
# _framework density 18.029712
#
# number of rings (size 3 to 8) (size 9 to 14) (size 15 to 20)
#    0.000    2.250    1.250    2.250    1.750    5.000 
#    0.000    0.000    0.000    0.750    0.000    3.500 
#    0.000    0.000    0.000    0.000    0.000    0.000 
#
# Total GULP energy -396830.850492 kJ/mol
# GULP energy per Si atom -12400.964078 kJ/mol
# Density = 1.798868 g / cm^3
# Si number density = 18.029712 Si / 1000 Ang^3
#
#
#
# Elastic Constant Matrix: (Units=GPa)
#
#
# Indices 1 2 3 4 5 6 
#
# 1 105.0495 48.9328 41.2533 -0.0004 -0.0001 0.0000
# 2 48.9328 99.8107 30.9262 0.0008 -0.0001 0.0000
# 3 41.2533 30.9262 71.9608 0.0039 0.0007 0.0002
# 4 -0.0004 0.0008 0.0039 22.0299 0.0005 0.0000
# 5 -0.0001 -0.0001 0.0007 0.0005 26.7007 0.0006
# 6 0.0000 0.0000 0.0002 0.0000 0.0006 30.9556
#
#
#
# Elastic Compliance Matrix: (Units=1/GPa)
#
#
# Indices 1 2 3 4 5 6 
#
# 1 0.014256 -0.005141 -0.005963 0.000001 0.000000 0.000000
# 2 -0.005141 0.013412 -0.002817 0.000000 0.000000 0.000000
# 3 -0.005963 -0.002817 0.018525 -0.000003 -0.000001 0.000000
# 4 0.000001 0.000000 -0.000003 0.045393 -0.000001 0.000000
# 5 0.000000 0.000000 -0.000001 -0.000001 0.037452 -0.000001
# 6 0.000000 0.000000 0.000000 0.000000 -0.000001 0.032304
#
#
# Mechanical properties :
#
#
# Convention : Reuss Voigt Hill
#
# Bulk Modulus (GPa) = 54.49155 57.67175 56.08165
# Shear Modulus (GPa) = 25.60133 26.31781 25.95957
#
# Velocity S-wave (km/s) = 3.77231 3.82474 3.79861
# Velocity P-wave (km/s) = 7.01873 7.18062 7.10014
#
# Compressibility (1/GPa) = 0.01835147
#
# Stress axis : x y z
#
# Youngs Moduli (GPa) = 70.14634 74.55824 53.97998
#
# Poissons Ratio (x) = 0.38334 0.32188
# Poissons Ratio (y) = 0.36065 0.15205
# Poissons Ratio (z) = 0.41828 0.21001
#
# Static dielectric constant tensor:
#      x y z
#    x 3.434130 0.000000 0.000000 
#    y 0.000000 3.441820 0.000000 
#    z 0.000000 0.000000 3.009000 
# 
# 
# High freq. dielectric constant tensor:
#      x y z
#    x 1.708070 0.000000 0.000000 
#    y 0.000000 1.700460 0.000000 
#    z 0.000000 0.000000 1.665610 
# 
# From -- ./inp_files/9694.got.cif
#   From: 2010.03.12/outbox.cif.g09.slc.cpg/sg46_5_cif.got.tgz:9694.got - 2010.04.14 02:56:35.
