data_PCOD8191917
_publ_section_title
;
Structure prediction by ZEFSAII (Michael W. Deem and Ramdas Pophale) SiO2 
 PCOD8191917
Probable space group: I M A 2
;
_chemical_formula_sum "Si O2"
_cell_formula_units_Z 64
_cell_length_a 15.226710
_cell_length_b 23.666591
_cell_length_c 9.318419
_cell_angle_alpha 90.000000
_cell_angle_beta 90.000000
_cell_angle_gamma 90.000000
_cell_volume 3358.025706
_symmetry_space_group_name_H-M "I M A 2"
_symmetry_group_IT_number 46
_symmetry_cell_setting 'orthorhombic'
loop_
_space_group_symop_operation_xyz
x,y,z
-x,-y,z
1/2-x,y,z
1/2+x,-y,z
1/2+x,1/2+y,1/2+z
1/2-x,1/2-y,1/2+z
-x,1/2+y,1/2+z
x,1/2-y,1/2+z
loop_
_atom_site_type_symbol
_atom_site_label
_atom_site_fract_x
_atom_site_fract_y
_atom_site_fract_z
Si Si1 0.145758 0.551956 0.774510
Si Si2 0.508565 0.680788 0.264847
Si Si3 0.448290 0.754737 0.027214
Si Si4 0.599887 0.005641 0.561164
Si Si5 0.150488 0.896836 0.749225
Si Si6 0.854093 0.487177 0.472203
Si Si7 0.354432 0.818060 0.282679
Si Si8 0.650652 0.915212 0.771916
O O1 0.250000 0.550652 0.777034
O O2 0.109365 0.522618 0.630213
O O3 0.113146 0.616677 0.788082
O O4 0.106291 0.508734 0.890456
O O5 0.518392 0.724014 0.132108
O O6 0.509328 0.707347 0.423483
O O7 0.410911 0.657018 0.235917
O O8 0.587830 0.637578 0.252519
O O9 0.384868 0.791650 0.130251
O O10 0.392932 0.713217 0.923013
O O11 0.652057 0.952565 0.626444
O O12 0.500000 0.000000 0.613458
O O13 0.644637 0.064504 0.608263
O O14 0.250000 0.875122 0.771172
O O15 0.112978 0.934095 0.879740
O O16 0.750000 0.487456 0.462263
O O17 0.886716 0.546211 0.403052
O O18 0.250000 0.813920 0.289399
O O19 0.750000 0.894002 0.800701
#
# Coordination Sequence:
#
# PCOD8191917 Si02
#       8
#     8   8   8   8   8   8   8   8
#     4  10  19  33  51  79 118 149 178 221 278 334
#     4  11  22  40  58  82 109 146 189 234 291 327
#     4  10  23  37  54  79 114 141 193 249 271 325
#     4  11  20  34  52  86 118 146 181 220 271 334
#     4  10  19  34  57  82 114 151 185 216 262 335
#     4   8  17  33  53  82 114 143 180 223 265 327
#     4  10  20  35  56  80 114 158 190 223 277 331
#     4  10  21  40  63  82 107 145 192 234 274 335
#
# _framework density 19.058817000000001
#
# number of rings (size 3 to 8) (size 9 to 14) (size 15 to 20)
#    0.000    2.000    1.250    3.750    0.000    5.000 
#    4.500    0.625    0.000    0.000    0.000    0.000 
#    0.000    0.000    0.000    0.000    0.000    0.000 
#
# Total GULP energy -396683.326405 kJ/mol
# GULP energy per Si atom -12396.353950 kJ/mol
# Density = 1.901544 g / cm^3
# Si number density = 19.058817 Si / 1000 Ang^3
#
#
#
# Elastic Constant Matrix: (Units=GPa)
#
#
# Indices 1 2 3 4 5 6 
#
# 1 61.4712 34.1410 19.3565 0.0000 0.0000 0.0000
# 2 34.1410 91.1147 45.1296 0.0002 0.0001 0.0000
# 3 19.3565 45.1296 142.0611 -0.0003 0.0001 0.0000
# 4 0.0000 0.0002 -0.0003 17.1481 -0.0001 0.0000
# 5 0.0000 0.0001 0.0001 -0.0001 16.4037 0.0000
# 6 0.0000 0.0000 0.0000 0.0000 0.0000 20.2211
#
#
#
# Elastic Compliance Matrix: (Units=1/GPa)
#
#
# Indices 1 2 3 4 5 6 
#
# 1 0.020564 -0.007497 -0.000420 0.000000 0.000000 0.000000
# 2 -0.007497 0.015758 -0.003984 0.000000 0.000000 0.000000
# 3 -0.000420 -0.003984 0.008362 0.000000 0.000000 0.000000
# 4 0.000000 0.000000 0.000000 0.058316 0.000000 0.000000
# 5 0.000000 0.000000 0.000000 0.000000 0.060962 0.000000
# 6 0.000000 0.000000 0.000000 0.000000 0.000000 0.049453
#
#
# Mechanical properties :
#
#
# Convention : Reuss Voigt Hill
#
# Bulk Modulus (GPa) = 47.89175 54.65566 51.27371
# Shear Modulus (GPa) = 20.47678 23.82256 22.14967
#
# Velocity S-wave (km/s) = 3.28136 3.53930 3.41277
# Velocity P-wave (km/s) = 6.28803 6.74105 6.51848
#
# Compressibility (1/GPa) = 0.02088042
#
# Stress axis : x y z
#
# Youngs Moduli (GPa) = 48.62848 63.46011 119.58520
#
# Poissons Ratio (x) = 0.47578 0.05025
# Poissons Ratio (y) = 0.36458 0.47648
# Poissons Ratio (z) = 0.02044 0.25285
#
# Static dielectric constant tensor:
#      x y z
#    x 3.158430 0.000000 0.000000 
#    y 0.000000 3.455900 0.000000 
#    z 0.000000 0.000000 3.763220 
# 
# 
# High freq. dielectric constant tensor:
#      x y z
#    x 1.715960 0.000000 0.000000 
#    y 0.000000 1.731200 0.000000 
#    z 0.000000 0.000000 1.755560 
# 
# From -- ./inp_files/6100.got.cif
#   From: 2010.03.12/outbox.cif.g09.slc.cpg/sg46_4_cif.got.tgz:6100.got - 2010.04.14 02:56:35.
