data_PCOD8191218
_publ_section_title
;
Structure prediction by ZEFSAII (Michael W. Deem and Ramdas Pophale) SiO2 
 PCOD8191218
Probable space group: I M A 2
;
_chemical_formula_sum "Si O2"
_cell_formula_units_Z 64
_cell_length_a 8.789229
_cell_length_b 22.921296
_cell_length_c 19.056516
_cell_angle_alpha 90.000000
_cell_angle_beta 90.000000
_cell_angle_gamma 90.000000
_cell_volume 3839.135614
_symmetry_space_group_name_H-M "I M A 2"
_symmetry_group_IT_number 46
_symmetry_cell_setting 'orthorhombic'
loop_
_space_group_symop_operation_xyz
x,y,z
-x,-y,z
1/2-x,y,z
1/2+x,-y,z
1/2+x,1/2+y,1/2+z
1/2-x,1/2-y,1/2+z
-x,1/2+y,1/2+z
x,1/2-y,1/2+z
loop_
_atom_site_type_symbol
_atom_site_label
_atom_site_fract_x
_atom_site_fract_y
_atom_site_fract_z
Si Si1 0.074300 0.746447 0.187930
Si Si2 0.572920 0.261065 0.341991
Si Si3 0.570843 0.937148 0.329473
Si Si4 0.427930 0.825286 0.976473
Si Si5 0.428595 0.283908 0.049447
Si Si6 0.574753 0.117688 0.197446
Si Si7 0.430862 0.650503 0.928483
Si Si8 0.071485 0.939157 0.053741
O O1 0.250000 0.727991 0.180360
O O2 0.004615 0.728868 0.264420
O O3 0.054863 0.815354 0.176008
O O4 0.977717 0.711231 0.130574
O O5 0.750000 0.249608 0.330630
O O6 0.541345 0.316145 0.393166
O O7 0.508118 0.202583 0.378191
O O8 0.750000 0.942591 0.337165
O O9 0.530048 0.896695 0.263404
O O10 0.502175 0.909572 0.400522
O O11 0.500000 0.000000 0.316745
O O12 0.250000 0.814601 0.994159
O O13 0.522450 0.779119 0.020994
O O14 0.480220 0.890107 0.997632
O O15 0.250000 0.291779 0.042196
O O16 0.510214 0.335991 0.006750
O O17 0.750000 0.104419 0.217208
O O18 0.518952 0.079030 0.131691
O O19 0.250000 0.645771 0.929443
O O20 0.250000 0.946422 0.051915
O O21 0.000000 0.000000 0.030648
#
# Coordination Sequence:
#
# PCOD8191218 Si02
#       8
#     8   8   8   8   8   8   8   8
#     4  10  17  31  51  73  98 131 167 200 245 302
#     4   8  15  28  52  73  90 119 162 203 245 297
#     4  12  24  36  51  73 102 137 175 214 252 298
#     4   9  17  33  50  68  92 128 166 207 250 295
#     4  11  21  31  47  75 103 129 161 204 253 302
#     4  10  19  33  49  70  99 135 175 211 245 292
#     4  10  19  36  55  72  96 132 170 210 252 297
#     4  10  20  32  47  66  95 131 172 209 244 289
#
# _framework density 16.670418999999999
#
# number of rings (size 3 to 8) (size 9 to 14) (size 15 to 20)
#    0.000    2.000    2.500    3.750    0.000    2.500 
#    0.000    0.625    0.000    0.000    0.000    0.875 
#    0.000    4.000    0.000    0.000    0.000    0.000 
#
# Total GULP energy -396780.418540 kJ/mol
# GULP energy per Si atom -12399.388079 kJ/mol
# Density = 1.663248 g / cm^3
# Si number density = 16.670419 Si / 1000 Ang^3
#
#
#
# Elastic Constant Matrix: (Units=GPa)
#
#
# Indices 1 2 3 4 5 6 
#
# 1 77.1476 20.6004 31.0099 0.0000 0.0000 0.0000
# 2 20.6004 43.1943 22.3989 0.0000 0.0000 0.0000
# 3 31.0099 22.3989 98.8939 0.0000 0.0000 0.0000
# 4 0.0000 0.0000 0.0000 25.7093 0.0000 0.0000
# 5 0.0000 0.0000 0.0000 0.0000 20.2108 0.0000
# 6 0.0000 0.0000 0.0000 0.0000 0.0000 22.5925
#
#
#
# Elastic Compliance Matrix: (Units=1/GPa)
#
#
# Indices 1 2 3 4 5 6 
#
# 1 0.015977 -0.005690 -0.003721 0.000000 0.000000 0.000000
# 2 -0.005690 0.028259 -0.004616 0.000000 0.000000 0.000000
# 3 -0.003721 -0.004616 0.012324 0.000000 0.000000 0.000000
# 4 0.000000 0.000000 0.000000 0.038896 0.000000 0.000000
# 5 0.000000 0.000000 0.000000 0.000000 0.049478 0.000000
# 6 0.000000 0.000000 0.000000 0.000000 0.000000 0.044262
#
#
# Mechanical properties :
#
#
# Convention : Reuss Voigt Hill
#
# Bulk Modulus (GPa) = 35.08143 40.80601 37.94372
# Shear Modulus (GPa) = 22.05027 23.38431 22.71729
#
# Velocity S-wave (km/s) = 3.64086 3.74938 3.69552
# Velocity P-wave (km/s) = 6.22610 6.57838 6.40466
#
# Compressibility (1/GPa) = 0.02850511
#
# Stress axis : x y z
#
# Youngs Moduli (GPa) = 62.58850 35.38716 81.14107
#
# Poissons Ratio (x) = 0.20137 0.30194
# Poissons Ratio (y) = 0.35615 0.37456
# Poissons Ratio (z) = 0.23290 0.16335
#
# Static dielectric constant tensor:
#      x y z
#    x 2.976720 0.000000 0.000000 
#    y 0.000000 3.086750 0.000000 
#    z 0.000000 0.000000 3.352590 
# 
# 
# High freq. dielectric constant tensor:
#      x y z
#    x 1.630850 0.000000 0.000000 
#    y 0.000000 1.611680 0.000000 
#    z 0.000000 0.000000 1.643620 
# 
# From -- ./inp_files/18660.got.cif
#   From: 2010.03.12/outbox.cif.g09.slc.cpg/sg46_10_cif.got.tgz:18660.got - 2010.04.14 02:56:35.
