data_PCOD8191012
_publ_section_title
;
Structure prediction by ZEFSAII (Michael W. Deem and Ramdas Pophale) SiO2 
 PCOD8191012
Probable space group: I B A 2
;
_chemical_formula_sum "Si O2"
_cell_formula_units_Z 60
_cell_length_a 16.269832
_cell_length_b 9.432277
_cell_length_c 17.052791
_cell_angle_alpha 90.000000
_cell_angle_beta 90.000000
_cell_angle_gamma 90.000000
_cell_volume 2616.947946
_symmetry_space_group_name_H-M "I B A 2"
_symmetry_group_IT_number 45
_symmetry_cell_setting 'orthorhombic'
loop_
_space_group_symop_operation_xyz
x,y,z
-x,-y,z
-x,y,1/2+z
x,-y,1/2+z
1/2+x,1/2+y,1/2+z
1/2-x,1/2-y,1/2+z
1/2-x,1/2+y,z
1/2+x,1/2-y,z
loop_
_atom_site_type_symbol
_atom_site_label
_atom_site_fract_x
_atom_site_fract_y
_atom_site_fract_z
Si Si1 0.285709 0.681602 0.004000
Si Si2 0.921637 0.624170 0.978682
Si Si3 0.967801 0.846695 0.414564
Si Si4 0.087933 0.043619 0.572620
Si Si5 0.282968 0.291884 0.156206
Si Si6 0.500000 0.000000 0.621261
Si Si7 0.840043 0.518717 0.720091
Si Si8 0.853928 0.382675 0.886712
O O1 0.360517 0.580908 0.030542
O O2 0.224046 0.703350 0.075785
O O3 0.325464 0.835245 0.987351
O O4 0.235048 0.628930 0.928180
O O5 0.920104 0.463718 0.943507
O O6 0.955647 0.739674 0.916983
O O7 0.967035 0.624849 0.063640
O O8 0.930838 0.850635 0.501759
O O9 0.894138 0.771601 0.364893
O O10 0.000000 0.000000 0.382612
O O11 0.136375 0.111077 0.645536
O O12 0.000000 0.000000 0.608922
O O13 0.206325 0.392374 0.174652
O O14 0.292936 0.170337 0.222024
O O15 0.426746 0.949932 0.678042
O O16 0.846665 0.475850 0.809693
#
# Coordination Sequence:
#
# PCOD8191012 Si02
#       8
#     8   8   8   8   8   4   8   8
#     4  12  23  41  76 106 140 195 250 311 368 463
#     4  12  23  43  75 103 139 188 252 308 371 448
#     4  11  22  41  72 105 139 180 247 308 367 443
#     4  11  22  40  74 114 140 182 260 323 369 445
#     4  12  24  48  69 108 146 203 245 312 388 463
#     4  12  24  46  76 110 140 200 252 318 370 472
#     4  12  30  45  74 104 160 193 251 315 402 461
#     4  12  28  45  70 108 151 197 246 313 394 466
#
# _framework density 22.927472000000002
#
# number of rings (size 3 to 8) (size 9 to 14) (size 15 to 20)
#    0.000    0.267    8.000    2.400    3.733    0.000 
#    0.000    0.000    0.000    0.800    0.000    0.000 
#    0.000    0.000    0.000    0.000    0.000    0.000 
#
# Total GULP energy -371827.959109 kJ/mol
# GULP energy per Si atom -12394.265304 kJ/mol
# Density = 2.287529 g / cm^3
# Si number density = 22.927472 Si / 1000 Ang^3
#
#
#
# Elastic Constant Matrix: (Units=GPa)
#
#
# Indices 1 2 3 4 5 6 
#
# 1 135.2690 56.8577 45.7841 0.0000 0.0000 0.0000
# 2 56.8577 133.8080 33.4327 0.0000 0.0000 0.0000
# 3 45.7841 33.4327 96.7108 0.0000 0.0000 0.0000
# 4 0.0000 0.0000 0.0000 30.5036 0.0000 0.0000
# 5 0.0000 0.0000 0.0000 0.0000 25.9956 0.0000
# 6 0.0000 0.0000 0.0000 0.0000 0.0000 47.3213
#
#
#
# Elastic Compliance Matrix: (Units=1/GPa)
#
#
# Indices 1 2 3 4 5 6 
#
# 1 0.010018 -0.003362 -0.003580 0.000000 0.000000 0.000000
# 2 -0.003362 0.009308 -0.001626 0.000000 0.000000 0.000000
# 3 -0.003580 -0.001626 0.012597 0.000000 0.000000 0.000000
# 4 0.000000 0.000000 0.000000 0.032783 0.000000 0.000000
# 5 0.000000 0.000000 0.000000 0.000000 0.038468 0.000000
# 6 0.000000 0.000000 0.000000 0.000000 0.000000 0.021132
#
#
# Mechanical properties :
#
#
# Convention : Reuss Voigt Hill
#
# Bulk Modulus (GPa) = 67.63106 70.88188 69.25647
# Shear Modulus (GPa) = 34.15949 36.07833 35.11891
#
# Velocity S-wave (km/s) = 3.86410 3.97115 3.91799
# Velocity P-wave (km/s) = 7.03351 7.21176 7.12319
#
# Compressibility (1/GPa) = 0.01478611
#
# Stress axis : x y z
#
# Youngs Moduli (GPa) = 99.82343 107.43031 79.38285
#
# Poissons Ratio (x) = 0.36120 0.28421
# Poissons Ratio (y) = 0.33562 0.12909
# Poissons Ratio (z) = 0.35739 0.17470
#
# Static dielectric constant tensor:
#      x y z
#    x 4.342490 0.000000 0.000000 
#    y 0.000000 4.306250 0.000000 
#    z 0.000000 0.000000 3.650630 
# 
# 
# High freq. dielectric constant tensor:
#      x y z
#    x 1.925110 0.000000 0.000000 
#    y 0.000000 1.920080 0.000000 
#    z 0.000000 0.000000 1.861070 
# 
# From -- ./inp_files/8360.got.cif
#   From: 2010.03.12/outbox.cif.g09.slc.cpg/sg45_5_cif.got.tgz:8360.got - 2010.04.14 02:50:11.
