data_PCOD8191406
_publ_section_title
;
Structure prediction by ZEFSAII (Michael W. Deem and Ramdas Pophale) SiO2 
 PCOD8191406
Probable space group: I M A 2
;
_chemical_formula_sum "Si O2"
_cell_formula_units_Z 64
_cell_length_a 9.061891
_cell_length_b 14.131345
_cell_length_c 29.014593
_cell_angle_alpha 90.000000
_cell_angle_beta 90.000000
_cell_angle_gamma 90.000000
_cell_volume 3715.513266
_symmetry_space_group_name_H-M "I M A 2"
_symmetry_group_IT_number 46
_symmetry_cell_setting 'orthorhombic'
loop_
_space_group_symop_operation_xyz
x,y,z
-x,-y,z
1/2-x,y,z
1/2+x,-y,z
1/2+x,1/2+y,1/2+z
1/2-x,1/2-y,1/2+z
-x,1/2+y,1/2+z
x,1/2-y,1/2+z
loop_
_atom_site_type_symbol
_atom_site_label
_atom_site_fract_x
_atom_site_fract_y
_atom_site_fract_z
Si Si1 0.588833 0.913133 0.421710
Si Si2 0.081896 0.771793 0.270198
Si Si3 0.073303 0.897574 0.183842
Si Si4 0.917878 0.280233 0.412851
Si Si5 0.579738 0.097939 0.003966
Si Si6 0.907893 0.582548 0.816284
Si Si7 0.571989 0.896549 0.091946
Si Si8 0.079504 0.900920 0.826087
O O1 0.750000 0.903769 0.445547
O O2 0.506955 0.813983 0.423975
O O3 0.613685 0.943063 0.369118
O O4 0.500000 0.000000 0.445921
O O5 0.250000 0.798373 0.279108
O O6 0.032010 0.817478 0.221801
O O7 0.056655 0.659237 0.278192
O O8 0.991273 0.818579 0.311767
O O9 0.250000 0.909695 0.177870
O O10 0.997656 0.852007 0.138283
O O11 0.000000 0.000000 0.195031
O O12 0.750000 0.251279 0.401472
O O13 0.929606 0.340867 0.458573
O O14 0.982267 0.341410 0.369946
O O15 0.750000 0.079973 0.018543
O O16 0.500000 0.000000 0.992228
O O17 0.491185 0.152906 0.045445
O O18 0.750000 0.588080 0.791052
O O19 0.000000 0.500000 0.790674
O O20 0.750000 0.896303 0.093779
O O21 0.500000 0.000000 0.088697
O O22 0.250000 0.923355 0.834797
O O23 0.000000 0.000000 0.820069
#
# Coordination Sequence:
#
# PCOD8191406 Si02
#       8
#     8   8   8   8   8   8   8   8
#     4  10  20  32  48  69  95 128 164 202 244 289
#     4  10  20  33  49  68  95 129 164 202 243 287
#     4  10  19  31  48  72 100 131 161 197 242 295
#     4  10  20  34  52  72  99 132 169 208 247 290
#     4  10  19  31  49  74 101 134 168 206 248 293
#     4  10  19  29  44  66  92 124 159 196 236 280
#     4  10  18  30  48  70  99 132 160 199 245 295
#     4  10  21  36  51  69  96 130 167 208 248 287
#
# _framework density 17.225076999999999
#
# number of rings (size 3 to 8) (size 9 to 14) (size 15 to 20)
#    0.000    2.000    1.250    4.875    0.000    5.000 
#    0.000    0.000    0.000    0.000    0.000    0.875 
#    0.000    2.000    0.000    0.000    0.000    0.000 
#
# Total GULP energy -396447.824042 kJ/mol
# GULP energy per Si atom -12388.994501 kJ/mol
# Density = 1.718587 g / cm^3
# Si number density = 17.225077 Si / 1000 Ang^3
#
#
#
# Elastic Constant Matrix: (Units=GPa)
#
#
# Indices 1 2 3 4 5 6 
#
# 1 114.3709 54.8706 33.1301 0.0000 0.0000 0.0000
# 2 54.8706 102.3051 30.7951 0.0000 0.0000 0.0000
# 3 33.1301 30.7951 76.5009 0.0000 0.0000 0.0000
# 4 0.0000 0.0000 0.0000 15.2763 0.0000 0.0000
# 5 0.0000 0.0000 0.0000 0.0000 22.8983 0.0000
# 6 0.0000 0.0000 0.0000 0.0000 0.0000 28.4931
#
#
#
# Elastic Compliance Matrix: (Units=1/GPa)
#
#
# Indices 1 2 3 4 5 6 
#
# 1 0.012371 -0.005715 -0.003057 0.000000 0.000000 0.000000
# 2 -0.005715 0.013762 -0.003065 0.000000 0.000000 0.000000
# 3 -0.003057 -0.003065 0.015629 0.000000 0.000000 0.000000
# 4 0.000000 0.000000 0.000000 0.065461 0.000000 0.000000
# 5 0.000000 0.000000 0.000000 0.000000 0.043671 0.000000
# 6 0.000000 0.000000 0.000000 0.000000 0.000000 0.035096
#
#
# Mechanical properties :
#
#
# Convention : Reuss Voigt Hill
#
# Bulk Modulus (GPa) = 55.28227 58.97424 57.12826
# Shear Modulus (GPa) = 23.18097 24.95895 24.06996
#
# Velocity S-wave (km/s) = 3.67245 3.81069 3.74221
# Velocity P-wave (km/s) = 7.08140 7.32622 7.20485
#
# Compressibility (1/GPa) = 0.01808898
#
# Stress axis : x y z
#
# Youngs Moduli (GPa) = 80.83616 72.66180 63.98187
#
# Poissons Ratio (x) = 0.41525 0.19559
# Poissons Ratio (y) = 0.46196 0.19611
# Poissons Ratio (z) = 0.24711 0.22272
#
# Static dielectric constant tensor:
#      x y z
#    x 3.566490 0.000000 0.000000 
#    y 0.000000 2.993840 0.000000 
#    z 0.000000 0.000000 3.526120 
# 
# 
# High freq. dielectric constant tensor:
#      x y z
#    x 1.682380 0.000000 0.000000 
#    y 0.000000 1.634550 0.000000 
#    z 0.000000 0.000000 1.647610 
# 
# From -- ./inp_files/25278.got.cif
#   From: 2010.03.12/outbox.cif.g09.slc.cpg/sg46_13_cif.got.tgz:25278.got - 2010.04.14 02:56:35.
