data_PCOD8191082
_publ_section_title
;
Structure prediction by ZEFSAII (Michael W. Deem and Ramdas Pophale) SiO2 
 PCOD8191082
Probable space group: I B A 2
;
_chemical_formula_sum "Si O2"
_cell_formula_units_Z 56
_cell_length_a 20.350631
_cell_length_b 13.196819
_cell_length_c 9.411303
_cell_angle_alpha 90.000000
_cell_angle_beta 90.000000
_cell_angle_gamma 90.000000
_cell_volume 2527.533356
_symmetry_space_group_name_H-M "I B A 2"
_symmetry_group_IT_number 45
_symmetry_cell_setting 'orthorhombic'
loop_
_space_group_symop_operation_xyz
x,y,z
-x,-y,z
-x,y,1/2+z
x,-y,1/2+z
1/2+x,1/2+y,1/2+z
1/2-x,1/2-y,1/2+z
1/2-x,1/2+y,z
1/2+x,1/2-y,z
loop_
_atom_site_type_symbol
_atom_site_label
_atom_site_fract_x
_atom_site_fract_y
_atom_site_fract_z
Si Si1 0.128621 0.443543 0.300430
Si Si2 0.141771 0.709540 0.031552
Si Si3 0.538787 0.405438 0.330182
Si Si4 0.999036 0.225953 0.577322
Si Si5 0.060007 0.430906 0.016414
Si Si6 0.816973 0.082637 0.927330
Si Si7 0.239212 0.544165 0.155844
O O1 0.122579 0.334487 0.376349
O O2 0.073223 0.454429 0.181095
O O3 0.120750 0.535785 0.415266
O O4 0.200082 0.450398 0.226382
O O5 0.183527 0.812161 0.014224
O O6 0.072831 0.731874 0.113008
O O7 0.185522 0.626514 0.109091
O O8 0.500000 0.500000 0.263912
O O9 0.538852 0.313982 0.216618
O O10 0.501564 0.367090 0.469645
O O11 0.609597 0.445313 0.379997
O O12 0.955582 0.312621 0.501754
O O13 0.000000 0.500000 0.964567
O O14 0.780476 0.097549 0.778590
O O15 0.784875 0.995040 0.026304
#
# Coordination Sequence:
#
# PCOD8191082 Si02
#       7
#     8   8   8   8   8   8   8
#     4  12  23  43  65 104 148 182 235 289 359 439
#     4  11  25  46  69 107 144 181 246 298 363 444
#     4  11  27  50  74 105 140 186 250 301 361 432
#     4  11  25  45  72 108 142 186 235 301 370 433
#     4  12  23  37  69 101 149 184 227 288 368 434
#     4  11  28  47  75 102 142 191 246 298 363 441
#     4  12  25  49  71 102 143 194 236 304 364 432
#
# _framework density 22.155989000000002
#
# number of rings (size 3 to 8) (size 9 to 14) (size 15 to 20)
#    0.000    0.571    4.286    2.571   12.000    0.000 
#    2.571    0.000    0.000    0.000    0.000    0.000 
#    0.000    0.000    0.000    0.000    0.000    0.000 
#
# Total GULP energy -347163.772147 kJ/mol
# GULP energy per Si atom -12398.706148 kJ/mol
# Density = 2.210556 g / cm^3
# Si number density = 22.155989 Si / 1000 Ang^3
#
#
#
# Elastic Constant Matrix: (Units=GPa)
#
#
# Indices 1 2 3 4 5 6 
#
# 1 79.9440 35.8813 34.6683 0.0000 0.0000 0.0000
# 2 35.8813 80.5866 5.9236 0.0000 0.0000 0.0000
# 3 34.6683 5.9236 88.5014 0.0000 0.0000 0.0000
# 4 0.0000 0.0000 0.0000 29.8553 0.0000 0.0000
# 5 0.0000 0.0000 0.0000 0.0000 44.0796 0.0000
# 6 0.0000 0.0000 0.0000 0.0000 0.0000 35.8133
#
#
#
# Elastic Compliance Matrix: (Units=1/GPa)
#
#
# Indices 1 2 3 4 5 6 
#
# 1 0.019114 -0.007999 -0.006952 0.000000 0.000000 0.000000
# 2 -0.007999 0.015818 0.002075 0.000000 0.000000 0.000000
# 3 -0.006952 0.002075 0.013884 0.000000 0.000000 0.000000
# 4 0.000000 0.000000 0.000000 0.033495 0.000000 0.000000
# 5 0.000000 0.000000 0.000000 0.000000 0.022686 0.000000
# 6 0.000000 0.000000 0.000000 0.000000 0.000000 0.027923
#
#
# Mechanical properties :
#
#
# Convention : Reuss Voigt Hill
#
# Bulk Modulus (GPa) = 43.36024 44.66426 44.01225
# Shear Modulus (GPa) = 30.05523 33.45356 31.75440
#
# Velocity S-wave (km/s) = 3.68710 3.88997 3.78990
# Velocity P-wave (km/s) = 6.14323 6.35442 6.24971
#
# Compressibility (1/GPa) = 0.02306261
#
# Stress axis : x y z
#
# Youngs Moduli (GPa) = 52.31781 63.21801 72.02710
#
# Poissons Ratio (x) = 0.50571 0.50073
# Poissons Ratio (y) = 0.41852 -0.14945
# Poissons Ratio (z) = 0.36371 -0.13117
#
# Static dielectric constant tensor:
#      x y z
#    x 4.222620 0.000000 0.000000 
#    y 0.000000 4.114570 0.000000 
#    z 0.000000 0.000000 4.037690 
# 
# 
# High freq. dielectric constant tensor:
#      x y z
#    x 1.870980 0.000000 0.000000 
#    y 0.000000 1.867040 0.000000 
#    z 0.000000 0.000000 1.880780 
# 
# From -- ./inp_files/2343.got.cif
#   From: 2010.03.12/outbox.cif.g09.slc.cpg/sg45_2_cif.got.tgz:2343.got - 2010.04.14 02:50:11.
