data_PCOD8191214
_publ_section_title
;
Structure prediction by ZEFSAII (Michael W. Deem and Ramdas Pophale) SiO2 
 PCOD8191214
Probable space group: I M A 2
;
_chemical_formula_sum "Si O2"
_cell_formula_units_Z 64
_cell_length_a 9.028453
_cell_length_b 23.245983
_cell_length_c 18.887221
_cell_angle_alpha 90.000000
_cell_angle_beta 90.000000
_cell_angle_gamma 90.000000
_cell_volume 3963.960512
_symmetry_space_group_name_H-M "I M A 2"
_symmetry_group_IT_number 46
_symmetry_cell_setting 'orthorhombic'
loop_
_space_group_symop_operation_xyz
x,y,z
-x,-y,z
1/2-x,y,z
1/2+x,-y,z
1/2+x,1/2+y,1/2+z
1/2-x,1/2-y,1/2+z
-x,1/2+y,1/2+z
x,1/2-y,1/2+z
loop_
_atom_site_type_symbol
_atom_site_label
_atom_site_fract_x
_atom_site_fract_y
_atom_site_fract_z
Si Si1 0.423619 0.660261 0.072980
Si Si2 0.419799 0.335321 0.605374
Si Si3 0.575980 0.755194 0.347446
Si Si4 0.073834 0.439296 0.991429
Si Si5 0.422896 0.773499 0.986125
Si Si6 0.419646 0.277631 0.192108
Si Si7 0.424843 0.059349 0.200571
Si Si8 0.925582 0.884772 0.344086
O O1 0.250000 0.646551 0.072811
O O2 0.515178 0.604621 0.050228
O O3 0.473990 0.677619 0.152017
O O4 0.465044 0.711955 0.019825
O O5 0.250000 0.336154 0.580761
O O6 0.519051 0.324331 0.536470
O O7 0.445684 0.286935 0.664713
O O8 0.467790 0.395551 0.639577
O O9 0.750000 0.757164 0.362177
O O10 0.498536 0.720115 0.410038
O O11 0.539604 0.721891 0.274895
O O12 0.510652 0.820001 0.344965
O O13 0.250000 0.444099 0.996801
O O14 0.000000 0.500000 0.007577
O O15 0.021665 0.418061 0.914117
O O16 0.250000 0.781162 0.976784
O O17 0.250000 0.296352 0.179454
O O18 0.250000 0.050909 0.205395
O O19 0.488333 0.081372 0.276027
O O20 0.500000 0.000000 0.179413
O O21 0.750000 0.881351 0.338947
#
# Coordination Sequence:
#
# PCOD8191214 Si02
#       8
#     8   8   8   8   8   8   8   8
#     4  10  20  33  47  68  98 128 161 201 245 291
#     4   9  17  31  49  67  91 126 165 200 236 284
#     4  10  17  30  51  73  96 128 165 197 237 292
#     4  11  21  33  50  69  96 132 171 206 241 282
#     4  10  20  31  46  70  99 125 157 202 248 289
#     4   9  17  30  51  72  92 122 162 203 241 286
#     4  10  19  32  48  69  96 129 168 204 239 280
#     4   9  17  30  47  68  96 131 168 200 230 278
#
# _framework density 16.145468000000001
#
# number of rings (size 3 to 8) (size 9 to 14) (size 15 to 20)
#    0.000    2.250    2.500    1.500    0.000    2.000 
#    0.000    1.250    0.000    0.000    0.000    0.875 
#    0.000    4.000    0.000    0.000    0.000    0.000 
#
# Total GULP energy -396874.772430 kJ/mol
# GULP energy per Si atom -12402.336638 kJ/mol
# Density = 1.610872 g / cm^3
# Si number density = 16.145468 Si / 1000 Ang^3
#
#
#
# Elastic Constant Matrix: (Units=GPa)
#
#
# Indices 1 2 3 4 5 6 
#
# 1 59.1916 40.5987 50.6291 0.0000 0.0000 0.0000
# 2 40.5987 95.5794 58.6850 0.0000 0.0000 0.0000
# 3 50.6291 58.6850 120.1129 0.0000 0.0000 0.0000
# 4 0.0000 0.0000 0.0000 21.0297 0.0000 0.0000
# 5 0.0000 0.0000 0.0000 0.0000 22.0198 0.0000
# 6 0.0000 0.0000 0.0000 0.0000 0.0000 25.4408
#
#
#
# Elastic Compliance Matrix: (Units=1/GPa)
#
#
# Indices 1 2 3 4 5 6 
#
# 1 0.029334 -0.006954 -0.008967 0.000000 0.000000 0.000000
# 2 -0.006954 0.016595 -0.005177 0.000000 0.000000 0.000000
# 3 -0.008967 -0.005177 0.014634 0.000000 0.000000 0.000000
# 4 0.000000 0.000000 0.000000 0.047552 0.000000 0.000000
# 5 0.000000 0.000000 0.000000 0.000000 0.045414 0.000000
# 6 0.000000 0.000000 0.000000 0.000000 0.000000 0.039307
#
#
# Mechanical properties :
#
#
# Convention : Reuss Voigt Hill
#
# Bulk Modulus (GPa) = 54.44411 63.85660 59.15036
# Shear Modulus (GPa) = 20.73368 22.02947 21.38157
#
# Velocity S-wave (km/s) = 3.58743 3.69784 3.64305
# Velocity P-wave (km/s) = 7.13819 7.60714 7.37639
#
# Compressibility (1/GPa) = 0.01836746
#
# Stress axis : x y z
#
# Youngs Moduli (GPa) = 34.09023 60.25952 68.33260
#
# Poissons Ratio (x) = 0.41907 0.61272
# Poissons Ratio (y) = 0.23708 0.35373
# Poissons Ratio (z) = 0.30568 0.31194
#
# Static dielectric constant tensor:
#      x y z
#    x 2.912240 0.000000 0.000000 
#    y 0.000000 2.881310 0.000000 
#    z 0.000000 0.000000 3.053600 
# 
# 
# High freq. dielectric constant tensor:
#      x y z
#    x 1.613600 0.000000 0.000000 
#    y 0.000000 1.596700 0.000000 
#    z 0.000000 0.000000 1.616710 
# 
# From -- ./inp_files/14439.got.cif
#   From: 2010.03.12/outbox.cif.g09.slc.cpg/sg46_8_cif.got.tgz:14439.got - 2010.04.14 02:56:35.
