data_PCOD8191511
_publ_section_title
;
Structure prediction by ZEFSAII (Michael W. Deem and Ramdas Pophale) SiO2 
 PCOD8191511
Probable space group: I M A 2
;
_chemical_formula_sum "Si O2"
_cell_formula_units_Z 64
_cell_length_a 16.377428
_cell_length_b 8.665850
_cell_length_c 23.759499
_cell_angle_alpha 90.000000
_cell_angle_beta 90.000000
_cell_angle_gamma 90.000000
_cell_volume 3372.051082
_symmetry_space_group_name_H-M "I M A 2"
_symmetry_group_IT_number 46
_symmetry_cell_setting 'orthorhombic'
loop_
_space_group_symop_operation_xyz
x,y,z
-x,-y,z
1/2-x,y,z
1/2+x,-y,z
1/2+x,1/2+y,1/2+z
1/2-x,1/2-y,1/2+z
-x,1/2+y,1/2+z
x,1/2-y,1/2+z
loop_
_atom_site_type_symbol
_atom_site_label
_atom_site_fract_x
_atom_site_fract_y
_atom_site_fract_z
Si Si1 0.988827 0.181304 0.905870
Si Si2 0.841245 0.778587 0.086719
Si Si3 0.584743 0.088849 0.071448
Si Si4 0.341892 0.187662 0.214095
Si Si5 0.508452 0.679734 0.277090
Si Si6 0.077399 0.891045 0.196882
Si Si7 0.345045 0.706269 0.973673
Si Si8 0.922454 0.600967 0.990120
O O1 0.000117 0.230048 0.841530
O O2 0.057265 0.275150 0.941290
O O3 0.895620 0.227192 0.920890
O O4 0.000000 0.000000 0.916680
O O5 0.750000 0.719885 0.075151
O O6 0.866162 0.752701 0.151645
O O7 0.844958 0.959614 0.071665
O O8 0.902951 0.685709 0.047996
O O9 0.582334 0.170566 0.132812
O O10 0.500000 0.000000 0.056346
O O11 0.608795 0.222109 0.027961
O O12 0.250000 0.235640 0.230029
O O13 0.401958 0.267151 0.258065
O O14 0.346592 0.999846 0.214590
O O15 0.500000 0.500000 0.269593
O O16 0.434524 0.751392 0.240344
O O17 0.000000 0.000000 0.202406
O O18 0.250000 0.754912 0.970224
O O19 0.350532 0.519035 0.973284
O O20 0.000000 0.500000 0.003898
#
# Coordination Sequence:
#
# PCOD8191511 Si02
#       8
#     8   8   8   8   8   8   8   8
#     4  10  22  41  59  75 101 144 190 223 260 319
#     4  10  19  33  53  79 112 145 177 214 260 316
#     4  10  18  32  54  81 111 146 183 212 252 317
#     4   9  19  35  56  82 110 141 178 219 263 314
#     4  10  21  38  58  79 105 140 182 225 269 317
#     4   8  17  33  55  80 108 144 181 213 255 316
#     4  11  22  35  54  83 114 139 173 224 275 315
#     4  10  21  35  54  79 109 141 177 220 267 318
#
# _framework density 18.979545000000002
#
# number of rings (size 3 to 8) (size 9 to 14) (size 15 to 20)
#    0.000    2.250    0.000    4.125    0.000    6.500 
#    0.000    6.875    0.000    0.000    0.000    0.000 
#    0.000    0.000    0.000    0.000    0.000    0.000 
#
# Total GULP energy -396654.391283 kJ/mol
# GULP energy per Si atom -12395.449728 kJ/mol
# Density = 1.893635 g / cm^3
# Si number density = 18.979545 Si / 1000 Ang^3
#
#
#
# Elastic Constant Matrix: (Units=GPa)
#
#
# Indices 1 2 3 4 5 6 
#
# 1 95.2888 36.1479 62.9954 0.0000 0.0000 0.0000
# 2 36.1479 88.6843 70.5667 0.0000 0.0000 0.0000
# 3 62.9954 70.5667 152.8118 0.0000 0.0000 0.0000
# 4 0.0000 0.0000 0.0000 32.0447 0.0000 0.0000
# 5 0.0000 0.0000 0.0000 0.0000 18.1729 0.0000
# 6 0.0000 0.0000 0.0000 0.0000 0.0000 22.0609
#
#
#
# Elastic Compliance Matrix: (Units=1/GPa)
#
#
# Indices 1 2 3 4 5 6 
#
# 1 0.014613 -0.001838 -0.005175 0.000000 0.000000 0.000000
# 2 -0.001838 0.018057 -0.007581 0.000000 0.000000 0.000000
# 3 -0.005175 -0.007581 0.012178 0.000000 0.000000 0.000000
# 4 0.000000 0.000000 0.000000 0.031206 0.000000 0.000000
# 5 0.000000 0.000000 0.000000 0.000000 0.055027 0.000000
# 6 0.000000 0.000000 0.000000 0.000000 0.000000 0.045329
#
#
# Mechanical properties :
#
#
# Convention : Reuss Voigt Hill
#
# Bulk Modulus (GPa) = 63.85757 75.13388 69.49572
# Shear Modulus (GPa) = 23.71692 25.59403 24.65547
#
# Velocity S-wave (km/s) = 3.53881 3.67618 3.60815
# Velocity P-wave (km/s) = 7.10043 7.59551 7.35214
#
# Compressibility (1/GPa) = 0.01565985
#
# Stress axis : x y z
#
# Youngs Moduli (GPa) = 68.43167 55.37894 82.11415
#
# Poissons Ratio (x) = 0.10181 0.42496
# Poissons Ratio (y) = 0.12580 0.62249
# Poissons Ratio (z) = 0.35415 0.41982
#
# Static dielectric constant tensor:
#      x y z
#    x 3.734310 0.000000 0.000000 
#    y 0.000000 3.672010 0.000000 
#    z 0.000000 0.000000 3.519750 
# 
# 
# High freq. dielectric constant tensor:
#      x y z
#    x 1.730710 0.000000 0.000000 
#    y 0.000000 1.734210 0.000000 
#    z 0.000000 0.000000 1.734620 
# 
# From -- ./inp_files/23780.got.cif
#   From: 2010.03.12/outbox.cif.g09.slc.cpg/sg46_12_cif.got.tgz:23780.got - 2010.04.14 02:56:35.
