data_PCOD8191937
_publ_section_title
;
Structure prediction by ZEFSAII (Michael W. Deem and Ramdas Pophale) SiO2 
 PCOD8191937
Probable space group: I M A 2
;
_chemical_formula_sum "Si O2"
_cell_formula_units_Z 48
_cell_length_a 19.136099
_cell_length_b 26.062998
_cell_length_c 4.977661
_cell_angle_alpha 90.000000
_cell_angle_beta 90.000000
_cell_angle_gamma 90.000000
_cell_volume 2482.579105
_symmetry_space_group_name_H-M "I M A 2"
_symmetry_group_IT_number 46
_symmetry_cell_setting 'orthorhombic'
loop_
_space_group_symop_operation_xyz
x,y,z
-x,-y,z
1/2-x,y,z
1/2+x,-y,z
1/2+x,1/2+y,1/2+z
1/2-x,1/2-y,1/2+z
-x,1/2+y,1/2+z
x,1/2-y,1/2+z
loop_
_atom_site_type_symbol
_atom_site_label
_atom_site_fract_x
_atom_site_fract_y
_atom_site_fract_z
Si Si1 0.473187 0.214467 0.137550
Si Si2 0.324252 0.216298 0.240501
Si Si3 0.171692 0.484339 0.205999
Si Si4 0.528013 0.943198 0.624263
Si Si5 0.672252 0.447018 0.706345
Si Si6 0.964804 0.391272 0.622409
O O1 0.483227 0.260600 0.346641
O O2 0.396267 0.186772 0.171272
O O3 0.528400 0.169182 0.181512
O O4 0.250000 0.186137 0.187778
O O5 0.325643 0.233162 0.550924
O O6 0.250000 0.461038 0.164535
O O7 0.112546 0.441495 0.152778
O O8 0.162267 0.505018 0.506961
O O9 0.159666 0.532195 0.006006
O O10 0.508213 0.927043 0.324429
O O11 0.500000 0.000000 0.689499
O O12 0.493278 0.902750 0.825687
O O13 0.750000 0.423566 0.675353
O O14 0.617512 0.402351 0.643325
#
# Coordination Sequence:
#
# PCOD8191937 Si02
#       6
#     8   8   8   8   8   8
#     4  10  21  37  54  76 106 137 181 231 270 312
#     4   8  14  27  48  69  90 123 166 209 257 310
#     4  10  20  34  52  77 114 150 174 213 269 319
#     4  12  21  35  56  82 115 140 178 228 264 329
#     4  10  19  33  53  79 107 142 184 218 258 331
#     4  12  22  35  58  84 106 147 187 223 276 324
#
# _framework density 19.334733
#
# number of rings (size 3 to 8) (size 9 to 14) (size 15 to 20)
#    0.000    1.667    3.333    2.500    0.000    0.000 
#    0.000    1.667    0.000    3.000    0.000    0.000 
#    0.000    0.000    0.000    0.000    0.000    0.000 
#
# Total GULP energy -297498.920899 kJ/mol
# GULP energy per Si atom -12395.788371 kJ/mol
# Density = 1.929073 g / cm^3
# Si number density = 19.334733 Si / 1000 Ang^3
#
#
#
# Elastic Constant Matrix: (Units=GPa)
#
#
# Indices 1 2 3 4 5 6 
#
# 1 131.9955 39.8139 11.6226 0.0000 0.0000 0.0000
# 2 39.8139 53.1304 5.6740 0.0000 0.0000 0.0000
# 3 11.6226 5.6740 71.6032 0.0000 0.0000 0.0000
# 4 0.0000 0.0000 0.0000 18.2457 0.0000 0.0000
# 5 0.0000 0.0000 0.0000 0.0000 24.9044 0.0000
# 6 0.0000 0.0000 0.0000 0.0000 0.0000 22.0290
#
#
#
# Elastic Compliance Matrix: (Units=1/GPa)
#
#
# Indices 1 2 3 4 5 6 
#
# 1 0.009862 -0.007281 -0.001024 0.000000 0.000000 0.000000
# 2 -0.007281 0.024358 -0.000748 0.000000 0.000000 0.000000
# 3 -0.001024 -0.000748 0.014191 0.000000 0.000000 0.000000
# 4 0.000000 0.000000 0.000000 0.054807 0.000000 0.000000
# 5 0.000000 0.000000 0.000000 0.000000 0.040154 0.000000
# 6 0.000000 0.000000 0.000000 0.000000 0.000000 0.045395
#
#
# Mechanical properties :
#
#
# Convention : Reuss Voigt Hill
#
# Bulk Modulus (GPa) = 32.99804 41.21667 37.10735
# Shear Modulus (GPa) = 23.04407 26.34371 24.69389
#
# Velocity S-wave (km/s) = 3.45606 3.69522 3.57764
# Velocity P-wave (km/s) = 5.74714 6.29046 6.02493
#
# Compressibility (1/GPa) = 0.03030483
#
# Stress axis : x y z
#
# Youngs Moduli (GPa) = 101.39525 41.05471 70.46543
#
# Poissons Ratio (x) = 0.29893 0.07215
# Poissons Ratio (y) = 0.73827 0.05273
# Poissons Ratio (z) = 0.10382 0.03072
#
# Static dielectric constant tensor:
#      x y z
#    x 3.953600 0.000000 0.000000 
#    y 0.000000 2.857400 0.000000 
#    z 0.000000 0.000000 3.675610 
# 
# 
# High freq. dielectric constant tensor:
#      x y z
#    x 1.764590 0.000000 0.000000 
#    y 0.000000 1.682550 0.000000 
#    z 0.000000 0.000000 1.777000 
# 
# From -- ./inp_files/1701.got.cif
#   From: 2010.03.12/outbox.cif.g09.slc.cpg/sg46_1_cif.got.tgz:1701.got - 2010.04.14 02:56:35.
