data_PCOD8191073
_publ_section_title
;
Structure prediction by ZEFSAII (Michael W. Deem and Ramdas Pophale) SiO2 
 PCOD8191073
Probable space group: I B A 2
;
_chemical_formula_sum "Si O2"
_cell_formula_units_Z 64
_cell_length_a 28.177396
_cell_length_b 9.031588
_cell_length_c 11.241981
_cell_angle_alpha 90.000000
_cell_angle_beta 90.000000
_cell_angle_gamma 90.000000
_cell_volume 2860.933877
_symmetry_space_group_name_H-M "I B A 2"
_symmetry_group_IT_number 45
_symmetry_cell_setting 'orthorhombic'
loop_
_space_group_symop_operation_xyz
x,y,z
-x,-y,z
-x,y,1/2+z
x,-y,1/2+z
1/2+x,1/2+y,1/2+z
1/2-x,1/2-y,1/2+z
1/2-x,1/2+y,z
1/2+x,1/2-y,z
loop_
_atom_site_type_symbol
_atom_site_label
_atom_site_fract_x
_atom_site_fract_y
_atom_site_fract_z
Si Si1 0.294957 0.627738 0.605200
Si Si2 0.804383 0.776692 0.076853
Si Si3 0.610189 0.147453 0.214965
Si Si4 0.967691 0.364754 0.519805
Si Si5 0.925508 0.660565 0.773067
Si Si6 0.656095 0.643910 0.339354
Si Si7 0.968874 0.137388 0.085838
Si Si8 0.377216 0.343656 0.937483
O O1 0.244399 0.689105 0.568169
O O2 0.296337 0.450666 0.594328
O O3 0.302788 0.666275 0.742792
O O4 0.335433 0.710872 0.526390
O O5 0.837732 0.701666 0.175562
O O6 0.829863 0.755823 0.950853
O O7 0.570147 0.192034 0.119038
O O8 0.602969 0.218496 0.347072
O O9 0.606877 0.969119 0.216878
O O10 0.945463 0.411209 0.393897
O O11 0.000000 0.500000 0.568440
O O12 0.998801 0.219835 0.487885
O O13 0.894181 0.803945 0.793181
O O14 0.964640 0.731266 0.685139
O O15 0.647670 0.471733 0.362524
O O16 0.919391 0.093589 0.022676
O O17 0.000000 0.000000 0.135901
#
# Coordination Sequence:
#
# PCOD8191073 Si02
#       8
#     8   8   8   8   8   8   8   8
#     4  11  26  47  74 110 146 185 246 295 368 439
#     4  11  27  47  75 108 145 189 237 302 365 438
#     4  12  27  48  73 104 149 191 242 302 365 430
#     4  12  27  49  69 108 143 192 246 299 358 429
#     4  12  27  45  74 103 147 192 244 298 360 437
#     4  11  24  47  75 103 147 188 239 301 361 436
#     4  12  28  44  74 108 145 194 246 297 362 433
#     4  11  26  49  73 105 146 191 239 305 362 434
#
# _framework density 22.370318000000001
#
# number of rings (size 3 to 8) (size 9 to 14) (size 15 to 20)
#    0.000    0.500    5.000    1.500   10.500    1.500 
#    0.000    0.000    0.000    0.000    0.000    0.000 
#    0.000    0.000    0.000    0.000    0.000    0.000 
#
# Total GULP energy -396650.631283 kJ/mol
# GULP energy per Si atom -12395.332228 kJ/mol
# Density = 2.231940 g / cm^3
# Si number density = 22.370318 Si / 1000 Ang^3
#
#
#
# Elastic Constant Matrix: (Units=GPa)
#
#
# Indices 1 2 3 4 5 6 
#
# 1 124.9313 41.7397 35.1811 0.0000 0.0000 0.0000
# 2 41.7397 94.8676 45.4211 0.0000 0.0000 0.0000
# 3 35.1811 45.4211 105.9725 0.0000 0.0000 0.0000
# 4 0.0000 0.0000 0.0000 27.3279 0.0000 0.0000
# 5 0.0000 0.0000 0.0000 0.0000 24.4421 0.0000
# 6 0.0000 0.0000 0.0000 0.0000 0.0000 48.8726
#
#
#
# Elastic Compliance Matrix: (Units=1/GPa)
#
#
# Indices 1 2 3 4 5 6 
#
# 1 0.009632 -0.003406 -0.001738 0.000000 0.000000 0.000000
# 2 -0.003406 0.014467 -0.005070 0.000000 0.000000 0.000000
# 3 -0.001738 -0.005070 0.012186 0.000000 0.000000 0.000000
# 4 0.000000 0.000000 0.000000 0.036593 0.000000 0.000000
# 5 0.000000 0.000000 0.000000 0.000000 0.040913 0.000000
# 6 0.000000 0.000000 0.000000 0.000000 0.000000 0.020461
#
#
# Mechanical properties :
#
#
# Convention : Reuss Voigt Hill
#
# Bulk Modulus (GPa) = 63.06029 63.38389 63.22209
# Shear Modulus (GPa) = 31.25683 33.69047 32.47365
#
# Velocity S-wave (km/s) = 3.74203 3.88498 3.81417
# Velocity P-wave (km/s) = 6.84988 6.96559 6.90798
#
# Compressibility (1/GPa) = 0.01585784
#
# Stress axis : x y z
#
# Youngs Moduli (GPa) = 103.82474 69.12342 82.05853
#
# Poissons Ratio (x) = 0.23541 0.14260
# Poissons Ratio (y) = 0.35359 0.41604
# Poissons Ratio (z) = 0.18043 0.35046
#
# Static dielectric constant tensor:
#      x y z
#    x 3.985520 0.000000 0.000000 
#    y 0.000000 3.857760 0.000000 
#    z 0.000000 0.000000 4.344920 
# 
# 
# High freq. dielectric constant tensor:
#      x y z
#    x 1.885290 0.000000 0.000000 
#    y 0.000000 1.879620 0.000000 
#    z 0.000000 0.000000 1.890180 
# 
# From -- ./inp_files/4952.got.cif
#   From: 2010.03.12/outbox.cif.g09.slc.cpg/sg45_3_cif.got.tgz:4952.got - 2010.04.14 02:50:11.
