data_PCOD8191166
_publ_section_title
;
Structure prediction by ZEFSAII (Michael W. Deem and Ramdas Pophale) SiO2 
 PCOD8191166
Probable space group: I M A 2
;
_chemical_formula_sum "Si O2"
_cell_formula_units_Z 64
_cell_length_a 14.708121
_cell_length_b 13.935513
_cell_length_c 17.715871
_cell_angle_alpha 90.000000
_cell_angle_beta 90.000000
_cell_angle_gamma 90.000000
_cell_volume 3631.137245
_symmetry_space_group_name_H-M "I M A 2"
_symmetry_group_IT_number 46
_symmetry_cell_setting 'orthorhombic'
loop_
_space_group_symop_operation_xyz
x,y,z
-x,-y,z
1/2-x,y,z
1/2+x,-y,z
1/2+x,1/2+y,1/2+z
1/2-x,1/2-y,1/2+z
-x,1/2+y,1/2+z
x,1/2-y,1/2+z
loop_
_atom_site_type_symbol
_atom_site_label
_atom_site_fract_x
_atom_site_fract_y
_atom_site_fract_z
Si Si1 0.464065 0.226985 0.385990
Si Si2 0.402087 0.457376 0.806352
Si Si3 0.965525 0.768710 0.561879
Si Si4 0.649466 0.838560 0.778506
Si Si5 0.647062 0.361066 0.063547
Si Si6 0.848371 0.361896 0.889774
Si Si7 0.650763 0.841947 0.169360
Si Si8 0.855234 0.561943 0.134066
O O1 0.403186 0.135779 0.360865
O O2 0.451905 0.248325 0.473513
O O3 0.426883 0.321462 0.342456
O O4 0.569918 0.208119 0.363364
O O5 0.500000 0.500000 0.797254
O O6 0.340401 0.539283 0.843315
O O7 0.368304 0.433744 0.721932
O O8 0.925156 0.675355 0.604748
O O9 0.915138 0.866732 0.583823
O O10 0.073156 0.778344 0.582360
O O11 0.750000 0.851647 0.815427
O O12 0.650517 0.749828 0.722072
O O13 0.624407 0.928324 0.724219
O O14 0.750000 0.324419 0.080665
O O15 0.621609 0.453187 0.113213
O O16 0.635467 0.391286 0.976495
O O17 0.750000 0.309397 0.880241
O O18 0.750000 0.854965 0.131161
O O19 0.750000 0.586388 0.117018
#
# Coordination Sequence:
#
# PCOD8191166 Si02
#       8
#     8   8   8   8   8   8   8   8
#     4   9  17  26  39  62  88 111 139 173 215 261
#     4   9  16  27  44  64  87 113 141 175 216 259
#     4  10  17  26  41  62  89 116 139 173 216 258
#     4   8  15  26  39  56  82 112 140 172 210 251
#     4   9  17  27  41  63  90 117 144 172 208 256
#     4   9  16  26  41  63  89 115 140 170 210 257
#     4   9  17  28  41  61  88 117 146 176 212 255
#     4   9  16  26  40  59  83 113 144 173 210 257
#
# _framework density 17.625332
#
# number of rings (size 3 to 8) (size 9 to 14) (size 15 to 20)
#    0.000    3.000    0.000    2.625    0.000    3.500 
#    0.000    0.000    0.000   12.750    0.000    5.250 
#    0.000    0.000    0.000    0.000    0.000    0.000 
#
# Total GULP energy -396527.227295 kJ/mol
# GULP energy per Si atom -12391.475853 kJ/mol
# Density = 1.758522 g / cm^3
# Si number density = 17.625332 Si / 1000 Ang^3
#
#
#
# Elastic Constant Matrix: (Units=GPa)
#
#
# Indices 1 2 3 4 5 6 
#
# 1 97.4650 23.8629 55.4061 0.0000 0.0000 0.0000
# 2 23.8629 29.3328 34.8550 0.0000 0.0000 0.0000
# 3 55.4061 34.8550 93.6446 0.0000 0.0000 0.0000
# 4 0.0000 0.0000 0.0000 27.9956 0.0000 0.0000
# 5 0.0000 0.0000 0.0000 0.0000 25.5921 0.0000
# 6 0.0000 0.0000 0.0000 0.0000 0.0000 3.1977
#
#
#
# Elastic Compliance Matrix: (Units=1/GPa)
#
#
# Indices 1 2 3 4 5 6 
#
# 1 0.015615 -0.003093 -0.008088 0.000000 0.000000 0.000000
# 2 -0.003093 0.061739 -0.021149 0.000000 0.000000 0.000000
# 3 -0.008088 -0.021149 0.023336 0.000000 0.000000 0.000000
# 4 0.000000 0.000000 0.000000 0.035720 0.000000 0.000000
# 5 0.000000 0.000000 0.000000 0.000000 0.039075 0.000000
# 6 0.000000 0.000000 0.000000 0.000000 0.000000 0.312722
#
#
# Mechanical properties :
#
#
# Convention : Reuss Voigt Hill
#
# Bulk Modulus (GPa) = 27.75508 49.85447 38.80477
# Shear Modulus (GPa) = 8.85151 18.44498 13.64825
#
# Velocity S-wave (km/s) = 2.24342 3.23848 2.78574
# Velocity P-wave (km/s) = 4.74258 6.50621 5.69310
#
# Compressibility (1/GPa) = 0.03602944
#
# Stress axis : x y z
#
# Youngs Moduli (GPa) = 64.04140 16.19726 42.85276
#
# Poissons Ratio (x) = 0.05010 0.34657
# Poissons Ratio (y) = 0.19808 0.90631
# Poissons Ratio (z) = 0.51794 0.34256
#
# Static dielectric constant tensor:
#      x y z
#    x 3.574260 0.000000 0.000000 
#    y 0.000000 3.052150 0.000000 
#    z 0.000000 0.000000 3.334170 
# 
# 
# High freq. dielectric constant tensor:
#      x y z
#    x 1.697280 0.000000 0.000000 
#    y 0.000000 1.623540 0.000000 
#    z 0.000000 0.000000 1.666630 
# 
# From -- ./inp_files/19626.got.cif
#   From: 2010.03.12/outbox.cif.g09.slc.cpg/sg46_10_cif.got.tgz:19626.got - 2010.04.14 02:56:35.
