data_PCOD8191224
_publ_section_title
;
Structure prediction by ZEFSAII (Michael W. Deem and Ramdas Pophale) SiO2 
 PCOD8191224
Probable space group: I M A 2
;
_chemical_formula_sum "Si O2"
_cell_formula_units_Z 48
_cell_length_a 14.123671
_cell_length_b 10.777170
_cell_length_c 15.052659
_cell_angle_alpha 90.000000
_cell_angle_beta 90.000000
_cell_angle_gamma 90.000000
_cell_volume 2291.213446
_symmetry_space_group_name_H-M "I M A 2"
_symmetry_group_IT_number 46
_symmetry_cell_setting 'orthorhombic'
loop_
_space_group_symop_operation_xyz
x,y,z
-x,-y,z
1/2-x,y,z
1/2+x,-y,z
1/2+x,1/2+y,1/2+z
1/2-x,1/2-y,1/2+z
-x,1/2+y,1/2+z
x,1/2-y,1/2+z
loop_
_atom_site_type_symbol
_atom_site_label
_atom_site_fract_x
_atom_site_fract_y
_atom_site_fract_z
Si Si1 0.056487 0.881747 0.366410
Si Si2 0.540322 0.869222 0.867737
Si Si3 0.750000 0.097391 0.681865
Si Si4 0.958631 0.378894 0.560412
Si Si5 0.561100 0.114222 0.578474
Si Si6 0.250000 0.808259 0.326182
Si Si7 0.250000 0.085001 0.838262
Si Si8 0.250000 0.878500 0.984463
O O1 0.062421 0.882670 0.472314
O O2 0.158889 0.896062 0.321619
O O3 0.015578 0.750192 0.330431
O O4 0.000000 0.000000 0.330581
O O5 0.651078 0.840868 0.847348
O O6 0.500000 0.000000 0.824663
O O7 0.522559 0.878464 0.972132
O O8 0.664239 0.093867 0.614843
O O9 0.750000 0.217622 0.742963
O O10 0.750000 0.976245 0.742093
O O11 0.979143 0.248822 0.611629
O O12 0.844981 0.383224 0.543817
O O13 0.000000 0.500000 0.613791
O O14 0.500000 0.000000 0.615418
O O15 0.250000 0.741806 0.422267
O O16 0.250000 0.993035 0.919839
#
# Coordination Sequence:
#
# PCOD8191224 Si02
#       8
#     8   8   4   8   8   4   4   4
#     4  10  21  37  62  88 117 152 192 251 291 344
#     4  10  17  31  53  87 115 138 190 244 294 332
#     4  11  24  37  58  86 118 165 194 227 284 365
#     4  10  18  32  60  85 112 143 192 251 287 331
#     4  10  21  39  56  84 120 156 193 231 290 353
#     4  11  19  35  61  85 108 157 199 234 283 338
#     4  11  20  30  53  87 121 140 184 255 296 329
#     4  11  15  30  54  86 113 132 185 240 287 334
#
# _framework density 20.949598999999999
#
# number of rings (size 3 to 8) (size 9 to 14) (size 15 to 20)
#    0.000    1.667    6.667    2.000    0.000    2.667 
#    0.000    6.667    0.000    2.000    0.000    0.000 
#    0.000    0.000    0.000    0.000    0.000    0.000 
#
# Total GULP energy -297344.777923 kJ/mol
# GULP energy per Si atom -12389.365747 kJ/mol
# Density = 2.090192 g / cm^3
# Si number density = 20.949599 Si / 1000 Ang^3
#
#
#
# Elastic Constant Matrix: (Units=GPa)
#
#
# Indices 1 2 3 4 5 6 
#
# 1 189.6584 86.8268 25.1972 0.0000 0.0000 0.0000
# 2 86.8268 181.4309 18.7739 0.0000 0.0000 0.0000
# 3 25.1972 18.7739 18.4537 0.0000 0.0000 0.0000
# 4 0.0000 0.0000 0.0000 80.1457 0.0000 0.0000
# 5 0.0000 0.0000 0.0000 0.0000 6.1901 0.0000
# 6 0.0000 0.0000 0.0000 0.0000 0.0000 29.5746
#
#
#
# Elastic Compliance Matrix: (Units=1/GPa)
#
#
# Indices 1 2 3 4 5 6 
#
# 1 0.007565 -0.002852 -0.007428 0.000000 0.000000 0.000000
# 2 -0.002852 0.007235 -0.003467 0.000000 0.000000 0.000000
# 3 -0.007428 -0.003467 0.067860 0.000000 0.000000 0.000000
# 4 0.000000 0.000000 0.000000 0.012477 0.000000 0.000000
# 5 0.000000 0.000000 0.000000 0.000000 0.161547 0.000000
# 6 0.000000 0.000000 0.000000 0.000000 0.000000 0.033813
#
#
# Mechanical properties :
#
#
# Convention : Reuss Voigt Hill
#
# Bulk Modulus (GPa) = 18.12710 72.34876 45.23793
# Shear Modulus (GPa) = 14.86412 40.43175 27.64794
#
# Velocity S-wave (km/s) = 2.66657 4.39789 3.63676
# Velocity P-wave (km/s) = 4.26055 7.77163 6.26700
#
# Compressibility (1/GPa) = 0.05516601
#
# Stress axis : x y z
#
# Youngs Moduli (GPa) = 132.18642 138.21247 14.73627
#
# Poissons Ratio (x) = 0.39414 0.10947
# Poissons Ratio (y) = 0.37696 0.05109
# Poissons Ratio (z) = 0.98193 0.47918
#
# Static dielectric constant tensor:
#      x y z
#    x 6.488180 0.000000 0.000000 
#    y 0.000000 2.318870 0.000000 
#    z 0.000000 0.000000 3.353190 
# 
# 
# High freq. dielectric constant tensor:
#      x y z
#    x 1.830070 0.000000 0.000000 
#    y 0.000000 1.817040 0.000000 
#    z 0.000000 0.000000 1.784980 
# 
# From -- ./inp_files/15913.got.cif
#   From: 2010.03.12/outbox.cif.g09.slc.cpg/sg46_8_cif.got.tgz:15913.got - 2010.04.14 02:56:35.
