data_PCOD8191583
_publ_section_title
;
Structure prediction by ZEFSAII (Michael W. Deem and Ramdas Pophale) SiO2 
 PCOD8191583
Probable space group: I M A 2
;
_chemical_formula_sum "Si O2"
_cell_formula_units_Z 64
_cell_length_a 16.060973
_cell_length_b 11.436156
_cell_length_c 16.642909
_cell_angle_alpha 90.000000
_cell_angle_beta 90.000000
_cell_angle_gamma 90.000000
_cell_volume 3056.899504
_symmetry_space_group_name_H-M "I M A 2"
_symmetry_group_IT_number 46
_symmetry_cell_setting 'orthorhombic'
loop_
_space_group_symop_operation_xyz
x,y,z
-x,-y,z
1/2-x,y,z
1/2+x,-y,z
1/2+x,1/2+y,1/2+z
1/2-x,1/2-y,1/2+z
-x,1/2+y,1/2+z
x,1/2-y,1/2+z
loop_
_atom_site_type_symbol
_atom_site_label
_atom_site_fract_x
_atom_site_fract_y
_atom_site_fract_z
Si Si1 0.882084 0.170126 0.568420
Si Si2 0.650141 0.926917 0.128989
Si Si3 0.652444 0.531770 0.959601
Si Si4 0.848524 0.052711 0.290481
Si Si5 0.341550 0.990431 0.703640
Si Si6 0.425495 0.176493 0.599884
Si Si7 0.657674 0.400825 0.499431
Si Si8 0.150190 0.810903 0.834043
O O1 0.827777 0.100734 0.632218
O O2 0.838403 0.294604 0.562168
O O3 0.976395 0.186328 0.596607
O O4 0.875550 0.098469 0.485345
O O5 0.750000 0.924849 0.130182
O O6 0.615154 0.797919 0.123872
O O7 0.616362 0.993595 0.208939
O O8 0.615698 0.992514 0.048513
O O9 0.750000 0.552274 0.972021
O O10 0.627753 0.533954 0.865060
O O11 0.606678 0.629899 0.013317
O O12 0.750000 0.063787 0.285484
O O13 0.885056 0.184784 0.304216
O O14 0.250000 0.043209 0.724506
O O15 0.379447 0.916774 0.777060
O O16 0.403813 0.090739 0.673918
O O17 0.750000 0.440798 0.474617
O O18 0.610890 0.352591 0.419893
O O19 0.250000 0.802328 0.839322
#
# Coordination Sequence:
#
# PCOD8191583 Si02
#       8
#     8   8   8   8   8   8   8   8
#     4  11  20  34  59  82 113 146 186 235 284 331
#     4  10  21  38  58  82 114 152 190 230 279 339
#     4  10  18  34  61  86 109 144 193 243 282 327
#     4   9  17  32  58  88 112 136 185 249 291 326
#     4  10  19  34  59  84 108 144 190 237 279 324
#     4  11  23  37  53  79 123 157 190 215 274 356
#     4  10  19  35  61  85 109 140 185 243 291 330
#     4   9  17  32  57  91 112 129 182 250 295 325
#
# _framework density 20.936246000000001
#
# number of rings (size 3 to 8) (size 9 to 14) (size 15 to 20)
#    0.000    2.000    1.250    5.250    0.000    2.500 
#    2.250    1.250    5.500    0.000    0.000    0.000 
#    0.000    0.000    0.000    0.000    0.000    0.000 
#
# Total GULP energy -396517.171054 kJ/mol
# GULP energy per Si atom -12391.161595 kJ/mol
# Density = 2.088859 g / cm^3
# Si number density = 20.936246 Si / 1000 Ang^3
#
#
#
# Elastic Constant Matrix: (Units=GPa)
#
#
# Indices 1 2 3 4 5 6 
#
# 1 33.0694 0.8706 20.4963 0.0000 0.0000 0.0000
# 2 0.8706 114.7968 71.7003 0.0000 0.0000 0.0000
# 3 20.4963 71.7003 107.5617 0.0000 0.0000 0.0000
# 4 0.0000 0.0000 0.0000 25.1901 0.0000 0.0000
# 5 0.0000 0.0000 0.0000 0.0000 6.2712 0.0000
# 6 0.0000 0.0000 0.0000 0.0000 0.0000 12.8891
#
#
#
# Elastic Compliance Matrix: (Units=1/GPa)
#
#
# Indices 1 2 3 4 5 6 
#
# 1 0.037423 0.007145 -0.011894 0.000000 0.000000 0.000000
# 2 0.007145 0.016289 -0.012220 0.000000 0.000000 0.000000
# 3 -0.011894 -0.012220 0.019709 0.000000 0.000000 0.000000
# 4 0.000000 0.000000 0.000000 0.039698 0.000000 0.000000
# 5 0.000000 0.000000 0.000000 0.000000 0.159460 0.000000
# 6 0.000000 0.000000 0.000000 0.000000 0.000000 0.077585
#
#
# Mechanical properties :
#
#
# Convention : Reuss Voigt Hill
#
# Bulk Modulus (GPa) = 25.32677 49.06250 37.19464
# Shear Modulus (GPa) = 12.58610 19.69411 16.14010
#
# Velocity S-wave (km/s) = 2.45452 3.07036 2.77955
# Velocity P-wave (km/s) = 4.48957 6.00455 5.30146
#
# Compressibility (1/GPa) = 0.03948391
#
# Stress axis : x y z
#
# Youngs Moduli (GPa) = 26.72136 61.39044 50.73787
#
# Poissons Ratio (x) = -0.43863 0.60348
# Poissons Ratio (y) = -0.19092 0.62001
# Poissons Ratio (z) = 0.31782 0.75018
#
# Static dielectric constant tensor:
#      x y z
#    x 3.332260 0.000000 0.000000 
#    y 0.000000 3.794880 0.000000 
#    z 0.000000 0.000000 4.133310 
# 
# 
# High freq. dielectric constant tensor:
#      x y z
#    x 1.781850 0.000000 0.000000 
#    y 0.000000 1.813420 0.000000 
#    z 0.000000 0.000000 1.827250 
# 
# From -- ./inp_files/19674.got.cif
#   From: 2010.03.12/outbox.cif.g09.slc.cpg/sg46_10_cif.got.tgz:19674.got - 2010.04.14 02:56:35.
