data_PCOD8191421
_publ_section_title
;
Structure prediction by ZEFSAII (Michael W. Deem and Ramdas Pophale) SiO2 
 PCOD8191421
Probable space group: I M A 2
;
_chemical_formula_sum "Si O2"
_cell_formula_units_Z 48
_cell_length_a 8.706203
_cell_length_b 9.580778
_cell_length_c 30.944716
_cell_angle_alpha 90.000000
_cell_angle_beta 90.000000
_cell_angle_gamma 90.000000
_cell_volume 2581.166783
_symmetry_space_group_name_H-M "I M A 2"
_symmetry_group_IT_number 46
_symmetry_cell_setting 'orthorhombic'
loop_
_space_group_symop_operation_xyz
x,y,z
-x,-y,z
1/2-x,y,z
1/2+x,-y,z
1/2+x,1/2+y,1/2+z
1/2-x,1/2-y,1/2+z
-x,1/2+y,1/2+z
x,1/2-y,1/2+z
loop_
_atom_site_type_symbol
_atom_site_label
_atom_site_fract_x
_atom_site_fract_y
_atom_site_fract_z
Si Si1 0.069209 0.645251 0.782280
Si Si2 0.932843 0.654689 0.443970
Si Si3 0.930990 0.347341 0.110605
Si Si4 0.431701 0.647175 0.685217
Si Si5 0.067710 0.652537 0.357337
Si Si6 0.567834 0.153339 0.031512
O O1 0.250000 0.630308 0.783107
O O2 0.012411 0.683352 0.733859
O O3 0.012995 0.762676 0.815396
O O4 0.000000 0.500000 0.797997
O O5 0.750000 0.655454 0.444232
O O6 0.000000 0.500000 0.443174
O O7 0.996928 0.727343 0.400273
O O8 0.998134 0.723578 0.487851
O O9 0.750000 0.362803 0.111712
O O10 0.991306 0.269932 0.153863
O O11 0.983436 0.255194 0.069880
O O12 0.000000 0.500000 0.107460
O O13 0.500000 0.500000 0.669649
O O14 0.250000 0.633510 0.682303
O O15 0.250000 0.645601 0.362006
O O16 0.000000 0.500000 0.351068
O O17 0.750000 0.140019 0.027250
O O18 0.500000 0.000000 0.040309
#
# Coordination Sequence:
#
# PCOD8191421 Si02
#       6
#     8   8   8   8   8   8
#     4   9  19  34  53  75 103 134 168 208 251 296
#     4  10  18  30  50  75 100 131 168 209 250 295
#     4  10  22  36  52  75 106 136 166 205 252 300
#     4   9  18  35  55  77 101 131 170 210 248 295
#     4  10  19  32  50  75 104 135 168 208 251 296
#     4  10  19  33  53  77 101 131 169 210 250 296
#
# _framework density 18.596240999999999
#
# number of rings (size 3 to 8) (size 9 to 14) (size 15 to 20)
#    0.000    2.333    0.000    5.000    0.000    4.000 
#    0.000    0.833    0.000    0.000    0.000    0.000 
#    0.000    0.000    0.000    0.000    0.000    0.000 
#
# Total GULP energy -297532.036795 kJ/mol
# GULP energy per Si atom -12397.168200 kJ/mol
# Density = 1.855392 g / cm^3
# Si number density = 18.596241 Si / 1000 Ang^3
#
#
#
# Elastic Constant Matrix: (Units=GPa)
#
#
# Indices 1 2 3 4 5 6 
#
# 1 68.5931 35.2583 50.5372 0.0000 0.0000 0.0000
# 2 35.2583 112.5659 91.3386 0.0000 0.0000 0.0000
# 3 50.5372 91.3386 172.5285 0.0000 0.0000 0.0000
# 4 0.0000 0.0000 0.0000 36.5377 0.0000 0.0000
# 5 0.0000 0.0000 0.0000 0.0000 35.1673 0.0000
# 6 0.0000 0.0000 0.0000 0.0000 0.0000 29.1163
#
#
#
# Elastic Compliance Matrix: (Units=1/GPa)
#
#
# Indices 1 2 3 4 5 6 
#
# 1 0.018988 -0.002515 -0.004231 0.000000 0.000000 0.000000
# 2 -0.002515 0.015907 -0.007685 0.000000 0.000000 0.000000
# 3 -0.004231 -0.007685 0.011104 0.000000 0.000000 0.000000
# 4 0.000000 0.000000 0.000000 0.027369 0.000000 0.000000
# 5 0.000000 0.000000 0.000000 0.000000 0.028436 0.000000
# 6 0.000000 0.000000 0.000000 0.000000 0.000000 0.034345
#
#
# Mechanical properties :
#
#
# Convention : Reuss Voigt Hill
#
# Bulk Modulus (GPa) = 58.34716 78.66174 68.50445
# Shear Modulus (GPa) = 29.28739 31.93447 30.61093
#
# Velocity S-wave (km/s) = 3.97282 4.14847 4.06159
# Velocity P-wave (km/s) = 7.24488 8.08320 7.67549
#
# Compressibility (1/GPa) = 0.01713880
#
# Stress axis : x y z
#
# Youngs Moduli (GPa) = 52.66359 62.86600 90.05922
#
# Poissons Ratio (x) = 0.15809 0.38103
# Poissons Ratio (y) = 0.13243 0.69208
# Poissons Ratio (z) = 0.22281 0.48311
#
# Static dielectric constant tensor:
#      x y z
#    x 3.354430 0.000000 0.000000 
#    y 0.000000 3.162520 0.000000 
#    z 0.000000 0.000000 4.327540 
# 
# 
# High freq. dielectric constant tensor:
#      x y z
#    x 1.724130 0.000000 0.000000 
#    y 0.000000 1.690740 0.000000 
#    z 0.000000 0.000000 1.745750 
# 
# From -- ./inp_files/25017.got.cif
#   From: 2010.03.12/outbox.cif.g09.slc.cpg/sg46_13_cif.got.tgz:25017.got - 2010.04.14 02:56:35.
