data_PCOD8191705
_publ_section_title
;
Structure prediction by ZEFSAII (Michael W. Deem and Ramdas Pophale) SiO2 
 PCOD8191705
Probable space group: I M A 2
;
_chemical_formula_sum "Si O2"
_cell_formula_units_Z 52
_cell_length_a 25.996168
_cell_length_b 22.874227
_cell_length_c 5.031699
_cell_angle_alpha 90.000000
_cell_angle_beta 90.000000
_cell_angle_gamma 90.000000
_cell_volume 2992.060804
_symmetry_space_group_name_H-M "I M A 2"
_symmetry_group_IT_number 46
_symmetry_cell_setting 'orthorhombic'
loop_
_space_group_symop_operation_xyz
x,y,z
-x,-y,z
1/2-x,y,z
1/2+x,-y,z
1/2+x,1/2+y,1/2+z
1/2-x,1/2-y,1/2+z
-x,1/2+y,1/2+z
x,1/2-y,1/2+z
loop_
_atom_site_type_symbol
_atom_site_label
_atom_site_fract_x
_atom_site_fract_y
_atom_site_fract_z
Si Si1 0.658601 0.789924 0.698880
Si Si2 0.155946 0.873270 0.617293
Si Si3 0.548526 0.713374 0.092658
Si Si4 0.562564 0.209581 0.688376
Si Si5 0.250000 0.122083 0.703154
Si Si6 0.750000 0.211979 0.690584
Si Si7 0.750000 0.955200 0.204111
Si Si8 0.692618 0.065446 0.113559
O O1 0.665832 0.737072 0.490572
O O2 0.601819 0.820024 0.664347
O O3 0.699739 0.839897 0.648671
O O4 0.100655 0.844247 0.652945
O O5 0.198779 0.823950 0.637302
O O6 0.165066 0.923647 0.834182
O O7 0.157341 0.904843 0.334734
O O8 0.548966 0.771478 0.280060
O O9 0.494867 0.680941 0.162142
O O10 0.571269 0.260742 0.473459
O O11 0.250000 0.067380 0.504737
O O12 0.250000 0.098977 0.003638
O O13 0.750000 0.267341 0.494813
O O14 0.699109 0.995612 0.160131
O O15 0.750000 0.094666 0.114497
#
# Coordination Sequence:
#
# PCOD8191705 Si02
#       8
#     8   8   8   8   4   4   4   8
#     4  10  19  32  50  79 111 138 152 173 222 285
#     4  12  19  32  47  65  86 126 159 207 243 290
#     4   8  16  30  47  65  99 136 161 186 218 269
#     4  10  19  31  45  70  98 126 166 203 233 283
#     4  12  20  32  54  80 104 126 156 194 230 282
#     4  12  20  26  36  58  90 116 140 182 244 296
#     4  10  22  36  50  72  96 126 164 204 244 280
#     4  10  20  36  49  61  89 117 167 205 245 294
#
# _framework density 17.379328000000001
#
# number of rings (size 3 to 8) (size 9 to 14) (size 15 to 20)
#    0.462    1.231    1.538    5.077    0.000    0.000 
#    0.000    0.000    0.000    0.000    0.000    6.462 
#    0.000    0.000    0.000    0.000    0.000    0.000 
#
# Total GULP energy -322282.716980 kJ/mol
# GULP energy per Si atom -12395.489115 kJ/mol
# Density = 1.733977 g / cm^3
# Si number density = 17.379328 Si / 1000 Ang^3
#
#
#
# Elastic Constant Matrix: (Units=GPa)
#
#
# Indices 1 2 3 4 5 6 
#
# 1 128.0147 37.2441 6.7892 0.0000 0.0000 0.0000
# 2 37.2441 48.3287 2.3356 0.0000 0.0000 0.0000
# 3 6.7892 2.3356 70.5650 0.0000 0.0000 0.0000
# 4 0.0000 0.0000 0.0000 31.3330 0.0000 0.0000
# 5 0.0000 0.0000 0.0000 0.0000 17.8011 0.0000
# 6 0.0000 0.0000 0.0000 0.0000 0.0000 21.9126
#
#
#
# Elastic Compliance Matrix: (Units=1/GPa)
#
#
# Indices 1 2 3 4 5 6 
#
# 1 0.010105 -0.007753 -0.000716 0.000000 0.000000 0.000000
# 2 -0.007753 0.026673 -0.000137 0.000000 0.000000 0.000000
# 3 -0.000716 -0.000137 0.014245 0.000000 0.000000 0.000000
# 4 0.000000 0.000000 0.000000 0.031915 0.000000 0.000000
# 5 0.000000 0.000000 0.000000 0.000000 0.056176 0.000000
# 6 0.000000 0.000000 0.000000 0.000000 0.000000 0.045636
#
#
# Mechanical properties :
#
#
# Convention : Reuss Voigt Hill
#
# Bulk Modulus (GPa) = 29.57532 37.73847 33.65689
# Shear Modulus (GPa) = 23.44869 27.57864 25.51366
#
# Velocity S-wave (km/s) = 3.67717 3.98787 3.83567
# Velocity P-wave (km/s) = 5.92311 6.55483 6.24696
#
# Compressibility (1/GPa) = 0.03381198
#
# Stress axis : x y z
#
# Youngs Moduli (GPa) = 98.95948 37.49120 70.20145
#
# Poissons Ratio (x) = 0.29066 0.05024
# Poissons Ratio (y) = 0.76722 0.00961
# Poissons Ratio (z) = 0.07082 0.00513
#
# Static dielectric constant tensor:
#      x y z
#    x 3.521060 0.000000 0.000000 
#    y 0.000000 2.799310 0.000000 
#    z 0.000000 0.000000 3.417010 
# 
# 
# High freq. dielectric constant tensor:
#      x y z
#    x 1.668990 0.000000 0.000000 
#    y 0.000000 1.619220 0.000000 
#    z 0.000000 0.000000 1.697900 
# 
# From -- ./inp_files/2576.got.cif
#   From: 2010.03.12/outbox.cif.g09.slc.cpg/sg46_2_cif.got.tgz:2576.got - 2010.04.14 02:56:35.
