data_PCOD8191659
_publ_section_title
;
Structure prediction by ZEFSAII (Michael W. Deem and Ramdas Pophale) SiO2 
 PCOD8191659
Probable space group: I M A 2
;
_chemical_formula_sum "Si O2"
_cell_formula_units_Z 56
_cell_length_a 8.667156
_cell_length_b 18.394274
_cell_length_c 21.114709
_cell_angle_alpha 90.000000
_cell_angle_beta 90.000000
_cell_angle_gamma 90.000000
_cell_volume 3366.234489
_symmetry_space_group_name_H-M "I M A 2"
_symmetry_group_IT_number 46
_symmetry_cell_setting 'orthorhombic'
loop_
_space_group_symop_operation_xyz
x,y,z
-x,-y,z
1/2-x,y,z
1/2+x,-y,z
1/2+x,1/2+y,1/2+z
1/2-x,1/2-y,1/2+z
-x,1/2+y,1/2+z
x,1/2-y,1/2+z
loop_
_atom_site_type_symbol
_atom_site_label
_atom_site_fract_x
_atom_site_fract_y
_atom_site_fract_z
Si Si1 0.432395 0.920319 0.162640
Si Si2 0.067990 0.848178 0.291165
Si Si3 0.071451 0.221074 0.469397
Si Si4 0.566777 0.342687 0.535336
Si Si5 0.571761 0.204904 0.852075
Si Si6 0.431312 0.422330 0.413761
Si Si7 0.073184 0.425059 0.911662
O O1 0.250000 0.926306 0.163169
O O2 0.492683 0.875803 0.223544
O O3 0.490544 0.879012 0.100173
O O4 0.500000 0.000000 0.164064
O O5 0.250000 0.856820 0.298147
O O6 0.022783 0.762237 0.297103
O O7 0.994922 0.897276 0.345719
O O8 0.250000 0.241412 0.454892
O O9 0.050365 0.133751 0.468722
O O10 0.013613 0.262172 0.532923
O O11 0.956594 0.252345 0.416937
O O12 0.750000 0.334836 0.533117
O O13 0.509955 0.392901 0.477650
O O14 0.750000 0.182450 0.846371
O O15 0.469973 0.131266 0.854291
O O16 0.500000 0.500000 0.396262
O O17 0.250000 0.427999 0.424284
O O18 0.250000 0.440002 0.898099
O O19 0.000000 0.500000 0.935074
#
# Coordination Sequence:
#
# PCOD8191659 Si02
#       7
#     8   8   8   8   8   8   8
#     4  10  21  33  45  65  91 121 154 184 213 250
#     4   9  18  32  47  64  90 121 151 182 216 258
#     4   9  17  29  44  63  87 114 146 183 222 264
#     4  10  19  31  46  64  89 120 153 184 218 260
#     4   9  16  28  46  65  86 114 146 180 221 265
#     4  11  20  30  45  66  92 117 146 183 224 266
#     4  10  19  29  44  67  92 117 146 182 223 265
#
# _framework density 16.635798999999999
#
# number of rings (size 3 to 8) (size 9 to 14) (size 15 to 20)
#    0.000    2.286    0.000    5.571    0.000    6.286 
#    0.000    0.000    0.000    0.000    0.000    1.000 
#    0.000    2.286    0.000    0.000    0.000    0.000 
#
# Total GULP energy -346996.749476 kJ/mol
# GULP energy per Si atom -12392.741053 kJ/mol
# Density = 1.659793 g / cm^3
# Si number density = 16.635799 Si / 1000 Ang^3
#
#
#
# Elastic Constant Matrix: (Units=GPa)
#
#
# Indices 1 2 3 4 5 6 
#
# 1 55.1581 44.8004 24.5589 0.0000 0.0000 0.0000
# 2 44.8004 154.8376 64.4341 0.0000 0.0000 0.0000
# 3 24.5589 64.4341 78.1250 0.0000 0.0000 0.0000
# 4 0.0000 0.0000 0.0000 26.7892 0.0000 0.0000
# 5 0.0000 0.0000 0.0000 0.0000 15.4774 0.0000
# 6 0.0000 0.0000 0.0000 0.0000 0.0000 25.1323
#
#
#
# Elastic Compliance Matrix: (Units=1/GPa)
#
#
# Indices 1 2 3 4 5 6 
#
# 1 0.024089 -0.005814 -0.002777 0.000000 0.000000 0.000000
# 2 -0.005814 0.011237 -0.007440 0.000000 0.000000 0.000000
# 3 -0.002777 -0.007440 0.019809 0.000000 0.000000 0.000000
# 4 0.000000 0.000000 0.000000 0.037328 0.000000 0.000000
# 5 0.000000 0.000000 0.000000 0.000000 0.064610 0.000000
# 6 0.000000 0.000000 0.000000 0.000000 0.000000 0.039790
#
#
# Mechanical properties :
#
#
# Convention : Reuss Voigt Hill
#
# Bulk Modulus (GPa) = 43.34229 61.74528 52.54378
# Shear Modulus (GPa) = 21.13136 23.76826 22.44981
#
# Velocity S-wave (km/s) = 3.56790 3.78397 3.67752
# Velocity P-wave (km/s) = 6.56380 7.50251 7.04880
#
# Compressibility (1/GPa) = 0.02307215
#
# Stress axis : x y z
#
# Youngs Moduli (GPa) = 41.51357 88.99495 50.48211
#
# Poissons Ratio (x) = 0.51742 0.14020
# Poissons Ratio (y) = 0.24136 0.37558
# Poissons Ratio (z) = 0.11529 0.66210
#
# Static dielectric constant tensor:
#      x y z
#    x 3.186420 0.000000 0.000000 
#    y 0.000000 3.553930 0.000000 
#    z 0.000000 0.000000 3.110980 
# 
# 
# High freq. dielectric constant tensor:
#      x y z
#    x 1.653000 0.000000 0.000000 
#    y 0.000000 1.650840 0.000000 
#    z 0.000000 0.000000 1.594230 
# 
# From -- ./inp_files/23250.got.cif
#   From: 2010.03.12/outbox.cif.g09.slc.cpg/sg46_12_cif.got.tgz:23250.got - 2010.04.14 02:56:35.
