data_PCOD8191532
_publ_section_title
;
Structure prediction by ZEFSAII (Michael W. Deem and Ramdas Pophale) SiO2 
 PCOD8191532
Probable space group: I M A 2
;
_chemical_formula_sum "Si O2"
_cell_formula_units_Z 64
_cell_length_a 8.699844
_cell_length_b 33.573223
_cell_length_c 11.773480
_cell_angle_alpha 90.000000
_cell_angle_beta 90.000000
_cell_angle_gamma 90.000000
_cell_volume 3438.819262
_symmetry_space_group_name_H-M "I M A 2"
_symmetry_group_IT_number 46
_symmetry_cell_setting 'orthorhombic'
loop_
_space_group_symop_operation_xyz
x,y,z
-x,-y,z
1/2-x,y,z
1/2+x,-y,z
1/2+x,1/2+y,1/2+z
1/2-x,1/2-y,1/2+z
-x,1/2+y,1/2+z
x,1/2-y,1/2+z
loop_
_atom_site_type_symbol
_atom_site_label
_atom_site_fract_x
_atom_site_fract_y
_atom_site_fract_z
Si Si1 0.068067 0.041421 0.556530
Si Si2 0.070236 0.539942 0.302941
Si Si3 0.570340 0.685664 0.790650
Si Si4 0.425636 0.328109 0.201595
Si Si5 0.576781 0.888304 0.907579
Si Si6 0.928958 0.265117 0.352550
Si Si7 0.068645 0.126369 0.483137
Si Si8 0.571659 0.175001 0.050835
O O1 0.250000 0.037630 0.553410
O O2 0.010261 0.080317 0.485484
O O3 0.015097 0.048553 0.684862
O O4 0.000000 0.000000 0.506240
O O5 0.250000 0.535468 0.280019
O O6 0.000000 0.500000 0.357043
O O7 0.036476 0.574518 0.392834
O O8 0.750000 0.685015 0.761481
O O9 0.528703 0.725062 0.861455
O O10 0.523016 0.646794 0.864227
O O11 0.470499 0.687183 0.677450
O O12 0.250000 0.313912 0.184227
O O13 0.436709 0.361582 0.296689
O O14 0.525597 0.290130 0.240030
O O15 0.498285 0.347013 0.086958
O O16 0.750000 0.903425 0.926505
O O17 0.524123 0.864178 0.018350
O O18 0.750000 0.254527 0.345064
O O19 0.971345 0.289093 0.466415
O O20 0.250000 0.126027 0.501767
O O21 0.750000 0.164711 0.040876
#
# Coordination Sequence:
#
# PCOD8191532 Si02
#       8
#     8   8   8   8   8   8   8   8
#     4  10  18  33  53  79 114 148 183 230 282 337
#     4  11  20  30  48  79 115 148 181 221 273 331
#     4  11  23  38  58  81 105 144 191 230 273 328
#     4   9  17  33  55  79 106 141 180 219 269 330
#     4  10  18  33  57  80 106 142 181 224 273 326
#     4  10  22  38  55  79 109 141 177 228 282 325
#     4   9  19  35  55  81 112 144 183 232 276 326
#     4  10  22  40  57  78 110 144 181 226 279 331
#
# _framework density 18.611039999999999
#
# number of rings (size 3 to 8) (size 9 to 14) (size 15 to 20)
#    0.000    2.000    1.250    3.750    1.750    2.000 
#    0.000    3.125    0.000    0.750    0.000    3.500 
#    0.000    0.000    0.000    0.000    0.000    0.000 
#
# Total GULP energy -396814.131539 kJ/mol
# GULP energy per Si atom -12400.441611 kJ/mol
# Density = 1.856868 g / cm^3
# Si number density = 18.611040 Si / 1000 Ang^3
#
#
#
# Elastic Constant Matrix: (Units=GPa)
#
#
# Indices 1 2 3 4 5 6 
#
# 1 62.8410 32.8026 18.2316 -0.0014 -0.0004 -0.0003
# 2 32.8026 129.9168 41.7237 -0.0008 -0.0003 -0.0001
# 3 18.2316 41.7237 79.7643 -0.0013 -0.0010 -0.0006
# 4 -0.0014 -0.0008 -0.0013 29.7238 0.0001 0.0001
# 5 -0.0004 -0.0003 -0.0010 0.0001 22.2046 -0.0008
# 6 -0.0003 -0.0001 -0.0006 0.0001 -0.0008 31.5362
#
#
#
# Elastic Compliance Matrix: (Units=1/GPa)
#
#
# Indices 1 2 3 4 5 6 
#
# 1 0.018634 -0.004011 -0.002161 0.000001 0.000000 0.000000
# 2 -0.004011 0.010115 -0.004374 0.000000 0.000000 0.000000
# 3 -0.002161 -0.004374 0.015319 0.000000 0.000001 0.000000
# 4 0.000001 0.000000 0.000000 0.033643 0.000000 0.000000
# 5 0.000000 0.000000 0.000001 0.000000 0.045036 0.000001
# 6 0.000000 0.000000 0.000000 0.000000 0.000001 0.031710
#
#
# Mechanical properties :
#
#
# Convention : Reuss Voigt Hill
#
# Bulk Modulus (GPa) = 43.52486 50.89311 47.20898
# Shear Modulus (GPa) = 27.29165 28.67721 27.98443
#
# Velocity S-wave (km/s) = 3.83354 3.92965 3.88190
# Velocity P-wave (km/s) = 6.55989 6.92781 6.74636
#
# Compressibility (1/GPa) = 0.02297538
#
# Stress axis : x y z
#
# Youngs Moduli (GPa) = 53.66608 98.86606 65.27858
#
# Poissons Ratio (x) = 0.39653 0.14107
# Poissons Ratio (y) = 0.21524 0.28554
# Poissons Ratio (z) = 0.11598 0.43245
#
# Static dielectric constant tensor:
#      x y z
#    x 3.352190 0.000000 0.000000 
#    y 0.000000 3.569720 0.000000 
#    z 0.000000 0.000000 3.169060 
# 
# 
# High freq. dielectric constant tensor:
#      x y z
#    x 1.720940 0.000000 0.000000 
#    y 0.000000 1.729320 0.000000 
#    z 0.000000 0.000000 1.691010 
# 
# From -- ./inp_files/9813.got.cif
#   From: 2010.03.12/outbox.cif.g09.slc.cpg/sg46_5_cif.got.tgz:9813.got - 2010.04.14 02:56:35.
