data_PCOD8191023
_publ_section_title
;
Structure prediction by ZEFSAII (Michael W. Deem and Ramdas Pophale) SiO2 
 PCOD8191023
Probable space group: I B A 2
;
_chemical_formula_sum "Si O2"
_cell_formula_units_Z 48
_cell_length_a 17.305236
_cell_length_b 8.498085
_cell_length_c 13.579666
_cell_angle_alpha 90.000000
_cell_angle_beta 90.000000
_cell_angle_gamma 90.000000
_cell_volume 1997.044238
_symmetry_space_group_name_H-M "I B A 2"
_symmetry_group_IT_number 45
_symmetry_cell_setting 'orthorhombic'
loop_
_space_group_symop_operation_xyz
x,y,z
-x,-y,z
-x,y,1/2+z
x,-y,1/2+z
1/2+x,1/2+y,1/2+z
1/2-x,1/2-y,1/2+z
1/2-x,1/2+y,z
1/2+x,1/2-y,z
loop_
_atom_site_type_symbol
_atom_site_label
_atom_site_fract_x
_atom_site_fract_y
_atom_site_fract_z
Si Si1 0.922775 0.432545 0.531660
Si Si2 0.376881 0.607927 0.380879
Si Si3 0.481610 0.833198 0.822168
Si Si4 0.380131 0.602757 0.047102
Si Si5 0.205509 0.694595 0.045709
Si Si6 0.864121 0.883075 0.710909
O O1 0.933886 0.386950 0.417929
O O2 0.909317 0.269066 0.586803
O O3 0.853548 0.550915 0.547990
O O4 0.000000 0.500000 0.579120
O O5 0.441335 0.732656 0.347042
O O6 0.415210 0.463699 0.444005
O O7 0.314099 0.693089 0.451836
O O8 0.334626 0.515333 0.289942
O O9 0.425440 0.736520 0.753414
O O10 0.500000 0.000000 0.768135
O O11 0.287920 0.616257 0.032433
O O12 0.408976 0.479650 0.127528
O O13 0.203025 0.788616 0.151095
#
# Coordination Sequence:
#
# PCOD8191023 Si02
#       6
#     8   8   8   8   8   8
#     4  11  22  43  74 101 143 197 248 311 371 444
#     4  11  23  46  74 105 145 195 245 310 379 443
#     4  11  23  46  70 109 147 184 252 309 380 445
#     4  11  26  48  72 106 152 199 253 311 379 461
#     4  11  25  49  73 108 151 202 253 307 387 449
#     4  11  26  44  71 109 149 190 248 308 370 457
#
# _framework density 24.035520000000002
#
# number of rings (size 3 to 8) (size 9 to 14) (size 15 to 20)
#    0.000    1.000    5.000    2.500    0.000    6.000 
#    3.000    0.000    0.000    0.000    0.000    0.000 
#    0.000    0.000    0.000    0.000    0.000    0.000 
#
# Total GULP energy -297336.894217 kJ/mol
# GULP energy per Si atom -12389.037259 kJ/mol
# Density = 2.398081 g / cm^3
# Si number density = 24.035520 Si / 1000 Ang^3
#
#
#
# Elastic Constant Matrix: (Units=GPa)
#
#
# Indices 1 2 3 4 5 6 
#
# 1 96.2396 48.5910 11.0815 0.0000 0.0000 0.0000
# 2 48.5910 177.0948 33.8961 0.0000 0.0000 0.0000
# 3 11.0815 33.8961 103.8836 0.0000 0.0000 0.0000
# 4 0.0000 0.0000 0.0000 60.3281 0.0000 0.0000
# 5 0.0000 0.0000 0.0000 0.0000 9.6881 0.0000
# 6 0.0000 0.0000 0.0000 0.0000 0.0000 37.5233
#
#
#
# Elastic Compliance Matrix: (Units=1/GPa)
#
#
# Indices 1 2 3 4 5 6 
#
# 1 0.012066 -0.003269 -0.000221 0.000000 0.000000 0.000000
# 2 -0.003269 0.006908 -0.001905 0.000000 0.000000 0.000000
# 3 -0.000221 -0.001905 0.010271 0.000000 0.000000 0.000000
# 4 0.000000 0.000000 0.000000 0.016576 0.000000 0.000000
# 5 0.000000 0.000000 0.000000 0.000000 0.103220 0.000000
# 6 0.000000 0.000000 0.000000 0.000000 0.000000 0.026650
#
#
# Mechanical properties :
#
#
# Convention : Reuss Voigt Hill
#
# Bulk Modulus (GPa) = 54.18053 62.70614 58.44334
# Shear Modulus (GPa) = 25.95606 40.41786 33.18696
#
# Velocity S-wave (km/s) = 3.28975 4.10517 3.71987
# Velocity P-wave (km/s) = 6.08447 6.97248 6.54355
#
# Compressibility (1/GPa) = 0.01845681
#
# Stress axis : x y z
#
# Youngs Moduli (GPa) = 82.87472 144.75542 97.35759
#
# Poissons Ratio (x) = 0.47314 0.02148
# Poissons Ratio (y) = 0.27088 0.18551
# Poissons Ratio (z) = 0.01829 0.27582
#
# Static dielectric constant tensor:
#      x y z
#    x 4.117990 0.000000 0.000000 
#    y 0.000000 5.324790 0.000000 
#    z 0.000000 0.000000 4.619750 
# 
# 
# High freq. dielectric constant tensor:
#      x y z
#    x 1.920630 0.000000 0.000000 
#    y 0.000000 1.997500 0.000000 
#    z 0.000000 0.000000 1.957290 
# 
# From -- ./inp_files/6746.got.cif
#   From: 2010.03.12/outbox.cif.g09.slc.cpg/sg45_4_cif.got.tgz:6746.got - 2010.04.14 02:50:11.
