data_PCOD8191822
_publ_section_title
;
Structure prediction by ZEFSAII (Michael W. Deem and Ramdas Pophale) SiO2 
 PCOD8191822
Probable space group: I M A 2
;
_chemical_formula_sum "Si O2"
_cell_formula_units_Z 64
_cell_length_a 8.828085
_cell_length_b 19.568561
_cell_length_c 20.473261
_cell_angle_alpha 90.000000
_cell_angle_beta 90.000000
_cell_angle_gamma 90.000000
_cell_volume 3536.815616
_symmetry_space_group_name_H-M "I M A 2"
_symmetry_group_IT_number 46
_symmetry_cell_setting 'orthorhombic'
loop_
_space_group_symop_operation_xyz
x,y,z
-x,-y,z
1/2-x,y,z
1/2+x,-y,z
1/2+x,1/2+y,1/2+z
1/2-x,1/2-y,1/2+z
-x,1/2+y,1/2+z
x,1/2-y,1/2+z
loop_
_atom_site_type_symbol
_atom_site_label
_atom_site_fract_x
_atom_site_fract_y
_atom_site_fract_z
Si Si1 0.928591 0.204302 0.250000
Si Si2 0.426782 0.068169 0.826166
Si Si3 0.075175 0.701006 0.131030
Si Si4 0.922336 0.287023 0.984783
Si Si5 0.426491 0.931866 0.430154
Si Si6 0.427744 0.068610 0.677884
Si Si7 0.427161 0.215380 0.868465
Si Si8 0.570025 0.929646 0.289984
O O1 0.750000 0.191663 0.253246
O O2 0.978219 0.245416 0.185587
O O3 0.977837 0.244566 0.314524
O O4 0.013758 0.132051 0.244501
O O5 0.250000 0.055813 0.826707
O O6 0.485610 0.079182 0.752200
O O7 0.471783 0.135284 0.867257
O O8 0.500000 0.000000 0.857454
O O9 0.250000 0.681325 0.141104
O O10 0.978131 0.632569 0.135224
O O11 0.047461 0.733750 0.059736
O O12 0.750000 0.270347 0.964003
O O13 0.952220 0.368224 0.978098
O O14 0.034680 0.243350 0.940074
O O15 0.250000 0.945158 0.415657
O O16 0.510726 0.915166 0.362730
O O17 0.500000 0.000000 0.462087
O O18 0.250000 0.061307 0.674176
O O19 0.500000 0.000000 0.648068
O O20 0.250000 0.225700 0.853218
O O21 0.750000 0.933963 0.289642
O O22 0.500000 0.000000 0.262464
#
# Coordination Sequence:
#
# PCOD8191822 Si02
#       8
#     8   8   8   8   8   8   8   8
#     4  11  21  35  57  82 109 144 184 225 273 322
#     4   9  19  33  52  80 110 138 176 223 269 321
#     4  10  22  38  55  78 110 148 187 226 270 324
#     4  10  22  38  54  77 110 147 186 225 271 327
#     4  10  19  32  51  75 107 144 184 221 265 319
#     4  10  19  33  52  77 110 147 185 225 268 320
#     4  11  21  35  56  83 110 140 183 229 273 323
#     4  11  21  34  55  82 112 140 178 225 275 324
#
# _framework density 18.095372999999999
#
# number of rings (size 3 to 8) (size 9 to 14) (size 15 to 20)
#    0.000    1.750    2.500    3.375    0.000    3.500 
#    0.000    1.250    0.000    0.750    0.000    1.750 
#    0.000    0.000    0.000    0.000    0.000    0.000 
#
# Total GULP energy -396879.917279 kJ/mol
# GULP energy per Si atom -12402.497415 kJ/mol
# Density = 1.805419 g / cm^3
# Si number density = 18.095373 Si / 1000 Ang^3
#
#
#
# Elastic Constant Matrix: (Units=GPa)
#
#
# Indices 1 2 3 4 5 6 
#
# 1 86.0982 46.0146 26.9411 0.0000 0.0000 0.0000
# 2 46.0146 120.8573 43.8048 0.0000 0.0000 0.0000
# 3 26.9411 43.8048 77.5024 0.0000 0.0000 0.0000
# 4 0.0000 0.0000 0.0000 19.3838 0.0000 0.0000
# 5 0.0000 0.0000 0.0000 0.0000 16.0635 0.0000
# 6 0.0000 0.0000 0.0000 0.0000 0.0000 35.0412
#
#
#
# Elastic Compliance Matrix: (Units=1/GPa)
#
#
# Indices 1 2 3 4 5 6 
#
# 1 0.014954 -0.004791 -0.002491 0.000000 0.000000 0.000000
# 2 -0.004791 0.011941 -0.005084 0.000000 0.000000 0.000000
# 3 -0.002491 -0.005084 0.016642 0.000000 0.000000 0.000000
# 4 0.000000 0.000000 0.000000 0.051589 0.000000 0.000000
# 5 0.000000 0.000000 0.000000 0.000000 0.062253 0.000000
# 6 0.000000 0.000000 0.000000 0.000000 0.000000 0.028538
#
#
# Mechanical properties :
#
#
# Convention : Reuss Voigt Hill
#
# Bulk Modulus (GPa) = 53.17186 57.55320 55.36253
# Shear Modulus (GPa) = 23.05031 25.27752 24.16392
#
# Velocity S-wave (km/s) = 3.57294 3.74157 3.65823
# Velocity P-wave (km/s) = 6.81683 7.10917 6.96454
#
# Compressibility (1/GPa) = 0.01880694
#
# Stress axis : x y z
#
# Youngs Moduli (GPa) = 66.86958 83.74586 60.08937
#
# Poissons Ratio (x) = 0.40123 0.14965
# Poissons Ratio (y) = 0.32037 0.30547
# Poissons Ratio (z) = 0.16654 0.42573
#
# Static dielectric constant tensor:
#      x y z
#    x 3.373210 0.000000 0.000000 
#    y 0.000000 3.573960 0.000000 
#    z 0.000000 0.000000 3.120400 
# 
# 
# High freq. dielectric constant tensor:
#      x y z
#    x 1.709910 0.000000 0.000000 
#    y 0.000000 1.707020 0.000000 
#    z 0.000000 0.000000 1.668730 
# 
# From -- ./inp_files/18528.got.cif
#   From: 2010.03.12/outbox.cif.g09.slc.cpg/sg46_10_cif.got.tgz:18528.got - 2010.04.14 02:56:35.
