data_PCOD8191086
_publ_section_title
;
Structure prediction by ZEFSAII (Michael W. Deem and Ramdas Pophale) SiO2 
 PCOD8191086
Probable space group: I B A 2
;
_chemical_formula_sum "Si O2"
_cell_formula_units_Z 64
_cell_length_a 26.074185
_cell_length_b 9.238541
_cell_length_c 11.810403
_cell_angle_alpha 90.000000
_cell_angle_beta 90.000000
_cell_angle_gamma 90.000000
_cell_volume 2844.977592
_symmetry_space_group_name_H-M "I B A 2"
_symmetry_group_IT_number 45
_symmetry_cell_setting 'orthorhombic'
loop_
_space_group_symop_operation_xyz
x,y,z
-x,-y,z
-x,y,1/2+z
x,-y,1/2+z
1/2+x,1/2+y,1/2+z
1/2-x,1/2-y,1/2+z
1/2-x,1/2+y,z
1/2+x,1/2-y,z
loop_
_atom_site_type_symbol
_atom_site_label
_atom_site_fract_x
_atom_site_fract_y
_atom_site_fract_z
Si Si1 0.976025 0.362542 0.373460
Si Si2 0.201224 0.611284 0.147256
Si Si3 0.822876 0.311417 0.911580
Si Si4 0.607398 0.038183 0.245467
Si Si5 0.956405 0.111973 0.787197
Si Si6 0.586676 0.714328 0.567171
Si Si7 0.143156 0.997483 0.918009
Si Si8 0.229442 0.110590 0.756225
O O1 0.941204 0.435176 0.273588
O O2 0.945562 0.260019 0.457661
O O3 0.000000 0.500000 0.440749
O O4 0.023541 0.273490 0.318875
O O5 0.153458 0.572053 0.225600
O O6 0.212211 0.779497 0.160111
O O7 0.251808 0.527962 0.187154
O O8 0.188528 0.580623 0.015847
O O9 0.875904 0.360222 0.850899
O O10 0.829598 0.149062 0.960796
O O11 0.774896 0.316443 0.827891
O O12 0.603603 0.141443 0.134675
O O13 0.945433 0.114072 0.652846
O O14 0.908256 0.055104 0.856425
O O15 0.000000 0.000000 0.815091
O O16 0.632459 0.611229 0.520428
O O17 0.180437 0.076898 0.831704
#
# Coordination Sequence:
#
# PCOD8191086 Si02
#       8
#     8   8   8   8   8   8   8   8
#     4  12  25  47  73 104 145 195 251 307 369 448
#     4  11  26  43  76 101 143 189 239 297 383 432
#     4  11  25  46  71 108 145 187 250 305 366 461
#     4  11  25  48  69 111 144 189 252 307 363 459
#     4  12  28  49  70 110 149 192 258 311 369 457
#     4  12  27  45  79 102 150 200 242 312 390 430
#     4  12  26  49  73 106 152 191 248 313 371 451
#     4  11  26  47  71 107 143 191 244 304 368 453
#
# _framework density 22.495781999999998
#
# number of rings (size 3 to 8) (size 9 to 14) (size 15 to 20)
#    0.000    0.500    5.000    1.500    7.000    3.000 
#    0.000    0.000    0.000    0.000    0.000    0.000 
#    0.000    0.000    0.000    0.000    0.000    0.000 
#
# Total GULP energy -396722.713243 kJ/mol
# GULP energy per Si atom -12397.584789 kJ/mol
# Density = 2.244458 g / cm^3
# Si number density = 22.495782 Si / 1000 Ang^3
#
#
#
# Elastic Constant Matrix: (Units=GPa)
#
#
# Indices 1 2 3 4 5 6 
#
# 1 113.3186 46.2612 34.6754 0.0000 0.0000 0.0000
# 2 46.2612 104.7363 42.0700 0.0000 0.0000 0.0000
# 3 34.6754 42.0700 112.0331 0.0000 0.0000 0.0000
# 4 0.0000 0.0000 0.0000 39.0694 0.0000 0.0000
# 5 0.0000 0.0000 0.0000 0.0000 32.1885 0.0000
# 6 0.0000 0.0000 0.0000 0.0000 0.0000 33.1137
#
#
#
# Elastic Compliance Matrix: (Units=1/GPa)
#
#
# Indices 1 2 3 4 5 6 
#
# 1 0.011091 -0.004145 -0.001876 0.000000 0.000000 0.000000
# 2 -0.004145 0.012793 -0.003521 0.000000 0.000000 0.000000
# 3 -0.001876 -0.003521 0.010829 0.000000 0.000000 0.000000
# 4 0.000000 0.000000 0.000000 0.025595 0.000000 0.000000
# 5 0.000000 0.000000 0.000000 0.000000 0.031067 0.000000
# 6 0.000000 0.000000 0.000000 0.000000 0.000000 0.030199
#
#
# Mechanical properties :
#
#
# Convention : Reuss Voigt Hill
#
# Bulk Modulus (GPa) = 63.98738 64.01126 63.99932
# Shear Modulus (GPa) = 34.27748 34.67975 34.47862
#
# Velocity S-wave (km/s) = 3.90773 3.93060 3.91918
# Velocity P-wave (km/s) = 6.99045 7.00828 6.99937
#
# Compressibility (1/GPa) = 0.01562808
#
# Stress axis : x y z
#
# Youngs Moduli (GPa) = 90.16291 78.16786 92.34624
#
# Poissons Ratio (x) = 0.32402 0.17326
# Poissons Ratio (y) = 0.37374 0.32515
# Poissons Ratio (z) = 0.16916 0.27523
#
# Static dielectric constant tensor:
#      x y z
#    x 4.239350 0.000000 0.000000 
#    y 0.000000 4.347480 0.000000 
#    z 0.000000 0.000000 3.913880 
# 
# 
# High freq. dielectric constant tensor:
#      x y z
#    x 1.899450 0.000000 0.000000 
#    y 0.000000 1.905120 0.000000 
#    z 0.000000 0.000000 1.878020 
# 
# From -- ./inp_files/4978.got.cif
#   From: 2010.03.12/outbox.cif.g09.slc.cpg/sg45_3_cif.got.tgz:4978.got - 2010.04.14 02:50:11.
