data_PCOD8191295
_publ_section_title
;
Structure prediction by ZEFSAII (Michael W. Deem and Ramdas Pophale) SiO2 
 PCOD8191295
Probable space group: I M A 2
;
_chemical_formula_sum "Si O2"
_cell_formula_units_Z 64
_cell_length_a 8.813456
_cell_length_b 18.291550
_cell_length_c 26.162388
_cell_angle_alpha 90.000000
_cell_angle_beta 90.000000
_cell_angle_gamma 90.000000
_cell_volume 4217.684906
_symmetry_space_group_name_H-M "I M A 2"
_symmetry_group_IT_number 46
_symmetry_cell_setting 'orthorhombic'
loop_
_space_group_symop_operation_xyz
x,y,z
-x,-y,z
1/2-x,y,z
1/2+x,-y,z
1/2+x,1/2+y,1/2+z
1/2-x,1/2-y,1/2+z
-x,1/2+y,1/2+z
x,1/2-y,1/2+z
loop_
_atom_site_type_symbol
_atom_site_label
_atom_site_fract_x
_atom_site_fract_y
_atom_site_fract_z
Si Si1 0.577923 0.705792 0.667470
Si Si2 0.071595 0.833751 0.720375
Si Si3 0.069604 0.077911 0.809506
Si Si4 0.419863 0.296747 0.064000
Si Si5 0.929263 0.076514 0.916826
Si Si6 0.072814 0.921338 0.618751
Si Si7 0.570601 0.079195 0.112717
Si Si8 0.426439 0.669493 0.514284
O O1 0.750000 0.693133 0.686312
O O2 0.484867 0.751410 0.709702
O O3 0.574497 0.749973 0.615167
O O4 0.495578 0.628409 0.658746
O O5 0.250000 0.833279 0.731467
O O6 0.029438 0.886144 0.673099
O O7 0.980745 0.861522 0.769294
O O8 0.250000 0.071264 0.811133
O O9 0.006431 0.102655 0.864453
O O10 0.000000 0.000000 0.793391
O O11 0.250000 0.318263 0.048507
O O12 0.513030 0.371194 0.072327
O O13 0.490340 0.247490 0.018915
O O14 0.750000 0.066507 0.908816
O O15 0.967634 0.136530 0.959371
O O16 0.000000 0.000000 0.935033
O O17 0.250000 0.929552 0.612256
O O18 0.000000 0.000000 0.614783
O O19 0.750000 0.074464 0.118416
O O20 0.521333 0.112752 0.058078
O O21 0.500000 0.000000 0.117655
O O22 0.250000 0.685330 0.520500
#
# Coordination Sequence:
#
# PCOD8191295 Si02
#       8
#     8   8   8   8   8   8   8   8
#     4   9  17  29  43  61  84 111 142 176 212 253
#     4  10  19  31  46  63  84 113 145 178 215 256
#     4  11  21  32  45  62  85 113 145 182 218 254
#     4   9  17  28  43  61  83 110 141 175 211 251
#     4  10  19  31  45  62  85 113 145 182 218 253
#     4  10  19  29  43  62  86 113 143 176 211 252
#     4  10  18  28  42  62  87 115 146 179 214 254
#     4   9  18  30  44  61  84 114 146 178 215 255
#
# _framework density 15.174201999999999
#
# number of rings (size 3 to 8) (size 9 to 14) (size 15 to 20)
#    0.000    2.250    0.000    4.875    0.000    7.000 
#    0.000    0.000    0.000    0.000    0.000    0.000 
#    0.000    1.000    0.000    5.500    0.000    5.875 
#
# Total GULP energy -396830.983870 kJ/mol
# GULP energy per Si atom -12400.968246 kJ/mol
# Density = 1.513966 g / cm^3
# Si number density = 15.174202 Si / 1000 Ang^3
#
#
#
# Elastic Constant Matrix: (Units=GPa)
#
#
# Indices 1 2 3 4 5 6 
#
# 1 98.3661 56.8659 45.0962 0.0000 0.0000 0.0000
# 2 56.8659 109.6470 50.1689 0.0000 0.0000 0.0000
# 3 45.0962 50.1689 71.7431 0.0000 0.0000 0.0000
# 4 0.0000 0.0000 0.0000 25.8984 0.0000 0.0000
# 5 0.0000 0.0000 0.0000 0.0000 21.8106 0.0000
# 6 0.0000 0.0000 0.0000 0.0000 0.0000 31.3872
#
#
#
# Elastic Compliance Matrix: (Units=1/GPa)
#
#
# Indices 1 2 3 4 5 6 
#
# 1 0.016283 -0.005532 -0.006367 0.000000 0.000000 0.000000
# 2 -0.005532 0.015290 -0.007215 0.000000 0.000000 0.000000
# 3 -0.006367 -0.007215 0.022986 0.000000 0.000000 0.000000
# 4 0.000000 0.000000 0.000000 0.038612 0.000000 0.000000
# 5 0.000000 0.000000 0.000000 0.000000 0.045849 0.000000
# 6 0.000000 0.000000 0.000000 0.000000 0.000000 0.031860
#
#
# Mechanical properties :
#
#
# Convention : Reuss Voigt Hill
#
# Bulk Modulus (GPa) = 61.22973 64.89093 63.06033
# Shear Modulus (GPa) = 23.30430 24.32760 23.81595
#
# Velocity S-wave (km/s) = 3.92316 4.00837 3.96599
# Velocity P-wave (km/s) = 7.80771 8.01745 7.91328
#
# Compressibility (1/GPa) = 0.01633194
#
# Stress axis : x y z
#
# Youngs Moduli (GPa) = 61.41432 65.40076 43.50413
#
# Poissons Ratio (x) = 0.36177 0.27699
# Poissons Ratio (y) = 0.33972 0.31390
# Poissons Ratio (z) = 0.39102 0.47189
#
# Static dielectric constant tensor:
#      x y z
#    x 3.093300 0.000000 0.000000 
#    y 0.000000 2.905100 0.000000 
#    z 0.000000 0.000000 2.745070 
# 
# 
# High freq. dielectric constant tensor:
#      x y z
#    x 1.602240 0.000000 0.000000 
#    y 0.000000 1.570720 0.000000 
#    z 0.000000 0.000000 1.546390 
# 
# From -- ./inp_files/23290.got.cif
#   From: 2010.03.12/outbox.cif.g09.slc.cpg/sg46_12_cif.got.tgz:23290.got - 2010.04.14 02:56:35.
