data_PCOD8191610
_publ_section_title
;
Structure prediction by ZEFSAII (Michael W. Deem and Ramdas Pophale) SiO2 
 PCOD8191610
Probable space group: I M A 2
;
_chemical_formula_sum "Si O2"
_cell_formula_units_Z 44
_cell_length_a 9.618389
_cell_length_b 20.658618
_cell_length_c 11.278671
_cell_angle_alpha 90.000000
_cell_angle_beta 90.000000
_cell_angle_gamma 90.000000
_cell_volume 2241.101524
_symmetry_space_group_name_H-M "I M A 2"
_symmetry_group_IT_number 46
_symmetry_cell_setting 'orthorhombic'
loop_
_space_group_symop_operation_xyz
x,y,z
-x,-y,z
1/2-x,y,z
1/2+x,-y,z
1/2+x,1/2+y,1/2+z
1/2-x,1/2-y,1/2+z
-x,1/2+y,1/2+z
x,1/2-y,1/2+z
loop_
_atom_site_type_symbol
_atom_site_label
_atom_site_fract_x
_atom_site_fract_y
_atom_site_fract_z
Si Si1 0.413635 0.346487 0.679270
Si Si2 0.088290 0.304235 0.203812
Si Si3 0.401906 0.904193 0.593332
Si Si4 0.407205 0.119455 0.923688
Si Si5 0.000000 0.500000 0.284179
Si Si6 0.087831 0.939593 0.328869
O O1 0.250000 0.362346 0.702120
O O2 0.441072 0.270241 0.682475
O O3 0.473754 0.374197 0.554250
O O4 0.512094 0.375754 0.780016
O O5 0.250000 0.321627 0.194204
O O6 0.028342 0.328189 0.331572
O O7 0.013627 0.346906 0.103522
O O8 0.250000 0.871655 0.594956
O O9 0.426135 0.940708 0.470217
O O10 0.403693 0.956644 0.699514
O O11 0.250000 0.140385 0.944685
O O12 0.413758 0.047045 0.870969
O O13 0.250000 0.943215 0.288952
O O14 0.000000 0.000000 0.277267
#
# Coordination Sequence:
#
# PCOD8191610 Si02
#       6
#     8   8   8   8   4   8
#     4  10  22  39  60  87 119 156 196 241 290 349
#     4   9  20  37  61  87 116 154 194 237 289 347
#     4  10  21  37  60  87 116 150 195 245 292 346
#     4   9  19  35  56  84 115 149 192 236 284 344
#     4  10  18  36  58  82 118 152 192 234 294 342
#     4  11  24  41  60  87 118 154 197 244 297 353
#
# _framework density 19.633202000000001
#
# number of rings (size 3 to 8) (size 9 to 14) (size 15 to 20)
#    0.000    2.182    0.909    1.091    3.818    2.909 
#    0.000    3.636    0.000    0.000    0.000    0.000 
#    0.000    0.000    0.000    0.000    0.000    0.000 
#
# Total GULP energy -272698.414637 kJ/mol
# GULP energy per Si atom -12395.382483 kJ/mol
# Density = 1.958852 g / cm^3
# Si number density = 19.633202 Si / 1000 Ang^3
#
#
#
# Elastic Constant Matrix: (Units=GPa)
#
#
# Indices 1 2 3 4 5 6 
#
# 1 95.8365 51.6202 31.0188 -0.0001 0.0000 0.0000
# 2 51.6202 116.9160 39.6089 0.0005 -0.0001 -0.0001
# 3 31.0188 39.6089 85.4026 -0.0004 0.0000 -0.0001
# 4 -0.0001 0.0005 -0.0004 23.7969 0.0000 -0.0001
# 5 0.0000 -0.0001 0.0000 0.0000 25.2912 0.0000
# 6 0.0000 -0.0001 -0.0001 -0.0001 0.0000 33.1831
#
#
#
# Elastic Compliance Matrix: (Units=1/GPa)
#
#
# Indices 1 2 3 4 5 6 
#
# 1 0.014184 -0.005359 -0.002666 0.000000 0.000000 0.000000
# 2 -0.005359 0.012172 -0.003699 0.000000 0.000000 0.000000
# 3 -0.002666 -0.003699 0.014393 0.000000 0.000000 0.000000
# 4 0.000000 0.000000 0.000000 0.042022 0.000000 0.000000
# 5 0.000000 0.000000 0.000000 0.000000 0.039539 0.000000
# 6 0.000000 0.000000 0.000000 0.000000 0.000000 0.030136
#
#
# Mechanical properties :
#
#
# Convention : Reuss Voigt Hill
#
# Bulk Modulus (GPa) = 57.80037 60.29453 59.04745
# Shear Modulus (GPa) = 27.52353 28.18140 27.85247
#
# Velocity S-wave (km/s) = 3.74824 3.79277 3.77057
# Velocity P-wave (km/s) = 6.94525 7.06805 7.00692
#
# Compressibility (1/GPa) = 0.01730093
#
# Stress axis : x y z
#
# Youngs Moduli (GPa) = 70.50198 82.15272 69.47738
#
# Poissons Ratio (x) = 0.44027 0.18524
# Poissons Ratio (y) = 0.37783 0.25699
# Poissons Ratio (z) = 0.18797 0.30388
#
# Static dielectric constant tensor:
#      x y z
#    x 3.445240 0.000000 0.000000 
#    y 0.000000 3.449190 0.000000 
#    z 0.000000 0.000000 3.676000 
# 
# 
# High freq. dielectric constant tensor:
#      x y z
#    x 1.747550 0.000000 0.000000 
#    y 0.000000 1.764030 0.000000 
#    z 0.000000 0.000000 1.769630 
# 
# From -- ./inp_files/9250.got.cif
#   From: 2010.03.12/outbox.cif.g09.slc.cpg/sg46_5_cif.got.tgz:9250.got - 2010.04.14 02:56:35.
