data_PCOD8191896
_publ_section_title
;
Structure prediction by ZEFSAII (Michael W. Deem and Ramdas Pophale) SiO2 
 PCOD8191896
Probable space group: I M A 2
;
_chemical_formula_sum "Si O2"
_cell_formula_units_Z 64
_cell_length_a 8.770351
_cell_length_b 27.959414
_cell_length_c 14.487354
_cell_angle_alpha 90.000000
_cell_angle_beta 90.000000
_cell_angle_gamma 90.000000
_cell_volume 3552.500206
_symmetry_space_group_name_H-M "I M A 2"
_symmetry_group_IT_number 46
_symmetry_cell_setting 'orthorhombic'
loop_
_space_group_symop_operation_xyz
x,y,z
-x,-y,z
1/2-x,y,z
1/2+x,-y,z
1/2+x,1/2+y,1/2+z
1/2-x,1/2-y,1/2+z
-x,1/2+y,1/2+z
x,1/2-y,1/2+z
loop_
_atom_site_type_symbol
_atom_site_label
_atom_site_fract_x
_atom_site_fract_y
_atom_site_fract_z
Si Si1 0.071637 0.172757 0.875000
Si Si2 0.929380 0.327799 0.566387
Si Si3 0.568365 0.635106 0.743851
Si Si4 0.574399 0.726041 0.071132
Si Si5 0.571526 0.450105 0.069956
Si Si6 0.924718 0.778277 0.361907
Si Si7 0.573133 0.865814 0.681108
Si Si8 0.069530 0.550569 0.860139
O O1 0.250000 0.177738 0.900782
O O2 0.006479 0.225232 0.846259
O O3 0.045291 0.135924 0.791324
O O4 0.982588 0.154832 0.965132
O O5 0.750000 0.333663 0.574962
O O6 0.011084 0.362847 0.638884
O O7 0.974985 0.273131 0.587303
O O8 0.750000 0.632533 0.748295
O O9 0.499062 0.681675 0.797048
O O10 0.501081 0.588733 0.791702
O O11 0.750000 0.739740 0.091403
O O12 0.516515 0.684416 0.138663
O O13 0.553626 0.706116 0.967872
O O14 0.500000 0.500000 0.102381
O O15 0.750000 0.456310 0.076559
O O16 0.521199 0.409139 0.140010
O O17 0.521334 0.437069 0.965580
O O18 0.750000 0.776125 0.332519
O O19 0.750000 0.873431 0.656878
O O20 0.250000 0.549138 0.848719
O O21 0.000000 0.500000 0.831064
#
# Coordination Sequence:
#
# PCOD8191896 Si02
#       8
#     8   8   8   8   8   8   8   8
#     4   9  18  34  52  72 100 137 178 217 255 302
#     4  11  22  34  48  71 104 140 176 217 259 303
#     4  11  20  33  55  78 101 135 175 215 258 307
#     4   9  17  32  51  73 103 138 173 209 252 308
#     4  10  21  36  55  79 110 140 168 205 252 305
#     4   8  15  28  49  74 100 132 171 207 244 296
#     4  10  19  32  55  80 102 133 176 218 258 306
#     4  10  21  37  55  79 108 137 168 206 252 305
#
# _framework density 18.01548
#
# number of rings (size 3 to 8) (size 9 to 14) (size 15 to 20)
#    0.000    2.250    0.000    4.500    0.000    5.500 
#    0.000    8.750    0.000    0.750    0.000    1.750 
#    0.000    0.000    0.000    0.000    0.000    0.000 
#
# Total GULP energy -396807.663628 kJ/mol
# GULP energy per Si atom -12400.239488 kJ/mol
# Density = 1.797448 g / cm^3
# Si number density = 18.015480 Si / 1000 Ang^3
#
#
#
# Elastic Constant Matrix: (Units=GPa)
#
#
# Indices 1 2 3 4 5 6 
#
# 1 67.2126 37.0081 35.9792 0.0000 0.0000 0.0000
# 2 37.0081 90.4775 64.7014 0.0002 0.0000 0.0000
# 3 35.9792 64.7014 107.3059 -0.0003 -0.0001 -0.0001
# 4 0.0000 0.0002 -0.0003 29.3509 -0.0001 0.0000
# 5 0.0000 0.0000 -0.0001 -0.0001 25.1150 -0.0001
# 6 0.0000 0.0000 -0.0001 0.0000 -0.0001 29.5208
#
#
#
# Elastic Compliance Matrix: (Units=1/GPa)
#
#
# Indices 1 2 3 4 5 6 
#
# 1 0.019766 -0.005882 -0.003081 0.000000 0.000000 0.000000
# 2 -0.005882 0.021181 -0.010799 0.000000 0.000000 0.000000
# 3 -0.003081 -0.010799 0.016864 0.000000 0.000000 0.000000
# 4 0.000000 0.000000 0.000000 0.034071 0.000000 0.000000
# 5 0.000000 0.000000 0.000000 0.000000 0.039817 0.000000
# 6 0.000000 0.000000 0.000000 0.000000 0.000000 0.033874
#
#
# Mechanical properties :
#
#
# Convention : Reuss Voigt Hill
#
# Bulk Modulus (GPa) = 54.68409 60.04147 57.36278
# Shear Modulus (GPa) = 23.67520 25.28449 24.47984
#
# Velocity S-wave (km/s) = 3.62907 3.75038 3.69022
# Velocity P-wave (km/s) = 6.92676 7.22176 7.07580
#
# Compressibility (1/GPa) = 0.01828686
#
# Stress axis : x y z
#
# Youngs Moduli (GPa) = 50.59208 47.21260 59.29902
#
# Poissons Ratio (x) = 0.27768 0.18270
# Poissons Ratio (y) = 0.29756 0.64038
# Poissons Ratio (z) = 0.15588 0.50986
#
# Static dielectric constant tensor:
#      x y z
#    x 3.165550 0.000000 0.000000 
#    y 0.000000 3.205030 0.000000 
#    z 0.000000 0.000000 3.423920 
# 
# 
# High freq. dielectric constant tensor:
#      x y z
#    x 1.684650 0.000000 0.000000 
#    y 0.000000 1.677750 0.000000 
#    z 0.000000 0.000000 1.701840 
# 
# From -- ./inp_files/14451.got.cif
#   From: 2010.03.12/outbox.cif.g09.slc.cpg/sg46_8_cif.got.tgz:14451.got - 2010.04.14 02:56:35.
