data_PCOD8191764
_publ_section_title
;
Structure prediction by ZEFSAII (Michael W. Deem and Ramdas Pophale) SiO2 
 PCOD8191764
Probable space group: I M A 2
;
_chemical_formula_sum "Si O2"
_cell_formula_units_Z 64
_cell_length_a 8.771872
_cell_length_b 33.376258
_cell_length_c 11.693258
_cell_angle_alpha 90.000000
_cell_angle_beta 90.000000
_cell_angle_gamma 90.000000
_cell_volume 3423.461607
_symmetry_space_group_name_H-M "I M A 2"
_symmetry_group_IT_number 46
_symmetry_cell_setting 'orthorhombic'
loop_
_space_group_symop_operation_xyz
x,y,z
-x,-y,z
1/2-x,y,z
1/2+x,-y,z
1/2+x,1/2+y,1/2+z
1/2-x,1/2-y,1/2+z
-x,1/2+y,1/2+z
x,1/2-y,1/2+z
loop_
_atom_site_type_symbol
_atom_site_label
_atom_site_fract_x
_atom_site_fract_y
_atom_site_fract_z
Si Si1 0.925833 0.262432 0.334420
Si Si2 0.573432 0.876131 0.465091
Si Si3 0.927329 0.042188 0.533326
Si Si4 0.573744 0.324618 0.529930
Si Si5 0.073003 0.833464 0.673365
Si Si6 0.072648 0.382424 0.371855
Si Si7 0.074620 0.315746 0.768235
Si Si8 0.071689 0.541411 0.299562
O O1 0.750000 0.248949 0.333246
O O2 0.963348 0.286886 0.449304
O O3 0.962007 0.288759 0.220314
O O4 0.033831 0.223902 0.340138
O O5 0.750000 0.884063 0.487574
O O6 0.491814 0.919323 0.465876
O O7 0.517706 0.844170 0.559280
O O8 0.543427 0.855505 0.342680
O O9 0.750000 0.038975 0.507246
O O10 0.961653 0.049817 0.666315
O O11 0.000000 0.000000 0.492182
O O12 0.750000 0.336633 0.517943
O O13 0.468416 0.361768 0.491924
O O14 0.535509 0.314765 0.659716
O O15 0.250000 0.839029 0.645559
O O16 0.030045 0.864111 0.772270
O O17 0.250000 0.377552 0.343681
O O18 0.022492 0.428278 0.378685
O O19 0.250000 0.313898 0.730056
O O20 0.250000 0.542884 0.327263
O O21 0.000000 0.500000 0.337346
#
# Coordination Sequence:
#
# PCOD8191764 Si02
#       8
#     8   8   8   8   8   8   8   8
#     4   9  21  39  59  82 109 146 190 237 286 339
#     4  11  23  37  55  84 119 154 192 239 290 347
#     4  10  20  34  56  83 117 155 190 236 288 348
#     4  10  22  41  61  81 108 148 194 235 280 339
#     4  10  20  35  55  81 111 148 191 232 279 340
#     4  11  20  33  56  82 112 148 182 229 283 335
#     4  11  25  40  57  84 115 149 191 240 290 340
#     4  10  19  31  50  81 117 150 186 228 279 340
#
# _framework density 18.694527999999998
#
# number of rings (size 3 to 8) (size 9 to 14) (size 15 to 20)
#    0.000    1.750    1.250    4.125    1.750    6.000 
#    0.000    0.000    0.000    0.750    0.000    1.750 
#    0.000    0.000    0.000    0.000    0.000    0.000 
#
# Total GULP energy -396854.426019 kJ/mol
# GULP energy per Si atom -12401.700813 kJ/mol
# Density = 1.865198 g / cm^3
# Si number density = 18.694528 Si / 1000 Ang^3
#
#
#
# Elastic Constant Matrix: (Units=GPa)
#
#
# Indices 1 2 3 4 5 6 
#
# 1 85.6219 56.4503 29.8632 0.0000 -0.0003 -0.0001
# 2 56.4503 126.8717 34.6287 0.0015 0.0002 0.0004
# 3 29.8632 34.6287 71.8041 0.0053 0.0006 0.0012
# 4 0.0000 0.0015 0.0053 24.0153 0.0004 0.0009
# 5 -0.0003 0.0002 0.0006 0.0004 27.6334 0.0008
# 6 -0.0001 0.0004 0.0012 0.0009 0.0008 34.3174
#
#
#
# Elastic Compliance Matrix: (Units=1/GPa)
#
#
# Indices 1 2 3 4 5 6 
#
# 1 0.017497 -0.006678 -0.004056 0.000001 0.000000 0.000000
# 2 -0.006678 0.011625 -0.002829 0.000000 0.000000 0.000000
# 3 -0.004056 -0.002829 0.016978 -0.000004 0.000000 -0.000001
# 4 0.000001 0.000000 -0.000004 0.041640 -0.000001 -0.000001
# 5 0.000000 0.000000 0.000000 -0.000001 0.036188 -0.000001
# 6 0.000000 0.000000 -0.000001 -0.000001 -0.000001 0.029140
#
#
# Mechanical properties :
#
#
# Convention : Reuss Voigt Hill
#
# Bulk Modulus (GPa) = 52.70503 58.46468 55.58485
# Shear Modulus (GPa) = 26.80681 28.08359 27.44520
#
# Velocity S-wave (km/s) = 3.79085 3.88007 3.83572
# Velocity P-wave (km/s) = 6.88583 7.17042 7.02956
#
# Compressibility (1/GPa) = 0.01897352
#
# Stress axis : x y z
#
# Youngs Moduli (GPa) = 57.15362 86.01830 58.89878
#
# Poissons Ratio (x) = 0.57442 0.23891
# Poissons Ratio (y) = 0.38166 0.16664
# Poissons Ratio (z) = 0.23184 0.24337
#
# Static dielectric constant tensor:
#      x y z
#    x 3.456640 0.000000 0.000000 
#    y 0.000000 3.514470 0.000000 
#    z 0.000000 0.000000 3.199750 
# 
# 
# High freq. dielectric constant tensor:
#      x y z
#    x 1.739160 0.000000 0.000000 
#    y 0.000000 1.731760 0.000000 
#    z 0.000000 0.000000 1.694850 
# 
# From -- ./inp_files/9725.got.cif
#   From: 2010.03.12/outbox.cif.g09.slc.cpg/sg46_5_cif.got.tgz:9725.got - 2010.04.14 02:56:35.
