data_PCOD8191294
_publ_section_title
;
Structure prediction by ZEFSAII (Michael W. Deem and Ramdas Pophale) SiO2 
 PCOD8191294
Probable space group: I M A 2
;
_chemical_formula_sum "Si O2"
_cell_formula_units_Z 64
_cell_length_a 8.775296
_cell_length_b 18.455311
_cell_length_c 26.102537
_cell_angle_alpha 90.000000
_cell_angle_beta 90.000000
_cell_angle_gamma 90.000000
_cell_volume 4227.327188
_symmetry_space_group_name_H-M "I M A 2"
_symmetry_group_IT_number 46
_symmetry_cell_setting 'orthorhombic'
loop_
_space_group_symop_operation_xyz
x,y,z
-x,-y,z
1/2-x,y,z
1/2+x,-y,z
1/2+x,1/2+y,1/2+z
1/2-x,1/2-y,1/2+z
-x,1/2+y,1/2+z
x,1/2-y,1/2+z
loop_
_atom_site_type_symbol
_atom_site_label
_atom_site_fract_x
_atom_site_fract_y
_atom_site_fract_z
Si Si1 0.570332 0.844042 0.154970
Si Si2 0.073576 0.922602 0.759841
Si Si3 0.931163 0.422727 0.562562
Si Si4 0.574976 0.074517 0.250277
Si Si5 0.076227 0.295961 0.211028
Si Si6 0.429580 0.076105 0.954410
Si Si7 0.923647 0.156236 0.865427
Si Si8 0.421849 0.782354 0.299106
O O1 0.750000 0.858394 0.150241
O O2 0.484984 0.862670 0.102616
O O3 0.507064 0.894412 0.200193
O O4 0.535272 0.758514 0.164348
O O5 0.250000 0.934547 0.755175
O O6 0.028165 0.887862 0.814472
O O7 0.022393 0.869430 0.713360
O O8 0.000000 0.000000 0.752911
O O9 0.750000 0.428097 0.560918
O O10 0.000000 0.500000 0.578979
O O11 0.993756 0.399013 0.507253
O O12 0.750000 0.060881 0.235779
O O13 0.559997 0.130415 0.298576
O O14 0.500000 0.000000 0.268432
O O15 0.250000 0.320495 0.208463
O O16 0.049091 0.249203 0.261896
O O17 0.250000 0.067660 0.962301
O O18 0.464296 0.135932 0.911432
O O19 0.500000 0.000000 0.935788
O O20 0.750000 0.137642 0.880957
O O21 0.942687 0.243005 0.854262
O O22 0.250000 0.762043 0.279048
#
# Coordination Sequence:
#
# PCOD8191294 Si02
#       8
#     8   8   8   8   8   8   8   8
#     4  10  19  31  45  62  84 112 144 177 211 251
#     4  10  19  29  43  62  87 115 145 177 209 248
#     4  11  21  33  47  62  83 111 142 178 213 248
#     4  10  18  28  42  62  86 114 145 176 210 249
#     4   9  17  28  43  61  83 109 139 174 211 248
#     4  11  21  32  45  62  84 110 140 176 212 248
#     4   9  17  30  45  61  81 110 144 176 209 247
#     4   8  16  29  43  58  81 111 142 174 208 247
#
# _framework density 15.139589000000001
#
# number of rings (size 3 to 8) (size 9 to 14) (size 15 to 20)
#    0.000    2.250    0.000    6.000    0.000    5.500 
#    0.000    0.000    0.000    0.000    0.000    0.000 
#    0.000    1.000    0.000    9.250    0.000    3.875 
#
# Total GULP energy -396622.426365 kJ/mol
# GULP energy per Si atom -12394.450824 kJ/mol
# Density = 1.510513 g / cm^3
# Si number density = 15.139589 Si / 1000 Ang^3
#
#
#
# Elastic Constant Matrix: (Units=GPa)
#
#
# Indices 1 2 3 4 5 6 
#
# 1 99.6606 49.2717 42.5689 0.0000 0.0000 0.0000
# 2 49.2717 109.9602 50.2361 0.0000 0.0000 0.0000
# 3 42.5689 50.2361 72.3404 0.0000 0.0000 0.0000
# 4 0.0000 0.0000 0.0000 24.0311 0.0000 0.0000
# 5 0.0000 0.0000 0.0000 0.0000 20.6748 0.0000
# 6 0.0000 0.0000 0.0000 0.0000 0.0000 24.4326
#
#
#
# Elastic Compliance Matrix: (Units=1/GPa)
#
#
# Indices 1 2 3 4 5 6 
#
# 1 0.014402 -0.003781 -0.005849 0.000000 0.000000 0.000000
# 2 -0.003781 0.014313 -0.007714 0.000000 0.000000 0.000000
# 3 -0.005849 -0.007714 0.022623 0.000000 0.000000 0.000000
# 4 0.000000 0.000000 0.000000 0.041613 0.000000 0.000000
# 5 0.000000 0.000000 0.000000 0.000000 0.048368 0.000000
# 6 0.000000 0.000000 0.000000 0.000000 0.000000 0.040929
#
#
# Mechanical properties :
#
#
# Convention : Reuss Voigt Hill
#
# Bulk Modulus (GPa) = 60.06671 62.90162 61.48417
# Shear Modulus (GPa) = 22.47340 23.15334 22.81337
#
# Velocity S-wave (km/s) = 3.85699 3.91490 3.88605
# Velocity P-wave (km/s) = 7.71988 7.87866 7.79967
#
# Compressibility (1/GPa) = 0.01664816
#
# Stress axis : x y z
#
# Youngs Moduli (GPa) = 69.43608 69.86741 44.20357
#
# Poissons Ratio (x) = 0.26417 0.25855
# Poissons Ratio (y) = 0.26254 0.34101
# Poissons Ratio (z) = 0.40613 0.53899
#
# Static dielectric constant tensor:
#      x y z
#    x 3.045110 0.000000 0.000000 
#    y 0.000000 3.063950 0.000000 
#    z 0.000000 0.000000 2.718120 
# 
# 
# High freq. dielectric constant tensor:
#      x y z
#    x 1.598930 0.000000 0.000000 
#    y 0.000000 1.572480 0.000000 
#    z 0.000000 0.000000 1.539540 
# 
# From -- ./inp_files/23297.got.cif
#   From: 2010.03.12/outbox.cif.g09.slc.cpg/sg46_12_cif.got.tgz:23297.got - 2010.04.14 02:56:35.
