data_PCOD8191126
_publ_section_title
;
Structure prediction by ZEFSAII (Michael W. Deem and Ramdas Pophale) SiO2 
 PCOD8191126
Probable space group: I B A 2
;
_chemical_formula_sum "Si O2"
_cell_formula_units_Z 48
_cell_length_a 7.721590
_cell_length_b 18.217603
_cell_length_c 13.363201
_cell_angle_alpha 90.000000
_cell_angle_beta 90.000000
_cell_angle_gamma 90.000000
_cell_volume 1879.786266
_symmetry_space_group_name_H-M "I B A 2"
_symmetry_group_IT_number 45
_symmetry_cell_setting 'orthorhombic'
loop_
_space_group_symop_operation_xyz
x,y,z
-x,-y,z
-x,y,1/2+z
x,-y,1/2+z
1/2+x,1/2+y,1/2+z
1/2-x,1/2-y,1/2+z
1/2-x,1/2+y,z
1/2+x,1/2-y,z
loop_
_atom_site_type_symbol
_atom_site_label
_atom_site_fract_x
_atom_site_fract_y
_atom_site_fract_z
Si Si1 0.864437 0.439937 0.271310
Si Si2 0.309628 0.138697 0.460710
Si Si3 0.723251 0.195241 0.684967
Si Si4 0.419209 0.663863 0.770025
Si Si5 0.200365 0.299152 0.461285
Si Si6 0.663807 0.538658 0.129721
O O1 0.761175 0.418522 0.372275
O O2 0.929390 0.361001 0.224138
O O3 0.766000 0.470465 0.175013
O O4 0.000000 0.500000 0.307063
O O5 0.186947 0.210400 0.454789
O O6 0.509545 0.165724 0.450201
O O7 0.277842 0.091217 0.560146
O O8 0.665381 0.278485 0.693281
O O9 0.777684 0.180154 0.570333
O O10 0.876819 0.181043 0.764956
O O11 0.334984 0.669067 0.880134
O O12 0.392357 0.582762 0.728748
O O13 0.500000 0.500000 0.074265
#
# Coordination Sequence:
#
# PCOD8191126 Si02
#       6
#     8   8   8   8   8   8
#     4  12  28  49  74 115 163 216 263 334 411 489
#     4  12  28  49  82 121 159 219 271 346 412 493
#     4  12  26  47  80 114 159 209 274 347 402 490
#     4  12  26  48  78 119 157 212 274 346 408 488
#     4  12  26  47  86 120 156 209 283 349 412 483
#     4  12  28  51  75 114 166 217 268 333 413 500
#
# _framework density 25.53482
#
# number of rings (size 3 to 8) (size 9 to 14) (size 15 to 20)
#    0.000    0.000    5.000    4.000    2.333    4.000 
#    0.000    0.000    0.000    0.000    0.000    0.000 
#    0.000    0.000    0.000    0.000    0.000    0.000 
#
# Total GULP energy -297317.836948 kJ/mol
# GULP energy per Si atom -12388.243206 kJ/mol
# Density = 2.547670 g / cm^3
# Si number density = 25.534820 Si / 1000 Ang^3
#
#
#
# Elastic Constant Matrix: (Units=GPa)
#
#
# Indices 1 2 3 4 5 6 
#
# 1 86.3251 43.9194 34.5688 0.0000 0.0000 0.0000
# 2 43.9194 125.8146 56.8670 -0.0001 0.0000 0.0000
# 3 34.5688 56.8670 149.4216 -0.0002 0.0000 0.0000
# 4 0.0000 -0.0001 -0.0002 46.5457 0.0000 0.0000
# 5 0.0000 0.0000 0.0000 0.0000 28.8363 0.0000
# 6 0.0000 0.0000 0.0000 0.0000 0.0000 51.4350
#
#
#
# Elastic Compliance Matrix: (Units=1/GPa)
#
#
# Indices 1 2 3 4 5 6 
#
# 1 0.014442 -0.004265 -0.001718 0.000000 0.000000 0.000000
# 2 -0.004265 0.010859 -0.003146 0.000000 0.000000 0.000000
# 3 -0.001718 -0.003146 0.008287 0.000000 0.000000 0.000000
# 4 0.000000 0.000000 0.000000 0.021484 0.000000 0.000000
# 5 0.000000 0.000000 0.000000 0.000000 0.034678 0.000000
# 6 0.000000 0.000000 0.000000 0.000000 0.000000 0.019442
#
#
# Mechanical properties :
#
#
# Convention : Reuss Voigt Hill
#
# Bulk Modulus (GPa) = 65.23028 70.25241 67.74135
# Shear Modulus (GPa) = 37.71853 40.44380 39.08116
#
# Velocity S-wave (km/s) = 3.84753 3.98410 3.91641
# Velocity P-wave (km/s) = 6.73343 6.98113 6.85840
#
# Compressibility (1/GPa) = 0.01533030
#
# Stress axis : x y z
#
# Youngs Moduli (GPa) = 69.24289 92.08986 120.66714
#
# Poissons Ratio (x) = 0.39275 0.20731
# Poissons Ratio (y) = 0.29531 0.37962
# Poissons Ratio (z) = 0.11896 0.28972
#
# Static dielectric constant tensor:
#      x y z
#    x 4.680420 0.000000 0.000000 
#    y 0.000000 5.336640 0.000000 
#    z 0.000000 0.000000 4.627560 
# 
# 
# High freq. dielectric constant tensor:
#      x y z
#    x 1.999210 0.000000 0.000000 
#    y 0.000000 2.042420 0.000000 
#    z 0.000000 0.000000 2.034270 
# 
# From -- ./inp_files/5620.got.cif
#   From: 2010.03.12/outbox.cif.g09.slc.cpg/sg45_3_cif.got.tgz:5620.got - 2010.04.14 02:50:11.
