data_PCOD8191674
_publ_section_title
;
Structure prediction by ZEFSAII (Michael W. Deem and Ramdas Pophale) SiO2 
 PCOD8191674
Probable space group: I M A 2
;
_chemical_formula_sum "Si O2"
_cell_formula_units_Z 56
_cell_length_a 8.756645
_cell_length_b 13.685811
_cell_length_c 29.013474
_cell_angle_alpha 90.000000
_cell_angle_beta 90.000000
_cell_angle_gamma 90.000000
_cell_volume 3477.026614
_symmetry_space_group_name_H-M "I M A 2"
_symmetry_group_IT_number 46
_symmetry_cell_setting 'orthorhombic'
loop_
_space_group_symop_operation_xyz
x,y,z
-x,-y,z
1/2-x,y,z
1/2+x,-y,z
1/2+x,1/2+y,1/2+z
1/2-x,1/2-y,1/2+z
-x,1/2+y,1/2+z
x,1/2-y,1/2+z
loop_
_atom_site_type_symbol
_atom_site_label
_atom_site_fract_x
_atom_site_fract_y
_atom_site_fract_z
Si Si1 0.930509 0.608026 0.171630
Si Si2 0.573311 0.104787 0.762569
Si Si3 0.570068 0.216110 0.586512
Si Si4 0.929949 0.605669 0.538042
Si Si5 0.071019 0.895196 0.494533
Si Si6 0.428821 0.218577 0.946524
Si Si7 0.427183 0.893557 0.864320
O O1 0.750000 0.599930 0.169845
O O2 0.000000 0.500000 0.165675
O O3 0.984973 0.657104 0.220260
O O4 0.987600 0.678760 0.131901
O O5 0.750000 0.095718 0.748861
O O6 0.552898 0.153653 0.812973
O O7 0.500000 0.000000 0.767991
O O8 0.750000 0.221569 0.594652
O O9 0.506761 0.323363 0.575364
O O10 0.526707 0.142444 0.545327
O O11 0.750000 0.603332 0.546454
O O12 0.970965 0.641679 0.486627
O O13 0.000000 0.500000 0.545551
O O14 0.250000 0.901837 0.487991
O O15 0.005597 0.822462 0.456235
O O16 0.000000 0.000000 0.486222
O O17 0.250000 0.234944 0.942973
O O18 0.491406 0.180601 0.898350
O O19 0.250000 0.903956 0.877246
O O20 0.500000 0.000000 0.868874
#
# Coordination Sequence:
#
# PCOD8191674 Si02
#       7
#     8   8   8   8   8   8   8
#     4  11  20  30  46  68  95 125 156 191 230 276
#     4   9  17  29  44  64  91 122 154 189 229 274
#     4  10  20  33  49  69  93 123 157 192 230 274
#     4  10  20  33  48  68  94 124 157 193 231 272
#     4  10  20  33  49  68  93 123 156 193 232 273
#     4  10  20  32  48  69  94 124 158 192 229 274
#     4  10  19  30  46  68  95 125 157 192 231 275
#
# _framework density 16.105713999999999
#
# number of rings (size 3 to 8) (size 9 to 14) (size 15 to 20)
#    0.000    2.000    0.000    5.571    0.000    7.429 
#    0.000    0.000    0.000    0.000    0.000    1.000 
#    0.000    6.857    0.000    0.000    0.000    0.000 
#
# Total GULP energy -347178.697155 kJ/mol
# GULP energy per Si atom -12399.239184 kJ/mol
# Density = 1.606906 g / cm^3
# Si number density = 16.105714 Si / 1000 Ang^3
#
#
#
# Elastic Constant Matrix: (Units=GPa)
#
#
# Indices 1 2 3 4 5 6 
#
# 1 88.8656 45.1400 48.3589 0.0000 0.0000 0.0000
# 2 45.1400 104.9891 55.6947 0.0000 0.0000 0.0000
# 3 48.3589 55.6947 118.0058 0.0000 0.0000 0.0000
# 4 0.0000 0.0000 0.0000 25.2934 0.0000 0.0000
# 5 0.0000 0.0000 0.0000 0.0000 29.1094 0.0000
# 6 0.0000 0.0000 0.0000 0.0000 0.0000 28.8478
#
#
#
# Elastic Compliance Matrix: (Units=1/GPa)
#
#
# Indices 1 2 3 4 5 6 
#
# 1 0.015944 -0.004521 -0.004400 0.000000 0.000000 0.000000
# 2 -0.004521 0.013988 -0.004749 0.000000 0.000000 0.000000
# 3 -0.004400 -0.004749 0.012519 0.000000 0.000000 0.000000
# 4 0.000000 0.000000 0.000000 0.039536 0.000000 0.000000
# 5 0.000000 0.000000 0.000000 0.000000 0.034353 0.000000
# 6 0.000000 0.000000 0.000000 0.000000 0.000000 0.034665
#
#
# Mechanical properties :
#
#
# Convention : Reuss Voigt Hill
#
# Bulk Modulus (GPa) = 66.18034 67.80530 66.99282
# Shear Modulus (GPa) = 27.26561 27.49458 27.38009
#
# Velocity S-wave (km/s) = 4.11897 4.13623 4.12761
# Velocity P-wave (km/s) = 7.98759 8.06243 8.02510
#
# Compressibility (1/GPa) = 0.01511023
#
# Stress axis : x y z
#
# Youngs Moduli (GPa) = 62.72030 71.49053 79.88016
#
# Poissons Ratio (x) = 0.32320 0.35148
# Poissons Ratio (y) = 0.28355 0.37936
# Poissons Ratio (z) = 0.27598 0.33952
#
# Static dielectric constant tensor:
#      x y z
#    x 3.255070 0.000000 0.000000 
#    y 0.000000 2.833320 0.000000 
#    z 0.000000 0.000000 3.445240 
# 
# 
# High freq. dielectric constant tensor:
#      x y z
#    x 1.643870 0.000000 0.000000 
#    y 0.000000 1.586420 0.000000 
#    z 0.000000 0.000000 1.620470 
# 
# From -- ./inp_files/25248.got.cif
#   From: 2010.03.12/outbox.cif.g09.slc.cpg/sg46_13_cif.got.tgz:25248.got - 2010.04.14 02:56:35.
