data_PCOD8191802
_publ_section_title
;
Structure prediction by ZEFSAII (Michael W. Deem and Ramdas Pophale) SiO2 
 PCOD8191802
Probable space group: I M A 2
;
_chemical_formula_sum "Si O2"
_cell_formula_units_Z 64
_cell_length_a 8.947457
_cell_length_b 14.686170
_cell_length_c 27.194955
_cell_angle_alpha 90.000000
_cell_angle_beta 90.000000
_cell_angle_gamma 90.000000
_cell_volume 3573.522456
_symmetry_space_group_name_H-M "I M A 2"
_symmetry_group_IT_number 46
_symmetry_cell_setting 'orthorhombic'
loop_
_space_group_symop_operation_xyz
x,y,z
-x,-y,z
1/2-x,y,z
1/2+x,-y,z
1/2+x,1/2+y,1/2+z
1/2-x,1/2-y,1/2+z
-x,1/2+y,1/2+z
x,1/2-y,1/2+z
loop_
_atom_site_type_symbol
_atom_site_label
_atom_site_fract_x
_atom_site_fract_y
_atom_site_fract_z
Si Si1 0.926369 0.093326 0.606510
Si Si2 0.426327 0.405164 0.378066
Si Si3 0.572703 0.272397 0.302801
Si Si4 0.075604 0.407807 0.655935
Si Si5 0.927078 0.594540 0.768424
Si Si6 0.075596 0.908377 0.718352
Si Si7 0.923436 0.592315 0.491216
Si Si8 0.073959 0.230804 0.073385
O O1 0.750000 0.085487 0.601050
O O2 0.976461 0.112844 0.662800
O O3 0.986933 0.174148 0.572508
O O4 0.000000 0.000000 0.587758
O O5 0.500000 0.500000 0.361145
O O6 0.250000 0.409237 0.367460
O O7 0.502786 0.323469 0.349089
O O8 0.462934 0.385573 0.434959
O O9 0.750000 0.264527 0.309130
O O10 0.499428 0.173057 0.301460
O O11 0.527616 0.324927 0.252837
O O12 0.250000 0.424242 0.650816
O O13 0.029349 0.385740 0.711812
O O14 0.022944 0.325075 0.621642
O O15 0.000000 0.500000 0.637090
O O16 0.750000 0.590995 0.776523
O O17 0.000000 0.500000 0.785773
O O18 0.250000 0.926252 0.720793
O O19 0.000000 0.000000 0.738580
O O20 0.750000 0.575482 0.499002
O O21 0.976767 0.676322 0.524760
O O22 0.000000 0.500000 0.509400
O O23 0.250000 0.250226 0.073913
#
# Coordination Sequence:
#
# PCOD8191802 Si02
#       8
#     8   8   8   8   8   8   8   8
#     4  10  20  34  50  70  97 132 168 205 245 288
#     4  10  20  35  53  76 104 133 163 201 248 298
#     4  11  21  33  51  75 100 131 169 208 248 296
#     4   9  18  30  47  72 103 135 167 202 242 287
#     4  10  20  34  50  71 100 135 170 207 247 290
#     4   9  19  32  47  70 101 132 165 202 243 290
#     4   9  19  34  53  76 104 133 162 199 245 293
#     4  10  19  32  50  74 101 131 166 204 244 290
#
# _framework density 17.909497999999999
#
# number of rings (size 3 to 8) (size 9 to 14) (size 15 to 20)
#    0.000    2.250    0.000    3.000    0.000    4.500 
#    0.000    0.000    0.000    0.750    0.000    3.500 
#    0.000    0.000    0.000    0.000    0.000    0.000 
#
# Total GULP energy -396907.839715 kJ/mol
# GULP energy per Si atom -12403.369991 kJ/mol
# Density = 1.786874 g / cm^3
# Si number density = 17.909498 Si / 1000 Ang^3
#
#
#
# Elastic Constant Matrix: (Units=GPa)
#
#
# Indices 1 2 3 4 5 6 
#
# 1 70.6639 63.5958 37.9170 0.0000 0.0000 0.0000
# 2 63.5958 165.0175 67.1283 0.0000 0.0000 0.0000
# 3 37.9170 67.1283 72.6952 0.0000 0.0000 0.0000
# 4 0.0000 0.0000 0.0000 26.2905 0.0000 0.0000
# 5 0.0000 0.0000 0.0000 0.0000 21.1524 0.0000
# 6 0.0000 0.0000 0.0000 0.0000 0.0000 37.9827
#
#
#
# Elastic Compliance Matrix: (Units=1/GPa)
#
#
# Indices 1 2 3 4 5 6 
#
# 1 0.023279 -0.006458 -0.006179 0.000000 0.000000 0.000000
# 2 -0.006458 0.011498 -0.007249 0.000000 0.000000 0.000000
# 3 -0.006179 -0.007249 0.023672 0.000000 0.000000 0.000000
# 4 0.000000 0.000000 0.000000 0.038037 0.000000 0.000000
# 5 0.000000 0.000000 0.000000 0.000000 0.047276 0.000000
# 6 0.000000 0.000000 0.000000 0.000000 0.000000 0.026328
#
#
# Mechanical properties :
#
#
# Convention : Reuss Voigt Hill
#
# Bulk Modulus (GPa) = 53.53805 71.73984 62.63895
# Shear Modulus (GPa) = 23.13902 26.40082 24.76992
#
# Velocity S-wave (km/s) = 3.59834 3.84360 3.72299
# Velocity P-wave (km/s) = 6.87187 7.73573 7.31656
#
# Compressibility (1/GPa) = 0.01867831
#
# Stress axis : x y z
#
# Youngs Moduli (GPa) = 42.95751 86.97540 42.24352
#
# Poissons Ratio (x) = 0.56169 0.26100
# Poissons Ratio (y) = 0.27742 0.30621
# Poissons Ratio (z) = 0.26541 0.63045
#
# Static dielectric constant tensor:
#      x y z
#    x 3.280840 0.000000 0.000000 
#    y 0.000000 3.321820 0.000000 
#    z 0.000000 0.000000 3.305910 
# 
# 
# High freq. dielectric constant tensor:
#      x y z
#    x 1.698540 0.000000 0.000000 
#    y 0.000000 1.694200 0.000000 
#    z 0.000000 0.000000 1.672560 
# 
# From -- ./inp_files/23147.got.cif
#   From: 2010.03.12/outbox.cif.g09.slc.cpg/sg46_12_cif.got.tgz:23147.got - 2010.04.14 02:56:35.
