data_PCOD8191916
_publ_section_title
;
Structure prediction by ZEFSAII (Michael W. Deem and Ramdas Pophale) SiO2 
 PCOD8191916
Probable space group: I M A 2
;
_chemical_formula_sum "Si O2"
_cell_formula_units_Z 40
_cell_length_a 7.868488
_cell_length_b 28.322796
_cell_length_c 9.943667
_cell_angle_alpha 90.000000
_cell_angle_beta 90.000000
_cell_angle_gamma 90.000000
_cell_volume 2216.021568
_symmetry_space_group_name_H-M "I M A 2"
_symmetry_group_IT_number 46
_symmetry_cell_setting 'orthorhombic'
loop_
_space_group_symop_operation_xyz
x,y,z
-x,-y,z
1/2-x,y,z
1/2+x,-y,z
1/2+x,1/2+y,1/2+z
1/2-x,1/2-y,1/2+z
-x,1/2+y,1/2+z
x,1/2-y,1/2+z
loop_
_atom_site_type_symbol
_atom_site_label
_atom_site_fract_x
_atom_site_fract_y
_atom_site_fract_z
Si Si1 0.750000 0.296900 0.464190
Si Si2 0.560021 0.379361 0.170490
Si Si3 0.550154 0.448573 0.947631
Si Si4 0.438181 0.134063 0.956900
Si Si5 0.750000 0.208679 0.657425
Si Si6 0.950515 0.052007 0.145263
O O1 0.581651 0.327548 0.490806
O O2 0.750000 0.254390 0.567563
O O3 0.750000 0.276113 0.313999
O O4 0.750000 0.399118 0.205435
O O5 0.447911 0.384125 0.303508
O O6 0.582281 0.323853 0.128392
O O7 0.474612 0.409167 0.049444
O O8 0.500000 0.500000 0.003043
O O9 0.750000 0.442757 0.941931
O O10 0.478018 0.441038 0.797419
O O11 0.250000 0.156013 0.979134
O O12 0.455506 0.089317 0.052814
O O13 0.750000 0.059820 0.136961
O O14 0.000000 0.000000 0.094049
#
# Coordination Sequence:
#
# PCOD8191916 Si02
#       6
#     4   8   8   8   4   8
#     4  10  20  40  58  86 108 142 188 234 283 336
#     4   8  17  36  54  79 104 144 187 221 274 335
#     4   9  18  31  52  77 111 146 183 228 271 323
#     4  11  21  36  57  81 112 148 184 231 278 329
#     4   8  18  34  62  76 106 144 182 228 283 332
#     4  10  19  33  51  79 113 149 189 230 275 330
#
# _framework density 18.050366
#
# number of rings (size 3 to 8) (size 9 to 14) (size 15 to 20)
#    0.600    2.000    2.000    0.600    0.000    4.000 
#    0.000    6.000    0.000    0.000    0.000    0.000 
#    0.000    0.000    0.000    0.000    0.000    0.000 
#
# Total GULP energy -247861.185550 kJ/mol
# GULP energy per Si atom -12393.059278 kJ/mol
# Density = 1.800928 g / cm^3
# Si number density = 18.050366 Si / 1000 Ang^3
#
#
#
# Elastic Constant Matrix: (Units=GPa)
#
#
# Indices 1 2 3 4 5 6 
#
# 1 84.2778 36.1842 32.8156 -0.0001 0.0002 0.0000
# 2 36.1842 129.9736 96.7979 0.0001 0.0002 0.0000
# 3 32.8156 96.7979 111.8238 -0.0014 0.0014 0.0002
# 4 -0.0001 0.0001 -0.0014 50.3327 0.0004 0.0000
# 5 0.0002 0.0002 0.0014 0.0004 3.4422 -0.0002
# 6 0.0000 0.0000 0.0002 0.0000 -0.0002 18.0053
#
#
#
# Elastic Compliance Matrix: (Units=1/GPa)
#
#
# Indices 1 2 3 4 5 6 
#
# 1 0.013636 -0.002296 -0.002014 0.000000 0.000000 0.000000
# 2 -0.002296 0.022040 -0.018405 -0.000001 0.000006 0.000000
# 3 -0.002014 -0.018405 0.025465 0.000001 -0.000009 0.000000
# 4 0.000000 -0.000001 0.000001 0.019868 -0.000003 0.000000
# 5 0.000000 0.000006 -0.000009 -0.000003 0.290514 0.000003
# 6 0.000000 0.000000 0.000000 0.000000 0.000003 0.055539
#
#
# Mechanical properties :
#
#
# Convention : Reuss Voigt Hill
#
# Bulk Modulus (GPa) = 63.64802 73.07451 68.36126
# Shear Modulus (GPa) = 10.46620 25.04120 17.75370
#
# Velocity S-wave (km/s) = 2.41058 3.72868 3.13959
# Velocity P-wave (km/s) = 6.56398 7.68824 7.14824
#
# Compressibility (1/GPa) = 0.01571141
#
# Stress axis : x y z
#
# Youngs Moduli (GPa) = 73.33788 45.37200 39.26947
#
# Poissons Ratio (x) = 0.10420 0.07907
# Poissons Ratio (y) = 0.16842 0.72274
# Poissons Ratio (z) = 0.14767 0.83505
#
# Static dielectric constant tensor:
#      x y z
#    x 3.185380 0.000000 0.000000 
#    y 0.000000 3.093330 0.000000 
#    z 0.000000 0.000000 3.470140 
# 
# 
# High freq. dielectric constant tensor:
#      x y z
#    x 1.685310 0.000000 0.000000 
#    y 0.000000 1.681820 0.000000 
#    z 0.000000 0.000000 1.702080 
# 
# From -- ./inp_files/3770.got.cif
#   From: 2010.03.12/outbox.cif.g09.slc.cpg/sg46_2_cif.got.tgz:3770.got - 2010.04.14 02:56:35.
