data_PCOD8191223
_publ_section_title
;
Structure prediction by ZEFSAII (Michael W. Deem and Ramdas Pophale) SiO2 
 PCOD8191223
Probable space group: I M A 2
;
_chemical_formula_sum "Si O2"
_cell_formula_units_Z 64
_cell_length_a 17.781490
_cell_length_b 10.974538
_cell_length_c 17.312248
_cell_angle_alpha 90.000000
_cell_angle_beta 90.000000
_cell_angle_gamma 90.000000
_cell_volume 3378.375052
_symmetry_space_group_name_H-M "I M A 2"
_symmetry_group_IT_number 46
_symmetry_cell_setting 'orthorhombic'
loop_
_space_group_symop_operation_xyz
x,y,z
-x,-y,z
1/2-x,y,z
1/2+x,-y,z
1/2+x,1/2+y,1/2+z
1/2-x,1/2-y,1/2+z
-x,1/2+y,1/2+z
x,1/2-y,1/2+z
loop_
_atom_site_type_symbol
_atom_site_label
_atom_site_fract_x
_atom_site_fract_y
_atom_site_fract_z
Si Si1 0.568986 0.422348 0.636170
Si Si2 0.335834 0.711467 0.077268
Si Si3 0.664339 0.598174 0.729752
Si Si4 0.975247 0.260668 0.267622
Si Si5 0.111744 0.135368 0.694066
Si Si6 0.167696 0.609091 0.249173
Si Si7 0.563239 0.600277 0.871421
Si Si8 0.086707 0.474702 0.033945
O O1 0.500000 0.500000 0.598074
O O2 0.607807 0.328689 0.575218
O O3 0.632818 0.516993 0.660556
O O4 0.536255 0.356842 0.712899
O O5 0.250000 0.743735 0.051205
O O6 0.335754 0.664611 0.164285
O O7 0.369623 0.603950 0.023798
O O8 0.750000 0.563728 0.739095
O O9 0.653825 0.739020 0.709480
O O10 0.626893 0.562774 0.810985
O O11 0.897321 0.321061 0.296816
O O12 0.023707 0.357464 0.217747
O O13 0.022797 0.225010 0.343872
O O14 0.120741 0.102704 0.604192
O O15 0.152368 0.034589 0.746845
O O16 0.250000 0.632214 0.286634
O O17 0.500000 0.500000 0.876194
O O18 0.598829 0.607928 0.957186
O O19 0.000000 0.500000 0.051704
#
# Coordination Sequence:
#
# PCOD8191223 Si02
#       8
#     8   8   8   8   8   8   8   8
#     4  11  17  31  53  76 111 142 182 236 284 332
#     4   9  19  32  50  80 112 143 183 235 289 337
#     4  11  21  32  52  82 113 148 188 237 287 334
#     4  10  17  31  53  77 109 142 186 238 280 326
#     4  10  18  32  51  82 111 144 184 235 282 337
#     4   9  17  28  47  78 111 141 180 233 285 323
#     4  10  19  36  51  79 111 145 183 228 280 344
#     4  10  20  33  57  81 112 145 186 233 288 343
#
# _framework density 18.944018
#
# number of rings (size 3 to 8) (size 9 to 14) (size 15 to 20)
#    0.000    2.000    3.750    3.375    0.000    1.500 
#    0.000    0.000    0.000    0.000   39.000    0.000 
#    0.000    0.000    0.000    0.000    0.000    0.000 
#
# Total GULP energy -396656.462079 kJ/mol
# GULP energy per Si atom -12395.514440 kJ/mol
# Density = 1.890090 g / cm^3
# Si number density = 18.944018 Si / 1000 Ang^3
#
#
#
# Elastic Constant Matrix: (Units=GPa)
#
#
# Indices 1 2 3 4 5 6 
#
# 1 137.3404 39.0628 23.0218 0.0000 0.0000 0.0000
# 2 39.0628 89.5706 26.0328 0.0000 0.0000 0.0000
# 3 23.0218 26.0328 63.9103 0.0000 0.0000 0.0000
# 4 0.0000 0.0000 0.0000 19.2143 0.0000 0.0000
# 5 0.0000 0.0000 0.0000 0.0000 8.7293 0.0000
# 6 0.0000 0.0000 0.0000 0.0000 0.0000 28.4060
#
#
#
# Elastic Compliance Matrix: (Units=1/GPa)
#
#
# Indices 1 2 3 4 5 6 
#
# 1 0.008483 -0.003189 -0.001757 0.000000 0.000000 0.000000
# 2 -0.003189 0.013862 -0.004498 0.000000 0.000000 0.000000
# 3 -0.001757 -0.004498 0.018112 0.000000 0.000000 0.000000
# 4 0.000000 0.000000 0.000000 0.052044 0.000000 0.000000
# 5 0.000000 0.000000 0.000000 0.000000 0.114557 0.000000
# 6 0.000000 0.000000 0.000000 0.000000 0.000000 0.035204
#
#
# Mechanical properties :
#
#
# Convention : Reuss Voigt Hill
#
# Bulk Modulus (GPa) = 46.36074 51.89513 49.12793
# Shear Modulus (GPa) = 18.63317 24.78353 21.70835
#
# Velocity S-wave (km/s) = 3.13963 3.62090 3.38882
# Velocity P-wave (km/s) = 6.13748 6.70333 6.42663
#
# Compressibility (1/GPa) = 0.02156998
#
# Stress axis : x y z
#
# Youngs Moduli (GPa) = 117.88818 72.13797 55.21241
#
# Poissons Ratio (x) = 0.23003 0.09699
# Poissons Ratio (y) = 0.37592 0.24834
# Poissons Ratio (z) = 0.20709 0.32447
#
# Static dielectric constant tensor:
#      x y z
#    x 3.776280 0.000000 0.000000 
#    y 0.000000 3.594620 0.000000 
#    z 0.000000 0.000000 3.233840 
# 
# 
# High freq. dielectric constant tensor:
#      x y z
#    x 1.749050 0.000000 0.000000 
#    y 0.000000 1.738040 0.000000 
#    z 0.000000 0.000000 1.679150 
# 
# From -- ./inp_files/20035.got.cif
#   From: 2010.03.12/outbox.cif.g09.slc.cpg/sg46_11_cif.got.tgz:20035.got - 2010.04.14 02:56:35.
