data_PCOD8191738
_publ_section_title
;
Structure prediction by ZEFSAII (Michael W. Deem and Ramdas Pophale) SiO2 
 PCOD8191738
Probable space group: I M A 2
;
_chemical_formula_sum "Si O2"
_cell_formula_units_Z 64
_cell_length_a 8.969467
_cell_length_b 23.230319
_cell_length_c 19.013954
_cell_angle_alpha 90.000000
_cell_angle_beta 90.000000
_cell_angle_gamma 90.000000
_cell_volume 3961.815519
_symmetry_space_group_name_H-M "I M A 2"
_symmetry_group_IT_number 46
_symmetry_cell_setting 'orthorhombic'
loop_
_space_group_symop_operation_xyz
x,y,z
-x,-y,z
1/2-x,y,z
1/2+x,-y,z
1/2+x,1/2+y,1/2+z
1/2-x,1/2-y,1/2+z
-x,1/2+y,1/2+z
x,1/2-y,1/2+z
loop_
_atom_site_type_symbol
_atom_site_label
_atom_site_fract_x
_atom_site_fract_y
_atom_site_fract_z
Si Si1 0.076913 0.165814 0.846890
Si Si2 0.924370 0.940665 0.213202
Si Si3 0.925150 0.271474 0.229399
Si Si4 0.078257 0.227618 0.439151
Si Si5 0.071889 0.613480 0.576697
Si Si6 0.925103 0.245160 0.075610
Si Si7 0.573844 0.559314 0.440490
Si Si8 0.079672 0.332421 0.801971
O O1 0.250000 0.175004 0.832616
O O2 0.020807 0.213606 0.902473
O O3 0.040344 0.103156 0.876949
O O4 0.995138 0.175360 0.772473
O O5 0.750000 0.949437 0.196449
O O6 0.949147 0.897815 0.278990
O O7 0.006363 0.916045 0.145438
O O8 0.000000 0.000000 0.236180
O O9 0.750000 0.275052 0.237392
O O10 0.974470 0.275895 0.147953
O O11 0.975180 0.209520 0.257713
O O12 0.250000 0.233098 0.459494
O O13 0.047449 0.174613 0.385562
O O14 0.990566 0.217874 0.511410
O O15 0.250000 0.608058 0.577294
O O16 0.016422 0.679405 0.574092
O O17 0.005741 0.580021 0.510800
O O18 0.750000 0.244606 0.067770
O O19 0.500000 0.500000 0.416053
O O20 0.750000 0.552912 0.454209
O O21 0.250000 0.313680 0.786668
#
# Coordination Sequence:
#
# PCOD8191738 Si02
#       8
#     8   8   8   8   8   8   8   8
#     4   9  19  34  49  69  96 126 162 201 241 288
#     4  11  22  35  51  69  96 132 170 206 243 285
#     4  10  19  31  49  72  98 125 159 200 241 286
#     4   9  17  31  50  70  93 123 160 197 238 289
#     4  11  21  34  48  68 101 134 170 203 235 284
#     4  10  20  31  46  73 102 128 158 196 239 287
#     4  11  22  36  51  70  97 131 171 206 242 286
#     4   9  19  34  49  69  95 126 162 200 242 289
#
# _framework density 16.154209999999999
#
# number of rings (size 3 to 8) (size 9 to 14) (size 15 to 20)
#    0.000    2.000    2.500    2.625    0.000    5.000 
#    0.000    0.000    0.000    0.000    0.000    0.875 
#    0.000    2.000    0.000    0.000    0.000    0.000 
#
# Total GULP energy -396800.856281 kJ/mol
# GULP energy per Si atom -12400.026759 kJ/mol
# Density = 1.611744 g / cm^3
# Si number density = 16.154210 Si / 1000 Ang^3
#
#
#
# Elastic Constant Matrix: (Units=GPa)
#
#
# Indices 1 2 3 4 5 6 
#
# 1 56.9366 38.7531 49.6303 0.0000 0.0000 0.0000
# 2 38.7531 91.4116 62.8393 0.0000 0.0000 0.0000
# 3 49.6303 62.8393 130.9795 0.0001 0.0000 0.0000
# 4 0.0000 0.0000 0.0001 37.6671 0.0000 0.0000
# 5 0.0000 0.0000 0.0000 0.0000 26.4440 0.0000
# 6 0.0000 0.0000 0.0000 0.0000 0.0000 24.3899
#
#
#
# Elastic Compliance Matrix: (Units=1/GPa)
#
#
# Indices 1 2 3 4 5 6 
#
# 1 0.028997 -0.007072 -0.007594 0.000000 0.000000 0.000000
# 2 -0.007072 0.018048 -0.005979 0.000000 0.000000 0.000000
# 3 -0.007594 -0.005979 0.013381 0.000000 0.000000 0.000000
# 4 0.000000 0.000000 0.000000 0.026548 0.000000 0.000000
# 5 0.000000 0.000000 0.000000 0.000000 0.037816 0.000000
# 6 0.000000 0.000000 0.000000 0.000000 0.000000 0.041001
#
#
# Mechanical properties :
#
#
# Convention : Reuss Voigt Hill
#
# Bulk Modulus (GPa) = 52.26177 64.64145 58.45161
# Shear Modulus (GPa) = 23.42364 26.24055 24.83209
#
# Velocity S-wave (km/s) = 3.81202 4.03473 3.92496
# Velocity P-wave (km/s) = 7.19704 7.86177 7.53674
#
# Compressibility (1/GPa) = 0.01913445
#
# Stress axis : x y z
#
# Youngs Moduli (GPa) = 34.48644 55.40820 74.73364
#
# Poissons Ratio (x) = 0.39187 0.56755
# Poissons Ratio (y) = 0.24390 0.44682
# Poissons Ratio (z) = 0.26190 0.33128
#
# Static dielectric constant tensor:
#      x y z
#    x 3.107710 0.000000 0.000000 
#    y 0.000000 3.038040 0.000000 
#    z 0.000000 0.000000 3.186760 
# 
# 
# High freq. dielectric constant tensor:
#      x y z
#    x 1.630810 0.000000 0.000000 
#    y 0.000000 1.595870 0.000000 
#    z 0.000000 0.000000 1.616900 
# 
# From -- ./inp_files/18568.got.cif
#   From: 2010.03.12/outbox.cif.g09.slc.cpg/sg46_10_cif.got.tgz:18568.got - 2010.04.14 02:56:35.
