data_PCOD8191168
_publ_section_title
;
Structure prediction by ZEFSAII (Michael W. Deem and Ramdas Pophale) SiO2 
 PCOD8191168
Probable space group: I M A 2
;
_chemical_formula_sum "Si O2"
_cell_formula_units_Z 56
_cell_length_a 9.027046
_cell_length_b 13.699999
_cell_length_c 29.193083
_cell_angle_alpha 90.000000
_cell_angle_beta 90.000000
_cell_angle_gamma 90.000000
_cell_volume 3610.323789
_symmetry_space_group_name_H-M "I M A 2"
_symmetry_group_IT_number 46
_symmetry_cell_setting 'orthorhombic'
loop_
_space_group_symop_operation_xyz
x,y,z
-x,-y,z
1/2-x,y,z
1/2+x,-y,z
1/2+x,1/2+y,1/2+z
1/2-x,1/2-y,1/2+z
-x,1/2+y,1/2+z
x,1/2-y,1/2+z
loop_
_atom_site_type_symbol
_atom_site_label
_atom_site_fract_x
_atom_site_fract_y
_atom_site_fract_z
Si Si1 0.922785 0.098496 0.187540
Si Si2 0.423992 0.600781 0.229717
Si Si3 0.426757 0.606004 0.868387
Si Si4 0.921513 0.205991 0.637096
Si Si5 0.421526 0.103557 0.557244
Si Si6 0.925556 0.293602 0.775875
Si Si7 0.422685 0.103669 0.456040
O O1 0.750000 0.077708 0.190883
O O2 0.956655 0.182813 0.150725
O O3 0.986332 0.131878 0.237188
O O4 0.000000 0.000000 0.170873
O O5 0.500000 0.500000 0.242909
O O6 0.250000 0.586268 0.234175
O O7 0.466298 0.633516 0.178326
O O8 0.481576 0.683748 0.265226
O O9 0.500000 0.500000 0.862314
O O10 0.250000 0.596568 0.871332
O O11 0.477967 0.672662 0.825851
O O12 0.492559 0.658884 0.914302
O O13 0.750000 0.192732 0.624900
O O14 0.017235 0.182141 0.592643
O O15 0.250000 0.084515 0.566831
O O16 0.444874 0.150638 0.506363
O O17 0.500000 0.000000 0.563463
O O18 0.750000 0.293370 0.771218
O O19 0.250000 0.093001 0.443678
O O20 0.500000 0.000000 0.458715
#
# Coordination Sequence:
#
# PCOD8191168 Si02
#       7
#     8   8   8   8   8   8   8
#     4   9  17  30  45  62  86 115 142 173 209 245
#     4   9  17  30  44  60  84 112 140 172 206 243
#     4  10  17  26  42  62  84 112 140 169 203 243
#     4   9  18  30  44  62  86 114 143 173 208 248
#     4  10  19  29  43  62  86 114 142 173 210 250
#     4   8  16  29  43  60  85 114 141 167 204 248
#     4   9  17  28  40  58  84 111 137 169 207 247
#
# _framework density 15.511075
#
# number of rings (size 3 to 8) (size 9 to 14) (size 15 to 20)
#    0.000    2.857    0.000    4.714    0.000    4.000 
#    0.000    4.286    0.000    0.000    0.000    1.000 
#    0.000    2.286    0.000    0.000    0.000    0.000 
#
# Total GULP energy -347001.732798 kJ/mol
# GULP energy per Si atom -12392.919028 kJ/mol
# Density = 1.547577 g / cm^3
# Si number density = 15.511075 Si / 1000 Ang^3
#
#
#
# Elastic Constant Matrix: (Units=GPa)
#
#
# Indices 1 2 3 4 5 6 
#
# 1 68.2415 37.3050 56.3733 0.0000 0.0000 0.0000
# 2 37.3050 93.2007 53.8640 0.0000 0.0000 0.0000
# 3 56.3733 53.8640 133.5178 0.0000 0.0000 0.0000
# 4 0.0000 0.0000 0.0000 21.3402 0.0000 0.0000
# 5 0.0000 0.0000 0.0000 0.0000 24.0239 0.0000
# 6 0.0000 0.0000 0.0000 0.0000 0.0000 24.5707
#
#
#
# Elastic Compliance Matrix: (Units=1/GPa)
#
#
# Indices 1 2 3 4 5 6 
#
# 1 0.024112 -0.004913 -0.008199 0.000000 0.000000 0.000000
# 2 -0.004913 0.014993 -0.003974 0.000000 0.000000 0.000000
# 3 -0.008199 -0.003974 0.012554 0.000000 0.000000 0.000000
# 4 0.000000 0.000000 0.000000 0.046860 0.000000 0.000000
# 5 0.000000 0.000000 0.000000 0.000000 0.041625 0.000000
# 6 0.000000 0.000000 0.000000 0.000000 0.000000 0.040699
#
#
# Mechanical properties :
#
#
# Convention : Reuss Voigt Hill
#
# Bulk Modulus (GPa) = 57.18146 65.56050 61.37098
# Shear Modulus (GPa) = 22.64039 23.81482 23.22760
#
# Velocity S-wave (km/s) = 3.82465 3.92260 3.87393
# Velocity P-wave (km/s) = 7.51325 7.92933 7.72409
#
# Compressibility (1/GPa) = 0.01748819
#
# Stress axis : x y z
#
# Youngs Moduli (GPa) = 41.47255 66.69856 79.65331
#
# Poissons Ratio (x) = 0.32770 0.65304
# Poissons Ratio (y) = 0.20376 0.31655
# Poissons Ratio (z) = 0.34001 0.26506
#
# Static dielectric constant tensor:
#      x y z
#    x 2.893880 0.000000 0.000000 
#    y 0.000000 2.796940 0.000000 
#    z 0.000000 0.000000 3.497900 
# 
# 
# High freq. dielectric constant tensor:
#      x y z
#    x 1.593020 0.000000 0.000000 
#    y 0.000000 1.561820 0.000000 
#    z 0.000000 0.000000 1.597900 
# 
# From -- ./inp_files/25232.got.cif
#   From: 2010.03.12/outbox.cif.g09.slc.cpg/sg46_13_cif.got.tgz:25232.got - 2010.04.14 02:56:35.
