data_PCOD8191637
_publ_section_title
;
Structure prediction by ZEFSAII (Michael W. Deem and Ramdas Pophale) SiO2 
 PCOD8191637
Probable space group: I M A 2
;
_chemical_formula_sum "Si O2"
_cell_formula_units_Z 64
_cell_length_a 8.898779
_cell_length_b 18.221816
_cell_length_c 26.350457
_cell_angle_alpha 90.000000
_cell_angle_beta 90.000000
_cell_angle_gamma 90.000000
_cell_volume 4272.777026
_symmetry_space_group_name_H-M "I M A 2"
_symmetry_group_IT_number 46
_symmetry_cell_setting 'orthorhombic'
loop_
_space_group_symop_operation_xyz
x,y,z
-x,-y,z
1/2-x,y,z
1/2+x,-y,z
1/2+x,1/2+y,1/2+z
1/2-x,1/2-y,1/2+z
-x,1/2+y,1/2+z
x,1/2-y,1/2+z
loop_
_atom_site_type_symbol
_atom_site_label
_atom_site_fract_x
_atom_site_fract_y
_atom_site_fract_z
Si Si1 0.083972 0.802237 0.301420
Si Si2 0.928944 0.920833 0.841812
Si Si3 0.580602 0.297113 0.400518
Si Si4 0.075427 0.078055 0.356491
Si Si5 0.927703 0.828708 0.454516
Si Si6 0.575616 0.074261 0.653319
Si Si7 0.571820 0.422978 0.038610
Si Si8 0.073433 0.661344 0.249782
O O1 0.250000 0.834106 0.290710
O O2 0.085604 0.751840 0.350702
O O3 0.031381 0.747859 0.255925
O O4 0.973108 0.870761 0.309025
O O5 0.750000 0.925064 0.844103
O O6 0.989054 0.870907 0.888147
O O7 0.977707 0.889014 0.787429
O O8 0.000000 0.000000 0.849415
O O9 0.750000 0.316184 0.418492
O O10 0.494339 0.252116 0.444357
O O11 0.250000 0.065440 0.353017
O O12 0.027700 0.116105 0.409077
O O13 0.000000 0.000000 0.352129
O O14 0.750000 0.822855 0.461021
O O15 0.003051 0.857933 0.505580
O O16 0.750000 0.057493 0.653472
O O17 0.524206 0.095191 0.596501
O O18 0.533988 0.139597 0.691996
O O19 0.500000 0.000000 0.672811
O O20 0.500000 0.500000 0.021260
O O21 0.750000 0.427187 0.030746
O O22 0.250000 0.649590 0.262427
#
# Coordination Sequence:
#
# PCOD8191637 Si02
#       8
#     8   8   8   8   8   8   8   8
#     4   8  15  27  42  58  79 105 133 166 205 245
#     4  11  20  29  42  62  87 114 144 176 209 249
#     4   9  17  30  45  61  82 109 139 172 209 249
#     4  10  19  28  40  58  81 107 137 169 202 241
#     4  10  19  30  44  62  83 110 142 175 210 251
#     4   9  18  30  43  60  83 110 143 179 214 249
#     4  10  19  30  43  60  83 112 144 180 215 249
#     4   9  17  30  45  61  82 111 144 177 213 253
#
# _framework density 14.97855
#
# number of rings (size 3 to 8) (size 9 to 14) (size 15 to 20)
#    0.000    2.500    0.000    4.125    0.000    7.500 
#    0.000    0.000    0.000    0.000    0.000    0.000 
#    0.000    1.000    0.000    5.000    0.000    3.750 
#
# Total GULP energy -396728.565342 kJ/mol
# GULP energy per Si atom -12397.767667 kJ/mol
# Density = 1.494446 g / cm^3
# Si number density = 14.978550 Si / 1000 Ang^3
#
#
#
# Elastic Constant Matrix: (Units=GPa)
#
#
# Indices 1 2 3 4 5 6 
#
# 1 78.6692 51.6044 32.7728 0.0000 0.0000 0.0000
# 2 51.6044 100.0153 47.2045 0.0000 0.0000 0.0000
# 3 32.7728 47.2045 70.3558 0.0000 0.0000 0.0000
# 4 0.0000 0.0000 0.0000 26.3315 0.0000 0.0000
# 5 0.0000 0.0000 0.0000 0.0000 16.7827 0.0000
# 6 0.0000 0.0000 0.0000 0.0000 0.0000 27.5942
#
#
#
# Elastic Compliance Matrix: (Units=1/GPa)
#
#
# Indices 1 2 3 4 5 6 
#
# 1 0.019775 -0.008569 -0.003462 0.000000 0.000000 0.000000
# 2 -0.008569 0.018345 -0.008317 0.000000 0.000000 0.000000
# 3 -0.003462 -0.008317 0.021406 0.000000 0.000000 0.000000
# 4 0.000000 0.000000 0.000000 0.037977 0.000000 0.000000
# 5 0.000000 0.000000 0.000000 0.000000 0.059585 0.000000
# 6 0.000000 0.000000 0.000000 0.000000 0.000000 0.036239
#
#
# Mechanical properties :
#
#
# Convention : Reuss Voigt Hill
#
# Bulk Modulus (GPa) = 53.10631 56.91152 55.00892
# Shear Modulus (GPa) = 20.80725 21.97226 21.38975
#
# Velocity S-wave (km/s) = 3.73116 3.83419 3.78302
# Velocity P-wave (km/s) = 7.35486 7.59468 7.47573
#
# Compressibility (1/GPa) = 0.01883015
#
# Stress axis : x y z
#
# Youngs Moduli (GPa) = 50.56959 54.51033 46.71528
#
# Poissons Ratio (x) = 0.46710 0.16173
# Poissons Ratio (y) = 0.43333 0.38853
# Poissons Ratio (z) = 0.17507 0.45336
#
# Static dielectric constant tensor:
#      x y z
#    x 3.017830 0.000000 0.000000 
#    y 0.000000 2.987770 0.000000 
#    z 0.000000 0.000000 2.871250 
# 
# 
# High freq. dielectric constant tensor:
#      x y z
#    x 1.587130 0.000000 0.000000 
#    y 0.000000 1.562160 0.000000 
#    z 0.000000 0.000000 1.539860 
# 
# From -- ./inp_files/23275.got.cif
#   From: 2010.03.12/outbox.cif.g09.slc.cpg/sg46_12_cif.got.tgz:23275.got - 2010.04.14 02:56:35.
