data_PCOD8191394
_publ_section_title
;
Structure prediction by ZEFSAII (Michael W. Deem and Ramdas Pophale) SiO2 
 PCOD8191394
Probable space group: I M A 2
;
_chemical_formula_sum "Si O2"
_cell_formula_units_Z 56
_cell_length_a 23.915465
_cell_length_b 29.052387
_cell_length_c 5.090148
_cell_angle_alpha 90.000000
_cell_angle_beta 90.000000
_cell_angle_gamma 90.000000
_cell_volume 3536.641674
_symmetry_space_group_name_H-M "I M A 2"
_symmetry_group_IT_number 46
_symmetry_cell_setting 'orthorhombic'
loop_
_space_group_symop_operation_xyz
x,y,z
-x,-y,z
1/2-x,y,z
1/2+x,-y,z
1/2+x,1/2+y,1/2+z
1/2-x,1/2-y,1/2+z
-x,1/2+y,1/2+z
x,1/2-y,1/2+z
loop_
_atom_site_type_symbol
_atom_site_label
_atom_site_fract_x
_atom_site_fract_y
_atom_site_fract_z
Si Si1 0.411274 0.993381 0.274080
Si Si2 0.029685 0.880337 0.763815
Si Si3 0.456911 0.724977 0.407396
Si Si4 0.250000 0.649992 0.700990
Si Si5 0.868245 0.051046 0.776383
Si Si6 0.250000 0.907755 0.713427
Si Si7 0.013430 0.073885 0.250862
Si Si8 0.826608 0.274171 0.503241
O O1 0.389724 0.985453 0.565869
O O2 0.466598 0.964508 0.225545
O O3 0.426689 0.047767 0.263088
O O4 0.367009 0.976217 0.053896
O O5 0.999091 0.892128 0.492145
O O6 0.091356 0.903796 0.783783
O O7 0.033962 0.825891 0.798519
O O8 0.987361 0.896602 0.987615
O O9 0.482633 0.760437 0.189962
O O10 0.392242 0.729913 0.479887
O O11 0.250000 0.605571 0.518607
O O12 0.193631 0.677031 0.617571
O O13 0.250000 0.634734 0.005431
O O14 0.806483 0.063501 0.676440
O O15 0.802429 0.263281 0.213901
#
# Coordination Sequence:
#
# PCOD8191394 Si02
#       8
#     8   8   8   4   8   4   8   8
#     4   9  17  31  47  66  86 106 130 174 225 264
#     4  10  18  30  46  65  86 110 142 184 221 256
#     4  10  20  31  43  59  83 113 143 176 217 264
#     4  12  22  33  46  58  78 100 144 198 232 263
#     4  10  20  32  46  62  87 112 141 179 219 263
#     4  12  24  33  44  64  84 116 146 174 220 273
#     4   9  17  28  48  69  84 103 134 174 225 267
#     4  10  20  33  46  58  73 102 143 188 236 272
#
# _framework density 15.83423
#
# number of rings (size 3 to 8) (size 9 to 14) (size 15 to 20)
#    0.000    2.000    0.000    4.714    0.000    8.000 
#    0.000    0.000    0.000    0.000    0.000    0.000 
#    0.000    0.000    0.000    0.000    0.000    0.000 
#
# Total GULP energy -346875.001979 kJ/mol
# GULP energy per Si atom -12388.392928 kJ/mol
# Density = 1.579819 g / cm^3
# Si number density = 15.834230 Si / 1000 Ang^3
#
#
#
# Elastic Constant Matrix: (Units=GPa)
#
#
# Indices 1 2 3 4 5 6 
#
# 1 29.8769 33.9852 13.0539 0.0000 0.0000 0.0000
# 2 33.9852 66.7748 37.2225 0.0000 0.0000 0.0000
# 3 13.0539 37.2225 89.7223 0.0000 0.0000 0.0000
# 4 0.0000 0.0000 0.0000 2.2931 0.0000 0.0000
# 5 0.0000 0.0000 0.0000 0.0000 20.0097 0.0000
# 6 0.0000 0.0000 0.0000 0.0000 0.0000 21.3861
#
#
#
# Elastic Compliance Matrix: (Units=1/GPa)
#
#
# Indices 1 2 3 4 5 6 
#
# 1 0.082802 -0.046084 0.007072 0.000000 0.000000 0.000000
# 2 -0.046084 0.045130 -0.012018 0.000000 0.000000 0.000000
# 3 0.007072 -0.012018 0.015102 0.000000 0.000000 0.000000
# 4 0.000000 0.000000 0.000000 0.436097 0.000000 0.000000
# 5 0.000000 0.000000 0.000000 0.000000 0.049976 0.000000
# 6 0.000000 0.000000 0.000000 0.000000 0.000000 0.046759
#
#
# Mechanical properties :
#
#
# Convention : Reuss Voigt Hill
#
# Bulk Modulus (GPa) = 24.40612 39.43302 31.91957
# Shear Modulus (GPa) = 6.31644 15.54528 10.93086
#
# Velocity S-wave (km/s) = 1.99944 3.13669 2.63027
# Velocity P-wave (km/s) = 4.55822 6.17059 5.42464
#
# Compressibility (1/GPa) = 0.04097333
#
# Stress axis : x y z
#
# Youngs Moduli (GPa) = 12.07694 22.15842 66.21503
#
# Poissons Ratio (x) = 1.02116 -0.46825
# Poissons Ratio (y) = 0.55656 0.79575
# Poissons Ratio (z) = -0.08540 0.26629
#
# Static dielectric constant tensor:
#      x y z
#    x 2.682320 0.000000 0.000000 
#    y 0.000000 3.105650 0.000000 
#    z 0.000000 0.000000 3.460110 
# 
# 
# High freq. dielectric constant tensor:
#      x y z
#    x 1.548790 0.000000 0.000000 
#    y 0.000000 1.587060 0.000000 
#    z 0.000000 0.000000 1.639570 
# 
# From -- ./inp_files/2154.got.cif
#   From: 2010.03.12/outbox.cif.g09.slc.cpg/sg46_2_cif.got.tgz:2154.got - 2010.04.14 02:56:35.
