data_PCOD8191162
_publ_section_title
;
Structure prediction by ZEFSAII (Michael W. Deem and Ramdas Pophale) SiO2 
 PCOD8191162
Probable space group: I M A 2
;
_chemical_formula_sum "Si O2"
_cell_formula_units_Z 64
_cell_length_a 8.998518
_cell_length_b 24.747048
_cell_length_c 20.347166
_cell_angle_alpha 90.000000
_cell_angle_beta 90.000000
_cell_angle_gamma 90.000000
_cell_volume 4531.044408
_symmetry_space_group_name_H-M "I M A 2"
_symmetry_group_IT_number 46
_symmetry_cell_setting 'orthorhombic'
loop_
_space_group_symop_operation_xyz
x,y,z
-x,-y,z
1/2-x,y,z
1/2+x,-y,z
1/2+x,1/2+y,1/2+z
1/2-x,1/2-y,1/2+z
-x,1/2+y,1/2+z
x,1/2-y,1/2+z
loop_
_atom_site_type_symbol
_atom_site_label
_atom_site_fract_x
_atom_site_fract_y
_atom_site_fract_z
Si Si1 0.579319 0.659039 0.614170
Si Si2 0.418639 0.946377 0.414057
Si Si3 0.575344 0.259357 0.697565
Si Si4 0.074602 0.162604 0.451605
Si Si5 0.576851 0.445086 0.630484
Si Si6 0.078253 0.299413 0.812292
Si Si7 0.082742 0.904233 0.273720
Si Si8 0.581095 0.727141 0.076735
O O1 0.750000 0.647726 0.634823
O O2 0.482520 0.680347 0.676838
O O3 0.500928 0.604041 0.589914
O O4 0.572765 0.707935 0.560435
O O5 0.250000 0.948241 0.438976
O O6 0.493608 0.894359 0.447188
O O7 0.426630 0.945157 0.335000
O O8 0.500000 0.000000 0.439715
O O9 0.750000 0.254516 0.696492
O O10 0.513706 0.253036 0.772237
O O11 0.508757 0.216017 0.645050
O O12 0.250000 0.152044 0.454846
O O13 0.037472 0.201563 0.389652
O O14 0.014113 0.193555 0.516268
O O15 0.500000 0.500000 0.606637
O O16 0.750000 0.446943 0.612967
O O17 0.545646 0.437445 0.707918
O O18 0.250000 0.287663 0.799708
O O19 0.039136 0.358677 0.785806
O O20 0.250000 0.878956 0.269849
O O21 0.750000 0.709485 0.089635
#
# Coordination Sequence:
#
# PCOD8191162 Si02
#       8
#     8   8   8   8   8   8   8   8
#     4   9  17  29  43  56  73  99 134 168 204 241
#     4  10  19  29  39  54  76 106 137 168 204 240
#     4  10  17  26  41  58  79 104 134 166 203 243
#     4   9  18  31  45  62  81 104 137 174 207 245
#     4  11  20  27  37  54  77 104 136 171 204 236
#     4  10  17  25  41  60  80 106 135 168 206 241
#     4   9  17  27  37  50  72 102 137 171 201 231
#     4   8  16  30  46  60  76 101 135 169 206 248
#
# _framework density 14.124779
#
# number of rings (size 3 to 8) (size 9 to 14) (size 15 to 20)
#    0.750    1.750    1.250    2.625    0.000    2.000 
#    0.000    0.000    0.000    0.000    0.000    0.000 
#    0.000    0.000    0.000    1.125    0.000   14.000 
#
# Total GULP energy -396448.014578 kJ/mol
# GULP energy per Si atom -12389.000456 kJ/mol
# Density = 1.409263 g / cm^3
# Si number density = 14.124779 Si / 1000 Ang^3
#
#
#
# Elastic Constant Matrix: (Units=GPa)
#
#
# Indices 1 2 3 4 5 6 
#
# 1 84.9589 31.7421 41.4299 0.0000 0.0000 0.0000
# 2 31.7421 55.7297 36.6730 0.0000 0.0000 0.0000
# 3 41.4299 36.6730 68.2370 0.0000 0.0000 0.0000
# 4 0.0000 0.0000 0.0000 18.4156 0.0000 0.0000
# 5 0.0000 0.0000 0.0000 0.0000 13.9765 0.0000
# 6 0.0000 0.0000 0.0000 0.0000 0.0000 19.3148
#
#
#
# Elastic Compliance Matrix: (Units=1/GPa)
#
#
# Indices 1 2 3 4 5 6 
#
# 1 0.017448 -0.004590 -0.008127 0.000000 0.000000 0.000000
# 2 -0.004590 0.028970 -0.012782 0.000000 0.000000 0.000000
# 3 -0.008127 -0.012782 0.026459 0.000000 0.000000 0.000000
# 4 0.000000 0.000000 0.000000 0.054302 0.000000 0.000000
# 5 0.000000 0.000000 0.000000 0.000000 0.071549 0.000000
# 6 0.000000 0.000000 0.000000 0.000000 0.000000 0.051774
#
#
# Mechanical properties :
#
#
# Convention : Reuss Voigt Hill
#
# Bulk Modulus (GPa) = 45.70818 47.62391 46.66605
# Shear Modulus (GPa) = 16.19210 16.94675 16.56943
#
# Velocity S-wave (km/s) = 3.38947 3.46755 3.42873
# Velocity P-wave (km/s) = 6.91003 7.05845 6.98463
#
# Compressibility (1/GPa) = 0.02187792
#
# Stress axis : x y z
#
# Youngs Moduli (GPa) = 57.31185 34.51881 37.79483
#
# Poissons Ratio (x) = 0.15845 0.30715
# Poissons Ratio (y) = 0.26308 0.48311
# Poissons Ratio (z) = 0.46576 0.44123
#
# Static dielectric constant tensor:
#      x y z
#    x 2.820600 0.000000 0.000000 
#    y 0.000000 2.517000 0.000000 
#    z 0.000000 0.000000 2.659350 
# 
# 
# High freq. dielectric constant tensor:
#      x y z
#    x 1.554230 0.000000 0.000000 
#    y 0.000000 1.503230 0.000000 
#    z 0.000000 0.000000 1.501970 
# 
# From -- ./inp_files/21523.got.cif
#   From: 2010.03.12/outbox.cif.g09.slc.cpg/sg46_11_cif.got.tgz:21523.got - 2010.04.14 02:56:35.
