data_PCOD8191128
_publ_section_title
;
Structure prediction by ZEFSAII (Michael W. Deem and Ramdas Pophale) SiO2 
 PCOD8191128
Probable space group: I B A 2
;
_chemical_formula_sum "Si O2"
_cell_formula_units_Z 32
_cell_length_a 10.827701
_cell_length_b 14.461415
_cell_length_c 7.417452
_cell_angle_alpha 90.000000
_cell_angle_beta 90.000000
_cell_angle_gamma 90.000000
_cell_volume 1161.453396
_symmetry_space_group_name_H-M "I B A 2"
_symmetry_group_IT_number 45
_symmetry_cell_setting 'orthorhombic'
loop_
_space_group_symop_operation_xyz
x,y,z
-x,-y,z
-x,y,1/2+z
x,-y,1/2+z
1/2+x,1/2+y,1/2+z
1/2-x,1/2-y,1/2+z
1/2-x,1/2+y,z
1/2+x,1/2-y,z
loop_
_atom_site_type_symbol
_atom_site_label
_atom_site_fract_x
_atom_site_fract_y
_atom_site_fract_z
Si Si1 0.730955 0.129860 0.012110
Si Si2 0.704066 0.839097 0.013832
Si Si3 0.015351 0.396673 0.225491
Si Si4 0.644802 0.518717 0.698381
O O1 0.583531 0.103351 0.022027
O O2 0.785007 0.080739 0.196191
O O3 0.736288 0.239388 0.022621
O O4 0.818898 0.084052 0.863874
O O5 0.610992 0.839170 0.845921
O O6 0.620399 0.850966 0.199294
O O7 0.808134 0.920759 0.021845
O O8 0.000000 0.500000 0.294316
O O9 0.500000 0.500000 0.688374
#
# Coordination Sequence:
#
# PCOD8191128 Si02
#       4
#     8   8   8   8
#     4  12  28  49  83 115 163 214 270 325 408 477
#     4  12  28  49  85 122 159 216 272 334 407 478
#     4  12  26  52  84 118 160 211 277 337 398 477
#     4  12  28  53  76 121 166 212 264 336 408 481
#
# _framework density 27.551684000000002
#
# number of rings (size 3 to 8) (size 9 to 14) (size 15 to 20)
#    0.000    0.000    2.500    6.000    7.000    0.000 
#    0.000    1.250    0.000    0.000    0.000    0.000 
#    0.000    0.000    0.000    0.000    0.000    0.000 
#
# Total GULP energy -198355.373824 kJ/mol
# GULP energy per Si atom -12397.210864 kJ/mol
# Density = 2.748898 g / cm^3
# Si number density = 27.551684 Si / 1000 Ang^3
#
#
#
# Elastic Constant Matrix: (Units=GPa)
#
#
# Indices 1 2 3 4 5 6 
#
# 1 221.6476 73.5749 8.8480 0.0000 0.0000 0.0000
# 2 73.5749 169.5323 -13.2249 0.0000 0.0000 0.0000
# 3 8.8480 -13.2249 42.9456 0.0000 0.0000 0.0000
# 4 0.0000 0.0000 0.0000 39.0140 0.0000 0.0000
# 5 0.0000 0.0000 0.0000 0.0000 22.5151 0.0000
# 6 0.0000 0.0000 0.0000 0.0000 0.0000 41.1796
#
#
#
# Elastic Compliance Matrix: (Units=1/GPa)
#
#
# Indices 1 2 3 4 5 6 
#
# 1 0.005416 -0.002497 -0.001885 0.000000 0.000000 0.000000
# 2 -0.002497 0.007195 0.002730 0.000000 0.000000 0.000000
# 3 -0.001885 0.002730 0.024514 0.000000 0.000000 0.000000
# 4 0.000000 0.000000 0.000000 0.025632 0.000000 0.000000
# 5 0.000000 0.000000 0.000000 0.000000 0.044415 0.000000
# 6 0.000000 0.000000 0.000000 0.000000 0.000000 0.024284
#
#
# Mechanical properties :
#
#
# Convention : Reuss Voigt Hill
#
# Bulk Modulus (GPa) = 29.56685 63.61351 46.59018
# Shear Modulus (GPa) = 34.23856 44.87024 39.55440
#
# Velocity S-wave (km/s) = 3.52902 4.03995 3.79310
# Velocity P-wave (km/s) = 5.23068 6.70078 6.01085
#
# Compressibility (1/GPa) = 0.03382167
#
# Stress axis : x y z
#
# Youngs Moduli (GPa) = 184.64008 138.97665 40.79236
#
# Poissons Ratio (x) = 0.34709 0.07689
# Poissons Ratio (y) = 0.46114 -0.11138
# Poissons Ratio (z) = 0.34803 -0.37946
#
# Static dielectric constant tensor:
#      x y z
#    x 5.250640 0.000000 0.000000 
#    y 0.000000 4.807140 0.000000 
#    z 0.000000 0.000000 6.351380 
# 
# 
# High freq. dielectric constant tensor:
#      x y z
#    x 2.126080 0.000000 0.000000 
#    y 0.000000 2.096770 0.000000 
#    z 0.000000 0.000000 2.172480 
# 
# From -- ./inp_files/1175.got.cif
#   From: 2010.03.12/outbox.cif.g09.slc.cpg/sg45_1_cif.got.tgz:1175.got - 2010.04.14 02:50:11.
