data_PCOD8191606
_publ_section_title
;
Structure prediction by ZEFSAII (Michael W. Deem and Ramdas Pophale) SiO2 
 PCOD8191606
Probable space group: I M A 2
;
_chemical_formula_sum "Si O2"
_cell_formula_units_Z 48
_cell_length_a 9.533208
_cell_length_b 8.963679
_cell_length_c 27.014059
_cell_angle_alpha 90.000000
_cell_angle_beta 90.000000
_cell_angle_gamma 90.000000
_cell_volume 2308.422020
_symmetry_space_group_name_H-M "I M A 2"
_symmetry_group_IT_number 46
_symmetry_cell_setting 'orthorhombic'
loop_
_space_group_symop_operation_xyz
x,y,z
-x,-y,z
1/2-x,y,z
1/2+x,-y,z
1/2+x,1/2+y,1/2+z
1/2-x,1/2-y,1/2+z
-x,1/2+y,1/2+z
x,1/2-y,1/2+z
loop_
_atom_site_type_symbol
_atom_site_label
_atom_site_fract_x
_atom_site_fract_y
_atom_site_fract_z
Si Si1 0.750000 0.231167 0.878100
Si Si2 0.250000 0.605184 0.978922
Si Si3 0.024376 0.831157 0.556260
Si Si4 0.750000 0.614163 0.405741
Si Si5 0.913359 0.846621 0.723791
Si Si6 0.524026 0.827315 0.831012
Si Si7 0.250000 0.232350 0.506326
Si Si8 0.411728 0.853156 0.149265
O O1 0.750000 0.348125 0.922222
O O2 0.618168 0.261209 0.842590
O O3 0.750000 0.063411 0.899122
O O4 0.250000 0.426971 0.979520
O O5 0.385774 0.669618 0.006155
O O6 0.101324 0.744664 0.599785
O O7 0.881189 0.747322 0.542606
O O8 0.000000 0.000000 0.575053
O O9 0.881030 0.693602 0.379474
O O10 0.750000 0.641527 0.464255
O O11 0.750000 0.869535 0.706848
O O12 0.910452 0.773605 0.779012
O O13 0.997035 0.731441 0.690100
O O14 0.000000 0.000000 0.721159
O O15 0.500000 0.000000 0.822270
O O16 0.250000 0.885231 0.166690
O O17 0.500000 0.000000 0.136772
#
# Coordination Sequence:
#
# PCOD8191606 Si02
#       8
#     4   4   8   4   8   8   4   8
#     4  10  20  32  59  82 123 163 206 255 311 366
#     4  10  20  40  55  90 121 163 208 259 309 364
#     4  10  22  41  65  89 122 163 212 257 310 374
#     4  10  18  36  53  88 119 161 204 257 309 360
#     4  11  23  41  69  97 127 166 215 261 313 376
#     4   9  19  34  58  88 120 157 211 258 300 358
#     4  10  22  34  63  88 123 159 208 259 305 368
#     4  12  27  45  66  93 130 163 205 263 326 387
#
# _framework density 20.793424999999999
#
# number of rings (size 3 to 8) (size 9 to 14) (size 15 to 20)
#    0.000    1.667    1.667    2.500    7.000    1.333 
#    0.000    1.667    0.000    0.000    0.000    0.000 
#    0.000    0.000    0.000    0.000    0.000    0.000 
#
# Total GULP energy -297535.558439 kJ/mol
# GULP energy per Si atom -12397.314935 kJ/mol
# Density = 2.074610 g / cm^3
# Si number density = 20.793425 Si / 1000 Ang^3
#
#
#
# Elastic Constant Matrix: (Units=GPa)
#
#
# Indices 1 2 3 4 5 6 
#
# 1 153.4538 22.2418 20.1797 0.0000 0.0000 0.0000
# 2 22.2418 52.2757 24.6324 0.0000 0.0001 0.0000
# 3 20.1797 24.6324 82.2115 0.0000 0.0000 0.0000
# 4 0.0000 0.0000 0.0000 25.0537 0.0000 0.0000
# 5 0.0000 0.0001 0.0000 0.0000 109.8454 0.0000
# 6 0.0000 0.0000 0.0000 0.0000 0.0000 26.1514
#
#
#
# Elastic Compliance Matrix: (Units=1/GPa)
#
#
# Indices 1 2 3 4 5 6 
#
# 1 0.007010 -0.002529 -0.000963 0.000000 0.000000 0.000000
# 2 -0.002529 0.023186 -0.006326 0.000000 0.000000 0.000000
# 3 -0.000963 -0.006326 0.014296 0.000000 0.000000 0.000000
# 4 0.000000 0.000000 0.000000 0.039914 0.000000 0.000000
# 5 0.000000 0.000000 0.000000 0.000000 0.009104 0.000000
# 6 0.000000 0.000000 0.000000 0.000000 0.000000 0.038239
#
#
# Mechanical properties :
#
#
# Convention : Reuss Voigt Hill
#
# Bulk Modulus (GPa) = 40.23255 46.89430 43.56342
# Shear Modulus (GPa) = 31.31462 46.93591 39.12527
#
# Velocity S-wave (km/s) = 3.88491 4.75620 4.34247
# Velocity P-wave (km/s) = 6.28602 7.26384 6.79255
#
# Compressibility (1/GPa) = 0.02485550
#
# Stress axis : x y z
#
# Youngs Moduli (GPa) = 142.65813 43.12900 69.95132
#
# Poissons Ratio (x) = 0.10906 0.06736
# Poissons Ratio (y) = 0.36074 0.44254
# Poissons Ratio (z) = 0.13737 0.27285
#
# Static dielectric constant tensor:
#      x y z
#    x 3.283840 0.000000 0.000000 
#    y 0.000000 3.496610 0.000000 
#    z 0.000000 0.000000 3.726320 
# 
# 
# High freq. dielectric constant tensor:
#      x y z
#    x 1.835660 0.000000 0.000000 
#    y 0.000000 1.781900 0.000000 
#    z 0.000000 0.000000 1.817060 
# 
# From -- ./inp_files/25106.got.cif
#   From: 2010.03.12/outbox.cif.g09.slc.cpg/sg46_13_cif.got.tgz:25106.got - 2010.04.14 02:56:35.
