data_PCOD8191107
_publ_section_title
;
Structure prediction by ZEFSAII (Michael W. Deem and Ramdas Pophale) SiO2 
 PCOD8191107
Probable space group: I B A 2
;
_chemical_formula_sum "Si O2"
_cell_formula_units_Z 44
_cell_length_a 8.788882
_cell_length_b 12.071209
_cell_length_c 17.859799
_cell_angle_alpha 90.000000
_cell_angle_beta 90.000000
_cell_angle_gamma 90.000000
_cell_volume 1894.789502
_symmetry_space_group_name_H-M "I B A 2"
_symmetry_group_IT_number 45
_symmetry_cell_setting 'orthorhombic'
loop_
_space_group_symop_operation_xyz
x,y,z
-x,-y,z
-x,y,1/2+z
x,-y,1/2+z
1/2+x,1/2+y,1/2+z
1/2-x,1/2-y,1/2+z
1/2-x,1/2+y,z
1/2+x,1/2-y,z
loop_
_atom_site_type_symbol
_atom_site_label
_atom_site_fract_x
_atom_site_fract_y
_atom_site_fract_z
Si Si1 0.500000 0.500000 0.264650
Si Si2 0.675318 0.388459 0.891891
Si Si3 0.493875 0.146422 0.596140
Si Si4 0.238111 0.028593 0.528304
Si Si5 0.105662 0.230688 0.459632
Si Si6 0.826113 0.863907 0.143898
O O1 0.365494 0.438179 0.311120
O O2 0.593180 0.410506 0.217475
O O3 0.751824 0.482936 0.943627
O O4 0.788868 0.282485 0.893182
O O5 0.514039 0.349996 0.922949
O O6 0.389027 0.035029 0.582378
O O7 0.543228 0.169540 0.509956
O O8 0.641523 0.137866 0.650451
O O9 0.388040 0.241436 0.630541
O O10 0.193841 0.156992 0.521273
O O11 0.127578 0.943546 0.573158
#
# Coordination Sequence:
#
# PCOD8191107 Si02
#       6
#     4   8   8   8   8   8
#     4  12  30  48  68 100 158 210 230 288 378 448
#     4  12  26  44  73 105 145 186 244 297 365 434
#     4  12  23  43  77 113 134 179 250 308 359 409
#     4  12  21  42  80 105 136 181 248 308 355 411
#     4  12  21  41  74 108 135 180 233 314 355 407
#     4  12  27  44  72 105 149 191 237 299 362 445
#
# _framework density 23.221575999999999
#
# number of rings (size 3 to 8) (size 9 to 14) (size 15 to 20)
#    0.000    0.000    9.091    1.636    0.000    1.455 
#    0.000    0.000    8.000    0.000    0.000    0.000 
#    0.000    0.000    0.000    0.000    0.000    0.000 
#
# Total GULP energy -272565.440732 kJ/mol
# GULP energy per Si atom -12389.338215 kJ/mol
# Density = 2.316872 g / cm^3
# Si number density = 23.221576 Si / 1000 Ang^3
#
#
#
# Elastic Constant Matrix: (Units=GPa)
#
#
# Indices 1 2 3 4 5 6 
#
# 1 124.5530 51.6074 40.6159 0.0000 0.0000 0.0000
# 2 51.6074 92.6492 39.8265 0.0000 0.0000 0.0000
# 3 40.6159 39.8265 107.5450 0.0000 0.0000 0.0000
# 4 0.0000 0.0000 0.0000 37.2186 0.0000 0.0000
# 5 0.0000 0.0000 0.0000 0.0000 34.4110 0.0000
# 6 0.0000 0.0000 0.0000 0.0000 0.0000 42.5452
#
#
#
# Elastic Compliance Matrix: (Units=1/GPa)
#
#
# Indices 1 2 3 4 5 6 
#
# 1 0.010864 -0.005099 -0.002214 0.000000 0.000000 0.000000
# 2 -0.005099 0.015231 -0.003714 0.000000 0.000000 0.000000
# 3 -0.002214 -0.003714 0.011510 0.000000 0.000000 0.000000
# 4 0.000000 0.000000 0.000000 0.026868 0.000000 0.000000
# 5 0.000000 0.000000 0.000000 0.000000 0.029060 0.000000
# 6 0.000000 0.000000 0.000000 0.000000 0.000000 0.023504
#
#
# Mechanical properties :
#
#
# Convention : Reuss Voigt Hill
#
# Bulk Modulus (GPa) = 64.31636 65.42743 64.87189
# Shear Modulus (GPa) = 34.65563 35.68146 35.16854
#
# Velocity S-wave (km/s) = 3.86734 3.92416 3.89585
# Velocity P-wave (km/s) = 6.90642 6.98344 6.94504
#
# Compressibility (1/GPa) = 0.01554814
#
# Stress axis : x y z
#
# Youngs Moduli (GPa) = 92.04960 65.65761 86.87909
#
# Poissons Ratio (x) = 0.33481 0.19239
# Poissons Ratio (y) = 0.46940 0.32270
# Poissons Ratio (z) = 0.20384 0.24388
#
# Static dielectric constant tensor:
#      x y z
#    x 4.459460 0.000000 0.000000 
#    y 0.000000 4.590130 0.000000 
#    z 0.000000 0.000000 3.831640 
# 
# 
# High freq. dielectric constant tensor:
#      x y z
#    x 1.935000 0.000000 0.000000 
#    y 0.000000 1.954940 0.000000 
#    z 0.000000 0.000000 1.867530 
# 
# From -- ./inp_files/7514.got.cif
#   From: 2010.03.12/outbox.cif.g09.slc.cpg/sg45_4_cif.got.tgz:7514.got - 2010.04.14 02:50:11.
