data_PCOD8191996
_publ_section_title
;
Structure prediction by ZEFSAII (Michael W. Deem and Ramdas Pophale) SiO2 
 PCOD8191996
Probable space group: I M A 2
;
_chemical_formula_sum "Si O2"
_cell_formula_units_Z 56
_cell_length_a 14.622687
_cell_length_b 13.938942
_cell_length_c 12.722845
_cell_angle_alpha 90.000000
_cell_angle_beta 90.000000
_cell_angle_gamma 90.000000
_cell_volume 2593.231159
_symmetry_space_group_name_H-M "I M A 2"
_symmetry_group_IT_number 46
_symmetry_cell_setting 'orthorhombic'
loop_
_space_group_symop_operation_xyz
x,y,z
-x,-y,z
1/2-x,y,z
1/2+x,-y,z
1/2+x,1/2+y,1/2+z
1/2-x,1/2-y,1/2+z
-x,1/2+y,1/2+z
x,1/2-y,1/2+z
loop_
_atom_site_type_symbol
_atom_site_label
_atom_site_fract_x
_atom_site_fract_y
_atom_site_fract_z
Si Si1 0.043947 0.311141 0.292570
Si Si2 0.357299 0.374698 0.862444
Si Si3 0.902121 0.608852 0.506110
Si Si4 0.649040 0.808986 0.590680
Si Si5 0.608832 0.402780 0.563629
Si Si6 0.352488 0.722897 0.373110
Si Si7 0.353161 0.922416 0.300540
O O1 0.078622 0.202204 0.304937
O O2 0.093232 0.376372 0.380466
O O3 0.074423 0.342787 0.176317
O O4 0.933845 0.325253 0.304094
O O5 0.250000 0.356527 0.833812
O O6 0.401792 0.475739 0.823255
O O7 0.372427 0.370004 0.987182
O O8 0.850428 0.695777 0.562442
O O9 0.852518 0.507335 0.527986
O O10 0.000942 0.603483 0.557396
O O11 0.750000 0.832715 0.634506
O O12 0.651514 0.320614 0.489921
O O13 0.636037 0.382370 0.682839
O O14 0.250000 0.711319 0.322435
O O15 0.380139 0.835805 0.379330
O O16 0.250000 0.950699 0.323997
#
# Coordination Sequence:
#
# PCOD8191996 Si02
#       7
#     8   8   8   8   8   8   8
#     4  10  19  34  56  81 115 150 183 228 284 338
#     4   9  19  34  54  85 117 145 186 234 280 340
#     4   9  20  34  54  84 110 137 183 234 275 337
#     4  10  19  33  55  84 117 148 178 223 288 347
#     4  10  19  36  58  79 107 146 189 231 280 329
#     4  10  22  37  54  79 110 147 195 241 275 320
#     4  10  20  35  56  82 112 147 189 233 275 327
#
# _framework density 21.594681999999999
#
# number of rings (size 3 to 8) (size 9 to 14) (size 15 to 20)
#    0.000    2.286    0.000    2.571    0.000    4.571 
#    0.000    1.429    0.000   12.000    0.000    0.000 
#    0.000    0.000    0.000    0.000    0.000    0.000 
#
# Total GULP energy -347013.086316 kJ/mol
# GULP energy per Si atom -12393.324511 kJ/mol
# Density = 2.154553 g / cm^3
# Si number density = 21.594682 Si / 1000 Ang^3
#
#
#
# Elastic Constant Matrix: (Units=GPa)
#
#
# Indices 1 2 3 4 5 6 
#
# 1 82.1185 1.0100 28.6983 0.0000 0.0000 0.0000
# 2 1.0100 100.9701 40.8090 0.0000 0.0000 0.0000
# 3 28.6983 40.8090 99.7538 0.0000 0.0000 0.0000
# 4 0.0000 0.0000 0.0000 25.5892 0.0000 0.0000
# 5 0.0000 0.0000 0.0000 0.0000 22.2991 0.0000
# 6 0.0000 0.0000 0.0000 0.0000 0.0000 15.0245
#
#
#
# Elastic Compliance Matrix: (Units=1/GPa)
#
#
# Indices 1 2 3 4 5 6 
#
# 1 0.013794 0.001756 -0.004687 0.000000 0.000000 0.000000
# 2 0.001756 0.012090 -0.005451 0.000000 0.000000 0.000000
# 3 -0.004687 -0.005451 0.013603 0.000000 0.000000 0.000000
# 4 0.000000 0.000000 0.000000 0.039079 0.000000 0.000000
# 5 0.000000 0.000000 0.000000 0.000000 0.044845 0.000000
# 6 0.000000 0.000000 0.000000 0.000000 0.000000 0.066558
#
#
# Mechanical properties :
#
#
# Convention : Reuss Voigt Hill
#
# Bulk Modulus (GPa) = 44.00790 47.09744 45.55267
# Shear Modulus (GPa) = 23.33114 26.73757 25.03435
#
# Velocity S-wave (km/s) = 3.29053 3.52256 3.40852
# Velocity P-wave (km/s) = 5.90424 6.19691 6.05234
#
# Compressibility (1/GPa) = 0.02272319
#
# Stress axis : x y z
#
# Youngs Moduli (GPa) = 72.49598 82.71637 73.51284
#
# Poissons Ratio (x) = -0.14528 0.34455
# Poissons Ratio (y) = -0.12733 0.40072
# Poissons Ratio (z) = 0.33978 0.45089
#
# Static dielectric constant tensor:
#      x y z
#    x 3.921380 0.000000 0.000000 
#    y 0.000000 4.066850 0.000000 
#    z 0.000000 0.000000 3.772820 
# 
# 
# High freq. dielectric constant tensor:
#      x y z
#    x 1.851860 0.000000 0.000000 
#    y 0.000000 1.835600 0.000000 
#    z 0.000000 0.000000 1.833540 
# 
# From -- ./inp_files/11130.got.cif
#   From: 2010.03.12/outbox.cif.g09.slc.cpg/sg46_6_cif.got.tgz:11130.got - 2010.04.14 02:56:35.
