data_PCOD8191784
_publ_section_title
;
Structure prediction by ZEFSAII (Michael W. Deem and Ramdas Pophale) SiO2 
 PCOD8191784
Probable space group: I M A 2
;
_chemical_formula_sum "Si O2"
_cell_formula_units_Z 64
_cell_length_a 8.723062
_cell_length_b 14.845505
_cell_length_c 27.379457
_cell_angle_alpha 90.000000
_cell_angle_beta 90.000000
_cell_angle_gamma 90.000000
_cell_volume 3545.592056
_symmetry_space_group_name_H-M "I M A 2"
_symmetry_group_IT_number 46
_symmetry_cell_setting 'orthorhombic'
loop_
_space_group_symop_operation_xyz
x,y,z
-x,-y,z
1/2-x,y,z
1/2+x,-y,z
1/2+x,1/2+y,1/2+z
1/2-x,1/2-y,1/2+z
-x,1/2+y,1/2+z
x,1/2-y,1/2+z
loop_
_atom_site_type_symbol
_atom_site_label
_atom_site_fract_x
_atom_site_fract_y
_atom_site_fract_z
Si Si1 0.431987 0.095332 0.970520
Si Si2 0.567552 0.721502 0.665969
Si Si3 0.567980 0.223457 0.440974
Si Si4 0.068540 0.095760 0.361645
Si Si5 0.569829 0.908438 0.630973
Si Si6 0.069470 0.092913 0.081851
Si Si7 0.930210 0.905792 0.250185
Si Si8 0.068521 0.406389 0.018737
O O1 0.250000 0.095083 0.963663
O O2 0.506779 0.174347 0.938446
O O3 0.500000 0.000000 0.952542
O O4 0.481890 0.113407 0.026555
O O5 0.750000 0.721425 0.665548
O O6 0.507776 0.824444 0.663020
O O7 0.507245 0.670568 0.617599
O O8 0.505760 0.673563 0.715121
O O9 0.750000 0.222220 0.441992
O O10 0.507495 0.174118 0.392852
O O11 0.502475 0.176097 0.489240
O O12 0.250000 0.094054 0.370181
O O13 0.023518 0.116541 0.305649
O O14 0.000000 0.000000 0.378075
O O15 0.750000 0.916939 0.634496
O O16 0.519891 0.893567 0.574903
O O17 0.500000 0.000000 0.652657
O O18 0.250000 0.084488 0.084989
O O19 0.000000 0.000000 0.100909
O O20 0.750000 0.914974 0.244497
O O21 0.000000 0.000000 0.232728
O O22 0.250000 0.406401 0.011210
O O23 0.000000 0.500000 0.998354
#
# Coordination Sequence:
#
# PCOD8191784 Si02
#       8
#     8   8   8   8   8   8   8   8
#     4  10  20  35  52  73 102 136 170 206 245 288
#     4   9  16  29  49  72  97 129 164 196 236 289
#     4  12  23  34  51  74  98 130 169 209 249 295
#     4  10  20  35  53  75 101 129 160 200 249 302
#     4   9  18  32  49  68  96 131 166 202 241 284
#     4   9  17  29  47  71 101 132 161 193 234 283
#     4   9  18  32  52  75 100 128 158 194 241 292
#     4  10  19  32  49  72 102 135 167 204 247 295
#
# _framework density 18.050581999999999
#
# number of rings (size 3 to 8) (size 9 to 14) (size 15 to 20)
#    0.000    2.250    0.000    3.750    0.000    3.500 
#    0.000    1.250    0.000    0.750    0.000    1.750 
#    0.000    0.000    0.000    0.000    0.000    0.000 
#
# Total GULP energy -396809.325788 kJ/mol
# GULP energy per Si atom -12400.291431 kJ/mol
# Density = 1.800950 g / cm^3
# Si number density = 18.050582 Si / 1000 Ang^3
#
#
#
# Elastic Constant Matrix: (Units=GPa)
#
#
# Indices 1 2 3 4 5 6 
#
# 1 63.1447 43.0285 27.2765 0.0000 0.0000 0.0000
# 2 43.0285 176.1563 73.5320 0.0000 0.0000 0.0000
# 3 27.2765 73.5320 81.5044 0.0000 0.0000 0.0000
# 4 0.0000 0.0000 0.0000 32.0969 0.0000 0.0000
# 5 0.0000 0.0000 0.0000 0.0000 15.6776 0.0000
# 6 0.0000 0.0000 0.0000 0.0000 0.0000 32.5087
#
#
#
# Elastic Compliance Matrix: (Units=1/GPa)
#
#
# Indices 1 2 3 4 5 6 
#
# 1 0.019636 -0.003294 -0.003600 0.000000 0.000000 0.000000
# 2 -0.003294 0.009659 -0.007612 0.000000 0.000000 0.000000
# 3 -0.003600 -0.007612 0.020341 0.000000 0.000000 0.000000
# 4 0.000000 0.000000 0.000000 0.031156 0.000000 0.000000
# 5 0.000000 0.000000 0.000000 0.000000 0.063785 0.000000
# 6 0.000000 0.000000 0.000000 0.000000 0.000000 0.030761
#
#
# Mechanical properties :
#
#
# Convention : Reuss Voigt Hill
#
# Bulk Modulus (GPa) = 48.48400 67.60882 58.04641
# Shear Modulus (GPa) = 23.67166 27.85452 25.76309
#
# Velocity S-wave (km/s) = 3.62526 3.93254 3.78202
# Velocity P-wave (km/s) = 6.66647 7.62603 7.16234
#
# Compressibility (1/GPa) = 0.02062536
#
# Stress axis : x y z
#
# Youngs Moduli (GPa) = 50.92663 103.53551 49.16164
#
# Poissons Ratio (x) = 0.34101 0.17698
# Poissons Ratio (y) = 0.16773 0.37419
# Poissons Ratio (z) = 0.18334 0.78806
#
# Static dielectric constant tensor:
#      x y z
#    x 3.238360 0.000000 0.000000 
#    y 0.000000 3.484690 0.000000 
#    z 0.000000 0.000000 3.343340 
# 
# 
# High freq. dielectric constant tensor:
#      x y z
#    x 1.692100 0.000000 0.000000 
#    y 0.000000 1.704750 0.000000 
#    z 0.000000 0.000000 1.677900 
# 
# From -- ./inp_files/25301.got.cif
#   From: 2010.03.12/outbox.cif.g09.slc.cpg/sg46_13_cif.got.tgz:25301.got - 2010.04.14 02:56:35.
