data_PCOD8191043
_publ_section_title
;
Structure prediction by ZEFSAII (Michael W. Deem and Ramdas Pophale) SiO2 
 PCOD8191043
Probable space group: I B A 2
;
_chemical_formula_sum "Si O2"
_cell_formula_units_Z 40
_cell_length_a 9.812930
_cell_length_b 23.065830
_cell_length_c 7.275879
_cell_angle_alpha 90.000000
_cell_angle_beta 90.000000
_cell_angle_gamma 90.000000
_cell_volume 1646.847010
_symmetry_space_group_name_H-M "I B A 2"
_symmetry_group_IT_number 45
_symmetry_cell_setting 'orthorhombic'
loop_
_space_group_symop_operation_xyz
x,y,z
-x,-y,z
-x,y,1/2+z
x,-y,1/2+z
1/2+x,1/2+y,1/2+z
1/2-x,1/2-y,1/2+z
1/2-x,1/2+y,z
1/2+x,1/2-y,z
loop_
_atom_site_type_symbol
_atom_site_label
_atom_site_fract_x
_atom_site_fract_y
_atom_site_fract_z
Si Si1 0.637228 0.643381 0.053730
Si Si2 0.824545 0.312404 0.239901
Si Si3 0.309477 0.045967 0.673539
Si Si4 0.370388 0.701395 0.921237
Si Si5 0.897979 0.429431 0.071452
O O1 0.676565 0.574610 0.074131
O O2 0.690800 0.669130 0.244988
O O3 0.708493 0.670291 0.880203
O O4 0.478448 0.659234 0.023791
O O5 0.922492 0.264170 0.339402
O O6 0.906837 0.368576 0.178063
O O7 0.751290 0.284749 0.061875
O O8 0.443487 0.054682 0.545606
O O9 0.303802 0.975656 0.686454
O O10 0.329544 0.075084 0.872159
#
# Coordination Sequence:
#
# PCOD8191043 Si02
#       5
#     8   8   8   8   8
#     4  12  25  46  72 104 151 195 254 319 386 457
#     4  12  25  45  72 104 147 202 251 312 376 466
#     4  11  23  44  72 114 148 192 251 329 380 465
#     4  12  26  44  71 103 148 201 255 311 385 463
#     4  11  23  43  76 110 150 194 257 314 394 456
#
# _framework density 24.288837999999998
#
# number of rings (size 3 to 8) (size 9 to 14) (size 15 to 20)
#    0.000    0.400    6.000    4.800    0.000    4.800 
#    0.000    1.000    0.000    0.000    0.000    0.000 
#    0.000    0.000    0.000    0.000    0.000    0.000 
#
# Total GULP energy -247765.865032 kJ/mol
# GULP energy per Si atom -12388.293252 kJ/mol
# Density = 2.423356 g / cm^3
# Si number density = 24.288838 Si / 1000 Ang^3
#
#
#
# Elastic Constant Matrix: (Units=GPa)
#
#
# Indices 1 2 3 4 5 6 
#
# 1 53.0203 39.0008 15.6795 -0.0004 -0.0012 -0.0003
# 2 39.0008 172.2509 28.0995 0.0008 -0.0010 -0.0003
# 3 15.6795 28.0995 114.3819 -0.0026 -0.0120 -0.0055
# 4 -0.0004 0.0008 -0.0026 47.5455 -0.0013 -0.0006
# 5 -0.0012 -0.0010 -0.0120 -0.0013 31.9622 0.0019
# 6 -0.0003 -0.0003 -0.0055 -0.0006 0.0019 39.5705
#
#
#
# Elastic Compliance Matrix: (Units=1/GPa)
#
#
# Indices 1 2 3 4 5 6 
#
# 1 0.023042 -0.004898 -0.001955 0.000000 0.000000 0.000000
# 2 -0.004898 0.007089 -0.001070 0.000000 0.000000 0.000000
# 3 -0.001955 -0.001070 0.009274 0.000001 0.000003 0.000001
# 4 0.000000 0.000000 0.000001 0.021032 0.000001 0.000000
# 5 0.000000 0.000000 0.000003 0.000001 0.031287 -0.000002
# 6 0.000000 0.000000 0.000001 0.000000 -0.000002 0.025271
#
#
# Mechanical properties :
#
#
# Convention : Reuss Voigt Hill
#
# Bulk Modulus (GPa) = 42.44935 56.13477 49.29206
# Shear Modulus (GPa) = 35.53790 40.94054 38.23922
#
# Velocity S-wave (km/s) = 3.82925 4.11002 3.97212
# Velocity P-wave (km/s) = 6.08816 6.75904 6.43235
#
# Compressibility (1/GPa) = 0.02355749
#
# Stress axis : x y z
#
# Youngs Moduli (GPa) = 43.39917 141.06195 107.83350
#
# Poissons Ratio (x) = 0.69094 0.21085
# Poissons Ratio (y) = 0.21258 0.11539
# Poissons Ratio (z) = 0.08486 0.15095
#
# Static dielectric constant tensor:
#      x y z
#    x 3.828110 0.000000 0.000010 
#    y 0.000000 4.786450 0.000000 
#    z 0.000010 0.000000 4.659170 
# 
# 
# High freq. dielectric constant tensor:
#      x y z
#    x 1.909600 0.000000 0.000000 
#    y 0.000000 1.974620 0.000000 
#    z 0.000000 0.000000 1.994030 
# 
# From -- ./inp_files/1314.got.cif
#   From: 2010.03.12/outbox.cif.g09.slc.cpg/sg45_1_cif.got.tgz:1314.got - 2010.04.14 02:50:11.
