data_PCOD8191435
_publ_section_title
;
Structure prediction by ZEFSAII (Michael W. Deem and Ramdas Pophale) SiO2 
 PCOD8191435
Probable space group: I M A 2
;
_chemical_formula_sum "Si O2"
_cell_formula_units_Z 64
_cell_length_a 18.531994
_cell_length_b 22.237473
_cell_length_c 9.269014
_cell_angle_alpha 90.000000
_cell_angle_beta 90.000000
_cell_angle_gamma 90.000000
_cell_volume 3819.804384
_symmetry_space_group_name_H-M "I M A 2"
_symmetry_group_IT_number 46
_symmetry_cell_setting 'orthorhombic'
loop_
_space_group_symop_operation_xyz
x,y,z
-x,-y,z
1/2-x,y,z
1/2+x,-y,z
1/2+x,1/2+y,1/2+z
1/2-x,1/2-y,1/2+z
-x,1/2+y,1/2+z
x,1/2-y,1/2+z
loop_
_atom_site_type_symbol
_atom_site_label
_atom_site_fract_x
_atom_site_fract_y
_atom_site_fract_z
Si Si1 0.664753 0.823051 0.776970
Si Si2 0.168417 0.412615 0.858047
Si Si3 0.549561 0.672028 0.784121
Si Si4 0.165829 0.040655 0.804133
Si Si5 0.829648 0.010150 0.109675
Si Si6 0.089800 0.249809 0.028469
Si Si7 0.916124 0.500143 0.051054
Si Si8 0.551821 0.441343 0.781732
O O1 0.750000 0.821433 0.779225
O O2 0.636424 0.891778 0.781068
O O3 0.638007 0.793497 0.628034
O O4 0.638552 0.789561 0.921069
O O5 0.250000 0.399831 0.916682
O O6 0.132474 0.351326 0.799270
O O7 0.172549 0.458736 0.728194
O O8 0.115369 0.437755 0.982398
O O9 0.542415 0.708524 0.635107
O O10 0.492554 0.618995 0.774457
O O11 0.534683 0.712484 0.926360
O O12 0.250000 0.036976 0.774035
O O13 0.127853 0.992129 0.698379
O O14 0.144837 0.020631 0.963511
O O15 0.750000 0.039828 0.094408
O O16 0.889121 0.059827 0.153877
O O17 0.000000 0.500000 0.091699
O O18 0.905111 0.446322 0.934783
O O19 0.500000 0.500000 0.770440
#
# Coordination Sequence:
#
# PCOD8191435 Si02
#       8
#     8   8   8   8   8   8   8   8
#     4  10  20  33  48  67  97 140 183 218 244 281
#     4  10  18  31  53  71 100 142 179 216 247 290
#     4  11  20  38  50  75 104 137 181 211 257 298
#     4  10  20  32  47  73 109 136 163 210 264 307
#     4   9  18  32  50  79 105 132 167 207 263 317
#     4  10  23  33  49  68 100 141 180 223 241 291
#     4  10  18  31  46  75  97 130 173 211 258 303
#     4  10  19  34  56  76 100 134 175 214 253 313
#
# _framework density 16.754785999999999
#
# number of rings (size 3 to 8) (size 9 to 14) (size 15 to 20)
#    0.000    2.000    3.750    2.250    0.000    6.000 
#    0.000    0.000    0.000    0.000    0.000    0.875 
#    0.000    0.000    0.000    0.000    0.000    0.000 
#
# Total GULP energy -396576.365663 kJ/mol
# GULP energy per Si atom -12393.011427 kJ/mol
# Density = 1.671665 g / cm^3
# Si number density = 16.754786 Si / 1000 Ang^3
#
#
#
# Elastic Constant Matrix: (Units=GPa)
#
#
# Indices 1 2 3 4 5 6 
#
# 1 73.2485 52.2073 51.1287 0.0000 0.0000 0.0000
# 2 52.2073 84.5345 45.6265 0.0000 0.0000 0.0000
# 3 51.1287 45.6265 117.1233 0.0000 0.0000 0.0000
# 4 0.0000 0.0000 0.0000 20.3576 0.0000 0.0000
# 5 0.0000 0.0000 0.0000 0.0000 21.9982 0.0000
# 6 0.0000 0.0000 0.0000 0.0000 0.0000 28.0503
#
#
#
# Elastic Compliance Matrix: (Units=1/GPa)
#
#
# Indices 1 2 3 4 5 6 
#
# 1 0.028319 -0.013697 -0.007027 0.000000 0.000000 0.000000
# 2 -0.013697 0.021604 -0.002437 0.000000 0.000000 0.000000
# 3 -0.007027 -0.002437 0.012555 0.000000 0.000000 0.000000
# 4 0.000000 0.000000 0.000000 0.049122 0.000000 0.000000
# 5 0.000000 0.000000 0.000000 0.000000 0.045458 0.000000
# 6 0.000000 0.000000 0.000000 0.000000 0.000000 0.035650
#
#
# Mechanical properties :
#
#
# Convention : Reuss Voigt Hill
#
# Bulk Modulus (GPa) = 61.89271 63.64791 62.77031
# Shear Modulus (GPa) = 20.45706 22.47748 21.46727
#
# Velocity S-wave (km/s) = 3.49803 3.66670 3.58336
# Velocity P-wave (km/s) = 7.30311 7.48309 7.39365
#
# Compressibility (1/GPa) = 0.01615699
#
# Stress axis : x y z
#
# Youngs Moduli (GPa) = 35.31157 46.28818 79.65203
#
# Poissons Ratio (x) = 0.63401 0.55968
# Poissons Ratio (y) = 0.48367 0.19408
# Poissons Ratio (z) = 0.24812 0.11279
#
# Static dielectric constant tensor:
#      x y z
#    x 3.199700 0.000000 0.000000 
#    y 0.000000 3.041320 0.000000 
#    z 0.000000 0.000000 3.427100 
# 
# 
# High freq. dielectric constant tensor:
#      x y z
#    x 1.623860 0.000000 0.000000 
#    y 0.000000 1.614350 0.000000 
#    z 0.000000 0.000000 1.666840 
# 
# From -- ./inp_files/7007.got.cif
#   From: 2010.03.12/outbox.cif.g09.slc.cpg/sg46_4_cif.got.tgz:7007.got - 2010.04.14 02:56:35.
