data_PCOD8191158
_publ_section_title
;
Structure prediction by ZEFSAII (Michael W. Deem and Ramdas Pophale) SiO2 
 PCOD8191158
Probable space group: I M A 2
;
_chemical_formula_sum "Si O2"
_cell_formula_units_Z 56
_cell_length_a 13.921941
_cell_length_b 9.438074
_cell_length_c 20.111059
_cell_angle_alpha 90.000000
_cell_angle_beta 90.000000
_cell_angle_gamma 90.000000
_cell_volume 2642.518930
_symmetry_space_group_name_H-M "I M A 2"
_symmetry_group_IT_number 46
_symmetry_cell_setting 'orthorhombic'
loop_
_space_group_symop_operation_xyz
x,y,z
-x,-y,z
1/2-x,y,z
1/2+x,-y,z
1/2+x,1/2+y,1/2+z
1/2-x,1/2-y,1/2+z
-x,1/2+y,1/2+z
x,1/2-y,1/2+z
loop_
_atom_site_type_symbol
_atom_site_label
_atom_site_fract_x
_atom_site_fract_y
_atom_site_fract_z
Si Si1 0.356613 0.121484 0.873680
Si Si2 0.481260 0.659484 0.032552
Si Si3 0.098983 0.414897 0.516919
Si Si4 0.137823 0.850098 0.789716
Si Si5 0.854961 0.932396 0.159527
Si Si6 0.450815 0.720216 0.668800
Si Si7 0.027744 0.659402 0.884072
O O1 0.250000 0.177124 0.854750
O O2 0.432259 0.247798 0.871626
O O3 0.390480 0.998238 0.823926
O O4 0.349973 0.051344 0.947371
O O5 0.500000 0.500000 0.054658
O O6 0.580260 0.745347 0.021920
O O7 0.422831 0.730891 0.093659
O O8 0.430469 0.665395 0.959834
O O9 0.161477 0.456311 0.580511
O O10 0.000000 0.500000 0.521680
O O11 0.250000 0.842437 0.773906
O O12 0.077979 0.841419 0.721037
O O13 0.111243 0.717797 0.837062
O O14 0.750000 0.892552 0.190093
O O15 0.934201 0.810739 0.173974
O O16 0.891306 0.080847 0.189263
O O17 0.000000 0.500000 0.864063
#
# Coordination Sequence:
#
# PCOD8191158 Si02
#       7
#     8   8   8   8   8   8   8
#     4  10  21  37  62  93 126 164 210 260 315 380
#     4   9  18  35  60  88 119 162 198 244 313 370
#     4  10  16  33  59  91 124 158 207 257 306 364
#     4  11  24  40  61  90 124 167 213 262 315 379
#     4  10  19  34  61  92 119 158 211 258 315 376
#     4  10  21  38  59  87 126 163 201 263 314 368
#     4  10  22  40  65  90 124 165 208 262 318 377
#
# _framework density 21.191898999999999
#
# number of rings (size 3 to 8) (size 9 to 14) (size 15 to 20)
#    0.000    2.000    2.857    3.000    2.000    1.714 
#    0.000    1.429    0.000   20.571    0.000    0.000 
#    0.000    0.000    0.000    0.000    0.000    0.000 
#
# Total GULP energy -346972.547842 kJ/mol
# GULP energy per Si atom -12391.876709 kJ/mol
# Density = 2.114367 g / cm^3
# Si number density = 21.191899 Si / 1000 Ang^3
#
#
#
# Elastic Constant Matrix: (Units=GPa)
#
#
# Indices 1 2 3 4 5 6 
#
# 1 118.4350 43.3735 34.8948 0.0000 0.0000 0.0000
# 2 43.3735 117.8141 38.8324 0.0000 0.0000 0.0000
# 3 34.8948 38.8324 116.4982 0.0000 0.0000 0.0000
# 4 0.0000 0.0000 0.0000 32.4473 0.0000 0.0000
# 5 0.0000 0.0000 0.0000 0.0000 21.4742 0.0000
# 6 0.0000 0.0000 0.0000 0.0000 0.0000 20.5278
#
#
#
# Elastic Compliance Matrix: (Units=1/GPa)
#
#
# Indices 1 2 3 4 5 6 
#
# 1 0.010165 -0.003077 -0.002019 0.000000 0.000000 0.000000
# 2 -0.003077 0.010467 -0.002567 0.000000 0.000000 0.000000
# 3 -0.002019 -0.002567 0.010044 0.000000 0.000000 0.000000
# 4 0.000000 0.000000 0.000000 0.030819 0.000000 0.000000
# 5 0.000000 0.000000 0.000000 0.000000 0.046568 0.000000
# 6 0.000000 0.000000 0.000000 0.000000 0.000000 0.048714
#
#
# Mechanical properties :
#
#
# Convention : Reuss Voigt Hill
#
# Bulk Modulus (GPa) = 65.14735 65.21652 65.18193
# Shear Modulus (GPa) = 28.21340 30.59964 29.40652
#
# Velocity S-wave (km/s) = 3.65270 3.80403 3.72913
# Velocity P-wave (km/s) = 6.97122 7.08063 7.02614
#
# Compressibility (1/GPa) = 0.01534982
#
# Stress axis : x y z
#
# Youngs Moduli (GPa) = 98.37523 95.53940 99.55793
#
# Poissons Ratio (x) = 0.29395 0.20103
# Poissons Ratio (y) = 0.30268 0.25560
# Poissons Ratio (z) = 0.19864 0.24528
#
# Static dielectric constant tensor:
#      x y z
#    x 3.590290 0.000000 0.000000 
#    y 0.000000 3.861640 0.000000 
#    z 0.000000 0.000000 4.052520 
# 
# 
# High freq. dielectric constant tensor:
#      x y z
#    x 1.802260 0.000000 0.000000 
#    y 0.000000 1.823790 0.000000 
#    z 0.000000 0.000000 1.840250 
# 
# From -- ./inp_files/22028.got.cif
#   From: 2010.03.12/outbox.cif.g09.slc.cpg/sg46_12_cif.got.tgz:22028.got - 2010.04.14 02:56:35.
