data_PCOD8191549
_publ_section_title
;
Structure prediction by ZEFSAII (Michael W. Deem and Ramdas Pophale) SiO2 
 PCOD8191549
Probable space group: I M A 2
;
_chemical_formula_sum "Si O2"
_cell_formula_units_Z 64
_cell_length_a 8.872773
_cell_length_b 20.536237
_cell_length_c 19.658743
_cell_angle_alpha 90.000000
_cell_angle_beta 90.000000
_cell_angle_gamma 90.000000
_cell_volume 3582.085796
_symmetry_space_group_name_H-M "I M A 2"
_symmetry_group_IT_number 46
_symmetry_cell_setting 'orthorhombic'
loop_
_space_group_symop_operation_xyz
x,y,z
-x,-y,z
1/2-x,y,z
1/2+x,-y,z
1/2+x,1/2+y,1/2+z
1/2-x,1/2-y,1/2+z
-x,1/2+y,1/2+z
x,1/2-y,1/2+z
loop_
_atom_site_type_symbol
_atom_site_label
_atom_site_fract_x
_atom_site_fract_y
_atom_site_fract_z
Si Si1 0.927254 0.565912 0.987040
Si Si2 0.425493 0.818570 0.567885
Si Si3 0.425493 0.681430 0.496301
Si Si4 0.575193 0.119842 0.359310
Si Si5 0.428782 0.766905 0.708276
Si Si6 0.924807 0.380158 0.704876
Si Si7 0.072746 0.065912 0.077146
Si Si8 0.428782 0.733095 0.355909
O O1 0.750000 0.559017 0.989805
O O2 0.000000 0.500000 0.016642
O O3 0.979321 0.574607 0.909112
O O4 0.977006 0.626079 0.033213
O O5 0.250000 0.837200 0.562507
O O6 0.456590 0.750000 0.532093
O O7 0.480916 0.813237 0.646600
O O8 0.250000 0.662800 0.501678
O O9 0.522994 0.626079 0.530973
O O10 0.480916 0.686763 0.417586
O O11 0.750000 0.115764 0.380850
O O12 0.552274 0.095455 0.282093
O O13 0.513185 0.193419 0.367382
O O14 0.250000 0.762831 0.709117
O O15 0.486815 0.693419 0.696804
O O16 0.486905 0.793259 0.782093
O O17 0.750000 0.384236 0.683336
O O18 0.020679 0.425393 0.655074
O O19 0.250000 0.059017 0.074381
O O20 0.000000 0.000000 0.047544
O O21 0.250000 0.737169 0.355068
#
# Coordination Sequence:
#
# PCOD8191549 Si02
#       8
#     8   8   8   8   8   8   8   8
#     4  12  25  38  53  75 109 146 186 227 272 322
#     4  10  18  33  58  83 109 141 179 221 269 320
#     4  10  18  33  58  83 109 141 179 221 269 320
#     4   9  17  33  56  80 108 143 182 218 260 318
#     4   8  14  27  52  83 110 138 173 213 260 318
#     4   9  17  33  56  80 108 143 182 218 260 318
#     4  12  25  38  53  75 109 146 186 227 272 322
#     4   8  14  27  52  83 110 138 173 213 260 318
#
# _framework density 17.866686000000001
#
# number of rings (size 3 to 8) (size 9 to 14) (size 15 to 20)
#    0.000    2.250    2.500    3.750    0.000    1.500 
#    0.000    0.000    0.000    1.500    0.000    0.000 
#    0.000    0.000    0.000    0.000    0.000    0.000 
#
# Total GULP energy -396691.168754 kJ/mol
# GULP energy per Si atom -12396.599024 kJ/mol
# Density = 1.782602 g / cm^3
# Si number density = 17.866686 Si / 1000 Ang^3
#
#
#
# Elastic Constant Matrix: (Units=GPa)
#
#
# Indices 1 2 3 4 5 6 
#
# 1 92.5720 49.4627 42.8340 0.0000 0.0000 0.0000
# 2 49.4627 83.3855 45.4780 0.0000 0.0000 0.0000
# 3 42.8340 45.4780 119.3920 0.0000 0.0000 0.0000
# 4 0.0000 0.0000 0.0000 17.6307 0.0000 0.0000
# 5 0.0000 0.0000 0.0000 0.0000 20.5547 0.0000
# 6 0.0000 0.0000 0.0000 0.0000 0.0000 24.9192
#
#
#
# Elastic Compliance Matrix: (Units=1/GPa)
#
#
# Indices 1 2 3 4 5 6 
#
# 1 0.016509 -0.008283 -0.002768 0.000000 0.000000 0.000000
# 2 -0.008283 0.019293 -0.004377 0.000000 0.000000 0.000000
# 3 -0.002768 -0.004377 0.011036 0.000000 0.000000 0.000000
# 4 0.000000 0.000000 0.000000 0.056719 0.000000 0.000000
# 5 0.000000 0.000000 0.000000 0.000000 0.048651 0.000000
# 6 0.000000 0.000000 0.000000 0.000000 0.000000 0.040130
#
#
# Mechanical properties :
#
#
# Convention : Reuss Voigt Hill
#
# Bulk Modulus (GPa) = 62.57107 63.43321 63.00214
# Shear Modulus (GPa) = 21.87973 23.12590 22.50281
#
# Velocity S-wave (km/s) = 3.50324 3.60162 3.55277
# Velocity P-wave (km/s) = 7.17361 7.27161 7.22278
#
# Compressibility (1/GPa) = 0.01598183
#
# Stress axis : x y z
#
# Youngs Moduli (GPa) = 60.57322 51.83126 90.61183
#
# Poissons Ratio (x) = 0.42934 0.25078
# Poissons Ratio (y) = 0.50175 0.39664
# Poissons Ratio (z) = 0.16765 0.22688
#
# Static dielectric constant tensor:
#      x y z
#    x 2.970500 0.000000 0.000000 
#    y 0.000000 3.143810 0.000000 
#    z 0.000000 0.000000 3.896550 
# 
# 
# High freq. dielectric constant tensor:
#      x y z
#    x 1.660170 0.000000 0.000000 
#    y 0.000000 1.668270 0.000000 
#    z 0.000000 0.000000 1.702460 
# 
# From -- ./inp_files/21332.got.cif
#   From: 2010.03.12/outbox.cif.g09.slc.cpg/sg46_11_cif.got.tgz:21332.got - 2010.04.14 02:56:35.
