data_PCOD8191687
_publ_section_title
;
Structure prediction by ZEFSAII (Michael W. Deem and Ramdas Pophale) SiO2 
 PCOD8191687
Probable space group: I M A 2
;
_chemical_formula_sum "Si O2"
_cell_formula_units_Z 64
_cell_length_a 9.342508
_cell_length_b 14.387501
_cell_length_c 23.923923
_cell_angle_alpha 90.000000
_cell_angle_beta 90.000000
_cell_angle_gamma 90.000000
_cell_volume 3215.742321
_symmetry_space_group_name_H-M "I M A 2"
_symmetry_group_IT_number 46
_symmetry_cell_setting 'orthorhombic'
loop_
_space_group_symop_operation_xyz
x,y,z
-x,-y,z
1/2-x,y,z
1/2+x,-y,z
1/2+x,1/2+y,1/2+z
1/2-x,1/2-y,1/2+z
-x,1/2+y,1/2+z
x,1/2-y,1/2+z
loop_
_atom_site_type_symbol
_atom_site_label
_atom_site_fract_x
_atom_site_fract_y
_atom_site_fract_z
Si Si1 0.584121 0.795550 0.127040
Si Si2 0.093128 0.580294 0.363944
Si Si3 0.586658 0.722455 0.419124
Si Si4 0.917760 0.594380 0.522762
Si Si5 0.410416 0.621973 0.242956
Si Si6 0.083700 0.199372 0.253476
Si Si7 0.087274 0.089946 0.363677
Si Si8 0.579198 0.586656 0.137051
O O1 0.750000 0.788256 0.113797
O O2 0.519139 0.867110 0.081841
O O3 0.556017 0.835236 0.189455
O O4 0.526770 0.689248 0.117389
O O5 0.250000 0.580134 0.391835
O O6 0.104043 0.559031 0.298110
O O7 0.000000 0.500000 0.393891
O O8 0.016154 0.677813 0.373284
O O9 0.750000 0.700510 0.402257
O O10 0.551098 0.678931 0.479561
O O11 0.558481 0.832591 0.412012
O O12 0.750000 0.570817 0.525417
O O13 0.000000 0.500000 0.506641
O O14 0.250000 0.632817 0.216201
O O15 0.471078 0.719872 0.264294
O O16 0.525457 0.577833 0.200930
O O17 0.250000 0.232745 0.258915
O O18 0.049208 0.122288 0.300307
O O19 0.250000 0.058752 0.365143
O O20 0.000000 0.000000 0.380813
O O21 0.500000 0.500000 0.104627
O O22 0.750000 0.573864 0.134046
#
# Coordination Sequence:
#
# PCOD8191687 Si02
#       8
#     8   8   8   8   8   8   8   8
#     4   8  17  34  56  80 108 146 183 222 273 329
#     4  11  22  32  48  75 107 142 180 224 273 328
#     4  10  21  38  58  78 107 145 183 228 276 330
#     4  10  21  39  61  84 110 141 184 231 280 332
#     4  10  19  30  47  75 108 144 182 223 271 325
#     4   9  17  33  55  77 109 149 185 222 273 330
#     4  10  21  36  56  82 111 146 183 224 276 333
#     4  10  19  32  51  75 108 149 187 226 271 325
#
# _framework density 19.902090999999999
#
# number of rings (size 3 to 8) (size 9 to 14) (size 15 to 20)
#    0.000    2.250    1.250    2.625    0.000    5.500 
#    0.000    3.750    0.000    0.000    0.000    0.000 
#    0.000    0.000    0.000    0.000    0.000    0.000 
#
# Total GULP energy -396424.890282 kJ/mol
# GULP energy per Si atom -12388.277821 kJ/mol
# Density = 1.985679 g / cm^3
# Si number density = 19.902091 Si / 1000 Ang^3
#
#
#
# Elastic Constant Matrix: (Units=GPa)
#
#
# Indices 1 2 3 4 5 6 
#
# 1 88.1159 52.6116 21.9124 0.0000 0.0000 0.0000
# 2 52.6116 126.0839 42.6042 0.0000 0.0000 0.0000
# 3 21.9124 42.6042 89.3849 0.0000 0.0000 0.0000
# 4 0.0000 0.0000 0.0000 23.2800 0.0000 0.0000
# 5 0.0000 0.0000 0.0000 0.0000 16.2108 0.0000
# 6 0.0000 0.0000 0.0000 0.0000 0.0000 34.7280
#
#
#
# Elastic Compliance Matrix: (Units=1/GPa)
#
#
# Indices 1 2 3 4 5 6 
#
# 1 0.015167 -0.006046 -0.000836 0.000000 0.000000 0.000000
# 2 -0.006046 0.011864 -0.004173 0.000000 0.000000 0.000000
# 3 -0.000836 -0.004173 0.013381 0.000000 0.000000 0.000000
# 4 0.000000 0.000000 0.000000 0.042955 0.000000 0.000000
# 5 0.000000 0.000000 0.000000 0.000000 0.061687 0.000000
# 6 0.000000 0.000000 0.000000 0.000000 0.000000 0.028795
#
#
# Mechanical properties :
#
#
# Convention : Reuss Voigt Hill
#
# Bulk Modulus (GPa) = 54.63863 59.76014 57.19939
# Shear Modulus (GPa) = 24.74504 27.27419 26.00962
#
# Velocity S-wave (km/s) = 3.52993 3.70593 3.61900
# Velocity P-wave (km/s) = 6.64283 6.95731 6.80189
#
# Compressibility (1/GPa) = 0.01830207
#
# Stress axis : x y z
#
# Youngs Moduli (GPa) = 65.93445 84.28816 74.73039
#
# Poissons Ratio (x) = 0.50961 0.06249
# Poissons Ratio (y) = 0.39864 0.31183
# Poissons Ratio (z) = 0.05514 0.35171
#
# Static dielectric constant tensor:
#      x y z
#    x 3.632150 0.000000 0.000000 
#    y 0.000000 3.671830 0.000000 
#    z 0.000000 0.000000 3.626500 
# 
# 
# High freq. dielectric constant tensor:
#      x y z
#    x 1.766030 0.000000 0.000000 
#    y 0.000000 1.768650 0.000000 
#    z 0.000000 0.000000 1.756790 
# 
# From -- ./inp_files/23169.got.cif
#   From: 2010.03.12/outbox.cif.g09.slc.cpg/sg46_12_cif.got.tgz:23169.got - 2010.04.14 02:56:35.
