data_PCOD8191560
_publ_section_title
;
Structure prediction by ZEFSAII (Michael W. Deem and Ramdas Pophale) SiO2 
 PCOD8191560
Probable space group: I M A 2
;
_chemical_formula_sum "Si O2"
_cell_formula_units_Z 56
_cell_length_a 8.858508
_cell_length_b 19.047343
_cell_length_c 17.661184
_cell_angle_alpha 90.000000
_cell_angle_beta 90.000000
_cell_angle_gamma 90.000000
_cell_volume 2979.989950
_symmetry_space_group_name_H-M "I M A 2"
_symmetry_group_IT_number 46
_symmetry_cell_setting 'orthorhombic'
loop_
_space_group_symop_operation_xyz
x,y,z
-x,-y,z
1/2-x,y,z
1/2+x,-y,z
1/2+x,1/2+y,1/2+z
1/2-x,1/2-y,1/2+z
-x,1/2+y,1/2+z
x,1/2-y,1/2+z
loop_
_atom_site_type_symbol
_atom_site_label
_atom_site_fract_x
_atom_site_fract_y
_atom_site_fract_z
Si Si1 0.424410 0.671714 0.534780
Si Si2 0.418980 0.436886 0.280554
Si Si3 0.926311 0.431396 0.121366
Si Si4 0.924683 0.792268 0.615167
Si Si5 0.428194 0.204043 0.257474
Si Si6 0.418584 0.194141 0.885882
Si Si7 0.073342 0.576354 0.674271
O O1 0.250000 0.693349 0.544905
O O2 0.539638 0.733331 0.554203
O O3 0.463108 0.662269 0.446369
O O4 0.459807 0.604759 0.588692
O O5 0.500000 0.500000 0.328444
O O6 0.250000 0.459328 0.255592
O O7 0.524617 0.427221 0.208246
O O8 0.409992 0.364865 0.323171
O O9 0.750000 0.436106 0.110612
O O10 0.000000 0.500000 0.081750
O O11 0.985605 0.359708 0.084691
O O12 0.750000 0.811842 0.617314
O O13 0.979397 0.763056 0.696694
O O14 0.250000 0.190731 0.250618
O O15 0.470314 0.234104 0.341577
O O16 0.510260 0.130453 0.237823
O O17 0.250000 0.205006 0.920323
O O18 0.250000 0.568493 0.688647
O O19 0.000000 0.500000 0.683599
#
# Coordination Sequence:
#
# PCOD8191560 Si02
#       7
#     8   8   8   8   8   8   8
#     4  10  22  36  52  79 109 140 181 223 270 326
#     4  10  19  32  47  71 104 138 176 211 253 306
#     4  11  20  30  48  74 103 134 170 211 256 304
#     4  10  18  34  55  75 102 136 175 220 266 316
#     4   9  18  34  56  79 105 138 180 225 271 322
#     4  10  20  35  53  76 108 146 183 218 269 329
#     4  10  21  37  57  82 110 142 185 230 278 330
#
# _framework density 18.792009
#
# number of rings (size 3 to 8) (size 9 to 14) (size 15 to 20)
#    0.000    2.000    1.429    3.857    0.000    4.571 
#    0.000    2.857    0.000    0.857    0.000    2.000 
#    0.000    0.000    0.000    0.000    0.000    0.000 
#
# Total GULP energy -346933.542497 kJ/mol
# GULP energy per Si atom -12390.483661 kJ/mol
# Density = 1.874924 g / cm^3
# Si number density = 18.792009 Si / 1000 Ang^3
#
#
#
# Elastic Constant Matrix: (Units=GPa)
#
#
# Indices 1 2 3 4 5 6 
#
# 1 95.9587 51.5258 9.7809 0.0000 0.0000 0.0000
# 2 51.5258 127.8659 15.0258 0.0000 0.0000 0.0000
# 3 9.7809 15.0258 35.7473 0.0000 0.0000 0.0000
# 4 0.0000 0.0000 0.0000 15.4693 0.0000 0.0000
# 5 0.0000 0.0000 0.0000 0.0000 25.3294 0.0000
# 6 0.0000 0.0000 0.0000 0.0000 0.0000 32.3903
#
#
#
# Elastic Compliance Matrix: (Units=1/GPa)
#
#
# Indices 1 2 3 4 5 6 
#
# 1 0.013371 -0.005216 -0.001466 0.000000 0.000000 0.000000
# 2 -0.005216 0.010262 -0.002886 0.000000 0.000000 0.000000
# 3 -0.001466 -0.002886 0.029588 0.000000 0.000000 0.000000
# 4 0.000000 0.000000 0.000000 0.064644 0.000000 0.000000
# 5 0.000000 0.000000 0.000000 0.000000 0.039480 0.000000
# 6 0.000000 0.000000 0.000000 0.000000 0.000000 0.030873
#
#
# Mechanical properties :
#
#
# Convention : Reuss Voigt Hill
#
# Bulk Modulus (GPa) = 29.33847 45.80412 37.57130
# Shear Modulus (GPa) = 22.86059 26.85376 24.85717
#
# Velocity S-wave (km/s) = 3.49163 3.78431 3.64091
# Velocity P-wave (km/s) = 5.64813 6.59711 6.14098
#
# Compressibility (1/GPa) = 0.03408494
#
# Stress axis : x y z
#
# Youngs Moduli (GPa) = 74.78691 97.44977 33.79701
#
# Poissons Ratio (x) = 0.50829 0.04955
# Poissons Ratio (y) = 0.39008 0.09754
# Poissons Ratio (z) = 0.10965 0.28126
#
# Static dielectric constant tensor:
#      x y z
#    x 3.722890 0.000000 0.000000 
#    y 0.000000 3.975590 0.000000 
#    z 0.000000 0.000000 3.187660 
# 
# 
# High freq. dielectric constant tensor:
#      x y z
#    x 1.738270 0.000000 0.000000 
#    y 0.000000 1.737420 0.000000 
#    z 0.000000 0.000000 1.689480 
# 
# From -- ./inp_files/21233.got.cif
#   From: 2010.03.12/outbox.cif.g09.slc.cpg/sg46_11_cif.got.tgz:21233.got - 2010.04.14 02:56:35.
