data_PCOD8191342
_publ_section_title
;
Structure prediction by ZEFSAII (Michael W. Deem and Ramdas Pophale) SiO2 
 PCOD8191342
Probable space group: I M A 2
;
_chemical_formula_sum "Si O2"
_cell_formula_units_Z 64
_cell_length_a 8.817041
_cell_length_b 18.395955
_cell_length_c 21.121253
_cell_angle_alpha 90.000000
_cell_angle_beta 90.000000
_cell_angle_gamma 90.000000
_cell_volume 3425.822660
_symmetry_space_group_name_H-M "I M A 2"
_symmetry_group_IT_number 46
_symmetry_cell_setting 'orthorhombic'
loop_
_space_group_symop_operation_xyz
x,y,z
-x,-y,z
1/2-x,y,z
1/2+x,-y,z
1/2+x,1/2+y,1/2+z
1/2-x,1/2-y,1/2+z
-x,1/2+y,1/2+z
x,1/2-y,1/2+z
loop_
_atom_site_type_symbol
_atom_site_label
_atom_site_fract_x
_atom_site_fract_y
_atom_site_fract_z
Si Si1 0.074991 0.424426 0.955440
Si Si2 0.925728 0.634074 0.817305
Si Si3 0.569943 0.423775 0.693821
Si Si4 0.915073 0.564094 0.498460
Si Si5 0.929894 0.277571 0.365690
Si Si6 0.928899 0.281720 0.001813
Si Si7 0.430578 0.073792 0.857913
Si Si8 0.079532 0.314422 0.598675
O O1 0.250000 0.423932 0.975512
O O2 0.055670 0.411730 0.880973
O O3 0.000000 0.500000 0.974793
O O4 0.988562 0.362961 0.994477
O O5 0.750000 0.641930 0.797561
O O6 0.017241 0.588719 0.765292
O O7 0.998723 0.713306 0.824146
O O8 0.500000 0.500000 0.668962
O O9 0.750000 0.429118 0.689079
O O10 0.513095 0.354668 0.653364
O O11 0.750000 0.532911 0.485223
O O12 0.990457 0.576365 0.430249
O O13 0.912585 0.636450 0.537127
O O14 0.000000 0.500000 0.536636
O O15 0.750000 0.276334 0.357951
O O16 0.977497 0.266076 0.439819
O O17 0.996570 0.350968 0.333076
O O18 0.750000 0.281696 0.007888
O O19 0.995400 0.255378 0.069660
O O20 0.250000 0.075622 0.848349
O O21 0.500000 0.000000 0.825959
O O22 0.250000 0.295810 0.622718
#
# Coordination Sequence:
#
# PCOD8191342 Si02
#       8
#     8   8   8   8   8   8   8   8
#     4  10  20  34  55  81 109 139 174 219 272 326
#     4  10  21  37  57  79 105 141 182 226 273 321
#     4  12  25  40  56  78 108 144 187 229 269 316
#     4   9  18  28  42  63  92 130 170 209 249 297
#     4  10  19  32  51  76 105 138 176 221 271 324
#     4  10  20  33  51  76 106 139 176 217 266 323
#     4  10  18  29  44  68 100 135 173 214 260 313
#     4  11  21  35  52  73 103 140 180 221 264 312
#
# _framework density 18.681645
#
# number of rings (size 3 to 8) (size 9 to 14) (size 15 to 20)
#    0.000    1.750    1.250    4.125    0.000    6.000 
#    0.000    0.000    0.000    0.000    0.000    0.875 
#    0.000    0.000    0.000    0.000    0.000    0.125 
#
# Total GULP energy -396641.377245 kJ/mol
# GULP energy per Si atom -12395.043039 kJ/mol
# Density = 1.863913 g / cm^3
# Si number density = 18.681645 Si / 1000 Ang^3
#
#
#
# Elastic Constant Matrix: (Units=GPa)
#
#
# Indices 1 2 3 4 5 6 
#
# 1 114.6029 45.8750 25.8646 0.0000 0.0000 0.0000
# 2 45.8750 120.4175 18.7062 0.0000 0.0000 0.0000
# 3 25.8646 18.7062 47.0909 0.0000 0.0000 0.0000
# 4 0.0000 0.0000 0.0000 23.5874 0.0000 0.0000
# 5 0.0000 0.0000 0.0000 0.0000 27.6960 0.0000
# 6 0.0000 0.0000 0.0000 0.0000 0.0000 37.9473
#
#
#
# Elastic Compliance Matrix: (Units=1/GPa)
#
#
# Indices 1 2 3 4 5 6 
#
# 1 0.011213 -0.003533 -0.004755 0.000000 0.000000 0.000000
# 2 -0.003533 0.009964 -0.002017 0.000000 0.000000 0.000000
# 3 -0.004755 -0.002017 0.024649 0.000000 0.000000 0.000000
# 4 0.000000 0.000000 0.000000 0.042396 0.000000 0.000000
# 5 0.000000 0.000000 0.000000 0.000000 0.036106 0.000000
# 6 0.000000 0.000000 0.000000 0.000000 0.000000 0.026352
#
#
# Mechanical properties :
#
#
# Convention : Reuss Voigt Hill
#
# Bulk Modulus (GPa) = 39.66046 51.44477 45.55262
# Shear Modulus (GPa) = 27.82465 30.62384 29.22425
#
# Velocity S-wave (km/s) = 3.86348 4.05315 3.95945
# Velocity P-wave (km/s) = 6.41698 7.03573 6.73347
#
# Compressibility (1/GPa) = 0.02521403
#
# Stress axis : x y z
#
# Youngs Moduli (GPa) = 89.17952 100.36279 40.56993
#
# Poissons Ratio (x) = 0.35460 0.19293
# Poissons Ratio (y) = 0.31509 0.08185
# Poissons Ratio (z) = 0.42408 0.20247
#
# Static dielectric constant tensor:
#      x y z
#    x 3.594520 0.000000 0.000000 
#    y 0.000000 3.535580 0.000000 
#    z 0.000000 0.000000 3.058810 
# 
# 
# High freq. dielectric constant tensor:
#      x y z
#    x 1.741860 0.000000 0.000000 
#    y 0.000000 1.729630 0.000000 
#    z 0.000000 0.000000 1.675610 
# 
# From -- ./inp_files/21307.got.cif
#   From: 2010.03.12/outbox.cif.g09.slc.cpg/sg46_11_cif.got.tgz:21307.got - 2010.04.14 02:56:35.
