data_PCOD8191350
_publ_section_title
;
Structure prediction by ZEFSAII (Michael W. Deem and Ramdas Pophale) SiO2 
 PCOD8191350
Probable space group: I M A 2
;
_chemical_formula_sum "Si O2"
_cell_formula_units_Z 64
_cell_length_a 8.474209
_cell_length_b 14.649001
_cell_length_c 28.081721
_cell_angle_alpha 90.000000
_cell_angle_beta 90.000000
_cell_angle_gamma 90.000000
_cell_volume 3486.028230
_symmetry_space_group_name_H-M "I M A 2"
_symmetry_group_IT_number 46
_symmetry_cell_setting 'orthorhombic'
loop_
_space_group_symop_operation_xyz
x,y,z
-x,-y,z
1/2-x,y,z
1/2+x,-y,z
1/2+x,1/2+y,1/2+z
1/2-x,1/2-y,1/2+z
-x,1/2+y,1/2+z
x,1/2-y,1/2+z
loop_
_atom_site_type_symbol
_atom_site_label
_atom_site_fract_x
_atom_site_fract_y
_atom_site_fract_z
Si Si1 0.937352 0.402148 0.924340
Si Si2 0.566076 0.833205 0.136799
Si Si3 0.064330 0.786409 0.230384
Si Si4 0.437266 0.785275 0.510520
Si Si5 0.435898 0.902762 0.318159
Si Si6 0.567313 0.593564 0.201784
Si Si7 0.930941 0.147067 0.608443
Si Si8 0.437160 0.907992 0.047543
O O1 0.750000 0.403705 0.926293
O O2 0.003336 0.325245 0.960859
O O3 0.000231 0.379003 0.871224
O O4 0.000000 0.500000 0.941163
O O5 0.750000 0.807103 0.131761
O O6 0.525572 0.851867 0.192189
O O7 0.447456 0.751844 0.123441
O O8 0.517987 0.912759 0.100252
O O9 0.250000 0.797449 0.223458
O O10 0.010369 0.822898 0.282196
O O11 0.018743 0.680031 0.225465
O O12 0.250000 0.780298 0.510335
O O13 0.488012 0.855412 0.553206
O O14 0.500219 0.681860 0.519182
O O15 0.250000 0.910707 0.320080
O O16 0.500000 0.000000 0.300490
O O17 0.500000 0.500000 0.224549
O O18 0.750000 0.601920 0.213164
O O19 0.538797 0.588521 0.144417
O O20 0.750000 0.115540 0.614540
O O21 0.250000 0.908741 0.051459
O O22 0.500000 0.000000 0.021328
#
# Coordination Sequence:
#
# PCOD8191350 Si02
#       8
#     8   8   8   8   8   8   8   8
#     4   9  17  33  52  74  98 124 156 194 239 290
#     4  10  18  29  45  67  93 126 161 197 235 279
#     4  10  19  33  50  72  99 130 165 204 244 289
#     4   8  16  30  50  71  97 129 161 194 238 286
#     4   9  19  33  53  75  98 125 157 197 245 293
#     4  11  21  33  49  71  98 133 168 204 243 287
#     4   9  16  29  46  67  95 128 161 198 235 275
#     4  10  19  32  48  69  96 131 166 202 240 283
#
# _framework density 18.359003000000001
#
# number of rings (size 3 to 8) (size 9 to 14) (size 15 to 20)
#    0.000    2.500    0.000    5.625    0.000    2.000 
#    0.000    6.250    0.000    0.750    0.000    1.750 
#    0.000    0.000    0.000    0.000    0.000    0.000 
#
# Total GULP energy -396501.916680 kJ/mol
# GULP energy per Si atom -12390.684896 kJ/mol
# Density = 1.831722 g / cm^3
# Si number density = 18.359003 Si / 1000 Ang^3
#
#
#
# Elastic Constant Matrix: (Units=GPa)
#
#
# Indices 1 2 3 4 5 6 
#
# 1 51.1562 18.6747 23.0406 0.0000 0.0000 0.0000
# 2 18.6747 109.5810 64.9748 0.0000 0.0000 0.0000
# 3 23.0406 64.9748 116.3706 0.0000 0.0000 0.0000
# 4 0.0000 0.0000 0.0000 21.7836 0.0000 0.0000
# 5 0.0000 0.0000 0.0000 0.0000 14.9523 0.0000
# 6 0.0000 0.0000 0.0000 0.0000 0.0000 26.0971
#
#
#
# Elastic Compliance Matrix: (Units=1/GPa)
#
#
# Indices 1 2 3 4 5 6 
#
# 1 0.021676 -0.001718 -0.003332 0.000000 0.000000 0.000000
# 2 -0.001718 0.013778 -0.007353 0.000000 0.000000 0.000000
# 3 -0.003332 -0.007353 0.013358 0.000000 0.000000 0.000000
# 4 0.000000 0.000000 0.000000 0.045906 0.000000 0.000000
# 5 0.000000 0.000000 0.000000 0.000000 0.066880 0.000000
# 6 0.000000 0.000000 0.000000 0.000000 0.000000 0.038318
#
#
# Mechanical properties :
#
#
# Convention : Reuss Voigt Hill
#
# Bulk Modulus (GPa) = 41.65611 54.49865 48.07738
# Shear Modulus (GPa) = 21.48452 23.92776 22.70614
#
# Velocity S-wave (km/s) = 3.42459 3.61408 3.52061
# Velocity P-wave (km/s) = 6.19485 6.86766 6.53991
#
# Compressibility (1/GPa) = 0.02400608
#
# Stress axis : x y z
#
# Youngs Moduli (GPa) = 46.13375 72.57815 74.85899
#
# Poissons Ratio (x) = 0.12470 0.24946
# Poissons Ratio (y) = 0.07926 0.55043
# Poissons Ratio (z) = 0.15374 0.53366
#
# Static dielectric constant tensor:
#      x y z
#    x 3.207630 0.000000 0.000000 
#    y 0.000000 3.605200 0.000000 
#    z 0.000000 0.000000 3.774320 
# 
# 
# High freq. dielectric constant tensor:
#      x y z
#    x 1.705960 0.000000 0.000000 
#    y 0.000000 1.701480 0.000000 
#    z 0.000000 0.000000 1.691890 
# 
# From -- ./inp_files/25317.got.cif
#   From: 2010.03.12/outbox.cif.g09.slc.cpg/sg46_13_cif.got.tgz:25317.got - 2010.04.14 02:56:35.
