data_PCOD8191448
_publ_section_title
;
Structure prediction by ZEFSAII (Michael W. Deem and Ramdas Pophale) SiO2 
 PCOD8191448
Probable space group: I M A 2
;
_chemical_formula_sum "Si O2"
_cell_formula_units_Z 64
_cell_length_a 15.117295
_cell_length_b 17.440792
_cell_length_c 14.061619
_cell_angle_alpha 90.000000
_cell_angle_beta 90.000000
_cell_angle_gamma 90.000000
_cell_volume 3707.452685
_symmetry_space_group_name_H-M "I M A 2"
_symmetry_group_IT_number 46
_symmetry_cell_setting 'orthorhombic'
loop_
_space_group_symop_operation_xyz
x,y,z
-x,-y,z
1/2-x,y,z
1/2+x,-y,z
1/2+x,1/2+y,1/2+z
1/2-x,1/2-y,1/2+z
-x,1/2+y,1/2+z
x,1/2-y,1/2+z
loop_
_atom_site_type_symbol
_atom_site_label
_atom_site_fract_x
_atom_site_fract_y
_atom_site_fract_z
Si Si1 0.967491 0.663316 0.370380
Si Si2 0.476702 0.343424 0.871549
Si Si3 0.348559 0.076705 0.012387
Si Si4 0.093944 0.539777 0.370743
Si Si5 0.648069 0.926273 0.509833
Si Si6 0.087239 0.456752 0.716036
Si Si7 0.348650 0.935153 0.374979
Si Si8 0.849644 0.572940 0.227495
O O1 0.975145 0.753156 0.360920
O O2 0.916942 0.637348 0.466748
O O3 0.913382 0.633041 0.279531
O O4 0.069507 0.630258 0.372235
O O5 0.435733 0.382162 0.778102
O O6 0.578664 0.368774 0.882773
O O7 0.417580 0.364922 0.962664
O O8 0.250000 0.106854 0.991004
O O9 0.359322 0.071587 0.125147
O O10 0.358795 0.991340 0.966416
O O11 0.147606 0.511405 0.277630
O O12 0.000000 0.500000 0.363940
O O13 0.750000 0.899272 0.497075
O O14 0.620240 0.934827 0.619104
O O15 0.633432 0.009069 0.463409
O O16 0.144549 0.515895 0.778079
O O17 0.000000 0.500000 0.679923
O O18 0.250000 0.899205 0.379700
O O19 0.750000 0.604760 0.233807
#
# Coordination Sequence:
#
# PCOD8191448 Si02
#       8
#     8   8   8   8   8   8   8   8
#     4  10  20  32  45  70 102 131 159 192 238 298
#     4  10  21  33  48  72 104 134 157 191 244 296
#     4  10  18  31  51  72  93 124 163 205 243 280
#     4   8  16  30  48  66  89 122 161 198 231 272
#     4   9  18  32  53  76  97 125 164 202 240 286
#     4   9  17  32  53  73  93 122 161 201 242 287
#     4   9  18  34  53  74  95 122 166 210 239 278
#     4   9  17  32  52  73  94 122 161 205 243 281
#
# _framework density 17.262526999999999
#
# number of rings (size 3 to 8) (size 9 to 14) (size 15 to 20)
#    0.000    3.000    0.000    4.125    0.000    5.500 
#    0.000    2.500    0.000    0.000    0.000    6.125 
#    0.000    0.000    0.000    0.000    0.000    0.000 
#
# Total GULP energy -396578.490897 kJ/mol
# GULP energy per Si atom -12393.077841 kJ/mol
# Density = 1.722324 g / cm^3
# Si number density = 17.262527 Si / 1000 Ang^3
#
#
#
# Elastic Constant Matrix: (Units=GPa)
#
#
# Indices 1 2 3 4 5 6 
#
# 1 86.1364 48.2187 36.6210 0.0000 0.0000 0.0000
# 2 48.2187 109.2251 39.8601 0.0000 0.0000 0.0000
# 3 36.6210 39.8601 126.2258 0.0000 0.0000 0.0000
# 4 0.0000 0.0000 0.0000 8.6375 0.0000 0.0000
# 5 0.0000 0.0000 0.0000 0.0000 26.7069 0.0000
# 6 0.0000 0.0000 0.0000 0.0000 0.0000 15.7622
#
#
#
# Elastic Compliance Matrix: (Units=1/GPa)
#
#
# Indices 1 2 3 4 5 6 
#
# 1 0.016231 -0.006157 -0.002765 0.000000 0.000000 0.000000
# 2 -0.006157 0.012683 -0.002219 0.000000 0.000000 0.000000
# 3 -0.002765 -0.002219 0.009425 0.000000 0.000000 0.000000
# 4 0.000000 0.000000 0.000000 0.115775 0.000000 0.000000
# 5 0.000000 0.000000 0.000000 0.000000 0.037443 0.000000
# 6 0.000000 0.000000 0.000000 0.000000 0.000000 0.063443
#
#
# Mechanical properties :
#
#
# Convention : Reuss Voigt Hill
#
# Bulk Modulus (GPa) = 62.27128 63.44300 62.85714
# Shear Modulus (GPa) = 17.69068 23.34714 20.51891
#
# Velocity S-wave (km/s) = 3.20473 3.68159 3.45140
# Velocity P-wave (km/s) = 7.06011 7.40971 7.23702
#
# Compressibility (1/GPa) = 0.01605877
#
# Stress axis : x y z
#
# Youngs Moduli (GPa) = 61.60888 78.84540 106.09846
#
# Poissons Ratio (x) = 0.48541 0.29336
# Poissons Ratio (y) = 0.37930 0.23543
# Poissons Ratio (z) = 0.17035 0.17495
#
# Static dielectric constant tensor:
#      x y z
#    x 3.631480 0.000000 0.000000 
#    y 0.000000 3.248860 0.000000 
#    z 0.000000 0.000000 3.273920 
# 
# 
# High freq. dielectric constant tensor:
#      x y z
#    x 1.672640 0.000000 0.000000 
#    y 0.000000 1.629180 0.000000 
#    z 0.000000 0.000000 1.672180 
# 
# From -- ./inp_files/16192.got.cif
#   From: 2010.03.12/outbox.cif.g09.slc.cpg/sg46_9_cif.got.tgz:16192.got - 2010.04.14 02:56:35.
