data_PCOD8191811
_publ_section_title
;
Structure prediction by ZEFSAII (Michael W. Deem and Ramdas Pophale) SiO2 
 PCOD8191811
Probable space group: I M A 2
;
_chemical_formula_sum "Si O2"
_cell_formula_units_Z 64
_cell_length_a 8.787581
_cell_length_b 22.813698
_cell_length_c 18.979450
_cell_angle_alpha 90.000000
_cell_angle_beta 90.000000
_cell_angle_gamma 90.000000
_cell_volume 3804.947356
_symmetry_space_group_name_H-M "I M A 2"
_symmetry_group_IT_number 46
_symmetry_cell_setting 'orthorhombic'
loop_
_space_group_symop_operation_xyz
x,y,z
-x,-y,z
1/2-x,y,z
1/2+x,-y,z
1/2+x,1/2+y,1/2+z
1/2-x,1/2-y,1/2+z
-x,1/2+y,1/2+z
x,1/2-y,1/2+z
loop_
_atom_site_type_symbol
_atom_site_label
_atom_site_fract_x
_atom_site_fract_y
_atom_site_fract_z
Si Si1 0.927970 0.328804 0.769610
Si Si2 0.430269 0.936366 0.907801
Si Si3 0.570381 0.734372 0.890548
Si Si4 0.926595 0.751202 0.548134
Si Si5 0.069011 0.560978 0.679881
Si Si6 0.428152 0.786349 0.685630
Si Si7 0.929744 0.650643 0.307591
Si Si8 0.927532 0.884626 0.044196
O O1 0.750000 0.328938 0.782433
O O2 0.982859 0.389820 0.735849
O O3 0.976259 0.276733 0.716982
O O4 0.006052 0.320193 0.845729
O O5 0.250000 0.940457 0.908578
O O6 0.487542 0.907756 0.834930
O O7 0.500000 0.000000 0.916165
O O8 0.488539 0.896183 0.971211
O O9 0.750000 0.731835 0.888779
O O10 0.514880 0.795231 0.856162
O O11 0.511667 0.731233 0.970789
O O12 0.750000 0.767102 0.555754
O O13 0.953898 0.682859 0.563279
O O14 0.021422 0.788781 0.604374
O O15 0.250000 0.557591 0.673135
O O16 0.000000 0.500000 0.707375
O O17 0.999736 0.574655 0.603746
O O18 0.250000 0.797892 0.691902
O O19 0.516641 0.837227 0.727763
O O20 0.750000 0.641289 0.310441
O O21 0.750000 0.899666 0.035827
#
# Coordination Sequence:
#
# PCOD8191811 Si02
#       8
#     8   8   8   8   8   8   8   8
#     4   9  19  33  48  70  99 128 165 209 253 296
#     4  12  24  37  53  73 101 138 177 216 255 300
#     4   9  18  32  51  73  99 129 167 206 251 304
#     4  10  19  32  50  75 103 135 169 205 250 305
#     4  11  22  36  50  71 100 135 176 215 252 299
#     4  10  19  32  50  75 102 132 168 208 254 303
#     4  10  19  35  53  74 101 133 170 212 255 302
#     4  11  21  35  51  71 102 139 177 212 249 298
#
# _framework density 16.820205999999999
#
# number of rings (size 3 to 8) (size 9 to 14) (size 15 to 20)
#    0.000    1.750    2.500    3.000    0.000    3.000 
#    0.000    0.000    0.000    0.000    0.000    0.875 
#    0.000    4.000    0.000    0.000    0.000    0.000 
#
# Total GULP energy -396901.331823 kJ/mol
# GULP energy per Si atom -12403.166619 kJ/mol
# Density = 1.678192 g / cm^3
# Si number density = 16.820206 Si / 1000 Ang^3
#
#
#
# Elastic Constant Matrix: (Units=GPa)
#
#
# Indices 1 2 3 4 5 6 
#
# 1 77.5533 22.4457 29.5869 0.0000 0.0000 0.0000
# 2 22.4457 33.1891 19.9324 0.0000 0.0000 0.0000
# 3 29.5869 19.9324 95.7729 -0.0001 0.0000 0.0000
# 4 0.0000 0.0000 -0.0001 26.0258 0.0000 0.0000
# 5 0.0000 0.0000 0.0000 0.0000 31.8077 0.0000
# 6 0.0000 0.0000 0.0000 0.0000 0.0000 25.9477
#
#
#
# Elastic Compliance Matrix: (Units=1/GPa)
#
#
# Indices 1 2 3 4 5 6 
#
# 1 0.016870 -0.009462 -0.003242 0.000000 0.000000 0.000000
# 2 -0.009462 0.039741 -0.005348 0.000000 0.000000 0.000000
# 3 -0.003242 -0.005348 0.012556 0.000000 0.000000 0.000000
# 4 0.000000 0.000000 0.000000 0.038423 0.000000 0.000000
# 5 0.000000 0.000000 0.000000 0.000000 0.031439 0.000000
# 6 0.000000 0.000000 0.000000 0.000000 0.000000 0.038539
#
#
# Mechanical properties :
#
#
# Convention : Reuss Voigt Hill
#
# Bulk Modulus (GPa) = 30.24547 38.93839 34.59193
# Shear Modulus (GPa) = 22.25253 25.72625 23.98939
#
# Velocity S-wave (km/s) = 3.64120 3.91511 3.78064
# Velocity P-wave (km/s) = 5.97482 6.60586 6.29825
#
# Compressibility (1/GPa) = 0.03306280
#
# Stress axis : x y z
#
# Youngs Moduli (GPa) = 59.27757 25.16283 79.64276
#
# Poissons Ratio (x) = 0.23808 0.25823
# Poissons Ratio (y) = 0.56087 0.42593
# Poissons Ratio (z) = 0.19220 0.13457
#
# Static dielectric constant tensor:
#      x y z
#    x 3.150980 0.000000 0.000000 
#    y 0.000000 3.017200 0.000000 
#    z 0.000000 0.000000 3.227580 
# 
# 
# High freq. dielectric constant tensor:
#      x y z
#    x 1.657680 0.000000 0.000000 
#    y 0.000000 1.619090 0.000000 
#    z 0.000000 0.000000 1.644690 
# 
# From -- ./inp_files/18555.got.cif
#   From: 2010.03.12/outbox.cif.g09.slc.cpg/sg46_10_cif.got.tgz:18555.got - 2010.04.14 02:56:35.
