data_PCOD8191193
_publ_section_title
;
Structure prediction by ZEFSAII (Michael W. Deem and Ramdas Pophale) SiO2 
 PCOD8191193
Probable space group: I M A 2
;
_chemical_formula_sum "Si O2"
_cell_formula_units_Z 64
_cell_length_a 9.137825
_cell_length_b 29.949333
_cell_length_c 14.517967
_cell_angle_alpha 90.000000
_cell_angle_beta 90.000000
_cell_angle_gamma 90.000000
_cell_volume 3973.157636
_symmetry_space_group_name_H-M "I M A 2"
_symmetry_group_IT_number 46
_symmetry_cell_setting 'orthorhombic'
loop_
_space_group_symop_operation_xyz
x,y,z
-x,-y,z
1/2-x,y,z
1/2+x,-y,z
1/2+x,1/2+y,1/2+z
1/2-x,1/2-y,1/2+z
-x,1/2+y,1/2+z
x,1/2-y,1/2+z
loop_
_atom_site_type_symbol
_atom_site_label
_atom_site_fract_x
_atom_site_fract_y
_atom_site_fract_z
Si Si1 0.918029 0.870172 0.231610
Si Si2 0.417148 0.222653 0.550230
Si Si3 0.579474 0.044045 0.969341
Si Si4 0.077543 0.954795 0.181950
Si Si5 0.575223 0.803867 0.744450
Si Si6 0.575152 0.785864 0.346820
Si Si7 0.587175 0.824084 0.041059
Si Si8 0.078264 0.635516 0.380082
O O1 0.750000 0.880690 0.257387
O O2 0.981095 0.830239 0.294922
O O3 0.932813 0.856957 0.125620
O O4 0.015244 0.914500 0.244631
O O5 0.250000 0.208391 0.539727
O O6 0.482757 0.196409 0.638331
O O7 0.490977 0.212403 0.451043
O O8 0.432358 0.274253 0.577897
O O9 0.750000 0.035208 0.961104
O O10 0.530107 0.085102 0.904870
O O11 0.500000 0.000000 0.932093
O O12 0.536879 0.054118 0.075123
O O13 0.250000 0.958902 0.197543
O O14 0.000000 0.000000 0.215855
O O15 0.750000 0.806536 0.748442
O O16 0.518879 0.759303 0.797291
O O17 0.505955 0.848104 0.789295
O O18 0.750000 0.784558 0.346101
O O19 0.750000 0.829640 0.997092
O O20 0.465356 0.832988 0.964934
O O21 0.250000 0.639297 0.363703
#
# Coordination Sequence:
#
# PCOD8191193 Si02
#       8
#     8   8   8   8   8   8   8   8
#     4  10  18  28  46  72  96 126 162 196 235 278
#     4   9  16  28  47  70  94 122 162 206 231 257
#     4   9  19  32  46  65  91 121 152 187 231 279
#     4  10  19  32  47  67  95 126 156 193 235 285
#     4  10  18  30  49  70  91 124 166 198 229 274
#     4   9  16  27  46  70  96 123 159 200 232 268
#     4  10  17  27  47  69  92 126 164 196 225 268
#     4  11  21  32  44  67  99 128 155 192 239 281
#
# _framework density 16.108096
#
# number of rings (size 3 to 8) (size 9 to 14) (size 15 to 20)
#    0.000    2.250    3.750    0.750    0.000    1.500 
#    0.000    1.250    0.000    0.000    0.000    0.875 
#    0.000    2.000    0.000    0.000    0.000    0.000 
#
# Total GULP energy -396666.964811 kJ/mol
# GULP energy per Si atom -12395.842650 kJ/mol
# Density = 1.607143 g / cm^3
# Si number density = 16.108096 Si / 1000 Ang^3
#
#
#
# Elastic Constant Matrix: (Units=GPa)
#
#
# Indices 1 2 3 4 5 6 
#
# 1 36.2297 31.4782 20.7464 0.0001 0.0000 0.0000
# 2 31.4782 94.7326 35.5316 0.0001 0.0001 0.0000
# 3 20.7464 35.5316 75.6483 0.0003 0.0002 0.0001
# 4 0.0001 0.0001 0.0003 24.9787 0.0000 0.0000
# 5 0.0000 0.0001 0.0002 0.0000 14.0611 0.0000
# 6 0.0000 0.0000 0.0001 0.0000 0.0000 25.3581
#
#
#
# Elastic Compliance Matrix: (Units=1/GPa)
#
#
# Indices 1 2 3 4 5 6 
#
# 1 0.040837 -0.011372 -0.005858 0.000000 0.000000 0.000000
# 2 -0.011372 0.015980 -0.004387 0.000000 0.000000 0.000000
# 3 -0.005858 -0.004387 0.016886 0.000000 0.000000 0.000000
# 4 0.000000 0.000000 0.000000 0.040034 0.000000 0.000000
# 5 0.000000 0.000000 0.000000 0.000000 0.071118 0.000000
# 6 0.000000 0.000000 0.000000 0.000000 0.000000 0.039435
#
#
# Mechanical properties :
#
#
# Convention : Reuss Voigt Hill
#
# Bulk Modulus (GPa) = 32.82039 42.45812 37.63925
# Shear Modulus (GPa) = 18.00619 20.80320 19.40470
#
# Velocity S-wave (km/s) = 3.34703 3.59761 3.47458
# Velocity P-wave (km/s) = 5.94610 6.60852 6.28604
#
# Compressibility (1/GPa) = 0.03046886
#
# Stress axis : x y z
#
# Youngs Moduli (GPa) = 24.48754 62.57690 59.22008
#
# Poissons Ratio (x) = 0.71165 0.34691
# Poissons Ratio (y) = 0.27848 0.25980
# Poissons Ratio (z) = 0.14345 0.27453
#
# Static dielectric constant tensor:
#      x y z
#    x 2.812360 0.000000 0.000000 
#    y 0.000000 3.054380 0.000000 
#    z 0.000000 0.000000 3.069460 
# 
# 
# High freq. dielectric constant tensor:
#      x y z
#    x 1.593920 0.000000 0.000000 
#    y 0.000000 1.612600 0.000000 
#    z 0.000000 0.000000 1.596750 
# 
# From -- ./inp_files/14723.got.cif
#   From: 2010.03.12/outbox.cif.g09.slc.cpg/sg46_8_cif.got.tgz:14723.got - 2010.04.14 02:56:35.
