data_PCOD8191598
_publ_section_title
;
Structure prediction by ZEFSAII (Michael W. Deem and Ramdas Pophale) SiO2 
 PCOD8191598
Probable space group: I M A 2
;
_chemical_formula_sum "Si O2"
_cell_formula_units_Z 64
_cell_length_a 8.945434
_cell_length_b 23.657346
_cell_length_c 15.417555
_cell_angle_alpha 90.000000
_cell_angle_beta 90.000000
_cell_angle_gamma 90.000000
_cell_volume 3262.743581
_symmetry_space_group_name_H-M "I M A 2"
_symmetry_group_IT_number 46
_symmetry_cell_setting 'orthorhombic'
loop_
_space_group_symop_operation_xyz
x,y,z
-x,-y,z
1/2-x,y,z
1/2+x,-y,z
1/2+x,1/2+y,1/2+z
1/2-x,1/2-y,1/2+z
-x,1/2+y,1/2+z
x,1/2-y,1/2+z
loop_
_atom_site_type_symbol
_atom_site_label
_atom_site_fract_x
_atom_site_fract_y
_atom_site_fract_z
Si Si1 0.577935 0.636348 0.979220
Si Si2 0.576719 0.754116 0.896336
Si Si3 0.422413 0.760149 0.215087
Si Si4 0.573709 0.939954 0.316964
Si Si5 0.073350 0.125936 0.962190
Si Si6 0.077217 0.864757 0.654670
Si Si7 0.427014 0.370334 0.653379
Si Si8 0.572639 0.559675 0.297193
O O1 0.750000 0.623472 0.001866
O O2 0.553452 0.702655 0.962426
O O3 0.527026 0.601188 0.895074
O O4 0.475946 0.616821 0.059206
O O5 0.750000 0.759185 0.868411
O O6 0.479571 0.743134 0.812344
O O7 0.515258 0.810891 0.941643
O O8 0.250000 0.776917 0.217476
O O9 0.449670 0.701678 0.165498
O O10 0.510515 0.807657 0.163092
O O11 0.750000 0.948010 0.312166
O O12 0.512170 0.912612 0.227393
O O13 0.500000 0.000000 0.332427
O O14 0.250000 0.127394 0.957385
O O15 0.013046 0.081737 0.890766
O O16 0.021407 0.107004 0.058502
O O17 0.250000 0.881618 0.667105
O O18 0.977012 0.896188 0.724945
O O19 0.250000 0.365418 0.660434
O O20 0.500000 0.500000 0.276524
O O21 0.750000 0.553877 0.295216
#
# Coordination Sequence:
#
# PCOD8191598 Si02
#       8
#     8   8   8   8   8   8   8   8
#     4  10  21  38  61  89 116 153 199 244 292 348
#     4  10  18  35  61  88 116 152 195 237 289 352
#     4  11  22  35  56  89 124 155 189 237 298 351
#     4  10  22  39  60  85 115 152 196 242 290 341
#     4   9  19  35  62  91 113 148 195 239 288 343
#     4  11  24  40  59  88 122 158 194 239 299 356
#     4  10  20  39  63  87 117 155 198 240 283 350
#     4  11  23  41  63  87 117 155 201 248 294 347
#
# _framework density 19.615393999999998
#
# number of rings (size 3 to 8) (size 9 to 14) (size 15 to 20)
#    0.000    1.750    2.500    1.875    0.000    5.000 
#    0.000    3.125    0.000    0.000    0.000    0.000 
#    0.000    0.000    0.000    0.000    0.000    0.000 
#
# Total GULP energy -396874.457680 kJ/mol
# GULP energy per Si atom -12402.326803 kJ/mol
# Density = 1.957075 g / cm^3
# Si number density = 19.615394 Si / 1000 Ang^3
#
#
#
# Elastic Constant Matrix: (Units=GPa)
#
#
# Indices 1 2 3 4 5 6 
#
# 1 42.7289 28.1181 33.9367 0.0000 0.0000 0.0000
# 2 28.1181 67.5010 16.1761 0.0000 0.0000 0.0000
# 3 33.9367 16.1761 125.2488 -0.0001 0.0002 0.0000
# 4 0.0000 0.0000 -0.0001 9.0400 0.0000 0.0000
# 5 0.0000 0.0000 0.0002 0.0000 15.5425 0.0000
# 6 0.0000 0.0000 0.0000 0.0000 0.0000 29.2344
#
#
#
# Elastic Compliance Matrix: (Units=1/GPa)
#
#
# Indices 1 2 3 4 5 6 
#
# 1 0.040127 -0.014560 -0.008992 0.000000 0.000000 0.000000
# 2 -0.014560 0.020571 0.001288 0.000000 0.000000 0.000000
# 3 -0.008992 0.001288 0.010254 0.000000 0.000000 0.000000
# 4 0.000000 0.000000 0.000000 0.110619 0.000000 0.000000
# 5 0.000000 0.000000 0.000000 0.000000 0.064340 0.000000
# 6 0.000000 0.000000 0.000000 0.000000 0.000000 0.034206
#
#
# Mechanical properties :
#
#
# Convention : Reuss Voigt Hill
#
# Bulk Modulus (GPa) = 37.84430 43.54895 40.69662
# Shear Modulus (GPa) = 14.99464 21.24657 18.12060
#
# Velocity S-wave (km/s) = 2.76784 3.29471 3.04270
# Velocity P-wave (km/s) = 5.43595 6.05996 5.75642
#
# Compressibility (1/GPa) = 0.02642406
#
# Stress axis : x y z
#
# Youngs Moduli (GPa) = 24.92116 48.61210 97.52166
#
# Poissons Ratio (x) = 0.70780 0.87691
# Poissons Ratio (y) = 0.36286 -0.12564
# Poissons Ratio (z) = 0.22409 -0.06263
#
# Static dielectric constant tensor:
#      x y z
#    x 3.442620 0.000000 0.000000 
#    y 0.000000 3.633170 0.000000 
#    z 0.000000 0.000000 3.838520 
# 
# 
# High freq. dielectric constant tensor:
#      x y z
#    x 1.747130 0.000000 0.000000 
#    y 0.000000 1.762330 0.000000 
#    z 0.000000 0.000000 1.777880 
# 
# From -- ./inp_files/14515.got.cif
#   From: 2010.03.12/outbox.cif.g09.slc.cpg/sg46_8_cif.got.tgz:14515.got - 2010.04.14 02:56:35.
