data_PCOD8191628
_publ_section_title
;
Structure prediction by ZEFSAII (Michael W. Deem and Ramdas Pophale) SiO2 
 PCOD8191628
Probable space group: I M A 2
;
_chemical_formula_sum "Si O2"
_cell_formula_units_Z 36
_cell_length_a 9.310434
_cell_length_b 18.668234
_cell_length_c 10.939641
_cell_angle_alpha 90.000000
_cell_angle_beta 90.000000
_cell_angle_gamma 90.000000
_cell_volume 1901.412007
_symmetry_space_group_name_H-M "I M A 2"
_symmetry_group_IT_number 46
_symmetry_cell_setting 'orthorhombic'
loop_
_space_group_symop_operation_xyz
x,y,z
-x,-y,z
1/2-x,y,z
1/2+x,-y,z
1/2+x,1/2+y,1/2+z
1/2-x,1/2-y,1/2+z
-x,1/2+y,1/2+z
x,1/2-y,1/2+z
loop_
_atom_site_type_symbol
_atom_site_label
_atom_site_fract_x
_atom_site_fract_y
_atom_site_fract_z
Si Si1 0.750000 0.371468 0.942641
Si Si2 0.750000 0.048989 0.082350
Si Si3 0.052892 0.649810 0.724284
Si Si4 0.750000 0.531091 0.004064
Si Si5 0.250000 0.776801 0.673760
Si Si6 0.500000 0.000000 0.657760
Si Si7 0.250000 0.577409 0.297973
Si Si8 0.250000 0.407120 0.733271
O O1 0.892277 0.367518 0.860274
O O2 0.750000 0.444753 0.016819
O O3 0.750000 0.307407 0.038208
O O4 0.609071 0.088714 0.132510
O O5 0.750000 0.966908 0.127862
O O6 0.750000 0.053085 0.937471
O O7 0.107501 0.728291 0.686449
O O8 0.882271 0.646879 0.720646
O O9 0.750000 0.555079 0.864944
O O10 0.897900 0.552734 0.074252
O O11 0.250000 0.836705 0.780028
O O12 0.602717 0.048078 0.740914
#
# Coordination Sequence:
#
# PCOD8191628 Si02
#       8
#     4   4   8   4   4   4   4   4
#     4  10  18  40  63  87 115 168 203 249 296 375
#     4  10  23  39  61  91 122 167 205 251 311 375
#     4  10  24  37  63  94 119 169 204 249 315 358
#     4  11  19  36  65  92 127 145 204 265 316 346
#     4  10  22  43  64  81 127 171 217 228 303 388
#     4  10  22  36  58 100 114 166 200 248 326 350
#     4  11  24  41  63  87 129 160 209 254 300 384
#     4  12  22  39  62 100 132 145 208 277 310 350
#
# _framework density 18.933299000000002
#
# number of rings (size 3 to 8) (size 9 to 14) (size 15 to 20)
#    0.000    1.778    4.444    2.000    9.333    0.000 
#    0.000    3.333    0.000    0.000    0.000    0.000 
#    0.000    0.000    0.000    0.000    0.000    0.000 
#
# Total GULP energy -223151.966147 kJ/mol
# GULP energy per Si atom -12397.331453 kJ/mol
# Density = 1.889021 g / cm^3
# Si number density = 18.933299 Si / 1000 Ang^3
#
#
#
# Elastic Constant Matrix: (Units=GPa)
#
#
# Indices 1 2 3 4 5 6 
#
# 1 175.1344 56.7526 56.1341 0.0001 -0.0037 0.0000
# 2 56.7526 113.6599 45.3768 0.0001 -0.0072 0.0000
# 3 56.1341 45.3768 143.7691 0.0001 -0.0583 -0.0001
# 4 0.0001 0.0001 0.0001 31.3199 -0.0136 -0.0001
# 5 -0.0037 -0.0072 -0.0583 -0.0136 4191.2352 0.0030
# 6 0.0000 0.0000 -0.0001 -0.0001 0.0030 8.4618
#
#
#
# Elastic Compliance Matrix: (Units=1/GPa)
#
#
# Indices 1 2 3 4 5 6 
#
# 1 0.007253 -0.002850 -0.001932 0.000000 0.000000 0.000000
# 2 -0.002850 0.011187 -0.002418 0.000000 0.000000 0.000000
# 3 -0.001932 -0.002418 0.008473 0.000000 0.000000 0.000000
# 4 0.000000 0.000000 0.000000 0.031929 0.000000 0.000000
# 5 0.000000 0.000000 0.000000 0.000000 0.000239 0.000000
# 6 0.000000 0.000000 0.000000 0.000000 0.000000 0.118178
#
#
# Mechanical properties :
#
#
# Convention : Reuss Voigt Hill
#
# Bulk Modulus (GPa) = 79.92302 83.23225 81.57764
# Shear Modulus (GPa) = 25.53251 864.49004 445.01128
#
# Velocity S-wave (km/s) = 3.67625 21.39133 15.34770
# Velocity P-wave (km/s) = 7.76687 25.57684 18.90105
#
# Compressibility (1/GPa) = 0.01251204
#
# Stress axis : x y z
#
# Youngs Moduli (GPa) = 137.87791 89.39286 118.01899
#
# Poissons Ratio (x) = 0.25477 0.22805
# Poissons Ratio (y) = 0.39296 0.28536
# Poissons Ratio (z) = 0.26642 0.21615
#
# Static dielectric constant tensor:
#      x y z
#    x -6.018310 0.000000 0.000000 
#    y 0.000000 3.254040 0.000000 
#    z 0.000000 0.000000 3.554960 
# 
# 
# High freq. dielectric constant tensor:
#      x y z
#    x 1.739370 0.000000 0.000000 
#    y 0.000000 1.713390 0.000000 
#    z 0.000000 0.000000 1.747510 
# 
# From -- ./inp_files/9154.got.cif
#   From: 2010.03.12/outbox.cif.g09.slc.cpg/sg46_5_cif.got.tgz:9154.got - 2010.04.14 02:56:35.
