data_PCOD8191232
_publ_section_title
;
Structure prediction by ZEFSAII (Michael W. Deem and Ramdas Pophale) SiO2 
 PCOD8191232
Probable space group: I M A 2
;
_chemical_formula_sum "Si O2"
_cell_formula_units_Z 40
_cell_length_a 16.401605
_cell_length_b 5.181864
_cell_length_c 22.033658
_cell_angle_alpha 90.000000
_cell_angle_beta 90.000000
_cell_angle_gamma 90.000000
_cell_volume 1872.660126
_symmetry_space_group_name_H-M "I M A 2"
_symmetry_group_IT_number 46
_symmetry_cell_setting 'orthorhombic'
loop_
_space_group_symop_operation_xyz
x,y,z
-x,-y,z
1/2-x,y,z
1/2+x,-y,z
1/2+x,1/2+y,1/2+z
1/2-x,1/2-y,1/2+z
-x,1/2+y,1/2+z
x,1/2-y,1/2+z
loop_
_atom_site_type_symbol
_atom_site_label
_atom_site_fract_x
_atom_site_fract_y
_atom_site_fract_z
Si Si1 0.947133 0.744431 0.311820
Si Si2 0.156282 0.381889 0.699084
Si Si3 0.590818 0.224014 0.500511
Si Si4 0.911649 0.396460 0.141388
Si Si5 0.091281 0.224852 0.947852
O O1 0.875060 0.791020 0.264496
O O2 0.907141 0.675021 0.376262
O O3 0.000000 0.500000 0.289393
O O4 0.000000 0.000000 0.319699
O O5 0.250000 0.462857 0.703626
O O6 0.106872 0.636842 0.679009
O O7 0.148694 0.137033 0.653616
O O8 0.592018 0.183895 0.571844
O O9 0.636800 0.487494 0.481612
O O10 0.499527 0.249358 0.474932
O O11 0.637018 0.988716 0.466495
O O12 0.000000 0.500000 0.160745
#
# Coordination Sequence:
#
# PCOD8191232 Si02
#       5
#     8   8   8   8   8
#     4  12  21  39  65  95 121 161 216 270 307 376
#     4  12  28  44  60  90 140 177 209 256 326 381
#     4  10  18  32  58  96 127 145 190 272 330 349
#     4  12  23  41  70  98 123 165 223 270 309 375
#     4  10  17  32  56  95 130 144 189 270 338 346
#
# _framework density 21.359988999999999
#
# number of rings (size 3 to 8) (size 9 to 14) (size 15 to 20)
#    0.000    0.800    6.000    5.400    2.800    0.000 
#    0.000    0.000    0.000    7.200    0.000    0.000 
#    0.000    0.000    0.000    0.000    0.000    0.000 
#
# Total GULP energy -247919.313408 kJ/mol
# GULP energy per Si atom -12395.965670 kJ/mol
# Density = 2.131137 g / cm^3
# Si number density = 21.359989 Si / 1000 Ang^3
#
#
#
# Elastic Constant Matrix: (Units=GPa)
#
#
# Indices 1 2 3 4 5 6 
#
# 1 61.7827 34.3193 49.7639 0.0000 0.0000 0.0000
# 2 34.3193 222.1981 67.5174 0.0000 0.0000 0.0000
# 3 49.7639 67.5174 165.7554 0.0000 0.0000 0.0000
# 4 0.0000 0.0000 0.0000 37.8359 0.0000 0.0000
# 5 0.0000 0.0000 0.0000 0.0000 2.4448 0.0000
# 6 0.0000 0.0000 0.0000 0.0000 0.0000 17.3987
#
#
#
# Elastic Compliance Matrix: (Units=1/GPa)
#
#
# Indices 1 2 3 4 5 6 
#
# 1 0.021820 -0.001575 -0.005910 0.000000 0.000000 0.000000
# 2 -0.001575 0.005250 -0.001666 0.000000 0.000000 0.000000
# 3 -0.005910 -0.001666 0.008486 0.000000 0.000000 0.000000
# 4 0.000000 0.000000 0.000000 0.026430 0.000000 0.000000
# 5 0.000000 0.000000 0.000000 0.000000 0.409026 0.000000
# 6 0.000000 0.000000 0.000000 0.000000 0.000000 0.057476
#
#
# Mechanical properties :
#
#
# Convention : Reuss Voigt Hill
#
# Bulk Modulus (GPa) = 57.95036 83.65969 70.80503
# Shear Modulus (GPa) = 9.04914 31.41161 20.23037
#
# Velocity S-wave (km/s) = 2.06051 3.83898 3.08086
# Velocity P-wave (km/s) = 5.73150 7.67476 6.77318
#
# Compressibility (1/GPa) = 0.01725615
#
# Stress axis : x y z
#
# Youngs Moduli (GPa) = 45.82862 190.48263 117.84507
#
# Poissons Ratio (x) = 0.29992 0.69643
# Poissons Ratio (y) = 0.07216 0.19630
# Poissons Ratio (z) = 0.27083 0.31729
#
# Static dielectric constant tensor:
#      x y z
#    x 3.237860 0.000000 0.000000 
#    y 0.000000 4.509630 0.000000 
#    z 0.000000 0.000000 3.954630 
# 
# 
# High freq. dielectric constant tensor:
#      x y z
#    x 1.767980 0.000000 0.000000 
#    y 0.000000 1.882280 0.000000 
#    z 0.000000 0.000000 1.854110 
# 
# From -- ./inp_files/22139.got.cif
#   From: 2010.03.12/outbox.cif.g09.slc.cpg/sg46_12_cif.got.tgz:22139.got - 2010.04.14 02:56:35.
