data_PCOD8191033
_publ_section_title
;
Structure prediction by ZEFSAII (Michael W. Deem and Ramdas Pophale) SiO2 
 PCOD8191033
Probable space group: I B A 2
;
_chemical_formula_sum "Si O2"
_cell_formula_units_Z 64
_cell_length_a 8.858071
_cell_length_b 14.811402
_cell_length_c 21.609559
_cell_angle_alpha 90.000000
_cell_angle_beta 90.000000
_cell_angle_gamma 90.000000
_cell_volume 2835.183876
_symmetry_space_group_name_H-M "I B A 2"
_symmetry_group_IT_number 45
_symmetry_cell_setting 'orthorhombic'
loop_
_space_group_symop_operation_xyz
x,y,z
-x,-y,z
-x,y,1/2+z
x,-y,1/2+z
1/2+x,1/2+y,1/2+z
1/2-x,1/2-y,1/2+z
1/2-x,1/2+y,z
1/2+x,1/2-y,z
loop_
_atom_site_type_symbol
_atom_site_label
_atom_site_fract_x
_atom_site_fract_y
_atom_site_fract_z
Si Si1 0.724433 0.156867 0.995900
Si Si2 0.556963 0.093814 0.098553
Si Si3 0.545423 0.400685 0.960614
Si Si4 0.120346 0.283382 0.289020
Si Si5 0.864715 0.254305 0.375635
Si Si6 0.235541 0.837664 0.567152
Si Si7 0.732183 0.425242 0.708840
Si Si8 0.116008 0.120525 0.197683
O O1 0.638589 0.172227 0.930830
O O2 0.901446 0.144415 0.992528
O O3 0.641103 0.076349 0.032651
O O4 0.694477 0.238997 0.043032
O O5 0.411200 0.157426 0.087415
O O6 0.680210 0.120829 0.150612
O O7 0.500000 0.000000 0.125014
O O8 0.500000 0.500000 0.937706
O O9 0.582581 0.343543 0.899656
O O10 0.683583 0.403934 0.010379
O O11 0.193333 0.257411 0.354717
O O12 0.181212 0.381561 0.267592
O O13 0.159665 0.207526 0.238106
O O14 0.947470 0.287203 0.312380
O O15 0.131473 0.858032 0.625585
O O16 0.727173 0.535093 0.712885
O O17 0.558882 0.396781 0.709420
#
# Coordination Sequence:
#
# PCOD8191033 Si02
#       8
#     8   8   8   8   8   8   8   8
#     4  11  24  44  67  98 134 183 222 277 349 417
#     4  12  24  41  65 103 139 165 217 288 344 400
#     4  11  24  43  71  98 135 181 227 281 346 417
#     4  12  25  47  71  99 137 186 233 290 337 405
#     4  11  25  46  69  97 136 177 239 280 337 408
#     4  11  23  40  68 100 137 172 222 282 343 415
#     4  11  26  45  71 100 143 180 231 284 346 423
#     4  11  25  46  70 103 136 188 230 277 353 423
#
# _framework density 22.573491000000001
#
# number of rings (size 3 to 8) (size 9 to 14) (size 15 to 20)
#    0.000    0.750    3.750    3.750    5.250    3.000 
#    0.000    0.000    0.000    0.000    0.000    0.000 
#    0.000    0.000    0.000    0.000    0.000    0.000 
#
# Total GULP energy -396554.284812 kJ/mol
# GULP energy per Si atom -12392.321400 kJ/mol
# Density = 2.252211 g / cm^3
# Si number density = 22.573491 Si / 1000 Ang^3
#
#
#
# Elastic Constant Matrix: (Units=GPa)
#
#
# Indices 1 2 3 4 5 6 
#
# 1 80.7206 25.6082 27.6748 0.0000 0.0000 0.0000
# 2 25.6082 66.9518 26.6694 0.0000 0.0000 0.0000
# 3 27.6748 26.6694 105.2621 0.0000 0.0000 0.0000
# 4 0.0000 0.0000 0.0000 17.7064 0.0000 0.0000
# 5 0.0000 0.0000 0.0000 0.0000 49.5725 0.0000
# 6 0.0000 0.0000 0.0000 0.0000 0.0000 29.0546
#
#
#
# Elastic Compliance Matrix: (Units=1/GPa)
#
#
# Indices 1 2 3 4 5 6 
#
# 1 0.014771 -0.004563 -0.002727 0.000000 0.000000 0.000000
# 2 -0.004563 0.018023 -0.003366 0.000000 0.000000 0.000000
# 3 -0.002727 -0.003366 0.011070 0.000000 0.000000 0.000000
# 4 0.000000 0.000000 0.000000 0.056477 0.000000 0.000000
# 5 0.000000 0.000000 0.000000 0.000000 0.020172 0.000000
# 6 0.000000 0.000000 0.000000 0.000000 0.000000 0.034418
#
#
# Mechanical properties :
#
#
# Convention : Reuss Voigt Hill
#
# Bulk Modulus (GPa) = 44.34701 45.87103 45.10902
# Shear Modulus (GPa) = 27.20911 30.79882 29.00397
#
# Velocity S-wave (km/s) = 3.47559 3.69776 3.58839
# Velocity P-wave (km/s) = 5.98286 6.21258 6.09880
#
# Compressibility (1/GPa) = 0.02254943
#
# Stress axis : x y z
#
# Youngs Moduli (GPa) = 67.69933 55.48608 90.33360
#
# Poissons Ratio (x) = 0.25321 0.24637
# Poissons Ratio (y) = 0.30894 0.30410
# Poissons Ratio (z) = 0.18464 0.18679
#
# Static dielectric constant tensor:
#      x y z
#    x 4.480010 0.000000 0.000000 
#    y 0.000000 4.114480 0.000000 
#    z 0.000000 0.000000 3.942100 
# 
# 
# High freq. dielectric constant tensor:
#      x y z
#    x 1.906460 0.000000 0.000000 
#    y 0.000000 1.877730 0.000000 
#    z 0.000000 0.000000 1.890800 
# 
# From -- ./inp_files/9588.got.cif
#   From: 2010.03.12/outbox.cif.g09.slc.cpg/sg45_5_cif.got.tgz:9588.got - 2010.04.14 02:50:11.
