data_PCOD8191953
_publ_section_title
;
Structure prediction by ZEFSAII (Michael W. Deem and Ramdas Pophale) SiO2 
 PCOD8191953
Probable space group: I M A 2
;
_chemical_formula_sum "Si O2"
_cell_formula_units_Z 64
_cell_length_a 9.004549
_cell_length_b 14.498224
_cell_length_c 27.298419
_cell_angle_alpha 90.000000
_cell_angle_beta 90.000000
_cell_angle_gamma 90.000000
_cell_volume 3563.807738
_symmetry_space_group_name_H-M "I M A 2"
_symmetry_group_IT_number 46
_symmetry_cell_setting 'orthorhombic'
loop_
_space_group_symop_operation_xyz
x,y,z
-x,-y,z
1/2-x,y,z
1/2+x,-y,z
1/2+x,1/2+y,1/2+z
1/2-x,1/2-y,1/2+z
-x,1/2+y,1/2+z
x,1/2-y,1/2+z
loop_
_atom_site_type_symbol
_atom_site_label
_atom_site_fract_x
_atom_site_fract_y
_atom_site_fract_z
Si Si1 0.425106 0.709015 0.844870
Si Si2 0.424053 0.092098 0.540643
Si Si3 0.579080 0.276123 0.578390
Si Si4 0.077476 0.094562 0.265934
Si Si5 0.418667 0.342042 0.936831
Si Si6 0.577551 0.594587 0.652044
Si Si7 0.583528 0.088691 0.877592
Si Si8 0.084245 0.825393 0.974129
O O1 0.250000 0.700438 0.838738
O O2 0.504440 0.679143 0.794982
O O3 0.476574 0.641548 0.889505
O O4 0.477046 0.813947 0.856525
O O5 0.250000 0.095986 0.554248
O O6 0.506508 0.178582 0.564890
O O7 0.446298 0.087558 0.481549
O O8 0.500000 0.000000 0.562225
O O9 0.750000 0.260102 0.593250
O O10 0.492532 0.319739 0.623602
O O11 0.567516 0.347121 0.531914
O O12 0.250000 0.086752 0.278751
O O13 0.050129 0.114475 0.209003
O O14 0.000000 0.000000 0.282363
O O15 0.250000 0.345259 0.918259
O O16 0.452797 0.242628 0.959676
O O17 0.500000 0.500000 0.635685
O O18 0.750000 0.586068 0.639155
O O19 0.750000 0.076653 0.859398
O O20 0.571406 0.087570 0.937378
O O21 0.500000 0.000000 0.856002
O O22 0.250000 0.780635 0.965344
#
# Coordination Sequence:
#
# PCOD8191953 Si02
#       8
#     8   8   8   8   8   8   8   8
#     4  10  20  34  52  74 103 136 171 213 258 307
#     4  10  20  33  50  74 105 141 179 216 254 301
#     4  10  19  33  54  77 104 138 173 212 257 305
#     4  10  21  37  57  79 102 129 163 207 258 311
#     4   9  17  29  46  69  97 131 171 210 248 293
#     4  10  21  37  56  79 105 131 164 208 258 313
#     4   9  18  31  47  70 101 137 172 207 246 289
#     4   8  16  30  45  66  97 131 168 207 247 289
#
# _framework density 17.958318999999999
#
# number of rings (size 3 to 8) (size 9 to 14) (size 15 to 20)
#    0.000    2.500    0.000    3.000    0.000    7.000 
#    0.000    2.500    0.000    0.750    0.000    1.750 
#    0.000    0.000    0.000    0.000    0.000    0.000 
#
# Total GULP energy -396582.222017 kJ/mol
# GULP energy per Si atom -12393.194438 kJ/mol
# Density = 1.791745 g / cm^3
# Si number density = 17.958319 Si / 1000 Ang^3
#
#
#
# Elastic Constant Matrix: (Units=GPa)
#
#
# Indices 1 2 3 4 5 6 
#
# 1 115.4329 59.5781 51.3911 0.0000 0.0000 0.0000
# 2 59.5781 97.5184 49.3391 0.0000 0.0000 0.0000
# 3 51.3911 49.3391 75.7920 0.0000 0.0000 0.0000
# 4 0.0000 0.0000 0.0000 23.3214 0.0000 0.0000
# 5 0.0000 0.0000 0.0000 0.0000 28.8377 0.0000
# 6 0.0000 0.0000 0.0000 0.0000 0.0000 32.0097
#
#
#
# Elastic Compliance Matrix: (Units=1/GPa)
#
#
# Indices 1 2 3 4 5 6 
#
# 1 0.014255 -0.005694 -0.005959 0.000000 0.000000 0.000000
# 2 -0.005694 0.017565 -0.007574 0.000000 0.000000 0.000000
# 3 -0.005959 -0.007574 0.022165 0.000000 0.000000 0.000000
# 4 0.000000 0.000000 0.000000 0.042879 0.000000 0.000000
# 5 0.000000 0.000000 0.000000 0.000000 0.034677 0.000000
# 6 0.000000 0.000000 0.000000 0.000000 0.000000 0.031240
#
#
# Mechanical properties :
#
#
# Convention : Reuss Voigt Hill
#
# Bulk Modulus (GPa) = 64.38503 67.70666 66.04585
# Shear Modulus (GPa) = 24.22352 25.39611 24.80982
#
# Velocity S-wave (km/s) = 3.67669 3.76462 3.72092
# Velocity P-wave (km/s) = 7.34536 7.52864 7.43757
#
# Compressibility (1/GPa) = 0.01553156
#
# Stress axis : x y z
#
# Youngs Moduli (GPa) = 70.15202 56.93128 45.11676
#
# Poissons Ratio (x) = 0.32417 0.26884
# Poissons Ratio (y) = 0.39944 0.34170
# Poissons Ratio (z) = 0.41802 0.43118
#
# Static dielectric constant tensor:
#      x y z
#    x 3.418570 0.000000 0.000000 
#    y 0.000000 3.082930 0.000000 
#    z 0.000000 0.000000 3.243560 
# 
# 
# High freq. dielectric constant tensor:
#      x y z
#    x 1.710850 0.000000 0.000000 
#    y 0.000000 1.672160 0.000000 
#    z 0.000000 0.000000 1.676580 
# 
# From -- ./inp_files/25307.got.cif
#   From: 2010.03.12/outbox.cif.g09.slc.cpg/sg46_13_cif.got.tgz:25307.got - 2010.04.14 02:56:35.
