data_PCOD8191242
_publ_section_title
;
Structure prediction by ZEFSAII (Michael W. Deem and Ramdas Pophale) SiO2 
 PCOD8191242
Probable space group: I M A 2
;
_chemical_formula_sum "Si O2"
_cell_formula_units_Z 64
_cell_length_a 20.208016
_cell_length_b 18.444435
_cell_length_c 9.860675
_cell_angle_alpha 90.000000
_cell_angle_beta 90.000000
_cell_angle_gamma 90.000000
_cell_volume 3675.324404
_symmetry_space_group_name_H-M "I M A 2"
_symmetry_group_IT_number 46
_symmetry_cell_setting 'orthorhombic'
loop_
_space_group_symop_operation_xyz
x,y,z
-x,-y,z
1/2-x,y,z
1/2+x,-y,z
1/2+x,1/2+y,1/2+z
1/2-x,1/2-y,1/2+z
-x,1/2+y,1/2+z
x,1/2-y,1/2+z
loop_
_atom_site_type_symbol
_atom_site_label
_atom_site_fract_x
_atom_site_fract_y
_atom_site_fract_z
Si Si1 0.573746 0.527958 0.619100
Si Si2 0.379901 0.674321 0.397781
Si Si3 0.826051 0.424279 0.181563
Si Si4 0.325018 0.827130 0.436103
Si Si5 0.611948 0.116962 0.183627
Si Si6 0.468953 0.321014 0.666094
Si Si7 0.971040 0.812803 0.848608
Si Si8 0.573314 0.532432 0.315715
O O1 0.500000 0.500000 0.597977
O O2 0.609702 0.469491 0.715078
O O3 0.576529 0.607394 0.688108
O O4 0.602961 0.526740 0.467202
O O5 0.329339 0.643086 0.286879
O O6 0.367441 0.754744 0.453619
O O7 0.371049 0.622259 0.525923
O O8 0.451632 0.669777 0.327746
O O9 0.750000 0.452003 0.175512
O O10 0.874930 0.491085 0.217175
O O11 0.849135 0.390736 0.036871
O O12 0.250000 0.806980 0.468291
O O13 0.331753 0.852028 0.280544
O O14 0.543628 0.159591 0.209273
O O15 0.445516 0.256575 0.764031
O O16 0.461322 0.298119 0.508949
O O17 0.930547 0.881062 0.787778
O O18 0.500000 0.500000 0.297739
#
# Coordination Sequence:
#
# PCOD8191242 Si02
#       8
#     8   8   8   8   8   8   8   8
#     4   8  15  31  52  73 100 136 168 217 263 305
#     4  11  19  33  56  74 103 142 183 215 251 319
#     4  11  23  37  52  76 109 144 185 225 265 319
#     4  11  24  35  46  74 114 146 174 215 264 313
#     4  10  18  33  52  69 101 140 177 209 254 309
#     4   9  18  31  50  77 107 130 165 216 270 313
#     4  10  19  30  54  80 107 136 170 218 269 316
#     4  10  17  35  55  75 103 140 181 221 266 312
#
# _framework density 17.413429000000001
#
# number of rings (size 3 to 8) (size 9 to 14) (size 15 to 20)
#    0.000    2.000    3.750    2.625    1.750    2.000 
#    2.250    0.625    0.000    0.000    0.000    4.375 
#    0.000    0.000    0.000    0.000    0.000    0.000 
#
# Total GULP energy -396529.163846 kJ/mol
# GULP energy per Si atom -12391.536370 kJ/mol
# Density = 1.737380 g / cm^3
# Si number density = 17.413429 Si / 1000 Ang^3
#
#
#
# Elastic Constant Matrix: (Units=GPa)
#
#
# Indices 1 2 3 4 5 6 
#
# 1 49.7473 35.1973 20.0884 0.0000 0.0000 0.0000
# 2 35.1973 144.8193 53.6864 0.0000 0.0000 0.0000
# 3 20.0884 53.6864 45.7066 0.0000 0.0000 0.0000
# 4 0.0000 0.0000 0.0000 31.1993 0.0000 0.0000
# 5 0.0000 0.0000 0.0000 0.0000 19.7050 0.0000
# 6 0.0000 0.0000 0.0000 0.0000 0.0000 22.6434
#
#
#
# Elastic Compliance Matrix: (Units=1/GPa)
#
#
# Indices 1 2 3 4 5 6 
#
# 1 0.025463 -0.003613 -0.006947 0.000000 0.000000 0.000000
# 2 -0.003613 0.012744 -0.013380 0.000000 0.000000 0.000000
# 3 -0.006947 -0.013380 0.040649 0.000000 0.000000 0.000000
# 4 0.000000 0.000000 0.000000 0.032052 0.000000 0.000000
# 5 0.000000 0.000000 0.000000 0.000000 0.050749 0.000000
# 6 0.000000 0.000000 0.000000 0.000000 0.000000 0.044163
#
#
# Mechanical properties :
#
#
# Convention : Reuss Voigt Hill
#
# Bulk Modulus (GPa) = 32.28552 50.91304 41.59928
# Shear Modulus (GPa) = 18.93754 23.46294 21.20024
#
# Velocity S-wave (km/s) = 3.30134 3.67468 3.49300
# Velocity P-wave (km/s) = 5.75436 6.87791 6.34107
#
# Compressibility (1/GPa) = 0.03097364
#
# Stress axis : x y z
#
# Youngs Moduli (GPa) = 39.27199 78.47042 24.60108
#
# Poissons Ratio (x) = 0.28353 0.17091
# Poissons Ratio (y) = 0.14190 0.32917
# Poissons Ratio (z) = 0.27283 1.04997
#
# Static dielectric constant tensor:
#      x y z
#    x 2.865730 0.000000 0.000000 
#    y 0.000000 3.518920 0.000000 
#    z 0.000000 0.000000 3.144780 
# 
# 
# High freq. dielectric constant tensor:
#      x y z
#    x 1.623420 0.000000 0.000000 
#    y 0.000000 1.681920 0.000000 
#    z 0.000000 0.000000 1.665240 
# 
# From -- ./inp_files/7561.got.cif
#   From: 2010.03.12/outbox.cif.g09.slc.cpg/sg46_4_cif.got.tgz:7561.got - 2010.04.14 02:56:35.
