data_PCOD8191338
_publ_section_title
;
Structure prediction by ZEFSAII (Michael W. Deem and Ramdas Pophale) SiO2 
 PCOD8191338
Probable space group: I M A 2
;
_chemical_formula_sum "Si O2"
_cell_formula_units_Z 56
_cell_length_a 8.696491
_cell_length_b 13.515820
_cell_length_c 29.248382
_cell_angle_alpha 90.000000
_cell_angle_beta 90.000000
_cell_angle_gamma 90.000000
_cell_volume 3437.860874
_symmetry_space_group_name_H-M "I M A 2"
_symmetry_group_IT_number 46
_symmetry_cell_setting 'orthorhombic'
loop_
_space_group_symop_operation_xyz
x,y,z
-x,-y,z
1/2-x,y,z
1/2+x,-y,z
1/2+x,1/2+y,1/2+z
1/2-x,1/2-y,1/2+z
-x,1/2+y,1/2+z
x,1/2-y,1/2+z
loop_
_atom_site_type_symbol
_atom_site_label
_atom_site_fract_x
_atom_site_fract_y
_atom_site_fract_z
Si Si1 0.432705 0.890462 0.977970
Si Si2 0.069298 0.398909 0.744039
Si Si3 0.932039 0.608948 0.570592
Si Si4 0.568238 0.199884 0.158389
Si Si5 0.930960 0.607778 0.386475
Si Si6 0.570493 0.101856 0.707628
Si Si7 0.927917 0.699066 0.291548
O O1 0.250000 0.889882 0.980373
O O2 0.492102 0.839707 0.931067
O O3 0.500000 0.000000 0.975792
O O4 0.501875 0.841544 0.023891
O O5 0.250000 0.408813 0.735812
O O6 0.029203 0.312435 0.780087
O O7 0.000000 0.500000 0.764537
O O8 0.987438 0.379155 0.695694
O O9 0.750000 0.600667 0.567603
O O10 0.000000 0.500000 0.578796
O O11 0.982015 0.680911 0.611119
O O12 0.750000 0.189268 0.151789
O O13 0.518087 0.309360 0.174423
O O14 0.750000 0.596854 0.394533
O O15 0.970978 0.678737 0.344014
O O16 0.000000 0.500000 0.376557
O O17 0.750000 0.089642 0.707211
O O18 0.519863 0.123777 0.759434
O O19 0.500000 0.000000 0.689187
O O20 0.750000 0.678248 0.281911
#
# Coordination Sequence:
#
# PCOD8191338 Si02
#       7
#     8   8   8   8   8   8   8
#     4  10  18  29  44  64  90 119 148 182 221 267
#     4  10  19  32  47  66  91 121 153 189 227 266
#     4  11  20  31  47  67  92 122 151 185 224 268
#     4  10  20  33  47  67  91 120 154 187 222 266
#     4  10  18  29  44  65  91 120 150 183 221 265
#     4  10  20  32  48  67  92 121 152 188 225 264
#     4   9  19  32  47  66  91 121 155 188 223 266
#
# _framework density 16.289199
#
# number of rings (size 3 to 8) (size 9 to 14) (size 15 to 20)
#    0.000    2.000    0.000    6.857    0.000    4.571 
#    0.000    0.000    0.000    0.000    0.000    1.000 
#    0.000    4.571    0.000    0.000    0.000    0.000 
#
# Total GULP energy -347198.501095 kJ/mol
# GULP energy per Si atom -12399.946468 kJ/mol
# Density = 1.625212 g / cm^3
# Si number density = 16.289199 Si / 1000 Ang^3
#
#
#
# Elastic Constant Matrix: (Units=GPa)
#
#
# Indices 1 2 3 4 5 6 
#
# 1 103.6127 33.6031 54.6700 0.0000 0.0000 0.0000
# 2 33.6031 80.6957 46.1878 0.0000 0.0000 0.0000
# 3 54.6700 46.1878 139.2476 0.0000 0.0000 0.0000
# 4 0.0000 0.0000 0.0000 18.5125 0.0000 0.0000
# 5 0.0000 0.0000 0.0000 0.0000 27.5223 0.0000
# 6 0.0000 0.0000 0.0000 0.0000 0.0000 23.7813
#
#
#
# Elastic Compliance Matrix: (Units=1/GPa)
#
#
# Indices 1 2 3 4 5 6 
#
# 1 0.012741 -0.003015 -0.004002 0.000000 0.000000 0.000000
# 2 -0.003015 0.016010 -0.004127 0.000000 0.000000 0.000000
# 3 -0.004002 -0.004127 0.010122 0.000000 0.000000 0.000000
# 4 0.000000 0.000000 0.000000 0.054018 0.000000 0.000000
# 5 0.000000 0.000000 0.000000 0.000000 0.036334 0.000000
# 6 0.000000 0.000000 0.000000 0.000000 0.000000 0.042050
#
#
# Mechanical properties :
#
#
# Convention : Reuss Voigt Hill
#
# Bulk Modulus (GPa) = 60.29653 65.83085 63.06369
# Shear Modulus (GPa) = 25.11437 26.56954 25.84196
#
# Velocity S-wave (km/s) = 3.93081 4.04309 3.98734
# Velocity P-wave (km/s) = 7.59594 7.89284 7.74581
#
# Compressibility (1/GPa) = 0.01658470
#
# Stress axis : x y z
#
# Youngs Moduli (GPa) = 78.48830 62.46239 98.79901
#
# Poissons Ratio (x) = 0.18831 0.39541
# Poissons Ratio (y) = 0.23662 0.40771
# Poissons Ratio (z) = 0.31412 0.25776
#
# Static dielectric constant tensor:
#      x y z
#    x 3.202510 0.000000 0.000000 
#    y 0.000000 2.979810 0.000000 
#    z 0.000000 0.000000 3.506600 
# 
# 
# High freq. dielectric constant tensor:
#      x y z
#    x 1.647040 0.000000 0.000000 
#    y 0.000000 1.591140 0.000000 
#    z 0.000000 0.000000 1.627880 
# 
# From -- ./inp_files/25244.got.cif
#   From: 2010.03.12/outbox.cif.g09.slc.cpg/sg46_13_cif.got.tgz:25244.got - 2010.04.14 02:56:35.
