data_PCOD8191404
_publ_section_title
;
Structure prediction by ZEFSAII (Michael W. Deem and Ramdas Pophale) SiO2 
 PCOD8191404
Probable space group: I M A 2
;
_chemical_formula_sum "Si O2"
_cell_formula_units_Z 56
_cell_length_a 8.642572
_cell_length_b 18.394457
_cell_length_c 20.943523
_cell_angle_alpha 90.000000
_cell_angle_beta 90.000000
_cell_angle_gamma 90.000000
_cell_volume 3329.505345
_symmetry_space_group_name_H-M "I M A 2"
_symmetry_group_IT_number 46
_symmetry_cell_setting 'orthorhombic'
loop_
_space_group_symop_operation_xyz
x,y,z
-x,-y,z
1/2-x,y,z
1/2+x,-y,z
1/2+x,1/2+y,1/2+z
1/2-x,1/2-y,1/2+z
-x,1/2+y,1/2+z
x,1/2-y,1/2+z
loop_
_atom_site_type_symbol
_atom_site_label
_atom_site_fract_x
_atom_site_fract_y
_atom_site_fract_z
Si Si1 0.067009 0.578256 0.452930
Si Si2 0.572513 0.423971 0.954814
Si Si3 0.932138 0.844746 0.076425
Si Si4 0.930638 0.791147 0.890787
Si Si5 0.070315 0.720902 0.012887
Si Si6 0.067939 0.420144 0.708739
Si Si7 0.066710 0.658817 0.829763
O O1 0.250000 0.574760 0.458244
O O2 0.000000 0.500000 0.436666
O O3 0.999975 0.605518 0.520356
O O4 0.015842 0.630803 0.394493
O O5 0.500000 0.500000 0.974815
O O6 0.750000 0.439980 0.943000
O O7 0.504577 0.390879 0.888736
O O8 0.547126 0.366567 0.013423
O O9 0.750000 0.837216 0.067259
O O10 0.975658 0.881088 0.143056
O O11 0.011141 0.763686 0.075804
O O12 0.750000 0.803659 0.879835
O O13 0.997676 0.740375 0.834434
O O14 0.962475 0.751401 0.957276
O O15 0.250000 0.739418 0.998756
O O16 0.250000 0.423692 0.720720
O O17 0.000000 0.500000 0.707290
O O18 0.988304 0.375246 0.764356
O O19 0.250000 0.664827 0.832425
#
# Coordination Sequence:
#
# PCOD8191404 Si02
#       7
#     8   8   8   8   8   8   8
#     4  11  20  31  48  71  98 126 158 196 240 284
#     4   9  18  29  44  68  94 120 151 189 231 276
#     4  10  20  33  48  68  94 126 163 198 236 282
#     4  10  18  30  48  69  93 122 156 193 237 284
#     4   9  17  30  46  66  92 122 157 194 235 282
#     4  11  23  35  48  69  96 127 163 198 233 277
#     4  10  20  34  49  67  94 127 162 196 232 277
#
# _framework density 16.819316000000001
#
# number of rings (size 3 to 8) (size 9 to 14) (size 15 to 20)
#    0.000    2.000    0.000    7.714    0.000    8.000 
#    0.000    0.000    0.000    0.000    0.000    1.000 
#    0.000    4.571    0.000    0.000    0.000    0.000 
#
# Total GULP energy -347067.885865 kJ/mol
# GULP energy per Si atom -12395.281638 kJ/mol
# Density = 1.678103 g / cm^3
# Si number density = 16.819316 Si / 1000 Ang^3
#
#
#
# Elastic Constant Matrix: (Units=GPa)
#
#
# Indices 1 2 3 4 5 6 
#
# 1 75.5785 52.0470 36.5047 0.0000 0.0000 0.0000
# 2 52.0470 156.1134 57.3167 0.0000 0.0000 0.0000
# 3 36.5047 57.3167 62.6250 0.0000 0.0000 0.0000
# 4 0.0000 0.0000 0.0000 29.4595 0.0000 0.0000
# 5 0.0000 0.0000 0.0000 0.0000 23.0731 0.0000
# 6 0.0000 0.0000 0.0000 0.0000 0.0000 33.0067
#
#
#
# Elastic Compliance Matrix: (Units=1/GPa)
#
#
# Indices 1 2 3 4 5 6 
#
# 1 0.019628 -0.003529 -0.008211 0.000000 0.000000 0.000000
# 2 -0.003529 0.010282 -0.007353 0.000000 0.000000 0.000000
# 3 -0.008211 -0.007353 0.027485 0.000000 0.000000 0.000000
# 4 0.000000 0.000000 0.000000 0.033945 0.000000 0.000000
# 5 0.000000 0.000000 0.000000 0.000000 0.043340 0.000000
# 6 0.000000 0.000000 0.000000 0.000000 0.000000 0.030297
#
#
# Mechanical properties :
#
#
# Convention : Reuss Voigt Hill
#
# Bulk Modulus (GPa) = 52.06458 65.11706 58.59082
# Shear Modulus (GPa) = 23.85889 27.00443 25.43166
#
# Velocity S-wave (km/s) = 3.77044 4.01129 3.89273
# Velocity P-wave (km/s) = 7.06947 7.76232 7.42398
#
# Compressibility (1/GPa) = 0.01920692
#
# Stress axis : x y z
#
# Youngs Moduli (GPa) = 50.94889 97.25868 36.38411
#
# Poissons Ratio (x) = 0.34322 0.29876
# Poissons Ratio (y) = 0.17979 0.26754
# Poissons Ratio (z) = 0.41836 0.71517
#
# Static dielectric constant tensor:
#      x y z
#    x 3.270950 0.000000 0.000000 
#    y 0.000000 3.575120 0.000000 
#    z 0.000000 0.000000 3.011210 
# 
# 
# High freq. dielectric constant tensor:
#      x y z
#    x 1.666530 0.000000 0.000000 
#    y 0.000000 1.657930 0.000000 
#    z 0.000000 0.000000 1.602760 
# 
# From -- ./inp_files/23255.got.cif
#   From: 2010.03.12/outbox.cif.g09.slc.cpg/sg46_12_cif.got.tgz:23255.got - 2010.04.14 02:56:35.
