data_PCOD8191959
_publ_section_title
;
Structure prediction by ZEFSAII (Michael W. Deem and Ramdas Pophale) SiO2 
 PCOD8191959
Probable space group: I M A 2
;
_chemical_formula_sum "Si O2"
_cell_formula_units_Z 56
_cell_length_a 16.686002
_cell_length_b 5.068946
_cell_length_c 33.346069
_cell_angle_alpha 90.000000
_cell_angle_beta 90.000000
_cell_angle_gamma 90.000000
_cell_volume 2820.425291
_symmetry_space_group_name_H-M "I M A 2"
_symmetry_group_IT_number 46
_symmetry_cell_setting 'orthorhombic'
loop_
_space_group_symop_operation_xyz
x,y,z
-x,-y,z
1/2-x,y,z
1/2+x,-y,z
1/2+x,1/2+y,1/2+z
1/2-x,1/2-y,1/2+z
-x,1/2+y,1/2+z
x,1/2-y,1/2+z
loop_
_atom_site_type_symbol
_atom_site_label
_atom_site_fract_x
_atom_site_fract_y
_atom_site_fract_z
Si Si1 0.590316 0.403856 0.348120
Si Si2 0.445238 0.250445 0.549226
Si Si3 0.342733 0.333081 0.712533
Si Si4 0.842860 0.607821 0.888230
Si Si5 0.444112 0.250589 0.135500
Si Si6 0.943585 0.750419 0.962498
Si Si7 0.656137 0.177043 0.762959
O O1 0.500000 0.500000 0.355120
O O2 0.646973 0.657055 0.355899
O O3 0.605144 0.300360 0.303354
O O4 0.608068 0.156525 0.377231
O O5 0.500000 0.500000 0.554411
O O6 0.397654 0.229371 0.591823
O O7 0.398897 0.275639 0.506478
O O8 0.500000 0.000000 0.544696
O O9 0.250000 0.365436 0.704078
O O10 0.378536 0.267049 0.669638
O O11 0.376367 0.601585 0.732165
O O12 0.361593 0.103908 0.743805
O O13 0.750000 0.530689 0.891308
O O14 0.873232 0.726199 0.930280
O O15 0.500000 0.500000 0.142835
O O16 0.500000 0.000000 0.137803
O O17 0.000000 0.500000 0.960623
O O18 0.000000 0.000000 0.953245
O O19 0.750000 0.221515 0.772734
#
# Coordination Sequence:
#
# PCOD8191959 Si02
#       7
#     8   8   8   8   8   8   8
#     4  12  25  41  61  85 111 145 192 237 278 330
#     4   8  16  30  51  78 106 140 178 221 269 316
#     4  10  21  36  55  79 109 144 178 218 274 329
#     4  12  24  39  59  85 117 150 184 228 286 339
#     4  10  19  33  54  80 109 141 182 224 265 317
#     4  10  19  35  58  81 109 144 186 228 270 324
#     4  10  21  38  57  78 108 144 180 222 276 329
#
# _framework density 19.855160999999999
#
# number of rings (size 3 to 8) (size 9 to 14) (size 15 to 20)
#    0.000    1.714    0.000    5.571    0.000    2.857 
#    0.000    0.714    0.000    0.000    0.000   16.000 
#    0.000    0.000    0.000    0.000    0.000    0.000 
#
# Total GULP energy -347015.767668 kJ/mol
# GULP energy per Si atom -12393.420274 kJ/mol
# Density = 1.980997 g / cm^3
# Si number density = 19.855161 Si / 1000 Ang^3
#
#
#
# Elastic Constant Matrix: (Units=GPa)
#
#
# Indices 1 2 3 4 5 6 
#
# 1 66.0825 36.2665 60.2896 0.0000 0.0000 0.0000
# 2 36.2665 132.9112 30.0033 0.0000 0.0000 0.0000
# 3 60.2896 30.0033 155.6383 0.0000 0.0000 0.0000
# 4 0.0000 0.0000 0.0000 23.9024 0.0000 0.0000
# 5 0.0000 0.0000 0.0000 0.0000 12.3909 0.0000
# 6 0.0000 0.0000 0.0000 0.0000 0.0000 21.9990
#
#
#
# Elastic Compliance Matrix: (Units=1/GPa)
#
#
# Indices 1 2 3 4 5 6 
#
# 1 0.026350 -0.005108 -0.009222 0.000000 0.000000 0.000000
# 2 -0.005108 0.008856 0.000271 0.000000 0.000000 0.000000
# 3 -0.009222 0.000271 0.009945 0.000000 0.000000 0.000000
# 4 0.000000 0.000000 0.000000 0.041837 0.000000 0.000000
# 5 0.000000 0.000000 0.000000 0.000000 0.080704 0.000000
# 6 0.000000 0.000000 0.000000 0.000000 0.000000 0.045457
#
#
# Mechanical properties :
#
#
# Convention : Reuss Voigt Hill
#
# Bulk Modulus (GPa) = 58.70807 67.52786 63.11797
# Shear Modulus (GPa) = 20.24737 26.86328 23.55532
#
# Velocity S-wave (km/s) = 3.19682 3.68225 3.44809
# Velocity P-wave (km/s) = 6.57713 7.22238 6.90729
#
# Compressibility (1/GPa) = 0.01703343
#
# Stress axis : x y z
#
# Youngs Moduli (GPa) = 37.95067 112.91332 100.54948
#
# Poissons Ratio (x) = 0.57677 0.92732
# Poissons Ratio (y) = 0.19385 -0.02729
# Poissons Ratio (z) = 0.35000 -0.03065
#
# Static dielectric constant tensor:
#      x y z
#    x 3.164330 0.000000 0.000000 
#    y 0.000000 3.932750 0.000000 
#    z 0.000000 0.000000 4.346120 
# 
# 
# High freq. dielectric constant tensor:
#      x y z
#    x 1.724000 0.000000 0.000000 
#    y 0.000000 1.803500 0.000000 
#    z 0.000000 0.000000 1.800160 
# 
# From -- ./inp_files/25385.got.cif
#   From: 2010.03.12/outbox.cif.g09.slc.cpg/sg46_13_cif.got.tgz:25385.got - 2010.04.14 02:56:35.
