data_PCOD8191120
_publ_section_title
;
Structure prediction by ZEFSAII (Michael W. Deem and Ramdas Pophale) SiO2 
 PCOD8191120
Probable space group: I B A 2
;
_chemical_formula_sum "Si O2"
_cell_formula_units_Z 56
_cell_length_a 14.827889
_cell_length_b 10.861615
_cell_length_c 13.712726
_cell_angle_alpha 90.000000
_cell_angle_beta 90.000000
_cell_angle_gamma 90.000000
_cell_volume 2208.500639
_symmetry_space_group_name_H-M "I B A 2"
_symmetry_group_IT_number 45
_symmetry_cell_setting 'orthorhombic'
loop_
_space_group_symop_operation_xyz
x,y,z
-x,-y,z
-x,y,1/2+z
x,-y,1/2+z
1/2+x,1/2+y,1/2+z
1/2-x,1/2-y,1/2+z
1/2-x,1/2+y,z
1/2+x,1/2-y,z
loop_
_atom_site_type_symbol
_atom_site_label
_atom_site_fract_x
_atom_site_fract_y
_atom_site_fract_z
Si Si1 0.877105 0.158594 0.427620
Si Si2 0.086852 0.411092 0.031193
Si Si3 0.704818 0.948218 0.894393
Si Si4 0.097748 0.022706 0.595056
Si Si5 0.206800 0.882532 0.744944
Si Si6 0.108114 0.241635 0.719906
Si Si7 0.918367 0.338691 0.742385
O O1 0.924517 0.277582 0.478187
O O2 0.766084 0.169351 0.427367
O O3 0.906619 0.152589 0.314019
O O4 0.904011 0.031359 0.484298
O O5 0.173553 0.478561 0.988291
O O6 0.000000 0.500000 0.020653
O O7 0.119605 0.390689 0.141222
O O8 0.615167 0.924537 0.830411
O O9 0.778266 0.028550 0.835816
O O10 0.108628 0.169638 0.615633
O O11 0.180307 0.957294 0.648915
O O12 0.000000 0.000000 0.643034
O O13 0.298166 0.810309 0.724754
O O14 0.122763 0.793876 0.767098
O O15 0.026315 0.339541 0.726822
#
# Coordination Sequence:
#
# PCOD8191120 Si02
#       7
#     8   8   8   8   8   8   8
#     4  12  26  46  75 115 154 201 269 328 397 488
#     4  12  28  48  74 113 156 205 266 332 410 490
#     4  12  27  46  81 116 156 209 263 339 405 490
#     4  12  26  48  74 114 156 210 266 327 403 480
#     4  12  24  48  76 111 157 204 264 323 407 470
#     4  12  26  49  79 110 160 209 264 331 402 491
#     4  12  27  50  79 111 161 211 262 331 408 483
#
# _framework density 25.356567999999999
#
# number of rings (size 3 to 8) (size 9 to 14) (size 15 to 20)
#    0.000    0.000    7.143    0.857    6.000    1.714 
#    0.000    4.286    0.000    0.000    0.000    0.000 
#    0.000    0.000    0.000    0.000    0.000    0.000 
#
# Total GULP energy -346947.977517 kJ/mol
# GULP energy per Si atom -12390.999197 kJ/mol
# Density = 2.529886 g / cm^3
# Si number density = 25.356568 Si / 1000 Ang^3
#
#
#
# Elastic Constant Matrix: (Units=GPa)
#
#
# Indices 1 2 3 4 5 6 
#
# 1 113.9362 28.8649 32.0933 0.0000 0.0000 0.0000
# 2 28.8649 74.9885 36.7073 0.0000 0.0000 0.0000
# 3 32.0933 36.7073 115.6984 0.0000 0.0000 0.0000
# 4 0.0000 0.0000 0.0000 31.2946 0.0000 0.0000
# 5 0.0000 0.0000 0.0000 0.0000 38.6656 0.0000
# 6 0.0000 0.0000 0.0000 0.0000 0.0000 55.9100
#
#
#
# Elastic Compliance Matrix: (Units=1/GPa)
#
#
# Indices 1 2 3 4 5 6 
#
# 1 0.010048 -0.002964 -0.001847 0.000000 0.000000 0.000000
# 2 -0.002964 0.016661 -0.004464 0.000000 0.000000 0.000000
# 3 -0.001847 -0.004464 0.010572 0.000000 0.000000 0.000000
# 4 0.000000 0.000000 0.000000 0.031954 0.000000 0.000000
# 5 0.000000 0.000000 0.000000 0.000000 0.025863 0.000000
# 6 0.000000 0.000000 0.000000 0.000000 0.000000 0.017886
#
#
# Mechanical properties :
#
#
# Convention : Reuss Voigt Hill
#
# Bulk Modulus (GPa) = 53.38489 55.55046 54.46767
# Shear Modulus (GPa) = 36.29051 38.97120 37.63086
#
# Velocity S-wave (km/s) = 3.78723 3.92462 3.85654
# Velocity P-wave (km/s) = 6.34221 6.51860 6.43101
#
# Compressibility (1/GPa) = 0.01873189
#
# Stress axis : x y z
#
# Youngs Moduli (GPa) = 99.52352 60.01927 94.59158
#
# Poissons Ratio (x) = 0.17787 0.17470
# Poissons Ratio (y) = 0.29495 0.42226
# Poissons Ratio (z) = 0.18381 0.26793
#
# Static dielectric constant tensor:
#      x y z
#    x 4.718210 0.000000 0.000000 
#    y 0.000000 4.779980 0.000000 
#    z 0.000000 0.000000 4.622060 
# 
# 
# High freq. dielectric constant tensor:
#      x y z
#    x 2.024900 0.000000 0.000000 
#    y 0.000000 2.006590 0.000000 
#    z 0.000000 0.000000 2.010400 
# 
# From -- ./inp_files/6527.got.cif
#   From: 2010.03.12/outbox.cif.g09.slc.cpg/sg45_4_cif.got.tgz:6527.got - 2010.04.14 02:50:11.
