data_PCOD8191761
_publ_section_title
;
Structure prediction by ZEFSAII (Michael W. Deem and Ramdas Pophale) SiO2 
 PCOD8191761
Probable space group: I M A 2
;
_chemical_formula_sum "Si O2"
_cell_formula_units_Z 64
_cell_length_a 26.551826
_cell_length_b 4.868712
_cell_length_c 21.271384
_cell_angle_alpha 90.000000
_cell_angle_beta 90.000000
_cell_angle_gamma 90.000000
_cell_volume 2749.819748
_symmetry_space_group_name_H-M "I M A 2"
_symmetry_group_IT_number 46
_symmetry_cell_setting 'orthorhombic'
loop_
_space_group_symop_operation_xyz
x,y,z
-x,-y,z
1/2-x,y,z
1/2+x,-y,z
1/2+x,1/2+y,1/2+z
1/2-x,1/2-y,1/2+z
-x,1/2+y,1/2+z
x,1/2-y,1/2+z
loop_
_atom_site_type_symbol
_atom_site_label
_atom_site_fract_x
_atom_site_fract_y
_atom_site_fract_z
Si Si1 0.128864 0.105683 0.157770
Si Si2 0.440387 0.970354 0.854984
Si Si3 0.940725 0.462561 0.104387
Si Si4 0.694469 0.374894 0.158810
Si Si5 0.629268 0.897627 0.302940
Si Si6 0.962740 0.254281 0.730104
Si Si7 0.194557 0.622544 0.301663
Si Si8 0.536056 0.250323 0.979740
O O1 0.085171 0.241770 0.114842
O O2 0.152796 0.827326 0.126675
O O3 0.107430 0.070963 0.230433
O O4 0.175872 0.314094 0.157175
O O5 0.414500 0.267818 0.846894
O O6 0.427040 0.777139 0.793102
O O7 0.426982 0.830172 0.921447
O O8 0.500000 0.000000 0.854731
O O9 0.929140 0.256143 0.164807
O O10 0.000000 0.500000 0.098336
O O11 0.926151 0.326904 0.037523
O O12 0.750000 0.357554 0.127108
O O13 0.698539 0.268339 0.230330
O O14 0.653038 0.175717 0.334072
O O15 0.676076 0.688439 0.303494
O O16 0.000000 0.500000 0.736375
O O17 0.000000 0.000000 0.724462
O O18 0.250000 0.639549 0.333433
O O19 0.500000 0.500000 0.958523
O O20 0.500000 0.000000 0.000277
#
# Coordination Sequence:
#
# PCOD8191761 Si02
#       8
#     8   8   8   8   8   8   8   8
#     4  10  19  31  50  78 104 137 174 213 263 318
#     4  10  21  37  53  79 110 145 179 220 260 315
#     4  10  21  37  53  79 110 145 179 220 260 315
#     4   9  18  32  50  74 106 136 170 217 267 314
#     4  10  19  31  50  78 104 137 174 213 263 318
#     4  10  20  32  50  72 101 138 171 210 260 298
#     4   9  18  32  50  74 106 136 170 217 267 314
#     4  10  22  38  54  72 103 148 189 218 254 306
#
# _framework density 23.274253000000002
#
# number of rings (size 3 to 8) (size 9 to 14) (size 15 to 20)
#    0.000    2.250    1.250    1.500    0.000   11.000 
#    0.000    0.000    0.000    0.000    0.000    5.250 
#    0.000    0.000    0.000    0.000    0.000    0.000 
#
# Total GULP energy -396734.432379 kJ/mol
# GULP energy per Si atom -12397.951012 kJ/mol
# Density = 2.322128 g / cm^3
# Si number density = 23.274253 Si / 1000 Ang^3
#
#
#
# Elastic Constant Matrix: (Units=GPa)
#
#
# Indices 1 2 3 4 5 6 
#
# 1 97.8453 -13.4479 11.1251 0.0000 0.0000 0.0000
# 2 -13.4479 71.3699 10.2027 0.0000 0.0000 0.0000
# 3 11.1251 10.2027 129.1476 0.0000 0.0000 0.0000
# 4 0.0000 0.0000 0.0000 29.5146 0.0000 0.0000
# 5 0.0000 0.0000 0.0000 0.0000 5.2362 0.0000
# 6 0.0000 0.0000 0.0000 0.0000 0.0000 31.6910
#
#
#
# Elastic Compliance Matrix: (Units=1/GPa)
#
#
# Indices 1 2 3 4 5 6 
#
# 1 0.010641 0.002160 -0.001087 0.000000 0.000000 0.000000
# 2 0.002160 0.014610 -0.001340 0.000000 0.000000 0.000000
# 3 -0.001087 -0.001340 0.007943 0.000000 0.000000 0.000000
# 4 0.000000 0.000000 0.000000 0.033882 0.000000 0.000000
# 5 0.000000 0.000000 0.000000 0.000000 0.190980 0.000000
# 6 0.000000 0.000000 0.000000 0.000000 0.000000 0.031555
#
#
# Mechanical properties :
#
#
# Convention : Reuss Voigt Hill
#
# Bulk Modulus (GPa) = 30.61923 34.90252 32.76087
# Shear Modulus (GPa) = 16.60961 32.65386 24.63174
#
# Velocity S-wave (km/s) = 2.67432 3.74973 3.25672
# Velocity P-wave (km/s) = 4.76659 5.81172 5.31491
#
# Compressibility (1/GPa) = 0.03265922
#
# Stress axis : x y z
#
# Youngs Moduli (GPa) = 93.97818 68.44535 125.90295
#
# Poissons Ratio (x) = -0.14787 0.13689
# Poissons Ratio (y) = -0.20303 0.16875
# Poissons Ratio (z) = 0.10218 0.09174
#
# Static dielectric constant tensor:
#      x y z
#    x 4.353690 0.000000 0.000000 
#    y 0.000000 4.704560 0.000000 
#    z 0.000000 0.000000 6.287590 
# 
# 
# High freq. dielectric constant tensor:
#      x y z
#    x 1.928080 0.000000 0.000000 
#    y 0.000000 1.956980 0.000000 
#    z 0.000000 0.000000 1.857220 
# 
# From -- ./inp_files/23924.got.cif
#   From: 2010.03.12/outbox.cif.g09.slc.cpg/sg46_12_cif.got.tgz:23924.got - 2010.04.14 02:56:35.
