data_PCOD8191388
_publ_section_title
;
Structure prediction by ZEFSAII (Michael W. Deem and Ramdas Pophale) SiO2 
 PCOD8191388
Probable space group: I M A 2
;
_chemical_formula_sum "Si O2"
_cell_formula_units_Z 64
_cell_length_a 8.791083
_cell_length_b 18.445895
_cell_length_c 26.385220
_cell_angle_alpha 90.000000
_cell_angle_beta 90.000000
_cell_angle_gamma 90.000000
_cell_volume 4278.611285
_symmetry_space_group_name_H-M "I M A 2"
_symmetry_group_IT_number 46
_symmetry_cell_setting 'orthorhombic'
loop_
_space_group_symop_operation_xyz
x,y,z
-x,-y,z
1/2-x,y,z
1/2+x,-y,z
1/2+x,1/2+y,1/2+z
1/2-x,1/2-y,1/2+z
-x,1/2+y,1/2+z
x,1/2-y,1/2+z
loop_
_atom_site_type_symbol
_atom_site_label
_atom_site_fract_x
_atom_site_fract_y
_atom_site_fract_z
Si Si1 0.071292 0.424033 0.449200
Si Si2 0.429949 0.664821 0.650419
Si Si3 0.072427 0.075791 0.065570
Si Si4 0.067306 0.843807 0.860121
Si Si5 0.070360 0.423398 0.265608
Si Si6 0.431801 0.577988 0.748098
Si Si7 0.417340 0.698598 0.208122
Si Si8 0.415806 0.707160 0.808139
O O1 0.250000 0.426348 0.438946
O O2 0.031653 0.407090 0.507366
O O3 0.000000 0.500000 0.432200
O O4 0.993058 0.361961 0.415776
O O5 0.250000 0.660365 0.644026
O O6 0.508863 0.642338 0.598131
O O7 0.485675 0.608841 0.693868
O O8 0.478490 0.748037 0.663434
O O9 0.250000 0.068291 0.074171
O O10 0.000000 0.000000 0.083216
O O11 0.250000 0.846408 0.857367
O O12 0.003546 0.761990 0.847905
O O13 0.002034 0.899824 0.819060
O O14 0.250000 0.429460 0.271958
O O15 0.000000 0.500000 0.249711
O O16 0.032083 0.367028 0.220205
O O17 0.500000 0.500000 0.757974
O O18 0.250000 0.575927 0.750450
O O19 0.496814 0.631038 0.793281
O O20 0.250000 0.666890 0.194102
O O21 0.397112 0.749246 0.256342
O O22 0.250000 0.688429 0.830411
#
# Coordination Sequence:
#
# PCOD8191388 Si02
#       8
#     8   8   8   8   8   8   8   8
#     4  10  20  32  43  59  82 108 138 175 211 245
#     4   9  17  29  45  61  82 111 141 172 207 244
#     4  10  20  31  43  59  83 111 141 175 209 244
#     4  10  18  30  46  60  77 107 142 174 208 249
#     4  11  20  29  42  61  85 112 140 171 204 244
#     4   9  16  26  39  58  82 108 135 164 196 233
#     4   8  15  29  44  59  80 107 137 170 205 242
#     4   7  13  26  41  55  76 104 132 161 198 239
#
# _framework density 14.958125000000001
#
# number of rings (size 3 to 8) (size 9 to 14) (size 15 to 20)
#    0.000    2.750    0.000    5.250    0.000    3.500 
#    0.000    5.625    0.000    0.000    0.000    0.000 
#    0.000    1.000    0.000    4.500    0.000    4.500 
#
# Total GULP energy -396519.588385 kJ/mol
# GULP energy per Si atom -12391.237137 kJ/mol
# Density = 1.492408 g / cm^3
# Si number density = 14.958125 Si / 1000 Ang^3
#
#
#
# Elastic Constant Matrix: (Units=GPa)
#
#
# Indices 1 2 3 4 5 6 
#
# 1 62.4315 36.8304 30.3346 0.0000 0.0000 0.0000
# 2 36.8304 103.2855 51.0044 0.0000 0.0000 0.0000
# 3 30.3346 51.0044 73.3819 0.0000 0.0000 0.0000
# 4 0.0000 0.0000 0.0000 27.2220 0.0000 0.0000
# 5 0.0000 0.0000 0.0000 0.0000 19.5869 0.0000
# 6 0.0000 0.0000 0.0000 0.0000 0.0000 22.0411
#
#
#
# Elastic Compliance Matrix: (Units=1/GPa)
#
#
# Indices 1 2 3 4 5 6 
#
# 1 0.021628 -0.005020 -0.005451 0.000000 0.000000 0.000000
# 2 -0.005020 0.015907 -0.008981 0.000000 0.000000 0.000000
# 3 -0.005451 -0.008981 0.022123 0.000000 0.000000 0.000000
# 4 0.000000 0.000000 0.000000 0.036735 0.000000 0.000000
# 5 0.000000 0.000000 0.000000 0.000000 0.051054 0.000000
# 6 0.000000 0.000000 0.000000 0.000000 0.000000 0.045370
#
#
# Mechanical properties :
#
#
# Convention : Reuss Voigt Hill
#
# Bulk Modulus (GPa) = 48.18569 52.82642 50.50606
# Shear Modulus (GPa) = 20.95209 21.83197 21.39203
#
# Velocity S-wave (km/s) = 3.74667 3.82454 3.78581
# Velocity P-wave (km/s) = 7.14146 7.40916 7.27654
#
# Compressibility (1/GPa) = 0.02075305
#
# Stress axis : x y z
#
# Youngs Moduli (GPa) = 46.23668 62.86501 45.20192
#
# Poissons Ratio (x) = 0.31561 0.24640
# Poissons Ratio (y) = 0.23213 0.40596
# Poissons Ratio (z) = 0.25204 0.56459
#
# Static dielectric constant tensor:
#      x y z
#    x 2.807140 0.000000 0.000000 
#    y 0.000000 3.173190 0.000000 
#    z 0.000000 0.000000 2.821020 
# 
# 
# High freq. dielectric constant tensor:
#      x y z
#    x 1.569740 0.000000 0.000000 
#    y 0.000000 1.564870 0.000000 
#    z 0.000000 0.000000 1.540650 
# 
# From -- ./inp_files/24403.got.cif
#   From: 2010.03.12/outbox.cif.g09.slc.cpg/sg46_13_cif.got.tgz:24403.got - 2010.04.14 02:56:35.
