data_PCOD8191113
_publ_section_title
;
Structure prediction by ZEFSAII (Michael W. Deem and Ramdas Pophale) SiO2 
 PCOD8191113
Probable space group: I B A 2
;
_chemical_formula_sum "Si O2"
_cell_formula_units_Z 48
_cell_length_a 30.957113
_cell_length_b 4.864944
_cell_length_c 14.230279
_cell_angle_alpha 90.000000
_cell_angle_beta 90.000000
_cell_angle_gamma 90.000000
_cell_volume 2143.145778
_symmetry_space_group_name_H-M "I B A 2"
_symmetry_group_IT_number 45
_symmetry_cell_setting 'orthorhombic'
loop_
_space_group_symop_operation_xyz
x,y,z
-x,-y,z
-x,y,1/2+z
x,-y,1/2+z
1/2+x,1/2+y,1/2+z
1/2-x,1/2-y,1/2+z
1/2-x,1/2+y,z
1/2+x,1/2-y,z
loop_
_atom_site_type_symbol
_atom_site_label
_atom_site_fract_x
_atom_site_fract_y
_atom_site_fract_z
Si Si1 0.278746 0.395661 0.183600
Si Si2 0.911892 0.475055 0.773893
Si Si3 0.155744 0.108767 0.529574
Si Si4 0.399341 0.135062 0.568905
Si Si5 0.644421 0.529689 0.319864
Si Si6 0.471015 0.230098 0.422407
O O1 0.237024 0.585584 0.199580
O O2 0.297312 0.376183 0.077268
O O3 0.314696 0.514844 0.253745
O O4 0.923016 0.471331 0.662749
O O5 0.871014 0.664225 0.796406
O O6 0.954449 0.591754 0.825211
O O7 0.897028 0.171420 0.806554
O O8 0.129892 0.395704 0.524188
O O9 0.130351 0.893071 0.596436
O O10 0.161352 0.986997 0.425997
O O11 0.431094 0.274068 0.492021
O O12 0.500000 0.500000 0.403498
O O13 0.500000 0.000000 0.473107
#
# Coordination Sequence:
#
# PCOD8191113 Si02
#       6
#     8   8   8   8   8   8
#     4  12  26  42  66 104 147 174 229 306 354 394
#     4  12  23  44  73 101 133 188 237 277 340 431
#     4  12  23  43  72 100 133 187 239 280 342 425
#     4  12  23  44  73 101 133 188 237 277 340 431
#     4  12  23  43  72 100 133 187 239 280 342 425
#     4  12  26  44  70 106 146 172 222 302 354 396
#
# _framework density 22.396985000000001
#
# number of rings (size 3 to 8) (size 9 to 14) (size 15 to 20)
#    0.000    0.000    6.667    4.000    0.000    2.000 
#    0.000    1.667    0.000    0.000    0.000    0.000 
#    0.000    0.000    0.000    0.000    0.000    0.000 
#
# Total GULP energy -297553.494689 kJ/mol
# GULP energy per Si atom -12398.062279 kJ/mol
# Density = 2.234601 g / cm^3
# Si number density = 22.396985 Si / 1000 Ang^3
#
#
#
# Elastic Constant Matrix: (Units=GPa)
#
#
# Indices 1 2 3 4 5 6 
#
# 1 86.3397 26.4980 29.4844 0.0000 0.0000 0.0000
# 2 26.4980 98.2276 11.5710 0.0000 0.0000 0.0000
# 3 29.4844 11.5710 116.0936 0.0000 0.0000 0.0000
# 4 0.0000 0.0000 0.0000 29.1284 0.0000 0.0000
# 5 0.0000 0.0000 0.0000 0.0000 23.0014 0.0000
# 6 0.0000 0.0000 0.0000 0.0000 0.0000 44.5106
#
#
#
# Elastic Compliance Matrix: (Units=1/GPa)
#
#
# Indices 1 2 3 4 5 6 
#
# 1 0.013674 -0.003318 -0.003142 0.000000 0.000000 0.000000
# 2 -0.003318 0.011107 -0.000264 0.000000 0.000000 0.000000
# 3 -0.003142 -0.000264 0.009438 0.000000 0.000000 0.000000
# 4 0.000000 0.000000 0.000000 0.034331 0.000000 0.000000
# 5 0.000000 0.000000 0.000000 0.000000 0.043476 0.000000
# 6 0.000000 0.000000 0.000000 0.000000 0.000000 0.022467
#
#
# Mechanical properties :
#
#
# Convention : Reuss Voigt Hill
#
# Bulk Modulus (GPa) = 48.14843 48.41862 48.28353
# Shear Modulus (GPa) = 32.28648 34.86859 33.57754
#
# Velocity S-wave (km/s) = 3.80090 3.94997 3.87615
# Velocity P-wave (km/s) = 6.38802 6.51677 6.45272
#
# Compressibility (1/GPa) = 0.02076911
#
# Stress axis : x y z
#
# Youngs Moduli (GPa) = 73.13378 90.03526 105.95430
#
# Poissons Ratio (x) = 0.29878 0.33290
# Poissons Ratio (y) = 0.24269 0.02799
# Poissons Ratio (z) = 0.22978 0.02379
#
# Static dielectric constant tensor:
#      x y z
#    x 4.075860 0.000000 0.000000 
#    y 0.000000 4.115390 0.000000 
#    z 0.000000 0.000000 4.017480 
# 
# 
# High freq. dielectric constant tensor:
#      x y z
#    x 1.872670 0.000000 0.000000 
#    y 0.000000 1.900720 0.000000 
#    z 0.000000 0.000000 1.887420 
# 
# From -- ./inp_files/7114.got.cif
#   From: 2010.03.12/outbox.cif.g09.slc.cpg/sg45_4_cif.got.tgz:7114.got - 2010.04.14 02:50:11.
