data_PCOD8191899
_publ_section_title
;
Structure prediction by ZEFSAII (Michael W. Deem and Ramdas Pophale) SiO2 
 PCOD8191899
Probable space group: I M A 2
;
_chemical_formula_sum "Si O2"
_cell_formula_units_Z 48
_cell_length_a 8.716763
_cell_length_b 15.655163
_cell_length_c 18.439011
_cell_angle_alpha 90.000000
_cell_angle_beta 90.000000
_cell_angle_gamma 90.000000
_cell_volume 2516.230692
_symmetry_space_group_name_H-M "I M A 2"
_symmetry_group_IT_number 46
_symmetry_cell_setting 'orthorhombic'
loop_
_space_group_symop_operation_xyz
x,y,z
-x,-y,z
1/2-x,y,z
1/2+x,-y,z
1/2+x,1/2+y,1/2+z
1/2-x,1/2-y,1/2+z
-x,1/2+y,1/2+z
x,1/2-y,1/2+z
loop_
_atom_site_type_symbol
_atom_site_label
_atom_site_fract_x
_atom_site_fract_y
_atom_site_fract_z
Si Si1 0.429249 0.760060 0.314590
Si Si2 0.568470 0.587390 0.543140
Si Si3 0.920153 0.653403 0.692341
Si Si4 0.920732 0.841792 0.698459
Si Si5 0.430946 0.587357 0.062581
Si Si6 0.069059 0.239034 0.470246
O O1 0.250000 0.755876 0.331547
O O2 0.467813 0.842377 0.262607
O O3 0.486049 0.673012 0.274010
O O4 0.525758 0.771505 0.386796
O O5 0.500000 0.500000 0.510548
O O6 0.750000 0.582659 0.540670
O O7 0.512213 0.596236 0.627117
O O8 0.510624 0.667688 0.496116
O O9 0.750000 0.621868 0.716265
O O10 0.905797 0.749424 0.659049
O O11 0.750000 0.878606 0.714676
O O12 0.011444 0.904720 0.645550
O O13 0.500000 0.500000 0.029788
O O14 0.250000 0.581929 0.061834
O O15 0.483707 0.666191 0.014551
O O16 0.250000 0.228080 0.480636
#
# Coordination Sequence:
#
# PCOD8191899 Si02
#       6
#     8   8   8   8   8   8
#     4  10  19  32  56  87 113 147 192 238 289 342
#     4  10  21  36  58  85 114 148 189 233 281 335
#     4   8  16  34  56  79 108 146 187 227 280 338
#     4   9  17  35  58  81 110 146 189 230 279 338
#     4  12  24  38  60  89 117 150 191 239 289 347
#     4  11  21  39  60  81 117 158 191 235 289 345
#
# _framework density 19.076153000000001
#
# number of rings (size 3 to 8) (size 9 to 14) (size 15 to 20)
#    1.000    1.000    1.667    3.500    0.000    2.000 
#    0.000    1.667    0.000    4.000    0.000    0.000 
#    0.000    0.000    0.000    0.000    0.000    0.000 
#
# Total GULP energy -297403.489858 kJ/mol
# GULP energy per Si atom -12391.812077 kJ/mol
# Density = 1.903273 g / cm^3
# Si number density = 19.076153 Si / 1000 Ang^3
#
#
#
# Elastic Constant Matrix: (Units=GPa)
#
#
# Indices 1 2 3 4 5 6 
#
# 1 104.2917 33.7342 25.8207 0.0000 0.0000 0.0000
# 2 33.7342 76.8364 13.7290 0.0000 0.0000 0.0000
# 3 25.8207 13.7290 69.6369 0.0000 0.0000 0.0000
# 4 0.0000 0.0000 0.0000 9.9924 0.0000 0.0000
# 5 0.0000 0.0000 0.0000 0.0000 28.8393 0.0000
# 6 0.0000 0.0000 0.0000 0.0000 0.0000 28.1877
#
#
#
# Elastic Compliance Matrix: (Units=1/GPa)
#
#
# Indices 1 2 3 4 5 6 
#
# 1 0.011955 -0.004619 -0.003522 0.000000 0.000000 0.000000
# 2 -0.004619 0.015275 -0.001299 0.000000 0.000000 0.000000
# 3 -0.003522 -0.001299 0.015922 0.000000 0.000000 0.000000
# 4 0.000000 0.000000 0.000000 0.100076 0.000000 0.000000
# 5 0.000000 0.000000 0.000000 0.000000 0.034675 0.000000
# 6 0.000000 0.000000 0.000000 0.000000 0.000000 0.035476
#
#
# Mechanical properties :
#
#
# Convention : Reuss Voigt Hill
#
# Bulk Modulus (GPa) = 41.20013 44.14808 42.67411
# Shear Modulus (GPa) = 20.80307 25.23596 23.01951
#
# Velocity S-wave (km/s) = 3.30590 3.64112 3.47755
# Velocity P-wave (km/s) = 6.01802 6.39299 6.20834
#
# Compressibility (1/GPa) = 0.02427177
#
# Stress axis : x y z
#
# Youngs Moduli (GPa) = 83.64977 65.46751 62.80561
#
# Poissons Ratio (x) = 0.30241 0.22120
# Poissons Ratio (y) = 0.38640 0.08156
# Poissons Ratio (z) = 0.29461 0.08502
#
# Static dielectric constant tensor:
#      x y z
#    x 3.360580 0.000000 0.000000 
#    y 0.000000 3.346010 0.000000 
#    z 0.000000 0.000000 3.409610 
# 
# 
# High freq. dielectric constant tensor:
#      x y z
#    x 1.745000 0.000000 0.000000 
#    y 0.000000 1.716520 0.000000 
#    z 0.000000 0.000000 1.731460 
# 
# From -- ./inp_files/18178.got.cif
#   From: 2010.03.12/outbox.cif.g09.slc.cpg/sg46_10_cif.got.tgz:18178.got - 2010.04.14 02:56:35.
