data_PCOD8191789
_publ_section_title
;
Structure prediction by ZEFSAII (Michael W. Deem and Ramdas Pophale) SiO2 
 PCOD8191789
Probable space group: I M A 2
;
_chemical_formula_sum "Si O2"
_cell_formula_units_Z 64
_cell_length_a 8.719659
_cell_length_b 30.072193
_cell_length_c 14.204429
_cell_angle_alpha 90.000000
_cell_angle_beta 90.000000
_cell_angle_gamma 90.000000
_cell_volume 3724.674980
_symmetry_space_group_name_H-M "I M A 2"
_symmetry_group_IT_number 46
_symmetry_cell_setting 'orthorhombic'
loop_
_space_group_symop_operation_xyz
x,y,z
-x,-y,z
1/2-x,y,z
1/2+x,-y,z
1/2+x,1/2+y,1/2+z
1/2-x,1/2-y,1/2+z
-x,1/2+y,1/2+z
x,1/2-y,1/2+z
loop_
_atom_site_type_symbol
_atom_site_label
_atom_site_fract_x
_atom_site_fract_y
_atom_site_fract_z
Si Si1 0.571230 0.229795 0.151330
Si Si2 0.578138 0.679609 0.139773
Si Si3 0.069253 0.454437 0.270164
Si Si4 0.569022 0.045535 0.565874
Si Si5 0.929527 0.698842 0.829662
Si Si6 0.572346 0.217816 0.936350
Si Si7 0.572327 0.135229 0.469936
Si Si8 0.078299 0.137805 0.837107
O O1 0.750000 0.239780 0.162722
O O2 0.474041 0.273035 0.178994
O O3 0.516738 0.194465 0.229577
O O4 0.530776 0.213780 0.046422
O O5 0.750000 0.682136 0.096697
O O6 0.574495 0.645913 0.225757
O O7 0.457322 0.665531 0.060991
O O8 0.250000 0.459680 0.256945
O O9 0.030822 0.414361 0.343604
O O10 0.000000 0.500000 0.312567
O O11 0.998485 0.444258 0.168210
O O12 0.750000 0.041426 0.576154
O O13 0.523967 0.084703 0.493322
O O14 0.500000 0.000000 0.524016
O O15 0.750000 0.701199 0.811506
O O16 0.977787 0.742519 0.888863
O O17 0.971311 0.653623 0.884364
O O18 0.750000 0.228785 0.920554
O O19 0.536733 0.169584 0.892685
O O20 0.750000 0.139363 0.443241
O O21 0.250000 0.145863 0.876600
#
# Coordination Sequence:
#
# PCOD8191789 Si02
#       8
#     8   8   8   8   8   8   8   8
#     4  11  23  38  53  73 104 138 175 219 261 305
#     4  11  20  31  50  75 105 141 177 214 255 300
#     4  10  19  32  49  73 104 137 172 212 257 306
#     4  10  20  32  50  74 103 137 171 211 257 307
#     4  12  24  36  54  76 102 138 177 218 259 306
#     4  11  23  36  54  76 102 137 175 215 259 309
#     4  11  22  35  51  75 105 141 179 215 258 307
#     4  10  21  34  50  74 105 139 176 214 255 304
#
# _framework density 17.182706
#
# number of rings (size 3 to 8) (size 9 to 14) (size 15 to 20)
#    0.000    1.250    3.750    4.125    0.000    4.500 
#    0.000    0.000    0.000    0.000    0.000    0.875 
#    0.000    6.000    0.000    0.000    0.000    0.000 
#
# Total GULP energy -396818.476295 kJ/mol
# GULP energy per Si atom -12400.577384 kJ/mol
# Density = 1.714360 g / cm^3
# Si number density = 17.182706 Si / 1000 Ang^3
#
#
#
# Elastic Constant Matrix: (Units=GPa)
#
#
# Indices 1 2 3 4 5 6 
#
# 1 79.2330 34.3694 27.7825 -0.0002 0.0000 0.0000
# 2 34.3694 99.7824 27.8506 -0.0004 0.0001 0.0000
# 3 27.7825 27.8506 72.2828 0.0006 0.0000 0.0000
# 4 -0.0002 -0.0004 0.0006 22.0356 -0.0001 0.0001
# 5 0.0000 0.0001 0.0000 -0.0001 22.7899 0.0000
# 6 0.0000 0.0000 0.0000 0.0001 0.0000 27.8273
#
#
#
# Elastic Compliance Matrix: (Units=1/GPa)
#
#
# Indices 1 2 3 4 5 6 
#
# 1 0.016060 -0.004268 -0.004528 0.000000 0.000000 0.000000
# 2 -0.004268 0.012364 -0.003123 0.000000 0.000000 0.000000
# 3 -0.004528 -0.003123 0.016779 -0.000001 0.000000 0.000000
# 4 0.000000 0.000000 -0.000001 0.045381 0.000000 0.000000
# 5 0.000000 0.000000 0.000000 0.000000 0.043879 0.000000
# 6 0.000000 0.000000 0.000000 0.000000 0.000000 0.035936
#
#
# Mechanical properties :
#
#
# Convention : Reuss Voigt Hill
#
# Bulk Modulus (GPa) = 46.80986 47.92259 47.36623
# Shear Modulus (GPa) = 24.83131 25.28361 25.05746
#
# Velocity S-wave (km/s) = 3.80562 3.84012 3.82291
# Velocity P-wave (km/s) = 6.82729 6.90019 6.86383
#
# Compressibility (1/GPa) = 0.02136302
#
# Stress axis : x y z
#
# Youngs Moduli (GPa) = 62.26582 80.88255 59.60008
#
# Poissons Ratio (x) = 0.34520 0.26990
# Poissons Ratio (y) = 0.26574 0.18615
# Poissons Ratio (z) = 0.28197 0.25262
#
# Static dielectric constant tensor:
#      x y z
#    x 3.297520 0.000000 0.000000 
#    y 0.000000 3.355670 0.000000 
#    z 0.000000 0.000000 3.040320 
# 
# 
# High freq. dielectric constant tensor:
#      x y z
#    x 1.679730 0.000000 0.000000 
#    y 0.000000 1.656890 0.000000 
#    z 0.000000 0.000000 1.632150 
# 
# From -- ./inp_files/14734.got.cif
#   From: 2010.03.12/outbox.cif.g09.slc.cpg/sg46_8_cif.got.tgz:14734.got - 2010.04.14 02:56:35.
