data_PCOD8191416
_publ_section_title
;
Structure prediction by ZEFSAII (Michael W. Deem and Ramdas Pophale) SiO2 
 PCOD8191416
Probable space group: I M A 2
;
_chemical_formula_sum "Si O2"
_cell_formula_units_Z 56
_cell_length_a 8.680780
_cell_length_b 21.244586
_cell_length_c 14.278224
_cell_angle_alpha 90.000000
_cell_angle_beta 90.000000
_cell_angle_gamma 90.000000
_cell_volume 2633.184034
_symmetry_space_group_name_H-M "I M A 2"
_symmetry_group_IT_number 46
_symmetry_cell_setting 'orthorhombic'
loop_
_space_group_symop_operation_xyz
x,y,z
-x,-y,z
1/2-x,y,z
1/2+x,-y,z
1/2+x,1/2+y,1/2+z
1/2-x,1/2-y,1/2+z
-x,1/2+y,1/2+z
x,1/2-y,1/2+z
loop_
_atom_site_type_symbol
_atom_site_label
_atom_site_fract_x
_atom_site_fract_y
_atom_site_fract_z
Si Si1 0.071285 0.146257 0.120150
Si Si2 0.067661 0.115896 0.493932
Si Si3 0.083933 0.661214 0.327658
Si Si4 0.933955 0.253191 0.488160
Si Si5 0.066019 0.566503 0.179669
Si Si6 0.082790 0.559602 0.482872
Si Si7 0.068630 0.067239 0.293446
O O1 0.250000 0.164912 0.115410
O O2 0.020414 0.125161 0.224820
O O3 0.973319 0.204808 0.079782
O O4 0.037275 0.085036 0.058776
O O5 0.250000 0.111503 0.506252
O O6 0.010602 0.086514 0.396326
O O7 0.015883 0.187545 0.501659
O O8 0.985328 0.074988 0.573136
O O9 0.250000 0.687127 0.292300
O O10 0.000758 0.716283 0.389273
O O11 0.998281 0.627015 0.239778
O O12 0.114731 0.606540 0.400252
O O13 0.750000 0.246600 0.482923
O O14 0.250000 0.565344 0.188827
O O15 0.000000 0.500000 0.216928
O O16 0.250000 0.544188 0.529034
O O17 0.000000 0.500000 0.437536
O O18 0.250000 0.059337 0.290026
O O19 0.000000 0.000000 0.263037
#
# Coordination Sequence:
#
# PCOD8191416 Si02
#       7
#     8   8   8   8   8   8   8
#     4  10  20  36  57  84 115 149 187 235 287 343
#     4  11  24  42  60  83 115 155 198 244 289 339
#     4   8  18  35  56  82 115 148 186 232 284 343
#     4  10  21  40  62  88 118 153 192 234 285 346
#     4  11  22  39  61  88 118 153 194 240 289 342
#     4  10  18  30  49  78 113 150 187 230 282 341
#     4  10  23  40  60  85 116 152 194 239 290 342
#
# _framework density 21.267028
#
# number of rings (size 3 to 8) (size 9 to 14) (size 15 to 20)
#    0.000    2.000    0.000    4.286    0.000    5.714 
#    0.000   10.714    0.000    0.000    0.000    0.000 
#    0.000    0.000    0.000    0.000    0.000    0.000 
#
# Total GULP energy -346910.071066 kJ/mol
# GULP energy per Si atom -12389.645395 kJ/mol
# Density = 2.121862 g / cm^3
# Si number density = 21.267028 Si / 1000 Ang^3
#
#
#
# Elastic Constant Matrix: (Units=GPa)
#
#
# Indices 1 2 3 4 5 6 
#
# 1 43.3245 12.5310 12.9270 0.0000 0.0000 0.0000
# 2 12.5310 76.6731 11.5803 -0.0003 0.0000 0.0000
# 3 12.9270 11.5803 99.8592 -0.0008 0.0000 0.0000
# 4 0.0000 -0.0003 -0.0008 -19.3912 0.0000 0.0000
# 5 0.0000 0.0000 0.0000 0.0000 28.0701 0.0000
# 6 0.0000 0.0000 0.0000 0.0000 0.0000 32.0043
#
#
#
# Elastic Compliance Matrix: (Units=1/GPa)
#
#
# Indices 1 2 3 4 5 6 
#
# 1 0.024978 -0.003658 -0.002809 0.000000 0.000000 0.000000
# 2 -0.003658 0.013811 -0.001128 0.000000 0.000000 0.000000
# 3 -0.002809 -0.001128 0.010509 0.000000 0.000000 0.000000
# 4 0.000000 0.000000 0.000000 -0.051570 0.000000 0.000000
# 5 0.000000 0.000000 0.000000 0.000000 0.035625 0.000000
# 6 0.000000 0.000000 0.000000 0.000000 0.000000 0.031246
#
#
# Mechanical properties :
#
#
# Convention : Reuss Voigt Hill
#
# Bulk Modulus (GPa) = 29.31987 32.65929 30.98958
# Shear Modulus (GPa) = 54.85024 20.32455 37.58739
#
# Velocity S-wave (km/s) = 5.08401 3.09477 4.20861
# Velocity P-wave (km/s) = 6.94834 5.30662 6.18222
#
# Compressibility (1/GPa) = 0.03410656
#
# Stress axis : x y z
#
# Youngs Moduli (GPa) = 40.03549 72.40820 95.16036
#
# Poissons Ratio (x) = 0.26487 0.26733
# Poissons Ratio (y) = 0.14645 0.10734
# Poissons Ratio (z) = 0.11247 0.08168
#
# Static dielectric constant tensor:
#      x y z
#    x 3.657580 0.000000 0.000000 
#    y 0.000000 4.504510 0.000000 
#    z 0.000000 0.000000 4.315050 
# 
# 
# High freq. dielectric constant tensor:
#      x y z
#    x 1.819630 0.000000 0.000000 
#    y 0.000000 1.835220 0.000000 
#    z 0.000000 0.000000 1.836860 
# 
# From -- ./inp_files/14199.got.cif
#   From: 2010.03.12/outbox.cif.g09.slc.cpg/sg46_8_cif.got.tgz:14199.got - 2010.04.14 02:56:35.
