data_PCOD8191663
_publ_section_title
;
Structure prediction by ZEFSAII (Michael W. Deem and Ramdas Pophale) SiO2 
 PCOD8191663
Probable space group: I M A 2
;
_chemical_formula_sum "Si O2"
_cell_formula_units_Z 64
_cell_length_a 9.075869
_cell_length_b 33.052792
_cell_length_c 11.812166
_cell_angle_alpha 90.000000
_cell_angle_beta 90.000000
_cell_angle_gamma 90.000000
_cell_volume 3543.446752
_symmetry_space_group_name_H-M "I M A 2"
_symmetry_group_IT_number 46
_symmetry_cell_setting 'orthorhombic'
loop_
_space_group_symop_operation_xyz
x,y,z
-x,-y,z
1/2-x,y,z
1/2+x,-y,z
1/2+x,1/2+y,1/2+z
1/2-x,1/2-y,1/2+z
-x,1/2+y,1/2+z
x,1/2-y,1/2+z
loop_
_atom_site_type_symbol
_atom_site_label
_atom_site_fract_x
_atom_site_fract_y
_atom_site_fract_z
Si Si1 0.580134 0.460623 0.447150
Si Si2 0.924471 0.458281 0.186722
Si Si3 0.424333 0.768699 0.997328
Si Si4 0.915836 0.672431 0.340767
Si Si5 0.078226 0.122424 0.626245
Si Si6 0.079827 0.318138 0.688349
Si Si7 0.079478 0.311242 0.947605
Si Si8 0.588197 0.609405 0.542111
O O1 0.500000 0.500000 0.493381
O O2 0.750000 0.468957 0.458011
O O3 0.534418 0.451255 0.318060
O O4 0.536130 0.424164 0.529059
O O5 0.750000 0.461339 0.166476
O O6 0.000000 0.500000 0.143713
O O7 0.988796 0.419632 0.120088
O O8 0.250000 0.770495 0.992164
O O9 0.478017 0.789810 0.112127
O O10 0.486481 0.789762 0.882747
O O11 0.479159 0.722764 0.004848
O O12 0.750000 0.688663 0.319153
O O13 0.979573 0.651996 0.226707
O O14 0.918017 0.639062 0.436630
O O15 0.250000 0.112204 0.646692
O O16 0.051354 0.145816 0.508629
O O17 0.250000 0.305678 0.667849
O O18 0.031686 0.314885 0.817644
O O19 0.056055 0.365070 0.655015
O O20 0.250000 0.298663 0.960044
O O21 0.750000 0.588925 0.547567
#
# Coordination Sequence:
#
# PCOD8191663 Si02
#       8
#     8   8   8   8   8   8   8   8
#     4  10  19  29  46  75 108 139 170 208 259 317
#     4  10  20  33  52  79 114 149 180 221 274 331
#     4  11  23  36  54  80 110 141 179 228 278 321
#     4   9  18  33  53  77 106 141 179 215 265 329
#     4  10  20  35  57  83 109 142 183 229 277 328
#     4   9  20  39  58  76 102 141 185 221 265 324
#     4  10  22  39  59  80 105 143 188 228 270 328
#     4   9  16  30  52  74 100 134 168 212 261 310
#
# _framework density 18.061509000000001
#
# number of rings (size 3 to 8) (size 9 to 14) (size 15 to 20)
#    0.000    2.250    1.250    2.625    1.750    4.500 
#    0.000    0.000    0.000    0.750    0.000    0.000 
#    0.000    0.000    0.000    0.000    0.000    0.000 
#
# Total GULP energy -396812.524692 kJ/mol
# GULP energy per Si atom -12400.391397 kJ/mol
# Density = 1.802040 g / cm^3
# Si number density = 18.061509 Si / 1000 Ang^3
#
#
#
# Elastic Constant Matrix: (Units=GPa)
#
#
# Indices 1 2 3 4 5 6 
#
# 1 91.6562 59.9214 30.5650 -0.0003 -0.0001 -0.0001
# 2 59.9214 116.2055 38.1318 -0.0003 -0.0001 0.0000
# 3 30.5650 38.1318 75.7484 -0.0001 0.0002 -0.0001
# 4 -0.0003 -0.0003 -0.0001 21.3414 -0.0001 0.0000
# 5 -0.0001 -0.0001 0.0002 -0.0001 13.6658 -0.0001
# 6 -0.0001 0.0000 -0.0001 0.0000 -0.0001 34.3779
#
#
#
# Elastic Compliance Matrix: (Units=1/GPa)
#
#
# Indices 1 2 3 4 5 6 
#
# 1 0.016984 -0.007797 -0.002928 0.000000 0.000000 0.000000
# 2 -0.007797 0.013888 -0.003845 0.000000 0.000000 0.000000
# 3 -0.002928 -0.003845 0.016319 0.000000 0.000000 0.000000
# 4 0.000000 0.000000 0.000000 0.046857 0.000000 0.000000
# 5 0.000000 0.000000 0.000000 0.000000 0.073175 0.000000
# 6 0.000000 0.000000 0.000000 0.000000 0.000000 0.029088
#
#
# Mechanical properties :
#
#
# Convention : Reuss Voigt Hill
#
# Bulk Modulus (GPa) = 55.40089 60.09405 57.74747
# Shear Modulus (GPa) = 21.60120 24.20982 22.90551
#
# Velocity S-wave (km/s) = 3.46205 3.66513 3.56504
# Velocity P-wave (km/s) = 6.83528 7.15926 6.99915
#
# Compressibility (1/GPa) = 0.01805025
#
# Stress axis : x y z
#
# Youngs Moduli (GPa) = 58.87806 72.00635 61.27949
#
# Poissons Ratio (x) = 0.56144 0.17944
# Poissons Ratio (y) = 0.45908 0.23561
# Poissons Ratio (z) = 0.17241 0.27686
#
# Static dielectric constant tensor:
#      x y z
#    x 3.255830 0.000000 0.000000 
#    y 0.000000 3.384190 0.000000 
#    z 0.000000 0.000000 3.253510 
# 
# 
# High freq. dielectric constant tensor:
#      x y z
#    x 1.693750 0.000000 0.000000 
#    y 0.000000 1.699210 0.000000 
#    z 0.000000 0.000000 1.674320 
# 
# From -- ./inp_files/9693.got.cif
#   From: 2010.03.12/outbox.cif.g09.slc.cpg/sg46_5_cif.got.tgz:9693.got - 2010.04.14 02:56:35.
