data_PCOD8191570
_publ_section_title
;
Structure prediction by ZEFSAII (Michael W. Deem and Ramdas Pophale) SiO2 
 PCOD8191570
Probable space group: I M A 2
;
_chemical_formula_sum "Si O2"
_cell_formula_units_Z 64
_cell_length_a 22.601879
_cell_length_b 15.317528
_cell_length_c 8.986858
_cell_angle_alpha 90.000000
_cell_angle_beta 90.000000
_cell_angle_gamma 90.000000
_cell_volume 3111.294405
_symmetry_space_group_name_H-M "I M A 2"
_symmetry_group_IT_number 46
_symmetry_cell_setting 'orthorhombic'
loop_
_space_group_symop_operation_xyz
x,y,z
-x,-y,z
1/2-x,y,z
1/2+x,-y,z
1/2+x,1/2+y,1/2+z
1/2-x,1/2-y,1/2+z
-x,1/2+y,1/2+z
x,1/2-y,1/2+z
loop_
_atom_site_type_symbol
_atom_site_label
_atom_site_fract_x
_atom_site_fract_y
_atom_site_fract_z
Si Si1 0.358943 0.350346 0.552130
Si Si2 0.392937 0.849124 0.551044
Si Si3 0.106242 0.674763 0.394773
Si Si4 0.682534 0.490211 0.394983
Si Si5 0.473112 0.358581 0.064872
Si Si6 0.028467 0.187183 0.903904
Si Si7 0.138708 0.033362 0.573433
Si Si8 0.317134 0.182714 0.371657
O O1 0.320043 0.436810 0.523512
O O2 0.425674 0.373735 0.495031
O O3 0.333573 0.269721 0.458942
O O4 0.358449 0.328587 0.726992
O O5 0.370669 0.768177 0.453222
O O6 0.387621 0.818526 0.719505
O O7 0.459905 0.881582 0.523459
O O8 0.352627 0.933778 0.515429
O O9 0.145557 0.593999 0.451291
O O10 0.038570 0.662429 0.451687
O O11 0.750000 0.460848 0.368078
O O12 0.655955 0.534855 0.246830
O O13 0.465442 0.318895 0.228421
O O14 0.430552 0.441847 0.053876
O O15 0.452253 0.285352 0.948440
O O16 0.178884 0.099477 0.481145
O O17 0.250000 0.190235 0.315255
#
# Coordination Sequence:
#
# PCOD8191570 Si02
#       8
#     8   8   8   8   8   8   8   8
#     4  12  23  40  60  85 120 161 203 249 302 367
#     4   9  20  37  62  86 117 156 196 253 309 359
#     4   9  21  39  62  87 120 153 199 258 309 360
#     4  11  23  41  62  87 118 162 210 252 301 366
#     4  10  18  34  57  89 122 157 196 241 298 363
#     4  10  19  35  59  89 121 156 198 240 304 360
#     4  11  21  37  60  88 121 158 203 247 298 367
#     4  12  25  39  57  86 124 165 203 245 298 368
#
# _framework density 20.570217
#
# number of rings (size 3 to 8) (size 9 to 14) (size 15 to 20)
#    0.000    1.500    2.500    3.375    0.000    1.500 
#    0.000    3.125    2.750    0.000    0.000    0.000 
#    0.000    0.000    0.000    0.000    0.000    0.000 
#
# Total GULP energy -396744.672003 kJ/mol
# GULP energy per Si atom -12398.271000 kJ/mol
# Density = 2.052340 g / cm^3
# Si number density = 20.570217 Si / 1000 Ang^3
#
#
#
# Elastic Constant Matrix: (Units=GPa)
#
#
# Indices 1 2 3 4 5 6 
#
# 1 73.0340 50.5398 12.1661 0.0000 0.0000 0.0000
# 2 50.5398 140.5733 41.9370 0.0000 0.0000 0.0000
# 3 12.1661 41.9370 53.7220 0.0000 0.0000 0.0000
# 4 0.0000 0.0000 0.0000 34.3884 0.0000 0.0000
# 5 0.0000 0.0000 0.0000 0.0000 20.0698 0.0000
# 6 0.0000 0.0000 0.0000 0.0000 0.0000 27.9920
#
#
#
# Elastic Compliance Matrix: (Units=1/GPa)
#
#
# Indices 1 2 3 4 5 6 
#
# 1 0.018296 -0.006963 0.001292 0.000000 0.000000 0.000000
# 2 -0.006963 0.011924 -0.007731 0.000000 0.000000 0.000000
# 3 0.001292 -0.007731 0.024357 0.000000 0.000000 0.000000
# 4 0.000000 0.000000 0.000000 0.029080 0.000000 0.000000
# 5 0.000000 0.000000 0.000000 0.000000 0.049826 0.000000
# 6 0.000000 0.000000 0.000000 0.000000 0.000000 0.035724
#
#
# Mechanical properties :
#
#
# Convention : Reuss Voigt Hill
#
# Bulk Modulus (GPa) = 36.00715 52.95722 44.48219
# Shear Modulus (GPa) = 24.35850 27.33580 25.84715
#
# Velocity S-wave (km/s) = 3.44490 3.64937 3.54861
# Velocity P-wave (km/s) = 5.77630 6.59982 6.20175
#
# Compressibility (1/GPa) = 0.02777226
#
# Stress axis : x y z
#
# Youngs Moduli (GPa) = 54.65791 83.86736 41.05649
#
# Poissons Ratio (x) = 0.58400 -0.05307
# Poissons Ratio (y) = 0.38060 0.31741
# Poissons Ratio (z) = -0.07064 0.64838
#
# Static dielectric constant tensor:
#      x y z
#    x 3.908960 0.000000 0.000000 
#    y 0.000000 3.746510 0.000000 
#    z 0.000000 0.000000 3.561390 
# 
# 
# High freq. dielectric constant tensor:
#      x y z
#    x 1.800980 0.000000 0.000000 
#    y 0.000000 1.802800 0.000000 
#    z 0.000000 0.000000 1.792840 
# 
# From -- ./inp_files/7957.got.cif
#   From: 2010.03.12/outbox.cif.g09.slc.cpg/sg46_4_cif.got.tgz:7957.got - 2010.04.14 02:56:35.
