data_PCOD8191437
_publ_section_title
;
Structure prediction by ZEFSAII (Michael W. Deem and Ramdas Pophale) SiO2 
 PCOD8191437
Probable space group: I M A 2
;
_chemical_formula_sum "Si O2"
_cell_formula_units_Z 56
_cell_length_a 9.502202
_cell_length_b 18.970609
_cell_length_c 17.876453
_cell_angle_alpha 90.000000
_cell_angle_beta 90.000000
_cell_angle_gamma 90.000000
_cell_volume 3222.455160
_symmetry_space_group_name_H-M "I M A 2"
_symmetry_group_IT_number 46
_symmetry_cell_setting 'orthorhombic'
loop_
_space_group_symop_operation_xyz
x,y,z
-x,-y,z
1/2-x,y,z
1/2+x,-y,z
1/2+x,1/2+y,1/2+z
1/2-x,1/2-y,1/2+z
-x,1/2+y,1/2+z
x,1/2-y,1/2+z
loop_
_atom_site_type_symbol
_atom_site_label
_atom_site_fract_x
_atom_site_fract_y
_atom_site_fract_z
Si Si1 0.593703 0.937999 0.180120
Si Si2 0.582095 0.717711 0.502789
Si Si3 0.403654 0.060408 0.004439
Si Si4 0.588308 0.176924 0.413379
Si Si5 0.090562 0.680880 0.740569
Si Si6 0.910974 0.207855 0.627190
Si Si7 0.088424 0.570810 0.044175
O O1 0.750000 0.937915 0.216477
O O2 0.607764 0.950995 0.092658
O O3 0.518622 0.863844 0.192757
O O4 0.500000 0.000000 0.217357
O O5 0.750000 0.725700 0.509060
O O6 0.536111 0.637561 0.486727
O O7 0.519901 0.762124 0.434791
O O8 0.512787 0.742898 0.579448
O O9 0.250000 0.052149 0.967940
O O10 0.500000 0.000000 0.967703
O O11 0.750000 0.200759 0.425760
O O12 0.556560 0.165552 0.326585
O O13 0.556874 0.107620 0.463719
O O14 0.250000 0.656325 0.722873
O O15 0.073900 0.763362 0.713028
O O16 0.750000 0.217426 0.598800
O O17 0.950497 0.125593 0.612108
O O18 0.250000 0.547876 0.049243
O O19 0.000000 0.500000 0.053363
#
# Coordination Sequence:
#
# PCOD8191437 Si02
#       7
#     8   8   8   8   8   8   8
#     4  10  19  31  45  68 101 132 163 198 238 287
#     4  10  18  31  49  72  98 125 163 207 246 291
#     4   9  18  29  44  68  95 123 157 197 237 285
#     4   9  20  35  50  72 100 131 167 204 251 309
#     4  10  19  33  52  73  99 133 170 209 255 305
#     4   9  18  32  52  74  96 127 166 210 255 299
#     4   9  18  33  51  73  99 127 165 207 247 298
#
# _framework density 17.378053999999999
#
# number of rings (size 3 to 8) (size 9 to 14) (size 15 to 20)
#    0.000    2.571    1.429    1.714    0.000    5.143 
#    0.000    1.429    0.000    0.857    0.000    4.000 
#    0.000    0.000    0.000    0.000    0.000    0.000 
#
# Total GULP energy -346928.436825 kJ/mol
# GULP energy per Si atom -12390.301315 kJ/mol
# Density = 1.733850 g / cm^3
# Si number density = 17.378054 Si / 1000 Ang^3
#
#
#
# Elastic Constant Matrix: (Units=GPa)
#
#
# Indices 1 2 3 4 5 6 
#
# 1 91.8730 68.2302 12.2530 0.0000 0.0000 0.0000
# 2 68.2302 143.3701 24.7924 0.0000 0.0000 0.0000
# 3 12.2530 24.7924 40.7953 0.0000 0.0000 0.0000
# 4 0.0000 0.0000 0.0000 14.4722 0.0000 0.0000
# 5 0.0000 0.0000 0.0000 0.0000 14.7771 0.0000
# 6 0.0000 0.0000 0.0000 0.0000 0.0000 32.0046
#
#
#
# Elastic Compliance Matrix: (Units=1/GPa)
#
#
# Indices 1 2 3 4 5 6 
#
# 1 0.016836 -0.007976 -0.000209 0.000000 0.000000 0.000000
# 2 -0.007976 0.011573 -0.004637 0.000000 0.000000 0.000000
# 3 -0.000209 -0.004637 0.027394 0.000000 0.000000 0.000000
# 4 0.000000 0.000000 0.000000 0.069098 0.000000 0.000000
# 5 0.000000 0.000000 0.000000 0.000000 0.067672 0.000000
# 6 0.000000 0.000000 0.000000 0.000000 0.000000 0.031246
#
#
# Mechanical properties :
#
#
# Convention : Reuss Voigt Hill
#
# Bulk Modulus (GPa) = 33.16019 54.06551 43.61285
# Shear Modulus (GPa) = 19.26658 23.63495 21.45076
#
# Velocity S-wave (km/s) = 3.33329 3.69188 3.51716
# Velocity P-wave (km/s) = 5.82559 7.02511 6.45328
#
# Compressibility (1/GPa) = 0.03015664
#
# Stress axis : x y z
#
# Youngs Moduli (GPa) = 59.39637 86.40999 36.50456
#
# Poissons Ratio (x) = 0.68921 0.00765
# Poissons Ratio (y) = 0.47375 0.16929
# Poissons Ratio (z) = 0.01244 0.40072
#
# Static dielectric constant tensor:
#      x y z
#    x 3.452840 0.000000 0.000000 
#    y 0.000000 3.242710 0.000000 
#    z 0.000000 0.000000 2.997640 
# 
# 
# High freq. dielectric constant tensor:
#      x y z
#    x 1.680680 0.000000 0.000000 
#    y 0.000000 1.668390 0.000000 
#    z 0.000000 0.000000 1.630810 
# 
# From -- ./inp_files/18457.got.cif
#   From: 2010.03.12/outbox.cif.g09.slc.cpg/sg46_10_cif.got.tgz:18457.got - 2010.04.14 02:56:35.
