data_PCOD8191902
_publ_section_title
;
Structure prediction by ZEFSAII (Michael W. Deem and Ramdas Pophale) SiO2 
 PCOD8191902
Probable space group: I M A 2
;
_chemical_formula_sum "Si O2"
_cell_formula_units_Z 56
_cell_length_a 14.760729
_cell_length_b 24.396140
_cell_length_c 9.424048
_cell_angle_alpha 90.000000
_cell_angle_beta 90.000000
_cell_angle_gamma 90.000000
_cell_volume 3393.645026
_symmetry_space_group_name_H-M "I M A 2"
_symmetry_group_IT_number 46
_symmetry_cell_setting 'orthorhombic'
loop_
_space_group_symop_operation_xyz
x,y,z
-x,-y,z
1/2-x,y,z
1/2+x,-y,z
1/2+x,1/2+y,1/2+z
1/2-x,1/2-y,1/2+z
-x,1/2+y,1/2+z
x,1/2-y,1/2+z
loop_
_atom_site_type_symbol
_atom_site_label
_atom_site_fract_x
_atom_site_fract_y
_atom_site_fract_z
Si Si1 0.642958 0.790759 0.616280
Si Si2 0.543428 0.891646 0.727897
Si Si3 0.651552 0.062029 0.738656
Si Si4 0.905263 0.520683 0.002855
Si Si5 0.644198 0.686809 0.798237
Si Si6 0.350524 0.069449 0.224152
Si Si7 0.905528 0.975180 0.938158
O O1 0.750000 0.805253 0.635096
O O2 0.578371 0.830026 0.709000
O O3 0.621849 0.730424 0.676157
O O4 0.610356 0.792806 0.452634
O O5 0.433224 0.895431 0.748963
O O6 0.576068 0.924507 0.590754
O O7 0.598583 0.915746 0.862810
O O8 0.750000 0.092809 0.730239
O O9 0.641750 0.025478 0.597456
O O10 0.662162 0.020599 0.873763
O O11 0.843236 0.535180 0.869041
O O12 0.000000 0.500000 0.940088
O O13 0.750000 0.676351 0.813721
O O14 0.600338 0.628236 0.752568
O O15 0.250000 0.079065 0.163486
O O16 0.400953 0.033093 0.106268
O O17 0.000000 0.000000 0.887879
#
# Coordination Sequence:
#
# PCOD8191902 Si02
#       7
#     8   8   8   8   8   8   8
#     4  10  19  33  47  66  96 122 151 192 230 273
#     4   9  18  31  48  66  90 125 160 187 228 279
#     4   9  17  31  48  69  92 120 157 194 228 272
#     4   9  17  29  45  65  92 120 150 188 227 276
#     4   9  20  31  44  66  92 121 154 186 223 276
#     4  11  19  28  43  67  94 123 154 183 226 277
#     4   9  19  31  43  65  96 125 156 188 224 275
#
# _framework density 16.501431
#
# number of rings (size 3 to 8) (size 9 to 14) (size 15 to 20)
#    0.000    2.571    1.429    3.000    2.000    2.857 
#    0.000    0.000    0.000    0.000    0.000    1.000 
#    0.000    0.000    0.000    0.000    0.000    0.000 
#
# Total GULP energy -346926.058363 kJ/mol
# GULP energy per Si atom -12390.216370 kJ/mol
# Density = 1.646387 g / cm^3
# Si number density = 16.501431 Si / 1000 Ang^3
#
#
#
# Elastic Constant Matrix: (Units=GPa)
#
#
# Indices 1 2 3 4 5 6 
#
# 1 61.5664 10.0572 6.3928 -0.0013 0.0000 -0.0002
# 2 10.0572 56.8368 23.9423 -0.0024 -0.0005 -0.0008
# 3 6.3928 23.9423 93.7204 0.0001 -0.0016 -0.0020
# 4 -0.0013 -0.0024 0.0001 23.1143 -0.0007 -0.0009
# 5 0.0000 -0.0005 -0.0016 -0.0007 15.2647 -0.0002
# 6 -0.0002 -0.0008 -0.0020 -0.0009 -0.0002 16.0674
#
#
#
# Elastic Compliance Matrix: (Units=1/GPa)
#
#
# Indices 1 2 3 4 5 6 
#
# 1 0.016742 -0.002781 -0.000432 0.000001 0.000000 0.000000
# 2 -0.002781 0.020178 -0.004965 0.000002 0.000000 0.000000
# 3 -0.000432 -0.004965 0.011968 -0.000001 0.000001 0.000001
# 4 0.000001 0.000002 -0.000001 0.043263 0.000002 0.000002
# 5 0.000000 0.000000 0.000001 0.000002 0.065511 0.000001
# 6 0.000000 0.000000 0.000001 0.000002 0.000001 0.062238
#
#
# Mechanical properties :
#
#
# Convention : Reuss Voigt Hill
#
# Bulk Modulus (GPa) = 30.73821 32.54533 31.64177
# Shear Modulus (GPa) = 20.23487 22.33801 21.28644
#
# Velocity S-wave (km/s) = 3.50558 3.68326 3.59552
# Velocity P-wave (km/s) = 5.92060 6.15257 6.03770
#
# Compressibility (1/GPa) = 0.03253280
#
# Stress axis : x y z
#
# Youngs Moduli (GPa) = 59.73119 49.55945 83.55695
#
# Poissons Ratio (x) = 0.13780 0.03607
# Poissons Ratio (y) = 0.16609 0.41487
# Poissons Ratio (z) = 0.02578 0.24607
#
# Static dielectric constant tensor:
#      x y z
#    x 2.954210 0.000000 0.000000 
#    y 0.000000 2.909120 0.000000 
#    z 0.000000 0.000000 3.052380 
# 
# 
# High freq. dielectric constant tensor:
#      x y z
#    x 1.610070 0.000000 0.000000 
#    y 0.000000 1.608310 0.000000 
#    z 0.000000 0.000000 1.642180 
# 
# From -- ./inp_files/6194.got.cif
#   From: 2010.03.12/outbox.cif.g09.slc.cpg/sg46_4_cif.got.tgz:6194.got - 2010.04.14 02:56:35.
