data_PCOD8191824
_publ_section_title
;
Structure prediction by ZEFSAII (Michael W. Deem and Ramdas Pophale) SiO2 
 PCOD8191824
Probable space group: I M A 2
;
_chemical_formula_sum "Si O2"
_cell_formula_units_Z 64
_cell_length_a 8.908271
_cell_length_b 16.198663
_cell_length_c 22.675837
_cell_angle_alpha 90.000000
_cell_angle_beta 90.000000
_cell_angle_gamma 90.000000
_cell_volume 3272.170441
_symmetry_space_group_name_H-M "I M A 2"
_symmetry_group_IT_number 46
_symmetry_cell_setting 'orthorhombic'
loop_
_space_group_symop_operation_xyz
x,y,z
-x,-y,z
1/2-x,y,z
1/2+x,-y,z
1/2+x,1/2+y,1/2+z
1/2-x,1/2-y,1/2+z
-x,1/2+y,1/2+z
x,1/2-y,1/2+z
loop_
_atom_site_type_symbol
_atom_site_label
_atom_site_fract_x
_atom_site_fract_y
_atom_site_fract_z
Si Si1 0.929857 0.586679 0.333090
Si Si2 0.573158 0.577623 0.577647
Si Si3 0.077060 0.253189 0.118291
Si Si4 0.427416 0.919056 0.413661
Si Si5 0.928411 0.413721 0.780030
Si Si6 0.075244 0.259243 0.250253
Si Si7 0.082903 0.796265 0.506712
Si Si8 0.921072 0.113638 0.959680
O O1 0.750000 0.579411 0.333403
O O2 0.980460 0.666034 0.292881
O O3 0.000000 0.500000 0.308567
O O4 0.992425 0.601032 0.398454
O O5 0.500000 0.500000 0.612477
O O6 0.750000 0.569487 0.578016
O O7 0.515942 0.659322 0.611292
O O8 0.513628 0.568993 0.510725
O O9 0.250000 0.252251 0.102034
O O10 0.047126 0.289750 0.183086
O O11 0.999347 0.308885 0.068882
O O12 0.250000 0.923437 0.415467
O O13 0.481564 0.904470 0.347335
O O14 0.495294 0.849247 0.455742
O O15 0.500000 0.000000 0.440399
O O16 0.750000 0.418699 0.771324
O O17 0.000000 0.500000 0.754623
O O18 0.988265 0.327964 0.752939
O O19 0.250000 0.240703 0.261711
O O20 0.250000 0.827640 0.518933
O O21 0.081204 0.707307 0.478619
O O22 0.750000 0.079795 0.953918
#
# Coordination Sequence:
#
# PCOD8191824 Si02
#       8
#     8   8   8   8   8   8   8   8
#     4  11  23  38  57  80 108 142 183 229 276 327
#     4  10  19  32  51  76 106 137 169 206 254 312
#     4   9  20  37  54  73 100 135 176 219 261 309
#     4   9  18  32  50  76 107 135 167 209 258 313
#     4  10  20  35  57  85 116 148 181 219 266 323
#     4  10  22  40  58  78 107 144 186 231 274 318
#     4   9  18  33  53  77 104 134 170 213 260 313
#     4  10  19  33  54  79 108 137 169 212 264 321
#
# _framework density 19.558883000000002
#
# number of rings (size 3 to 8) (size 9 to 14) (size 15 to 20)
#    0.000    2.250    0.000    2.625    0.000    5.000 
#    0.000    1.875    0.000    3.000    0.000    0.000 
#    0.000    0.000    0.000    0.000    0.000    0.000 
#
# Total GULP energy -396496.804916 kJ/mol
# GULP energy per Si atom -12390.525154 kJ/mol
# Density = 1.951437 g / cm^3
# Si number density = 19.558883 Si / 1000 Ang^3
#
#
#
# Elastic Constant Matrix: (Units=GPa)
#
#
# Indices 1 2 3 4 5 6 
#
# 1 59.1628 21.8272 24.4621 0.0000 0.0000 0.0000
# 2 21.8272 58.4079 22.1969 0.0000 0.0000 0.0000
# 3 24.4621 22.1969 70.5975 0.0000 0.0000 0.0000
# 4 0.0000 0.0000 0.0000 7.6782 0.0000 0.0000
# 5 0.0000 0.0000 0.0000 0.0000 13.3973 0.0000
# 6 0.0000 0.0000 0.0000 0.0000 0.0000 29.1684
#
#
#
# Elastic Compliance Matrix: (Units=1/GPa)
#
#
# Indices 1 2 3 4 5 6 
#
# 1 0.021367 -0.005873 -0.005557 0.000000 0.000000 0.000000
# 2 -0.005873 0.021059 -0.004586 0.000000 0.000000 0.000000
# 3 -0.005557 -0.004586 0.017532 0.000000 0.000000 0.000000
# 4 0.000000 0.000000 0.000000 0.130239 0.000000 0.000000
# 5 0.000000 0.000000 0.000000 0.000000 0.074642 0.000000
# 6 0.000000 0.000000 0.000000 0.000000 0.000000 0.034284
#
#
# Mechanical properties :
#
#
# Convention : Reuss Voigt Hill
#
# Bulk Modulus (GPa) = 35.80973 36.12672 35.96822
# Shear Modulus (GPa) = 14.68586 18.02759 16.35672
#
# Velocity S-wave (km/s) = 2.74314 3.03926 2.89499
# Velocity P-wave (km/s) = 5.32743 5.55220 5.44098
#
# Compressibility (1/GPa) = 0.02792537
#
# Stress axis : x y z
#
# Youngs Moduli (GPa) = 46.80122 47.48652 57.03754
#
# Poissons Ratio (x) = 0.27889 0.31696
# Poissons Ratio (y) = 0.27486 0.26158
# Poissons Ratio (z) = 0.26008 0.21778
#
# Static dielectric constant tensor:
#      x y z
#    x 4.102690 0.000000 0.000000 
#    y 0.000000 3.838580 0.000000 
#    z 0.000000 0.000000 3.602840 
# 
# 
# High freq. dielectric constant tensor:
#      x y z
#    x 1.760020 0.000000 0.000000 
#    y 0.000000 1.762720 0.000000 
#    z 0.000000 0.000000 1.756660 
# 
# From -- ./inp_files/23219.got.cif
#   From: 2010.03.12/outbox.cif.g09.slc.cpg/sg46_12_cif.got.tgz:23219.got - 2010.04.14 02:56:35.
