data_PCOD8191703
_publ_section_title
;
Structure prediction by ZEFSAII (Michael W. Deem and Ramdas Pophale) SiO2 
 PCOD8191703
Probable space group: I M A 2
;
_chemical_formula_sum "Si O2"
_cell_formula_units_Z 64
_cell_length_a 8.604657
_cell_length_b 26.368164
_cell_length_c 18.359531
_cell_angle_alpha 90.000000
_cell_angle_beta 90.000000
_cell_angle_gamma 90.000000
_cell_volume 4165.575756
_symmetry_space_group_name_H-M "I M A 2"
_symmetry_group_IT_number 46
_symmetry_cell_setting 'orthorhombic'
loop_
_space_group_symop_operation_xyz
x,y,z
-x,-y,z
1/2-x,y,z
1/2+x,-y,z
1/2+x,1/2+y,1/2+z
1/2-x,1/2-y,1/2+z
-x,1/2+y,1/2+z
x,1/2-y,1/2+z
loop_
_atom_site_type_symbol
_atom_site_label
_atom_site_fract_x
_atom_site_fract_y
_atom_site_fract_z
Si Si1 0.070431 0.303707 0.271330
Si Si2 0.430154 0.641603 0.145952
Si Si3 0.434280 0.555196 0.903170
Si Si4 0.426228 0.741925 0.056882
Si Si5 0.934824 0.646207 0.816021
Si Si6 0.567529 0.946029 0.557759
Si Si7 0.568265 0.756430 0.402755
Si Si8 0.930006 0.208369 0.200189
O O1 0.250000 0.319809 0.267022
O O2 0.014221 0.292809 0.354879
O O3 0.969824 0.346959 0.230797
O O4 0.046058 0.250312 0.231579
O O5 0.250000 0.628019 0.138970
O O6 0.476356 0.690122 0.097172
O O7 0.532026 0.594147 0.120754
O O8 0.500000 0.500000 0.885022
O O9 0.250000 0.554589 0.900188
O O10 0.501753 0.592856 0.843306
O O11 0.488609 0.572943 0.983165
O O12 0.250000 0.737189 0.030136
O O13 0.447420 0.789531 0.112225
O O14 0.528572 0.751946 0.986431
O O15 0.750000 0.644044 0.809958
O O16 0.997990 0.690498 0.870597
O O17 0.011380 0.655679 0.735784
O O18 0.750000 0.951149 0.544628
O O19 0.500000 0.000000 0.582487
O O20 0.750000 0.760743 0.393754
O O21 0.750000 0.220195 0.220306
#
# Coordination Sequence:
#
# PCOD8191703 Si02
#       8
#     8   8   8   8   8   8   8   8
#     4   9  17  29  42  60  84 112 144 180 217 257
#     4  10  19  31  45  63  85 114 149 182 217 260
#     4  11  21  33  47  64  87 115 146 183 219 255
#     4   9  18  28  41  61  86 113 144 177 212 254
#     4  10  19  31  45  63  85 114 149 182 217 260
#     4  11  21  33  47  64  87 115 146 183 219 255
#     4   9  18  28  41  61  86 113 144 177 212 254
#     4   9  17  29  42  60  84 112 144 180 217 257
#
# _framework density 15.364023
#
# number of rings (size 3 to 8) (size 9 to 14) (size 15 to 20)
#    0.000    2.250    0.000    6.750    0.000    8.000 
#    0.000    0.000    0.000    0.000    0.000    0.000 
#    0.000    1.000    0.000   10.500    0.000    5.750 
#
# Total GULP energy -396638.538502 kJ/mol
# GULP energy per Si atom -12394.954328 kJ/mol
# Density = 1.532905 g / cm^3
# Si number density = 15.364023 Si / 1000 Ang^3
#
#
#
# Elastic Constant Matrix: (Units=GPa)
#
#
# Indices 1 2 3 4 5 6 
#
# 1 68.7157 23.6926 29.8697 0.0000 0.0000 0.0000
# 2 23.6926 68.2282 43.1045 0.0001 0.0000 0.0000
# 3 29.8697 43.1045 84.2703 0.0001 0.0000 0.0000
# 4 0.0000 0.0001 0.0001 27.1634 0.0000 0.0000
# 5 0.0000 0.0000 0.0000 0.0000 26.2127 0.0000
# 6 0.0000 0.0000 0.0000 0.0000 0.0000 22.9616
#
#
#
# Elastic Compliance Matrix: (Units=1/GPa)
#
#
# Indices 1 2 3 4 5 6 
#
# 1 0.017669 -0.003219 -0.004616 0.000000 0.000000 0.000000
# 2 -0.003219 0.022241 -0.010235 0.000000 0.000000 0.000000
# 3 -0.004616 -0.010235 0.018738 0.000000 0.000000 0.000000
# 4 0.000000 0.000000 0.000000 0.036814 0.000000 0.000000
# 5 0.000000 0.000000 0.000000 0.000000 0.038149 0.000000
# 6 0.000000 0.000000 0.000000 0.000000 0.000000 0.043551
#
#
# Mechanical properties :
#
#
# Convention : Reuss Voigt Hill
#
# Bulk Modulus (GPa) = 44.43091 46.06085 45.24588
# Shear Modulus (GPa) = 22.64421 23.57069 23.10745
#
# Velocity S-wave (km/s) = 3.84324 3.92107 3.88235
# Velocity P-wave (km/s) = 6.97679 7.10946 7.04344
#
# Compressibility (1/GPa) = 0.02250685
#
# Stress axis : x y z
#
# Youngs Moduli (GPa) = 56.59530 44.96210 53.36710
#
# Poissons Ratio (x) = 0.14475 0.24635
# Poissons Ratio (y) = 0.18220 0.54622
# Poissons Ratio (z) = 0.26125 0.46020
#
# Static dielectric constant tensor:
#      x y z
#    x 2.998050 0.000000 0.000000 
#    y 0.000000 2.822440 0.000000 
#    z 0.000000 0.000000 3.057250 
# 
# 
# High freq. dielectric constant tensor:
#      x y z
#    x 1.604210 0.000000 0.000000 
#    y 0.000000 1.554260 0.000000 
#    z 0.000000 0.000000 1.576240 
# 
# From -- ./inp_files/18651.got.cif
#   From: 2010.03.12/outbox.cif.g09.slc.cpg/sg46_10_cif.got.tgz:18651.got - 2010.04.14 02:56:35.
