data_PCOD8191408
_publ_section_title
;
Structure prediction by ZEFSAII (Michael W. Deem and Ramdas Pophale) SiO2 
 PCOD8191408
Probable space group: I M A 2
;
_chemical_formula_sum "Si O2"
_cell_formula_units_Z 56
_cell_length_a 9.183197
_cell_length_b 18.551080
_cell_length_c 17.966162
_cell_angle_alpha 90.000000
_cell_angle_beta 90.000000
_cell_angle_gamma 90.000000
_cell_volume 3060.683418
_symmetry_space_group_name_H-M "I M A 2"
_symmetry_group_IT_number 46
_symmetry_cell_setting 'orthorhombic'
loop_
_space_group_symop_operation_xyz
x,y,z
-x,-y,z
1/2-x,y,z
1/2+x,-y,z
1/2+x,1/2+y,1/2+z
1/2-x,1/2-y,1/2+z
-x,1/2+y,1/2+z
x,1/2-y,1/2+z
loop_
_atom_site_type_symbol
_atom_site_label
_atom_site_fract_x
_atom_site_fract_y
_atom_site_fract_z
Si Si1 0.411633 0.664998 0.544460
Si Si2 0.415359 0.432826 0.309583
Si Si3 0.081231 0.430548 0.134912
Si Si4 0.089472 0.798441 0.650154
Si Si5 0.417868 0.209713 0.262164
Si Si6 0.417672 0.206526 0.900609
Si Si7 0.922768 0.575164 0.661989
O O1 0.250000 0.632924 0.526869
O O2 0.392726 0.729640 0.600043
O O3 0.482010 0.701060 0.472181
O O4 0.512729 0.604316 0.583482
O O5 0.500000 0.500000 0.345451
O O6 0.250000 0.450541 0.325252
O O7 0.447958 0.426842 0.222560
O O8 0.463097 0.359838 0.348688
O O9 0.250000 0.432303 0.112224
O O10 0.000000 0.500000 0.100396
O O11 0.004035 0.358209 0.104793
O O12 0.250000 0.829590 0.670134
O O13 0.009322 0.773288 0.724692
O O14 0.250000 0.226808 0.243195
O O15 0.444239 0.219875 0.351545
O O16 0.457777 0.130238 0.230581
O O17 0.250000 0.202714 0.926252
O O18 0.750000 0.563857 0.652582
O O19 0.000000 0.500000 0.682619
#
# Coordination Sequence:
#
# PCOD8191408 Si02
#       7
#     8   8   8   8   8   8   8
#     4  10  22  36  51  76 107 139 177 217 261 317
#     4   9  18  30  45  68  99 130 161 198 236 288
#     4  10  18  30  48  72 100 129 164 204 248 296
#     4  10  19  32  50  73 101 132 171 216 257 303
#     4   9  18  34  55  77 102 136 177 219 265 319
#     4  10  19  34  52  74 104 139 178 216 259 315
#     4  10  20  36  59  82 107 141 180 225 275 325
#
# _framework density 18.296568000000001
#
# number of rings (size 3 to 8) (size 9 to 14) (size 15 to 20)
#    0.000    2.286    1.429    1.714    0.000    4.571 
#    0.000    1.429    0.000    0.857    0.000    4.000 
#    0.000    0.000    0.000    0.000    0.000    0.000 
#
# Total GULP energy -347003.609754 kJ/mol
# GULP energy per Si atom -12392.986063 kJ/mol
# Density = 1.825492 g / cm^3
# Si number density = 18.296568 Si / 1000 Ang^3
#
#
#
# Elastic Constant Matrix: (Units=GPa)
#
#
# Indices 1 2 3 4 5 6 
#
# 1 98.6800 41.4676 21.8149 0.0000 0.0000 0.0000
# 2 41.4676 81.1655 10.1701 0.0000 0.0000 0.0000
# 3 21.8149 10.1701 58.8317 0.0000 0.0000 0.0000
# 4 0.0000 0.0000 0.0000 13.7076 0.0000 0.0000
# 5 0.0000 0.0000 0.0000 0.0000 7.9374 0.0000
# 6 0.0000 0.0000 0.0000 0.0000 0.0000 33.9208
#
#
#
# Elastic Compliance Matrix: (Units=1/GPa)
#
#
# Indices 1 2 3 4 5 6 
#
# 1 0.013756 -0.006530 -0.003972 0.000000 0.000000 0.000000
# 2 -0.006530 0.015693 -0.000291 0.000000 0.000000 0.000000
# 3 -0.003972 -0.000291 0.018521 0.000000 0.000000 0.000000
# 4 0.000000 0.000000 0.000000 0.072952 0.000000 0.000000
# 5 0.000000 0.000000 0.000000 0.000000 0.125986 0.000000
# 6 0.000000 0.000000 0.000000 0.000000 0.000000 0.029480
#
#
# Mechanical properties :
#
#
# Convention : Reuss Voigt Hill
#
# Bulk Modulus (GPa) = 37.90325 42.84249 40.37287
# Shear Modulus (GPa) = 16.29887 22.12814 19.21351
#
# Velocity S-wave (km/s) = 2.98789 3.48144 3.24406
# Velocity P-wave (km/s) = 5.71527 6.29499 6.01213
#
# Compressibility (1/GPa) = 0.02638296
#
# Stress axis : x y z
#
# Youngs Moduli (GPa) = 72.69559 63.72126 53.99338
#
# Poissons Ratio (x) = 0.41612 0.21445
# Poissons Ratio (y) = 0.47472 0.01574
# Poissons Ratio (z) = 0.28874 0.01857
#
# Static dielectric constant tensor:
#      x y z
#    x 3.717710 0.000000 0.000000 
#    y 0.000000 3.478320 0.000000 
#    z 0.000000 0.000000 3.285540 
# 
# 
# High freq. dielectric constant tensor:
#      x y z
#    x 1.721950 0.000000 0.000000 
#    y 0.000000 1.709230 0.000000 
#    z 0.000000 0.000000 1.669890 
# 
# From -- ./inp_files/18472.got.cif
#   From: 2010.03.12/outbox.cif.g09.slc.cpg/sg46_10_cif.got.tgz:18472.got - 2010.04.14 02:56:35.
