data_PCOD8191302
_publ_section_title
;
Structure prediction by ZEFSAII (Michael W. Deem and Ramdas Pophale) SiO2 
 PCOD8191302
Probable space group: I M A 2
;
_chemical_formula_sum "Si O2"
_cell_formula_units_Z 64
_cell_length_a 9.293509
_cell_length_b 18.677674
_cell_length_c 20.805374
_cell_angle_alpha 90.000000
_cell_angle_beta 90.000000
_cell_angle_gamma 90.000000
_cell_volume 3611.420358
_symmetry_space_group_name_H-M "I M A 2"
_symmetry_group_IT_number 46
_symmetry_cell_setting 'orthorhombic'
loop_
_space_group_symop_operation_xyz
x,y,z
-x,-y,z
1/2-x,y,z
1/2+x,-y,z
1/2+x,1/2+y,1/2+z
1/2-x,1/2-y,1/2+z
-x,1/2+y,1/2+z
x,1/2-y,1/2+z
loop_
_atom_site_type_symbol
_atom_site_label
_atom_site_fract_x
_atom_site_fract_y
_atom_site_fract_z
Si Si1 0.580427 0.778624 0.196720
Si Si2 0.918385 0.175124 0.401013
Si Si3 0.918116 0.631855 0.138694
Si Si4 0.585306 0.569147 0.276265
Si Si5 0.591565 0.565245 0.681482
Si Si6 0.908868 0.563677 0.831649
Si Si7 0.080397 0.572257 0.017847
Si Si8 0.917951 0.782039 0.832331
O O1 0.750000 0.788999 0.205150
O O2 0.546596 0.716741 0.144660
O O3 0.517970 0.855714 0.172444
O O4 0.523039 0.754803 0.266596
O O5 0.750000 0.177096 0.386647
O O6 0.952370 0.136692 0.468305
O O7 0.002750 0.135396 0.343757
O O8 0.988033 0.254463 0.393878
O O9 0.750000 0.620504 0.121640
O O10 0.959725 0.593520 0.204995
O O11 0.019527 0.597097 0.085857
O O12 0.500000 0.500000 0.299532
O O13 0.750000 0.547061 0.275997
O O14 0.556875 0.632975 0.326703
O O15 0.500000 0.500000 0.650299
O O16 0.750000 0.563152 0.649289
O O17 0.607776 0.550493 0.756688
O O18 0.750000 0.566214 0.863704
O O19 0.000000 0.500000 0.864535
O O20 0.250000 0.557027 0.023489
O O21 0.000000 0.500000 0.995410
O O22 0.750000 0.764582 0.843409
#
# Coordination Sequence:
#
# PCOD8191302 Si02
#       8
#     8   8   8   8   8   8   8   8
#     4   8  14  29  49  69  94 126 160 197 245 292
#     4  11  22  33  46  67  95 128 165 205 243 284
#     4   9  18  33  54  74  95 127 168 207 244 290
#     4   9  18  31  51  77 103 128 158 198 249 300
#     4   9  16  26  41  63  93 125 154 188 231 279
#     4  10  18  28  43  62  89 125 160 195 231 276
#     4  11  24  38  50  69  99 132 170 208 244 283
#     4   9  17  32  50  69  95 129 162 196 241 296
#
# _framework density 17.721558999999999
#
# number of rings (size 3 to 8) (size 9 to 14) (size 15 to 20)
#    0.000    2.500    1.250    3.375    0.000    5.500 
#    0.000    2.500    0.000    0.000    0.000    0.875 
#    0.000    2.000    0.000    0.000    0.000    0.125 
#
# Total GULP energy -396550.298207 kJ/mol
# GULP energy per Si atom -12392.196819 kJ/mol
# Density = 1.768122 g / cm^3
# Si number density = 17.721559 Si / 1000 Ang^3
#
#
#
# Elastic Constant Matrix: (Units=GPa)
#
#
# Indices 1 2 3 4 5 6 
#
# 1 93.7879 54.5368 34.5378 0.0000 0.0000 0.0000
# 2 54.5368 121.7398 25.9830 0.0000 0.0000 0.0000
# 3 34.5378 25.9830 44.9966 0.0000 0.0000 0.0000
# 4 0.0000 0.0000 0.0000 21.2502 0.0000 0.0000
# 5 0.0000 0.0000 0.0000 0.0000 19.7655 0.0000
# 6 0.0000 0.0000 0.0000 0.0000 0.0000 33.8094
#
#
#
# Elastic Compliance Matrix: (Units=1/GPa)
#
#
# Indices 1 2 3 4 5 6 
#
# 1 0.017836 -0.005781 -0.010352 0.000000 0.000000 0.000000
# 2 -0.005781 0.011242 -0.002055 0.000000 0.000000 0.000000
# 3 -0.010352 -0.002055 0.031357 0.000000 0.000000 0.000000
# 4 0.000000 0.000000 0.000000 0.047058 0.000000 0.000000
# 5 0.000000 0.000000 0.000000 0.000000 0.050593 0.000000
# 6 0.000000 0.000000 0.000000 0.000000 0.000000 0.029578
#
#
# Mechanical properties :
#
#
# Convention : Reuss Voigt Hill
#
# Bulk Modulus (GPa) = 41.56384 54.51551 48.03967
# Shear Modulus (GPa) = 21.54618 24.66278 23.10448
#
# Velocity S-wave (km/s) = 3.49064 3.73457 3.61466
# Velocity P-wave (km/s) = 6.30483 7.03030 6.67742
#
# Compressibility (1/GPa) = 0.02405938
#
# Stress axis : x y z
#
# Youngs Moduli (GPa) = 56.06622 88.94890 31.89128
#
# Poissons Ratio (x) = 0.51418 0.33015
# Poissons Ratio (y) = 0.32410 0.06553
# Poissons Ratio (z) = 0.58042 0.18277
#
# Static dielectric constant tensor:
#      x y z
#    x 3.354640 0.000000 0.000000 
#    y 0.000000 3.656090 0.000000 
#    z 0.000000 0.000000 2.828920 
# 
# 
# High freq. dielectric constant tensor:
#      x y z
#    x 1.676880 0.000000 0.000000 
#    y 0.000000 1.696860 0.000000 
#    z 0.000000 0.000000 1.630310 
# 
# From -- ./inp_files/21293.got.cif
#   From: 2010.03.12/outbox.cif.g09.slc.cpg/sg46_11_cif.got.tgz:21293.got - 2010.04.14 02:56:35.
