data_PCOD8191869
_publ_section_title
;
Structure prediction by ZEFSAII (Michael W. Deem and Ramdas Pophale) SiO2 
 PCOD8191869
Probable space group: I M A 2
;
_chemical_formula_sum "Si O2"
_cell_formula_units_Z 64
_cell_length_a 9.221272
_cell_length_b 16.176660
_cell_length_c 22.122087
_cell_angle_alpha 90.000000
_cell_angle_beta 90.000000
_cell_angle_gamma 90.000000
_cell_volume 3299.938044
_symmetry_space_group_name_H-M "I M A 2"
_symmetry_group_IT_number 46
_symmetry_cell_setting 'orthorhombic'
loop_
_space_group_symop_operation_xyz
x,y,z
-x,-y,z
1/2-x,y,z
1/2+x,-y,z
1/2+x,1/2+y,1/2+z
1/2-x,1/2-y,1/2+z
-x,1/2+y,1/2+z
x,1/2-y,1/2+z
loop_
_atom_site_type_symbol
_atom_site_label
_atom_site_fract_x
_atom_site_fract_y
_atom_site_fract_z
Si Si1 0.417611 0.581376 0.172150
Si Si2 0.080796 0.917445 0.206898
Si Si3 0.413045 0.577389 0.909046
Si Si4 0.086889 0.213261 0.001351
Si Si5 0.082388 0.578432 0.567591
Si Si6 0.087801 0.634560 0.038984
Si Si7 0.578588 0.236511 0.754088
Si Si8 0.584302 0.763172 0.369415
O O1 0.500000 0.500000 0.197311
O O2 0.250000 0.565699 0.185402
O O3 0.450374 0.587870 0.100765
O O4 0.466646 0.667378 0.204374
O O5 0.250000 0.932590 0.217243
O O6 0.041494 0.905816 0.136880
O O7 0.030883 0.830343 0.236245
O O8 0.000000 0.000000 0.232592
O O9 0.500000 0.500000 0.883141
O O10 0.250000 0.575662 0.883063
O O11 0.490240 0.656385 0.881854
O O12 0.410491 0.572784 0.982020
O O13 0.250000 0.194109 0.024248
O O14 0.966907 0.154194 0.027893
O O15 0.041397 0.302485 0.025649
O O16 0.080268 0.206307 0.928905
O O17 0.250000 0.563222 0.558058
O O18 0.000000 0.500000 0.541318
O O19 0.250000 0.675512 0.044957
O O20 0.750000 0.233129 0.765602
O O21 0.490541 0.213365 0.814667
O O22 0.750000 0.786883 0.353436
#
# Coordination Sequence:
#
# PCOD8191869 Si02
#       8
#     8   8   8   8   8   8   8   8
#     4  10  21  37  57  82 111 143 182 227 275 326
#     4   9  19  35  56  83 113 143 176 216 264 323
#     4  10  19  32  53  80 110 142 174 210 259 318
#     4  10  20  34  53  78 106 137 176 220 266 318
#     4  10  19  33  54  80 110 139 170 212 265 323
#     4   9  18  33  54  80 110 142 172 209 264 325
#     4  10  21  38  57  77 107 147 186 225 272 323
#     4  10  22  38  54  74 102 137 181 227 266 312
#
# _framework density 19.394304000000002
#
# number of rings (size 3 to 8) (size 9 to 14) (size 15 to 20)
#    0.000    2.250    0.000    2.625    0.000    6.500 
#    0.000    3.125    0.000    1.500    0.000    0.000 
#    0.000    0.000    0.000    0.000    0.000    0.000 
#
# Total GULP energy -396686.555047 kJ/mol
# GULP energy per Si atom -12396.454845 kJ/mol
# Density = 1.935016 g / cm^3
# Si number density = 19.394304 Si / 1000 Ang^3
#
#
#
# Elastic Constant Matrix: (Units=GPa)
#
#
# Indices 1 2 3 4 5 6 
#
# 1 88.1597 30.7166 37.2471 0.0000 0.0000 0.0000
# 2 30.7166 80.1666 26.4952 0.0000 0.0000 0.0000
# 3 37.2471 26.4952 71.0695 0.0000 0.0000 0.0000
# 4 0.0000 0.0000 0.0000 12.1323 0.0000 0.0000
# 5 0.0000 0.0000 0.0000 0.0000 27.9245 0.0000
# 6 0.0000 0.0000 0.0000 0.0000 0.0000 37.9780
#
#
#
# Elastic Compliance Matrix: (Units=1/GPa)
#
#
# Indices 1 2 3 4 5 6 
#
# 1 0.015478 -0.003706 -0.006730 0.000000 0.000000 0.000000
# 2 -0.003706 0.015114 -0.003692 0.000000 0.000000 0.000000
# 3 -0.006730 -0.003692 0.018975 0.000000 0.000000 0.000000
# 4 0.000000 0.000000 0.000000 0.082425 0.000000 0.000000
# 5 0.000000 0.000000 0.000000 0.000000 0.035811 0.000000
# 6 0.000000 0.000000 0.000000 0.000000 0.000000 0.026331
#
#
# Mechanical properties :
#
#
# Convention : Reuss Voigt Hill
#
# Bulk Modulus (GPa) = 46.92776 47.59043 47.25909
# Shear Modulus (GPa) = 21.78706 25.26940 23.52823
#
# Velocity S-wave (km/s) = 3.35531 3.61353 3.48681
# Velocity P-wave (km/s) = 6.26578 6.48087 6.37424
#
# Compressibility (1/GPa) = 0.02130935
#
# Stress axis : x y z
#
# Youngs Moduli (GPa) = 64.60866 66.16199 52.70229
#
# Poissons Ratio (x) = 0.24521 0.35469
# Poissons Ratio (y) = 0.23945 0.19460
# Poissons Ratio (z) = 0.43483 0.24430
#
# Static dielectric constant tensor:
#      x y z
#    x 3.584640 0.000000 0.000000 
#    y 0.000000 3.699310 0.000000 
#    z 0.000000 0.000000 3.568920 
# 
# 
# High freq. dielectric constant tensor:
#      x y z
#    x 1.761750 0.000000 0.000000 
#    y 0.000000 1.740600 0.000000 
#    z 0.000000 0.000000 1.749710 
# 
# From -- ./inp_files/21324.got.cif
#   From: 2010.03.12/outbox.cif.g09.slc.cpg/sg46_11_cif.got.tgz:21324.got - 2010.04.14 02:56:35.
