data_PCOD8191170
_publ_section_title
;
Structure prediction by ZEFSAII (Michael W. Deem and Ramdas Pophale) SiO2 
 PCOD8191170
Probable space group: I M A 2
;
_chemical_formula_sum "Si O2"
_cell_formula_units_Z 56
_cell_length_a 8.565136
_cell_length_b 22.245159
_cell_length_c 17.810993
_cell_angle_alpha 90.000000
_cell_angle_beta 90.000000
_cell_angle_gamma 90.000000
_cell_volume 3393.578584
_symmetry_space_group_name_H-M "I M A 2"
_symmetry_group_IT_number 46
_symmetry_cell_setting 'orthorhombic'
loop_
_space_group_symop_operation_xyz
x,y,z
-x,-y,z
1/2-x,y,z
1/2+x,-y,z
1/2+x,1/2+y,1/2+z
1/2-x,1/2-y,1/2+z
-x,1/2+y,1/2+z
x,1/2-y,1/2+z
loop_
_atom_site_type_symbol
_atom_site_label
_atom_site_fract_x
_atom_site_fract_y
_atom_site_fract_z
Si Si1 0.432122 0.724979 0.457140
Si Si2 0.429026 0.305171 0.767334
Si Si3 0.071677 0.148509 0.421100
Si Si4 0.931313 0.846508 0.657895
Si Si5 0.571827 0.318931 0.303529
Si Si6 0.430822 0.782078 0.123136
Si Si7 0.568027 0.434450 0.039936
O O1 0.250000 0.744032 0.451495
O O2 0.537676 0.783706 0.446772
O O3 0.471657 0.675253 0.392362
O O4 0.469148 0.696206 0.538406
O O5 0.250000 0.282590 0.770200
O O6 0.454552 0.356734 0.830403
O O7 0.546711 0.250996 0.784421
O O8 0.472874 0.324461 0.681891
O O9 0.250000 0.133367 0.442460
O O10 0.960052 0.102003 0.463001
O O11 0.750000 0.834740 0.645842
O O12 0.967022 0.858843 0.746702
O O13 0.024720 0.788176 0.629966
O O14 0.983369 0.903797 0.610341
O O15 0.750000 0.337135 0.289103
O O16 0.250000 0.789573 0.141107
O O17 0.500000 0.500000 0.028532
O O18 0.750000 0.437573 0.056942
#
# Coordination Sequence:
#
# PCOD8191170 Si02
#       7
#     8   8   8   8   8   8   8
#     4   9  17  27  42  64  91 122 154 185 220 265
#     4   9  17  27  40  61  87 116 149 183 220 265
#     4  10  19  31  46  63  86 117 151 188 228 267
#     4  11  20  31  45  63  87 117 150 187 228 268
#     4   9  16  27  42  61  85 117 152 184 220 264
#     4  10  17  26  42  65  91 122 154 184 220 265
#     4  12  24  37  51  67  87 115 153 193 231 270
#
# _framework density 16.501754999999999
#
# number of rings (size 3 to 8) (size 9 to 14) (size 15 to 20)
#    0.000    2.000    1.429    6.000    0.000    2.857 
#    0.000    0.000    0.000    0.000    0.000    0.000 
#    0.000    1.143    0.000    6.000    0.000    5.143 
#
# Total GULP energy -346984.427500 kJ/mol
# GULP energy per Si atom -12392.300982 kJ/mol
# Density = 1.646420 g / cm^3
# Si number density = 16.501755 Si / 1000 Ang^3
#
#
#
# Elastic Constant Matrix: (Units=GPa)
#
#
# Indices 1 2 3 4 5 6 
#
# 1 54.0308 10.3701 33.3794 0.0000 0.0000 0.0000
# 2 10.3701 37.5826 30.5362 0.0000 0.0000 0.0000
# 3 33.3794 30.5362 154.8488 0.0000 0.0000 0.0000
# 4 0.0000 0.0000 0.0000 26.4289 0.0000 0.0000
# 5 0.0000 0.0000 0.0000 0.0000 26.4687 0.0000
# 6 0.0000 0.0000 0.0000 0.0000 0.0000 16.8432
#
#
#
# Elastic Compliance Matrix: (Units=1/GPa)
#
#
# Indices 1 2 3 4 5 6 
#
# 1 0.021561 -0.002588 -0.004137 0.000000 0.000000 0.000000
# 2 -0.002588 0.031995 -0.005752 0.000000 0.000000 0.000000
# 3 -0.004137 -0.005752 0.008484 0.000000 0.000000 0.000000
# 4 0.000000 0.000000 0.000000 0.037837 0.000000 0.000000
# 5 0.000000 0.000000 0.000000 0.000000 0.037780 0.000000
# 6 0.000000 0.000000 0.000000 0.000000 0.000000 0.059371
#
#
# Mechanical properties :
#
#
# Convention : Reuss Voigt Hill
#
# Bulk Modulus (GPa) = 26.96385 43.89264 35.42825
# Shear Modulus (GPa) = 21.33612 25.42659 23.38136
#
# Velocity S-wave (km/s) = 3.59968 3.92961 3.76826
# Velocity P-wave (km/s) = 5.80107 6.87355 6.35995
#
# Compressibility (1/GPa) = 0.03708669
#
# Stress axis : x y z
#
# Youngs Moduli (GPa) = 46.38091 31.25457 117.86881
#
# Poissons Ratio (x) = 0.08087 0.48767
# Poissons Ratio (y) = 0.12001 0.67795
# Poissons Ratio (z) = 0.19190 0.17977
#
# Static dielectric constant tensor:
#      x y z
#    x 3.189040 0.000000 0.000000 
#    y 0.000000 2.469760 0.000000 
#    z 0.000000 0.000000 3.953460 
# 
# 
# High freq. dielectric constant tensor:
#      x y z
#    x 1.652220 0.000000 0.000000 
#    y 0.000000 1.545020 0.000000 
#    z 0.000000 0.000000 1.662630 
# 
# From -- ./inp_files/18470.got.cif
#   From: 2010.03.12/outbox.cif.g09.slc.cpg/sg46_10_cif.got.tgz:18470.got - 2010.04.14 02:56:35.
