data_PCOD8191768
_publ_section_title
;
Structure prediction by ZEFSAII (Michael W. Deem and Ramdas Pophale) SiO2 
 PCOD8191768
Probable space group: I M A 2
;
_chemical_formula_sum "Si O2"
_cell_formula_units_Z 64
_cell_length_a 9.287095
_cell_length_b 20.587328
_cell_length_c 19.383928
_cell_angle_alpha 90.000000
_cell_angle_beta 90.000000
_cell_angle_gamma 90.000000
_cell_volume 3706.138626
_symmetry_space_group_name_H-M "I M A 2"
_symmetry_group_IT_number 46
_symmetry_cell_setting 'orthorhombic'
loop_
_space_group_symop_operation_xyz
x,y,z
-x,-y,z
1/2-x,y,z
1/2+x,-y,z
1/2+x,1/2+y,1/2+z
1/2-x,1/2-y,1/2+z
-x,1/2+y,1/2+z
x,1/2-y,1/2+z
loop_
_atom_site_type_symbol
_atom_site_label
_atom_site_fract_x
_atom_site_fract_y
_atom_site_fract_z
Si Si1 0.083215 0.257625 0.895910
Si Si2 0.419901 0.436121 0.670153
Si Si3 0.414937 0.732283 0.028060
Si Si4 0.415433 0.193027 0.248778
Si Si5 0.914299 0.382881 0.544290
Si Si6 0.085060 0.873348 0.891204
Si Si7 0.581268 0.191857 0.675996
Si Si8 0.583379 0.436748 0.251083
O O1 0.250000 0.246634 0.911695
O O2 0.058558 0.305234 0.831030
O O3 0.014868 0.188357 0.877929
O O4 0.011458 0.289916 0.963436
O O5 0.500000 0.500000 0.698629
O O6 0.250000 0.448540 0.666407
O O7 0.460681 0.377939 0.721961
O O8 0.476662 0.420813 0.593351
O O9 0.250000 0.723772 0.005587
O O10 0.446574 0.806453 0.048711
O O11 0.453283 0.688715 0.094435
O O12 0.250000 0.207463 0.230619
O O13 0.507631 0.246894 0.210709
O O14 0.750000 0.397959 0.566693
O O15 0.944015 0.405947 0.465645
O O16 0.250000 0.848311 0.887493
O O17 0.054496 0.926328 0.832433
O O18 0.750000 0.200469 0.689708
O O19 0.523787 0.125321 0.709300
O O20 0.500000 0.500000 0.225338
O O21 0.750000 0.447832 0.234835
#
# Coordination Sequence:
#
# PCOD8191768 Si02
#       8
#     8   8   8   8   8   8   8   8
#     4  10  19  31  51  79 107 135 167 211 264 311
#     4  11  23  37  52  73 104 139 175 216 260 310
#     4   9  18  32  52  79 106 133 170 215 257 308
#     4  10  21  35  53  79 107 134 171 218 263 308
#     4   9  17  31  51  75 103 135 172 212 253 303
#     4   9  18  33  51  73 104 140 177 212 249 301
#     4  10  19  34  57  79 102 137 178 216 258 308
#     4  10  21  35  52  75 105 141 177 215 259 306
#
# _framework density 17.268647000000001
#
# number of rings (size 3 to 8) (size 9 to 14) (size 15 to 20)
#    0.000    2.250    2.500    1.500    0.000    5.000 
#    0.000    1.250    0.000    0.750    0.000    5.250 
#    0.000    0.000    0.000    0.000    0.000    0.000 
#
# Total GULP energy -396817.082177 kJ/mol
# GULP energy per Si atom -12400.533818 kJ/mol
# Density = 1.722934 g / cm^3
# Si number density = 17.268647 Si / 1000 Ang^3
#
#
#
# Elastic Constant Matrix: (Units=GPa)
#
#
# Indices 1 2 3 4 5 6 
#
# 1 81.2118 56.0116 51.9107 0.0000 0.0000 0.0000
# 2 56.0116 107.6977 60.1812 0.0000 0.0000 0.0000
# 3 51.9107 60.1812 97.5424 0.0000 0.0000 0.0000
# 4 0.0000 0.0000 0.0000 22.1668 0.0000 0.0000
# 5 0.0000 0.0000 0.0000 0.0000 23.3362 0.0000
# 6 0.0000 0.0000 0.0000 0.0000 0.0000 26.7906
#
#
#
# Elastic Compliance Matrix: (Units=1/GPa)
#
#
# Indices 1 2 3 4 5 6 
#
# 1 0.022010 -0.007481 -0.007098 0.000000 0.000000 0.000000
# 2 -0.007481 0.016713 -0.006331 0.000000 0.000000 0.000000
# 3 -0.007098 -0.006331 0.017935 0.000000 0.000000 0.000000
# 4 0.000000 0.000000 0.000000 0.045113 0.000000 0.000000
# 5 0.000000 0.000000 0.000000 0.000000 0.042852 0.000000
# 6 0.000000 0.000000 0.000000 0.000000 0.000000 0.037327
#
#
# Mechanical properties :
#
#
# Convention : Reuss Voigt Hill
#
# Bulk Modulus (GPa) = 67.38549 69.18432 68.28490
# Shear Modulus (GPa) = 21.86131 22.34860 22.10496
#
# Velocity S-wave (km/s) = 3.56188 3.60136 3.58168
# Velocity P-wave (km/s) = 7.48483 7.57916 7.53214
#
# Compressibility (1/GPa) = 0.01483999
#
# Stress axis : x y z
#
# Youngs Moduli (GPa) = 45.43411 59.83259 55.75611
#
# Poissons Ratio (x) = 0.44758 0.39576
# Poissons Ratio (y) = 0.33987 0.35297
# Poissons Ratio (z) = 0.32249 0.37878
#
# Static dielectric constant tensor:
#      x y z
#    x 3.230460 0.000000 0.000000 
#    y 0.000000 3.040800 0.000000 
#    z 0.000000 0.000000 3.452290 
# 
# 
# High freq. dielectric constant tensor:
#      x y z
#    x 1.668900 0.000000 0.000000 
#    y 0.000000 1.639170 0.000000 
#    z 0.000000 0.000000 1.671080 
# 
# From -- ./inp_files/21311.got.cif
#   From: 2010.03.12/outbox.cif.g09.slc.cpg/sg46_11_cif.got.tgz:21311.got - 2010.04.14 02:56:35.
