data_PCOD8191047
_publ_section_title
;
Structure prediction by ZEFSAII (Michael W. Deem and Ramdas Pophale) SiO2 
 PCOD8191047
Probable space group: I B A 2
;
_chemical_formula_sum "Si O2"
_cell_formula_units_Z 48
_cell_length_a 16.892267
_cell_length_b 9.199431
_cell_length_c 13.792302
_cell_angle_alpha 90.000000
_cell_angle_beta 90.000000
_cell_angle_gamma 90.000000
_cell_volume 2143.313313
_symmetry_space_group_name_H-M "I B A 2"
_symmetry_group_IT_number 45
_symmetry_cell_setting 'orthorhombic'
loop_
_space_group_symop_operation_xyz
x,y,z
-x,-y,z
-x,y,1/2+z
x,-y,1/2+z
1/2+x,1/2+y,1/2+z
1/2-x,1/2-y,1/2+z
1/2-x,1/2+y,z
1/2+x,1/2-y,z
loop_
_atom_site_type_symbol
_atom_site_label
_atom_site_fract_x
_atom_site_fract_y
_atom_site_fract_z
Si Si1 0.829765 0.046149 0.853460
Si Si2 0.410406 0.317245 0.675575
Si Si3 0.667319 0.802210 0.362438
Si Si4 0.084561 0.309815 0.672206
Si Si5 0.339287 0.439486 0.065668
Si Si6 0.159538 0.431351 0.072569
O O1 0.895132 0.098258 0.776228
O O2 0.746414 0.117702 0.825779
O O3 0.822108 0.872114 0.862948
O O4 0.857173 0.112145 0.956483
O O5 0.497241 0.252893 0.665946
O O6 0.399751 0.431867 0.589132
O O7 0.347645 0.188979 0.657234
O O8 0.601237 0.850173 0.284194
O O9 0.640340 0.861224 0.467570
O O10 0.148796 0.190661 0.640509
O O11 0.095630 0.444485 0.598692
O O12 0.248469 0.494659 0.075024
#
# Coordination Sequence:
#
# PCOD8191047 Si02
#       6
#     8   8   8   8   8   8
#     4  11  25  43  74 104 141 189 247 300 353 438
#     4  12  25  46  68 107 147 187 237 295 375 435
#     4  11  25  45  72 105 140 188 248 298 360 430
#     4  12  27  44  71 107 148 188 235 301 374 439
#     4  11  23  44  74 103 137 191 246 295 355 434
#     4  11  25  46  73 103 145 192 244 301 358 436
#
# _framework density 22.395232
#
# number of rings (size 3 to 8) (size 9 to 14) (size 15 to 20)
#    0.000    0.667    3.333    4.000    9.333    1.333 
#    3.000    1.667    0.000    0.000    0.000    0.000 
#    0.000    0.000    0.000    0.000    0.000    0.000 
#
# Total GULP energy -297577.746616 kJ/mol
# GULP energy per Si atom -12399.072776 kJ/mol
# Density = 2.234426 g / cm^3
# Si number density = 22.395232 Si / 1000 Ang^3
#
#
#
# Elastic Constant Matrix: (Units=GPa)
#
#
# Indices 1 2 3 4 5 6 
#
# 1 99.9881 60.9149 87.5502 0.0000 0.0000 0.0000
# 2 60.9149 142.0589 57.9797 0.0000 0.0000 0.0000
# 3 87.5502 57.9797 134.2250 0.0000 0.0000 0.0000
# 4 0.0000 0.0000 0.0000 43.6901 0.0000 0.0000
# 5 0.0000 0.0000 0.0000 0.0000 24.7364 0.0000
# 6 0.0000 0.0000 0.0000 0.0000 0.0000 44.3009
#
#
#
# Elastic Compliance Matrix: (Units=1/GPa)
#
#
# Indices 1 2 3 4 5 6 
#
# 1 0.026094 -0.005151 -0.014795 0.000000 0.000000 0.000000
# 2 -0.005151 0.009563 -0.000771 0.000000 0.000000 0.000000
# 3 -0.014795 -0.000771 0.017434 0.000000 0.000000 0.000000
# 4 0.000000 0.000000 0.000000 0.022888 0.000000 0.000000
# 5 0.000000 0.000000 0.000000 0.000000 0.040426 0.000000
# 6 0.000000 0.000000 0.000000 0.000000 0.000000 0.022573
#
#
# Mechanical properties :
#
#
# Convention : Reuss Voigt Hill
#
# Bulk Modulus (GPa) = 85.79073 87.68461 86.73767
# Shear Modulus (GPa) = 27.13011 33.86730 30.49871
#
# Velocity S-wave (km/s) = 3.48433 3.89299 3.69431
# Velocity P-wave (km/s) = 7.38770 7.71009 7.55061
#
# Compressibility (1/GPa) = 0.01165627
#
# Stress axis : x y z
#
# Youngs Moduli (GPa) = 38.32326 104.57389 57.36010
#
# Poissons Ratio (x) = 0.53861 0.84866
# Poissons Ratio (y) = 0.19738 0.04423
# Poissons Ratio (z) = 0.56700 0.08064
#
# Static dielectric constant tensor:
#      x y z
#    x 3.743330 0.000000 0.000000 
#    y 0.000000 4.355630 0.000000 
#    z 0.000000 0.000000 4.274940 
# 
# 
# High freq. dielectric constant tensor:
#      x y z
#    x 1.865520 0.000000 0.000000 
#    y 0.000000 1.895340 0.000000 
#    z 0.000000 0.000000 1.896980 
# 
# From -- ./inp_files/5599.got.cif
#   From: 2010.03.12/outbox.cif.g09.slc.cpg/sg45_3_cif.got.tgz:5599.got - 2010.04.14 02:50:11.
