data_PCOD8191318
_publ_section_title
;
Structure prediction by ZEFSAII (Michael W. Deem and Ramdas Pophale) SiO2 
 PCOD8191318
Probable space group: I M A 2
;
_chemical_formula_sum "Si O2"
_cell_formula_units_Z 56
_cell_length_a 9.099589
_cell_length_b 18.272630
_cell_length_c 20.711883
_cell_angle_alpha 90.000000
_cell_angle_beta 90.000000
_cell_angle_gamma 90.000000
_cell_volume 3443.835682
_symmetry_space_group_name_H-M "I M A 2"
_symmetry_group_IT_number 46
_symmetry_cell_setting 'orthorhombic'
loop_
_space_group_symop_operation_xyz
x,y,z
-x,-y,z
1/2-x,y,z
1/2+x,-y,z
1/2+x,1/2+y,1/2+z
1/2-x,1/2-y,1/2+z
-x,1/2+y,1/2+z
x,1/2-y,1/2+z
loop_
_atom_site_type_symbol
_atom_site_label
_atom_site_fract_x
_atom_site_fract_y
_atom_site_fract_z
Si Si1 0.579886 0.076260 0.503960
Si Si2 0.920661 0.851964 0.891941
Si Si3 0.581156 0.706103 0.953039
Si Si4 0.415234 0.851714 0.642583
Si Si5 0.922135 0.922597 0.757693
Si Si6 0.418032 0.927707 0.009435
Si Si7 0.415335 0.779320 0.063501
O O1 0.750000 0.064513 0.490124
O O2 0.517440 0.132957 0.450128
O O3 0.549650 0.107338 0.575412
O O4 0.500000 0.000000 0.495261
O O5 0.750000 0.868545 0.906453
O O6 0.950346 0.764062 0.895184
O O7 0.967484 0.877608 0.821015
O O8 0.016360 0.897185 0.942842
O O9 0.750000 0.681608 0.954808
O O10 0.542978 0.750886 0.017344
O O11 0.250000 0.870916 0.665540
O O12 0.530406 0.876134 0.695764
O O13 0.432441 0.763549 0.631569
O O14 0.750000 0.936262 0.753501
O O15 0.000000 0.000000 0.757983
O O16 0.250000 0.947969 0.995612
O O17 0.431979 0.867373 0.067162
O O18 0.500000 0.000000 0.033542
O O19 0.250000 0.760455 0.036172
#
# Coordination Sequence:
#
# PCOD8191318 Si02
#       7
#     8   8   8   8   8   8   8
#     4  10  19  30  45  67  93 118 146 181 222 265
#     4   9  19  33  46  63  89 120 152 184 217 257
#     4   9  16  28  46  65  86 113 145 182 223 264
#     4   9  18  32  47  63  86 117 151 184 217 256
#     4  11  22  33  45  64  90 120 153 184 214 251
#     4  10  18  28  45  68  92 117 145 180 222 265
#     4   8  16  30  45  62  86 115 146 181 220 264
#
# _framework density 16.260937999999999
#
# number of rings (size 3 to 8) (size 9 to 14) (size 15 to 20)
#    0.000    2.571    0.000    3.429    0.000    7.429 
#    0.000    0.000    0.000    0.000    0.000    1.000 
#    0.000    4.571    0.000    0.000    0.000    0.000 
#
# Total GULP energy -347014.520762 kJ/mol
# GULP energy per Si atom -12393.375741 kJ/mol
# Density = 1.622393 g / cm^3
# Si number density = 16.260938 Si / 1000 Ang^3
#
#
#
# Elastic Constant Matrix: (Units=GPa)
#
#
# Indices 1 2 3 4 5 6 
#
# 1 85.1015 63.4277 35.4784 0.0000 0.0000 0.0000
# 2 63.4277 142.6533 51.6974 0.0000 0.0000 0.0000
# 3 35.4784 51.6974 60.5498 0.0000 0.0000 0.0000
# 4 0.0000 0.0000 0.0000 24.5146 0.0000 0.0000
# 5 0.0000 0.0000 0.0000 0.0000 17.6607 0.0000
# 6 0.0000 0.0000 0.0000 0.0000 0.0000 29.3893
#
#
#
# Elastic Compliance Matrix: (Units=1/GPa)
#
#
# Indices 1 2 3 4 5 6 
#
# 1 0.018808 -0.006326 -0.005619 0.000000 0.000000 0.000000
# 2 -0.006326 0.012279 -0.006777 0.000000 0.000000 0.000000
# 3 -0.005619 -0.006777 0.025594 0.000000 0.000000 0.000000
# 4 0.000000 0.000000 0.000000 0.040792 0.000000 0.000000
# 5 0.000000 0.000000 0.000000 0.000000 0.056623 0.000000
# 6 0.000000 0.000000 0.000000 0.000000 0.000000 0.034026
#
#
# Mechanical properties :
#
#
# Convention : Reuss Voigt Hill
#
# Bulk Modulus (GPa) = 51.98449 65.50129 58.74289
# Shear Modulus (GPa) = 21.55371 23.49298 22.52335
#
# Velocity S-wave (km/s) = 3.64468 3.80511 3.72576
# Velocity P-wave (km/s) = 7.05336 7.72489 7.39675
#
# Compressibility (1/GPa) = 0.01923651
#
# Stress axis : x y z
#
# Youngs Moduli (GPa) = 53.16766 81.44118 39.07200
#
# Poissons Ratio (x) = 0.51523 0.21955
# Poissons Ratio (y) = 0.33636 0.26478
# Poissons Ratio (z) = 0.29875 0.55191
#
# Static dielectric constant tensor:
#      x y z
#    x 3.193230 0.000000 0.000000 
#    y 0.000000 3.379470 0.000000 
#    z 0.000000 0.000000 2.795060 
# 
# 
# High freq. dielectric constant tensor:
#      x y z
#    x 1.641000 0.000000 0.000000 
#    y 0.000000 1.635750 0.000000 
#    z 0.000000 0.000000 1.573010 
# 
# From -- ./inp_files/21205.got.cif
#   From: 2010.03.12/outbox.cif.g09.slc.cpg/sg46_11_cif.got.tgz:21205.got - 2010.04.14 02:56:35.
