data_PCOD8191737
_publ_section_title
;
Structure prediction by ZEFSAII (Michael W. Deem and Ramdas Pophale) SiO2 
 PCOD8191737
Probable space group: I M A 2
;
_chemical_formula_sum "Si O2"
_cell_formula_units_Z 64
_cell_length_a 35.231028
_cell_length_b 5.071990
_cell_length_c 18.191968
_cell_angle_alpha 90.000000
_cell_angle_beta 90.000000
_cell_angle_gamma 90.000000
_cell_volume 3250.748626
_symmetry_space_group_name_H-M "I M A 2"
_symmetry_group_IT_number 46
_symmetry_cell_setting 'orthorhombic'
loop_
_space_group_symop_operation_xyz
x,y,z
-x,-y,z
1/2-x,y,z
1/2+x,-y,z
1/2+x,1/2+y,1/2+z
1/2-x,1/2-y,1/2+z
-x,1/2+y,1/2+z
x,1/2-y,1/2+z
loop_
_atom_site_type_symbol
_atom_site_label
_atom_site_fract_x
_atom_site_fract_y
_atom_site_fract_z
Si Si1 0.663344 0.229231 0.218400
Si Si2 0.413160 0.910176 0.297848
Si Si3 0.836656 0.270763 0.044340
Si Si4 0.538586 0.894255 0.798478
Si Si5 0.586840 0.410182 0.964892
Si Si6 0.292316 0.266431 0.218699
Si Si7 0.792315 0.766427 0.044040
Si Si8 0.538586 0.605739 0.464265
O O1 0.623958 0.123728 0.249537
O O2 0.658952 0.249994 0.131370
O O3 0.678200 0.511306 0.248035
O O4 0.694412 0.018867 0.246120
O O5 0.431743 0.626730 0.296528
O O6 0.402500 0.993153 0.381370
O O7 0.441478 0.133830 0.263018
O O8 0.805587 0.481126 0.016621
O O9 0.821800 0.988690 0.014702
O O10 0.876041 0.376271 0.013202
O O11 0.527053 0.811997 0.881372
O O12 0.500000 0.000000 0.758161
O O13 0.558524 0.633841 0.999725
O O14 0.568256 0.126742 0.966213
O O15 0.250000 0.327232 0.248472
O O16 0.291966 0.249996 0.131370
O O17 0.750000 0.827229 0.014266
O O18 0.500000 0.500000 0.504582
#
# Coordination Sequence:
#
# PCOD8191737 Si02
#       8
#     8   8   8   8   8   8   8   8
#     4  10  19  31  49  72  96 124 157 196 240 285
#     4  10  19  31  49  72  98 126 156 196 241 283
#     4  10  19  31  49  72  96 124 157 196 240 285
#     4   9  17  30  49  72  95 122 160 199 232 273
#     4  10  19  31  49  72  98 126 156 196 241 283
#     4   9  17  30  49  71  93 121 161 202 235 274
#     4   9  17  30  49  71  93 121 161 202 235 274
#     4   9  17  30  49  72  95 122 160 199 232 273
#
# _framework density 19.687771999999999
#
# number of rings (size 3 to 8) (size 9 to 14) (size 15 to 20)
#    0.000    2.500    0.000    3.000    0.000    6.000 
#    0.000    0.000    0.000    7.500    0.000    0.000 
#    0.000    0.000    0.000    0.000    0.000    0.000 
#
# Total GULP energy -396496.230603 kJ/mol
# GULP energy per Si atom -12390.507206 kJ/mol
# Density = 1.964296 g / cm^3
# Si number density = 19.687772 Si / 1000 Ang^3
#
#
#
# Elastic Constant Matrix: (Units=GPa)
#
#
# Indices 1 2 3 4 5 6 
#
# 1 119.8271 33.1092 22.0322 0.0000 0.0000 0.0000
# 2 33.1092 116.8057 17.9121 0.0000 0.0000 0.0000
# 3 22.0322 17.9121 17.6999 0.0000 0.0000 0.0000
# 4 0.0000 0.0000 0.0000 14.8886 0.0000 0.0000
# 5 0.0000 0.0000 0.0000 0.0000 22.1865 0.0000
# 6 0.0000 0.0000 0.0000 0.0000 0.0000 48.1794
#
#
#
# Elastic Compliance Matrix: (Units=1/GPa)
#
#
# Indices 1 2 3 4 5 6 
#
# 1 0.010963 -0.001201 -0.012430 0.000000 0.000000 0.000000
# 2 -0.001201 0.010266 -0.008893 0.000000 0.000000 0.000000
# 3 -0.012430 -0.008893 0.080970 0.000000 0.000000 0.000000
# 4 0.000000 0.000000 0.000000 0.067166 0.000000 0.000000
# 5 0.000000 0.000000 0.000000 0.000000 0.045072 0.000000
# 6 0.000000 0.000000 0.000000 0.000000 0.000000 0.020756
#
#
# Mechanical properties :
#
#
# Convention : Reuss Voigt Hill
#
# Bulk Modulus (GPa) = 17.49821 44.49328 30.99575
# Shear Modulus (GPa) = 16.70609 29.13617 22.92113
#
# Velocity S-wave (km/s) = 2.91615 3.85114 3.41579
# Velocity P-wave (km/s) = 4.49953 6.51333 5.59773
#
# Compressibility (1/GPa) = 0.05714869
#
# Stress axis : x y z
#
# Youngs Moduli (GPa) = 91.21733 97.41355 12.35020
#
# Poissons Ratio (x) = 0.11702 0.15352
# Poissons Ratio (y) = 0.10958 0.10983
# Poissons Ratio (z) = 1.13387 0.86633
#
# Static dielectric constant tensor:
#      x y z
#    x 3.745850 0.000000 0.000000 
#    y 0.000000 4.018180 0.000000 
#    z 0.000000 0.000000 3.054880 
# 
# 
# High freq. dielectric constant tensor:
#      x y z
#    x 1.781500 0.000000 0.000000 
#    y 0.000000 1.793530 0.000000 
#    z 0.000000 0.000000 1.687730 
# 
# From -- ./inp_files/20546.got.cif
#   From: 2010.03.12/outbox.cif.g09.slc.cpg/sg46_11_cif.got.tgz:20546.got - 2010.04.14 02:56:35.
