data_PCOD8191729
_publ_section_title
;
Structure prediction by ZEFSAII (Michael W. Deem and Ramdas Pophale) SiO2 
 PCOD8191729
Probable space group: I M A 2
;
_chemical_formula_sum "Si O2"
_cell_formula_units_Z 64
_cell_length_a 9.061982
_cell_length_b 23.189710
_cell_length_c 18.804280
_cell_angle_alpha 90.000000
_cell_angle_beta 90.000000
_cell_angle_gamma 90.000000
_cell_volume 3951.620430
_symmetry_space_group_name_H-M "I M A 2"
_symmetry_group_IT_number 46
_symmetry_cell_setting 'orthorhombic'
loop_
_space_group_symop_operation_xyz
x,y,z
-x,-y,z
1/2-x,y,z
1/2+x,-y,z
1/2+x,1/2+y,1/2+z
1/2-x,1/2-y,1/2+z
-x,1/2+y,1/2+z
x,1/2-y,1/2+z
loop_
_atom_site_type_symbol
_atom_site_label
_atom_site_fract_x
_atom_site_fract_y
_atom_site_fract_z
Si Si1 0.580987 0.230261 0.539010
Si Si2 0.077580 0.060953 0.032265
Si Si3 0.921066 0.725468 0.331989
Si Si4 0.577979 0.884262 0.184863
Si Si5 0.578440 0.058078 0.315629
Si Si6 0.919742 0.754657 0.175932
Si Si7 0.076268 0.658186 0.448471
Si Si8 0.919863 0.170609 0.399171
O O1 0.750000 0.230211 0.561088
O O2 0.492192 0.219915 0.611200
O O3 0.536703 0.291013 0.503490
O O4 0.544730 0.179187 0.482907
O O5 0.250000 0.054160 0.016559
O O6 0.006255 0.100669 0.971793
O O7 0.047311 0.088183 0.108740
O O8 0.000000 0.000000 0.027878
O O9 0.750000 0.719554 0.353193
O O10 0.944282 0.717969 0.247513
O O11 0.015861 0.676422 0.371031
O O12 0.974624 0.789477 0.352179
O O13 0.750000 0.885790 0.205800
O O14 0.487706 0.921168 0.241313
O O15 0.514387 0.819156 0.184283
O O16 0.750000 0.045832 0.303394
O O17 0.551678 0.104720 0.377830
O O18 0.500000 0.000000 0.341616
O O19 0.750000 0.761757 0.156500
O O20 0.250000 0.646994 0.443395
O O21 0.750000 0.189375 0.384747
#
# Coordination Sequence:
#
# PCOD8191729 Si02
#       8
#     8   8   8   8   8   8   8   8
#     4   9  18  31  49  70  95 125 160 200 245 293
#     4  11  22  35  51  70  98 134 172 209 246 288
#     4  10  19  31  50  72  98 128 160 201 246 292
#     4  10  20  34  48  69 101 134 171 205 237 286
#     4  11  22  34  50  69  97 133 172 209 245 288
#     4  10  19  31  48  74 102 129 161 198 242 294
#     4  10  20  34  50  71  98 128 166 206 246 293
#     4   9  19  34  48  69  96 127 164 204 245 292
#
# _framework density 16.195888
#
# number of rings (size 3 to 8) (size 9 to 14) (size 15 to 20)
#    0.000    2.000    2.500    2.625    0.000    6.000 
#    0.000    0.000    0.000    0.000    0.000    0.875 
#    0.000    4.000    0.000    0.000    0.000    0.000 
#
# Total GULP energy -396865.367685 kJ/mol
# GULP energy per Si atom -12402.042740 kJ/mol
# Density = 1.615903 g / cm^3
# Si number density = 16.195888 Si / 1000 Ang^3
#
#
#
# Elastic Constant Matrix: (Units=GPa)
#
#
# Indices 1 2 3 4 5 6 
#
# 1 83.1870 44.5653 54.3203 0.0000 0.0000 0.0000
# 2 44.5653 76.3560 44.5272 0.0000 0.0000 0.0000
# 3 54.3203 44.5272 97.9144 0.0000 0.0000 0.0000
# 4 0.0000 0.0000 0.0000 22.7616 0.0000 0.0000
# 5 0.0000 0.0000 0.0000 0.0000 29.3041 0.0000
# 6 0.0000 0.0000 0.0000 0.0000 0.0000 26.6224
#
#
#
# Elastic Compliance Matrix: (Units=1/GPa)
#
#
# Indices 1 2 3 4 5 6 
#
# 1 0.021730 -0.007693 -0.008557 0.000000 0.000000 0.000000
# 2 -0.007693 0.020546 -0.005076 0.000000 0.000000 0.000000
# 3 -0.008557 -0.005076 0.017268 0.000000 0.000000 0.000000
# 4 0.000000 0.000000 0.000000 0.043934 0.000000 0.000000
# 5 0.000000 0.000000 0.000000 0.000000 0.034125 0.000000
# 6 0.000000 0.000000 0.000000 0.000000 0.000000 0.037562
#
#
# Mechanical properties :
#
#
# Convention : Reuss Voigt Hill
#
# Bulk Modulus (GPa) = 59.19339 60.47589 59.83464
# Shear Modulus (GPa) = 22.37661 23.34060 22.85861
#
# Velocity S-wave (km/s) = 3.72105 3.80036 3.76091
# Velocity P-wave (km/s) = 7.42222 7.52850 7.47555
#
# Compressibility (1/GPa) = 0.01689378
#
# Stress axis : x y z
#
# Youngs Moduli (GPa) = 46.01984 48.67018 57.90927
#
# Poissons Ratio (x) = 0.37441 0.49552
# Poissons Ratio (y) = 0.35402 0.29394
# Poissons Ratio (z) = 0.39378 0.24705
#
# Static dielectric constant tensor:
#      x y z
#    x 3.135900 0.000000 0.000000 
#    y 0.000000 2.955300 0.000000 
#    z 0.000000 0.000000 3.030700 
# 
# 
# High freq. dielectric constant tensor:
#      x y z
#    x 1.634110 0.000000 0.000000 
#    y 0.000000 1.597930 0.000000 
#    z 0.000000 0.000000 1.616120 
# 
# From -- ./inp_files/18554.got.cif
#   From: 2010.03.12/outbox.cif.g09.slc.cpg/sg46_10_cif.got.tgz:18554.got - 2010.04.14 02:56:35.
