data_PCOD8191491
_publ_section_title
;
Structure prediction by ZEFSAII (Michael W. Deem and Ramdas Pophale) SiO2 
 PCOD8191491
Probable space group: I M A 2
;
_chemical_formula_sum "Si O2"
_cell_formula_units_Z 64
_cell_length_a 8.756939
_cell_length_b 19.657388
_cell_length_c 20.674410
_cell_angle_alpha 90.000000
_cell_angle_beta 90.000000
_cell_angle_gamma 90.000000
_cell_volume 3558.862910
_symmetry_space_group_name_H-M "I M A 2"
_symmetry_group_IT_number 46
_symmetry_cell_setting 'orthorhombic'
loop_
_space_group_symop_operation_xyz
x,y,z
-x,-y,z
1/2-x,y,z
1/2+x,-y,z
1/2+x,1/2+y,1/2+z
1/2-x,1/2-y,1/2+z
-x,1/2+y,1/2+z
x,1/2-y,1/2+z
loop_
_atom_site_type_symbol
_atom_site_label
_atom_site_fract_x
_atom_site_fract_y
_atom_site_fract_z
Si Si1 0.926817 0.429656 0.317510
Si Si2 0.073080 0.785474 0.238666
Si Si3 0.929880 0.791686 0.477694
Si Si4 0.569183 0.931151 0.423021
Si Si5 0.570061 0.707896 0.122211
Si Si6 0.571885 0.071051 0.666218
Si Si7 0.568973 0.793459 0.857757
Si Si8 0.572374 0.067321 0.283218
O O1 0.750000 0.431736 0.334281
O O2 0.956921 0.417423 0.241974
O O3 0.000000 0.500000 0.340978
O O4 0.004375 0.369259 0.356926
O O5 0.250000 0.766094 0.246764
O O6 0.046968 0.866714 0.238418
O O7 0.014923 0.758571 0.170236
O O8 0.983629 0.750368 0.296709
O O9 0.750000 0.794119 0.469003
O O10 0.992215 0.867913 0.465157
O O11 0.973865 0.767774 0.549763
O O12 0.995800 0.740291 0.423739
O O13 0.750000 0.936723 0.423119
O O14 0.512946 0.920063 0.350262
O O15 0.500000 0.000000 0.453422
O O16 0.750000 0.710967 0.135054
O O17 0.514968 0.630652 0.129280
O O18 0.750000 0.071977 0.649047
O O19 0.500000 0.000000 0.643151
O O20 0.750000 0.796815 0.856302
O O21 0.750000 0.054528 0.296961
O O22 0.500000 0.000000 0.249191
#
# Coordination Sequence:
#
# PCOD8191491 Si02
#       8
#     8   8   8   8   8   8   8   8
#     4  10  20  34  54  82 114 141 178 225 272 323
#     4  11  22  36  54  82 112 140 181 228 271 324
#     4   9  21  37  53  78 110 144 185 225 265 324
#     4  10  18  32  51  75 108 143 180 219 260 314
#     4  11  22  37  56  78 109 148 186 224 272 323
#     4  10  20  34  52  77 111 146 184 225 266 320
#     4  11  20  35  59  82 108 144 182 225 274 321
#     4  10  20  33  53  80 110 138 175 223 269 318
#
# _framework density 17.983270999999998
#
# number of rings (size 3 to 8) (size 9 to 14) (size 15 to 20)
#    0.000    1.750    2.500    3.375    0.000    3.000 
#    0.000    6.250    0.000    0.750    0.000    1.750 
#    0.000    0.000    0.000    0.000    0.000    0.000 
#
# Total GULP energy -396830.065804 kJ/mol
# GULP energy per Si atom -12400.939556 kJ/mol
# Density = 1.794234 g / cm^3
# Si number density = 17.983271 Si / 1000 Ang^3
#
#
#
# Elastic Constant Matrix: (Units=GPa)
#
#
# Indices 1 2 3 4 5 6 
#
# 1 81.9529 45.7483 26.6377 0.0000 0.0000 0.0000
# 2 45.7483 129.8038 56.3731 0.0000 0.0000 0.0000
# 3 26.6377 56.3731 87.3772 0.0000 0.0000 0.0000
# 4 0.0000 0.0000 0.0000 25.6497 0.0000 0.0000
# 5 0.0000 0.0000 0.0000 0.0000 10.7245 0.0000
# 6 0.0000 0.0000 0.0000 0.0000 0.0000 33.9892
#
#
#
# Elastic Compliance Matrix: (Units=1/GPa)
#
#
# Indices 1 2 3 4 5 6 
#
# 1 0.015361 -0.004696 -0.001653 0.000000 0.000000 0.000000
# 2 -0.004696 0.012138 -0.006400 0.000000 0.000000 0.000000
# 3 -0.001653 -0.006400 0.016078 0.000000 0.000000 0.000000
# 4 0.000000 0.000000 0.000000 0.038987 0.000000 0.000000
# 5 0.000000 0.000000 0.000000 0.000000 0.093244 0.000000
# 6 0.000000 0.000000 0.000000 0.000000 0.000000 0.029421
#
#
# Mechanical properties :
#
#
# Convention : Reuss Voigt Hill
#
# Bulk Modulus (GPa) = 55.31252 61.85022 58.58137
# Shear Modulus (GPa) = 21.11909 25.43103 23.27506
#
# Velocity S-wave (km/s) = 3.43063 3.76460 3.60149
# Velocity P-wave (km/s) = 6.82033 7.30507 7.06686
#
# Compressibility (1/GPa) = 0.01807909
#
# Stress axis : x y z
#
# Youngs Moduli (GPa) = 65.10070 82.38402 62.19854
#
# Poissons Ratio (x) = 0.38686 0.10283
# Poissons Ratio (y) = 0.30570 0.39805
# Poissons Ratio (z) = 0.10763 0.52723
#
# Static dielectric constant tensor:
#      x y z
#    x 3.367100 0.000000 0.000000 
#    y 0.000000 3.546870 0.000000 
#    z 0.000000 0.000000 3.224550 
# 
# 
# High freq. dielectric constant tensor:
#      x y z
#    x 1.704660 0.000000 0.000000 
#    y 0.000000 1.705980 0.000000 
#    z 0.000000 0.000000 1.667930 
# 
# From -- ./inp_files/21450.got.cif
#   From: 2010.03.12/outbox.cif.g09.slc.cpg/sg46_11_cif.got.tgz:21450.got - 2010.04.14 02:56:35.
