data_PCOD8191557
_publ_section_title
;
Structure prediction by ZEFSAII (Michael W. Deem and Ramdas Pophale) SiO2 
 PCOD8191557
Probable space group: I M A 2
;
_chemical_formula_sum "Si O2"
_cell_formula_units_Z 56
_cell_length_a 25.836541
_cell_length_b 5.023848
_cell_length_c 26.846371
_cell_angle_alpha 90.000000
_cell_angle_beta 90.000000
_cell_angle_gamma 90.000000
_cell_volume 3484.628212
_symmetry_space_group_name_H-M "I M A 2"
_symmetry_group_IT_number 46
_symmetry_cell_setting 'orthorhombic'
loop_
_space_group_symop_operation_xyz
x,y,z
-x,-y,z
1/2-x,y,z
1/2+x,-y,z
1/2+x,1/2+y,1/2+z
1/2-x,1/2-y,1/2+z
-x,1/2+y,1/2+z
x,1/2-y,1/2+z
loop_
_atom_site_type_symbol
_atom_site_label
_atom_site_fract_x
_atom_site_fract_y
_atom_site_fract_z
Si Si1 0.810397 0.930456 0.643180
Si Si2 0.630832 0.017102 0.541621
Si Si3 0.467132 0.749506 0.509006
Si Si4 0.130742 0.983416 0.977841
Si Si5 0.310356 0.943004 0.205401
Si Si6 0.810510 0.504246 0.815072
Si Si7 0.189466 0.515385 0.377158
O O1 0.750000 0.914650 0.629020
O O2 0.832728 0.658038 0.666409
O O3 0.841347 0.994808 0.593781
O O4 0.821175 0.151166 0.684921
O O5 0.571413 0.121770 0.550852
O O6 0.659744 0.241708 0.507446
O O7 0.630875 0.739446 0.512998
O O8 0.500000 0.500000 0.530864
O O9 0.428705 0.617995 0.467152
O O10 0.500000 0.000000 0.487263
O O11 0.158748 0.054375 0.926933
O O12 0.250000 0.007980 0.210426
O O13 0.335991 0.972536 0.260243
O O14 0.750000 0.443850 0.810293
O O15 0.832477 0.288839 0.854178
O O16 0.822381 0.794958 0.835650
O O17 0.250000 0.525912 0.390764
#
# Coordination Sequence:
#
# PCOD8191557 Si02
#       7
#     8   8   8   8   8   8   8
#     4  10  19  30  45  67  99 131 159 188 222 269
#     4  10  20  31  47  70  95 126 153 192 222 284
#     4  10  18  34  51  66  89 120 150 198 242 268
#     4  10  20  31  47  70  95 126 153 192 222 284
#     4   9  17  29  45  64  90 128 167 198 224 253
#     4   9  17  29  45  64  90 128 167 198 224 253
#     4  10  19  30  45  67  99 131 159 188 222 269
#
# _framework density 16.07058
#
# number of rings (size 3 to 8) (size 9 to 14) (size 15 to 20)
#    0.857    1.429    1.429    2.571    0.000    4.571 
#    0.000    0.000    0.000    0.000    0.000    0.000 
#    0.000   22.857    0.000    0.000    0.000    0.000 
#
# Total GULP energy -346871.965115 kJ/mol
# GULP energy per Si atom -12388.284468 kJ/mol
# Density = 1.603400 g / cm^3
# Si number density = 16.070580 Si / 1000 Ang^3
#
#
#
# Elastic Constant Matrix: (Units=GPa)
#
#
# Indices 1 2 3 4 5 6 
#
# 1 50.6606 23.5254 35.6355 0.0000 0.0000 0.0000
# 2 23.5254 85.6891 13.3855 0.0000 0.0000 0.0000
# 3 35.6355 13.3855 82.7869 0.0000 0.0000 0.0000
# 4 0.0000 0.0000 0.0000 23.5616 0.0000 0.0000
# 5 0.0000 0.0000 0.0000 0.0000 -3.5179 0.0000
# 6 0.0000 0.0000 0.0000 0.0000 0.0000 7.9367
#
#
#
# Elastic Compliance Matrix: (Units=1/GPa)
#
#
# Indices 1 2 3 4 5 6 
#
# 1 0.031702 -0.006742 -0.012556 0.000000 0.000000 0.000000
# 2 -0.006742 0.013406 0.000735 0.000000 0.000000 0.000000
# 3 -0.012556 0.000735 0.017365 0.000000 0.000000 0.000000
# 4 0.000000 0.000000 0.000000 0.042442 0.000000 0.000000
# 5 0.000000 0.000000 0.000000 0.000000 -0.284262 0.000000
# 6 0.000000 0.000000 0.000000 0.000000 0.000000 0.125997
#
#
# Mechanical properties :
#
#
# Convention : Reuss Voigt Hill
#
# Bulk Modulus (GPa) = 39.45344 40.46991 39.96168
# Shear Modulus (GPa) = -643.28211 15.36877 -313.95667
#
# Velocity S-wave (km/s) = -20.02884 3.09581 -13.99233
# Velocity P-wave (km/s) = 22.58914 6.16571 15.36641
#
# Compressibility (1/GPa) = 0.02534633
#
# Stress axis : x y z
#
# Youngs Moduli (GPa) = 31.54348 74.59129 57.58656
#
# Poissons Ratio (x) = 0.50291 0.72306
# Poissons Ratio (y) = 0.21267 -0.04230
# Poissons Ratio (z) = 0.39606 -0.05479
#
# Static dielectric constant tensor:
#      x y z
#    x 2.755080 0.000000 0.000000 
#    y 0.000000 3.301700 0.000000 
#    z 0.000000 0.000000 2.945770 
# 
# 
# High freq. dielectric constant tensor:
#      x y z
#    x 1.565820 0.000000 0.000000 
#    y 0.000000 1.648500 0.000000 
#    z 0.000000 0.000000 1.601530 
# 
# From -- ./inp_files/22527.got.cif
#   From: 2010.03.12/outbox.cif.g09.slc.cpg/sg46_12_cif.got.tgz:22527.got - 2010.04.14 02:56:35.
