data_PCOD8191887
_publ_section_title
;
Structure prediction by ZEFSAII (Michael W. Deem and Ramdas Pophale) SiO2 
 PCOD8191887
Probable space group: I M A 2
;
_chemical_formula_sum "Si O2"
_cell_formula_units_Z 64
_cell_length_a 9.182123
_cell_length_b 32.634115
_cell_length_c 11.617071
_cell_angle_alpha 90.000000
_cell_angle_beta 90.000000
_cell_angle_gamma 90.000000
_cell_volume 3481.060645
_symmetry_space_group_name_H-M "I M A 2"
_symmetry_group_IT_number 46
_symmetry_cell_setting 'orthorhombic'
loop_
_space_group_symop_operation_xyz
x,y,z
-x,-y,z
1/2-x,y,z
1/2+x,-y,z
1/2+x,1/2+y,1/2+z
1/2-x,1/2-y,1/2+z
-x,1/2+y,1/2+z
x,1/2-y,1/2+z
loop_
_atom_site_type_symbol
_atom_site_label
_atom_site_fract_x
_atom_site_fract_y
_atom_site_fract_z
Si Si1 0.079224 0.041337 0.224430
Si Si2 0.410666 0.813995 0.258654
Si Si3 0.912319 0.398164 0.887310
Si Si4 0.419979 0.458637 0.458230
Si Si5 0.581628 0.722079 0.953824
Si Si6 0.578936 0.811926 0.031635
Si Si7 0.421025 0.139447 0.584712
Si Si8 0.922720 0.875649 0.842840
O O1 0.250000 0.037289 0.248630
O O2 0.013020 0.076597 0.301952
O O3 0.047011 0.051487 0.091356
O O4 0.000000 0.000000 0.261840
O O5 0.250000 0.797448 0.225980
O O6 0.396725 0.853422 0.336922
O O7 0.494526 0.780147 0.334029
O O8 0.498877 0.826469 0.145895
O O9 0.750000 0.417517 0.902071
O O10 0.992413 0.394319 0.010270
O O11 0.500000 0.500000 0.417885
O O12 0.250000 0.465874 0.437686
O O13 0.479738 0.420250 0.384091
O O14 0.750000 0.721278 0.918903
O O15 0.538361 0.764652 0.012398
O O16 0.544651 0.685667 0.042993
O O17 0.750000 0.818470 0.049568
O O18 0.519802 0.839930 0.927246
O O19 0.250000 0.129863 0.574377
O O20 0.478473 0.134467 0.714929
O O21 0.750000 0.875720 0.846275
#
# Coordination Sequence:
#
# PCOD8191887 Si02
#       8
#     8   8   8   8   8   8   8   8
#     4  10  19  32  54  82 110 137 171 216 270 322
#     4  10  21  35  51  73 105 140 173 214 266 323
#     4  10  20  35  53  74 103 139 178 217 260 313
#     4   9  18  33  53  78 107 139 171 213 265 317
#     4   9  19  33  54  78 101 134 177 224 268 315
#     4  10  20  33  55  81 105 133 176 229 270 320
#     4   9  18  34  54  75 102 139 179 218 267 321
#     4   9  18  33  54  79 106 137 177 223 270 319
#
# _framework density 18.385200999999999
#
# number of rings (size 3 to 8) (size 9 to 14) (size 15 to 20)
#    0.000    2.500    0.000    1.875    1.750    3.500 
#    0.000    2.500    0.000    1.500    0.000    0.000 
#    0.000    0.000    0.000    0.000    0.000    0.000 
#
# Total GULP energy -396794.133617 kJ/mol
# GULP energy per Si atom -12399.816676 kJ/mol
# Density = 1.834336 g / cm^3
# Si number density = 18.385201 Si / 1000 Ang^3
#
#
#
# Elastic Constant Matrix: (Units=GPa)
#
#
# Indices 1 2 3 4 5 6 
#
# 1 71.2965 34.0247 45.6745 0.0014 0.0009 0.0002
# 2 34.0247 88.0170 43.4060 0.0045 0.0021 0.0003
# 3 45.6745 43.4060 125.7987 0.0095 0.0043 0.0012
# 4 0.0014 0.0045 0.0095 21.2387 0.0024 0.0004
# 5 0.0009 0.0021 0.0043 0.0024 16.9920 0.0016
# 6 0.0002 0.0003 0.0012 0.0004 0.0016 23.0209
#
#
#
# Elastic Compliance Matrix: (Units=1/GPa)
#
#
# Indices 1 2 3 4 5 6 
#
# 1 0.019942 -0.004987 -0.005520 0.000002 0.000001 0.000000
# 2 -0.004987 0.014938 -0.003344 -0.000001 -0.000001 0.000000
# 3 -0.005520 -0.003344 0.011107 -0.000004 -0.000002 0.000000
# 4 0.000002 -0.000001 -0.000004 0.047084 -0.000007 -0.000001
# 5 0.000001 -0.000001 -0.000002 -0.000007 0.058851 -0.000004
# 6 0.000000 0.000000 0.000000 -0.000001 -0.000004 0.043439
#
#
# Mechanical properties :
#
#
# Convention : Reuss Voigt Hill
#
# Bulk Modulus (GPa) = 54.68519 59.03583 56.86051
# Shear Modulus (GPa) = 21.81912 23.05081 22.43496
#
# Velocity S-wave (km/s) = 3.44870 3.54470 3.49703
# Velocity P-wave (km/s) = 6.75772 6.99524 6.87751
#
# Compressibility (1/GPa) = 0.01828649
#
# Stress axis : x y z
#
# Youngs Moduli (GPa) = 50.14573 66.94261 90.03316
#
# Poissons Ratio (x) = 0.33383 0.49696
# Poissons Ratio (y) = 0.25007 0.30105
# Poissons Ratio (z) = 0.27679 0.22384
#
# Static dielectric constant tensor:
#      x y z
#    x 3.455380 0.000000 0.000000 
#    y 0.000000 3.441130 -0.000010 
#    z 0.000000 -0.000010 3.405150 
# 
# 
# High freq. dielectric constant tensor:
#      x y z
#    x 1.702210 0.000000 0.000000 
#    y 0.000000 1.707880 0.000000 
#    z 0.000000 0.000000 1.710720 
# 
# From -- ./inp_files/9804.got.cif
#   From: 2010.03.12/outbox.cif.g09.slc.cpg/sg46_5_cif.got.tgz:9804.got - 2010.04.14 02:56:35.
