data_PCOD8191004
_publ_section_title
;
Structure prediction by ZEFSAII (Michael W. Deem and Ramdas Pophale) SiO2 
 PCOD8191004
Probable space group: I B A 2
;
_chemical_formula_sum "Si O2"
_cell_formula_units_Z 64
_cell_length_a 11.170434
_cell_length_b 22.395152
_cell_length_c 12.089202
_cell_angle_alpha 90.000000
_cell_angle_beta 90.000000
_cell_angle_gamma 90.000000
_cell_volume 3024.277899
_symmetry_space_group_name_H-M "I B A 2"
_symmetry_group_IT_number 45
_symmetry_cell_setting 'orthorhombic'
loop_
_space_group_symop_operation_xyz
x,y,z
-x,-y,z
-x,y,1/2+z
x,-y,1/2+z
1/2+x,1/2+y,1/2+z
1/2-x,1/2-y,1/2+z
1/2-x,1/2+y,z
1/2+x,1/2-y,z
loop_
_atom_site_type_symbol
_atom_site_label
_atom_site_fract_x
_atom_site_fract_y
_atom_site_fract_z
Si Si1 0.056604 0.206028 0.037760
Si Si2 0.124736 0.072903 0.406433
Si Si3 0.520997 0.809851 0.895368
Si Si4 0.317811 0.222876 0.704782
Si Si5 0.149290 0.875552 0.126384
Si Si6 0.789341 0.367802 0.027355
Si Si7 0.209345 0.654623 0.270657
Si Si8 0.143811 0.060945 0.862583
O O1 0.068683 0.254823 0.134776
O O2 0.189330 0.183315 0.008086
O O3 0.976266 0.153086 0.086993
O O4 0.007031 0.241082 0.930056
O O5 0.179305 0.076017 0.530815
O O6 0.179299 0.127186 0.336726
O O7 0.981743 0.081899 0.414927
O O8 0.153759 0.010217 0.348170
O O9 0.630448 0.810832 0.809882
O O10 0.409162 0.846667 0.846249
O O11 0.576844 0.845978 0.997885
O O12 0.245031 0.177314 0.627956
O O13 0.231730 0.276622 0.741032
O O14 0.149412 0.908814 0.242874
O O15 0.800414 0.384265 0.157532
O O16 0.749922 0.422165 0.947558
#
# Coordination Sequence:
#
# PCOD8191004 Si02
#       8
#     8   8   8   8   8   8   8   8
#     4  11  22  36  65  97 139 177 220 278 346 418
#     4  11  26  43  72  96 135 181 237 292 351 402
#     4  12  22  39  63  97 142 179 225 268 354 417
#     4  11  22  37  62  98 138 176 217 279 341 416
#     4  12  23  42  66 102 137 177 230 279 356 412
#     4  11  23  42  64  95 136 178 230 286 341 413
#     4  11  25  42  66 102 138 182 227 281 351 424
#     4  11  25  44  68  99 131 183 232 307 342 406
#
# _framework density 21.162075999999999
#
# number of rings (size 3 to 8) (size 9 to 14) (size 15 to 20)
#    0.000    0.750    2.500    6.750    3.500    1.000 
#    0.000    0.625    0.000    1.500    0.000    0.000 
#    0.000    0.000    0.000    0.000    0.000    0.000 
#
# Total GULP energy -396759.150343 kJ/mol
# GULP energy per Si atom -12398.723448 kJ/mol
# Density = 2.111391 g / cm^3
# Si number density = 21.162076 Si / 1000 Ang^3
#
#
#
# Elastic Constant Matrix: (Units=GPa)
#
#
# Indices 1 2 3 4 5 6 
#
# 1 85.5809 31.4105 27.0894 0.0001 0.0000 0.0000
# 2 31.4105 81.2692 39.7069 -0.0008 0.0000 0.0000
# 3 27.0894 39.7069 113.2668 -0.0012 0.0001 -0.0001
# 4 0.0001 -0.0008 -0.0012 34.5574 0.0001 0.0000
# 5 0.0000 0.0000 0.0001 0.0001 44.4025 0.0000
# 6 0.0000 0.0000 -0.0001 0.0000 0.0000 25.9231
#
#
#
# Elastic Compliance Matrix: (Units=1/GPa)
#
#
# Indices 1 2 3 4 5 6 
#
# 1 0.013894 -0.004521 -0.001738 0.000000 0.000000 0.000000
# 2 -0.004521 0.016319 -0.004640 0.000000 0.000000 0.000000
# 3 -0.001738 -0.004640 0.010871 0.000000 0.000000 0.000000
# 4 0.000000 0.000000 0.000000 0.028937 0.000000 0.000000
# 5 0.000000 0.000000 0.000000 0.000000 0.022521 0.000000
# 6 0.000000 0.000000 0.000000 0.000000 0.000000 0.038576
#
#
# Mechanical properties :
#
#
# Convention : Reuss Voigt Hill
#
# Bulk Modulus (GPa) = 51.84870 52.94782 52.39826
# Shear Modulus (GPa) = 31.37855 33.10395 32.24125
#
# Velocity S-wave (km/s) = 3.85486 3.95942 3.90749
# Velocity P-wave (km/s) = 6.66087 6.78065 6.72102
#
# Compressibility (1/GPa) = 0.01928689
#
# Stress axis : x y z
#
# Youngs Moduli (GPa) = 71.97180 61.27858 91.98907
#
# Poissons Ratio (x) = 0.27703 0.15989
# Poissons Ratio (y) = 0.32538 0.42679
# Poissons Ratio (z) = 0.12510 0.28430
#
# Static dielectric constant tensor:
#      x y z
#    x 3.706180 0.000000 0.000000 
#    y 0.000000 3.603780 0.000000 
#    z 0.000000 0.000000 4.126460 
# 
# 
# High freq. dielectric constant tensor:
#      x y z
#    x 1.822560 0.000000 0.000000 
#    y 0.000000 1.804880 0.000000 
#    z 0.000000 0.000000 1.850780 
# 
# From -- ./inp_files/3882.got.cif
#   From: 2010.03.12/outbox.cif.g09.slc.cpg/sg45_2_cif.got.tgz:3882.got - 2010.04.14 02:50:11.
