data_PCOD8191096
_publ_section_title
;
Structure prediction by ZEFSAII (Michael W. Deem and Ramdas Pophale) SiO2 
 PCOD8191096
Probable space group: I B A 2
;
_chemical_formula_sum "Si O2"
_cell_formula_units_Z 64
_cell_length_a 21.870656
_cell_length_b 14.293115
_cell_length_c 9.678340
_cell_angle_alpha 90.000000
_cell_angle_beta 90.000000
_cell_angle_gamma 90.000000
_cell_volume 3025.447161
_symmetry_space_group_name_H-M "I B A 2"
_symmetry_group_IT_number 45
_symmetry_cell_setting 'orthorhombic'
loop_
_space_group_symop_operation_xyz
x,y,z
-x,-y,z
-x,y,1/2+z
x,-y,1/2+z
1/2+x,1/2+y,1/2+z
1/2-x,1/2-y,1/2+z
1/2-x,1/2+y,z
1/2+x,1/2-y,z
loop_
_atom_site_type_symbol
_atom_site_label
_atom_site_fract_x
_atom_site_fract_y
_atom_site_fract_z
Si Si1 0.894451 0.086599 0.209600
Si Si2 0.180930 0.489927 0.323011
Si Si3 0.496964 0.273224 0.296419
Si Si4 0.099169 0.531974 0.077703
Si Si5 0.231454 0.841855 0.887765
Si Si6 0.099057 0.090409 0.392732
Si Si7 0.020068 0.350150 0.050336
Si Si8 0.735948 0.667206 0.207279
O O1 0.939652 0.171855 0.235981
O O2 0.826733 0.117703 0.252323
O O3 0.915266 0.998548 0.298795
O O4 0.896395 0.055915 0.050120
O O5 0.148394 0.449592 0.458647
O O6 0.233239 0.561376 0.367454
O O7 0.208651 0.401758 0.242466
O O8 0.131662 0.540925 0.225599
O O9 0.543257 0.338692 0.378861
O O10 0.471752 0.195056 0.400568
O O11 0.532991 0.224908 0.170236
O O12 0.070283 0.430059 0.061301
O O13 0.048436 0.611786 0.069074
O O14 0.161182 0.858672 0.846288
O O15 0.259097 0.763619 0.789165
O O16 0.237129 0.808076 0.045522
#
# Coordination Sequence:
#
# PCOD8191096 Si02
#       8
#     8   8   8   8   8   8   8   8
#     4  11  26  46  68  98 138 178 225 283 340 404
#     4  12  24  45  72 105 134 184 228 282 342 412
#     4  12  25  43  72  98 134 180 236 273 339 400
#     4  11  26  44  72  96 144 179 228 274 348 399
#     4  11  27  45  69 103 139 181 230 284 345 406
#     4  11  26  46  68  98 138 178 225 283 340 404
#     4  11  26  46  65 104 138 182 223 288 328 407
#     4  11  27  45  69 103 139 181 230 284 345 406
#
# _framework density 21.153898000000002
#
# number of rings (size 3 to 8) (size 9 to 14) (size 15 to 20)
#    0.000    0.750    3.750    1.875   10.500    4.000 
#    0.000    0.000    0.000    0.000    0.000    0.000 
#    0.000    0.000    0.000    0.000    0.000    0.000 
#
# Total GULP energy -397114.267828 kJ/mol
# GULP energy per Si atom -12409.820870 kJ/mol
# Density = 2.110575 g / cm^3
# Si number density = 21.153898 Si / 1000 Ang^3
#
#
#
# Elastic Constant Matrix: (Units=GPa)
#
#
# Indices 1 2 3 4 5 6 
#
# 1 72.0374 17.4276 19.3607 0.0000 0.0000 0.0000
# 2 17.4276 75.4869 27.2697 0.0000 0.0000 0.0000
# 3 19.3607 27.2697 84.0323 0.0000 0.0000 0.0000
# 4 0.0000 0.0000 0.0000 43.6236 0.0000 0.0000
# 5 0.0000 0.0000 0.0000 0.0000 34.4411 0.0000
# 6 0.0000 0.0000 0.0000 0.0000 0.0000 27.1702
#
#
#
# Elastic Compliance Matrix: (Units=1/GPa)
#
#
# Indices 1 2 3 4 5 6 
#
# 1 0.015218 -0.002545 -0.002680 0.000000 0.000000 0.000000
# 2 -0.002545 0.015432 -0.004422 0.000000 0.000000 0.000000
# 3 -0.002680 -0.004422 0.013953 0.000000 0.000000 0.000000
# 4 0.000000 0.000000 0.000000 0.022923 0.000000 0.000000
# 5 0.000000 0.000000 0.000000 0.000000 0.029035 0.000000
# 6 0.000000 0.000000 0.000000 0.000000 0.000000 0.036805
#
#
# Mechanical properties :
#
#
# Convention : Reuss Voigt Hill
#
# Bulk Modulus (GPa) = 39.51199 39.96361 39.73780
# Shear Modulus (GPa) = 31.03740 32.21356 31.62548
#
# Velocity S-wave (km/s) = 3.83459 3.90656 3.87074
# Velocity P-wave (km/s) = 6.19066 6.26747 6.22918
#
# Compressibility (1/GPa) = 0.02530877
#
# Stress axis : x y z
#
# Youngs Moduli (GPa) = 65.71285 64.79944 71.67141
#
# Poissons Ratio (x) = 0.16492 0.19209
# Poissons Ratio (y) = 0.16724 0.31690
# Poissons Ratio (z) = 0.17612 0.28652
#
# Static dielectric constant tensor:
#      x y z
#    x 3.888530 0.000000 0.000000 
#    y 0.000000 3.740050 0.000000 
#    z 0.000000 0.000000 3.916700 
# 
# 
# High freq. dielectric constant tensor:
#      x y z
#    x 1.841000 0.000000 0.000000 
#    y 0.000000 1.832890 0.000000 
#    z 0.000000 0.000000 1.843200 
# 
# From -- ./inp_files/2553.got.cif
#   From: 2010.03.12/outbox.cif.g09.slc.cpg/sg45_2_cif.got.tgz:2553.got - 2010.04.14 02:50:11.
