data_PCOD8191668
_publ_section_title
;
Structure prediction by ZEFSAII (Michael W. Deem and Ramdas Pophale) SiO2 
 PCOD8191668
Probable space group: I M A 2
;
_chemical_formula_sum "Si O2"
_cell_formula_units_Z 64
_cell_length_a 8.778346
_cell_length_b 26.134685
_cell_length_c 18.587332
_cell_angle_alpha 90.000000
_cell_angle_beta 90.000000
_cell_angle_gamma 90.000000
_cell_volume 4264.292836
_symmetry_space_group_name_H-M "I M A 2"
_symmetry_group_IT_number 46
_symmetry_cell_setting 'orthorhombic'
loop_
_space_group_symop_operation_xyz
x,y,z
-x,-y,z
1/2-x,y,z
1/2+x,-y,z
1/2+x,1/2+y,1/2+z
1/2-x,1/2-y,1/2+z
-x,1/2+y,1/2+z
x,1/2-y,1/2+z
loop_
_atom_site_type_symbol
_atom_site_label
_atom_site_fract_x
_atom_site_fract_y
_atom_site_fract_z
Si Si1 0.569821 0.054090 0.776990
Si Si2 0.423997 0.292362 0.485942
Si Si3 0.073592 0.748593 0.112826
Si Si4 0.927675 0.358942 0.035945
Si Si5 0.925519 0.644966 0.353813
Si Si6 0.927330 0.299685 0.906503
Si Si7 0.930239 0.240902 0.774834
Si Si8 0.570012 0.554038 0.125182
O O1 0.750000 0.049118 0.770295
O O2 0.526078 0.095400 0.837003
O O3 0.502413 0.072064 0.700517
O O4 0.500000 0.000000 0.800532
O O5 0.250000 0.274778 0.487364
O O6 0.486943 0.293241 0.567687
O O7 0.443013 0.344692 0.439988
O O8 0.521609 0.251604 0.443926
O O9 0.250000 0.762181 0.110069
O O10 0.040358 0.692133 0.082127
O O11 0.012502 0.751333 0.194363
O O12 0.750000 0.374511 0.040850
O O13 0.030883 0.404606 0.064704
O O14 0.985744 0.348736 0.952732
O O15 0.750000 0.634464 0.334068
O O16 0.980784 0.692549 0.306043
O O17 0.750000 0.301907 0.918379
O O18 0.968748 0.292798 0.821888
O O19 0.750000 0.228657 0.777210
O O20 0.500000 0.500000 0.101045
O O21 0.750000 0.548504 0.134052
#
# Coordination Sequence:
#
# PCOD8191668 Si02
#       8
#     8   8   8   8   8   8   8   8
#     4  11  21  33  47  62  82 108 137 172 208 244
#     4   9  17  27  40  58  82 108 137 171 204 238
#     4   9  17  27  41  60  84 111 140 170 201 241
#     4   9  16  27  41  59  83 112 142 172 205 242
#     4  10  19  30  43  61  83 110 142 174 206 243
#     4   8  15  27  42  58  80 108 138 170 205 242
#     4   9  16  27  43  63  84 111 143 173 205 244
#     4  11  21  32  45  61  82 108 138 174 209 244
#
# _framework density 15.008349000000001
#
# number of rings (size 3 to 8) (size 9 to 14) (size 15 to 20)
#    0.000    2.500    0.000    5.250    0.000    5.000 
#    0.000    0.000    0.000    0.000    0.000    0.000 
#    0.000    1.000    0.000    8.750    0.000    3.125 
#
# Total GULP energy -396477.592268 kJ/mol
# GULP energy per Si atom -12389.924758 kJ/mol
# Density = 1.497419 g / cm^3
# Si number density = 15.008349 Si / 1000 Ang^3
#
#
#
# Elastic Constant Matrix: (Units=GPa)
#
#
# Indices 1 2 3 4 5 6 
#
# 1 116.6307 32.8011 37.2967 0.0000 0.0000 0.0000
# 2 32.8011 67.7008 46.5594 0.0000 0.0000 0.0000
# 3 37.2967 46.5594 104.1994 0.0004 -0.0001 -0.0001
# 4 0.0000 0.0000 0.0004 25.6542 0.0000 0.0000
# 5 0.0000 0.0000 -0.0001 0.0000 18.7169 0.0000
# 6 0.0000 0.0000 -0.0001 0.0000 0.0000 20.5091
#
#
#
# Elastic Compliance Matrix: (Units=1/GPa)
#
#
# Indices 1 2 3 4 5 6 
#
# 1 0.010232 -0.003521 -0.002089 0.000000 0.000000 0.000000
# 2 -0.003521 0.022535 -0.008809 0.000000 0.000000 0.000000
# 3 -0.002089 -0.008809 0.014281 0.000000 0.000000 0.000000
# 4 0.000000 0.000000 0.000000 0.038980 0.000000 0.000000
# 5 0.000000 0.000000 0.000000 0.000000 0.053428 0.000000
# 6 0.000000 0.000000 0.000000 0.000000 0.000000 0.048759
#
#
# Mechanical properties :
#
#
# Convention : Reuss Voigt Hill
#
# Bulk Modulus (GPa) = 54.91500 57.98282 56.44891
# Shear Modulus (GPa) = 22.40917 24.43428 23.42173
#
# Velocity S-wave (km/s) = 3.86827 4.03928 3.95470
# Velocity P-wave (km/s) = 7.52466 7.77637 7.65155
#
# Compressibility (1/GPa) = 0.01820996
#
# Stress axis : x y z
#
# Youngs Moduli (GPa) = 97.72897 44.37567 70.02304
#
# Poissons Ratio (x) = 0.15623 0.14631
# Poissons Ratio (y) = 0.34407 0.61684
# Poissons Ratio (z) = 0.20419 0.39091
#
# Static dielectric constant tensor:
#      x y z
#    x 2.987880 0.000000 0.000000 
#    y 0.000000 2.734550 0.000000 
#    z 0.000000 0.000000 3.272870 
# 
# 
# High freq. dielectric constant tensor:
#      x y z
#    x 1.584540 0.000000 0.000000 
#    y 0.000000 1.536890 0.000000 
#    z 0.000000 0.000000 1.569770 
# 
# From -- ./inp_files/21478.got.cif
#   From: 2010.03.12/outbox.cif.g09.slc.cpg/sg46_11_cif.got.tgz:21478.got - 2010.04.14 02:56:35.
