data_PCOD8191756
_publ_section_title
;
Structure prediction by ZEFSAII (Michael W. Deem and Ramdas Pophale) SiO2 
 PCOD8191756
Probable space group: I M A 2
;
_chemical_formula_sum "Si O2"
_cell_formula_units_Z 56
_cell_length_a 9.235990
_cell_length_b 23.838868
_cell_length_c 13.515272
_cell_angle_alpha 90.000000
_cell_angle_beta 90.000000
_cell_angle_gamma 90.000000
_cell_volume 2975.732398
_symmetry_space_group_name_H-M "I M A 2"
_symmetry_group_IT_number 46
_symmetry_cell_setting 'orthorhombic'
loop_
_space_group_symop_operation_xyz
x,y,z
-x,-y,z
1/2-x,y,z
1/2+x,-y,z
1/2+x,1/2+y,1/2+z
1/2-x,1/2-y,1/2+z
-x,1/2+y,1/2+z
x,1/2-y,1/2+z
loop_
_atom_site_type_symbol
_atom_site_label
_atom_site_fract_x
_atom_site_fract_y
_atom_site_fract_z
Si Si1 0.584325 0.344260 0.507540
Si Si2 0.582982 0.870678 0.293643
Si Si3 0.581390 0.225113 0.194317
Si Si4 0.580528 0.941711 0.103523
Si Si5 0.416646 0.840315 0.782474
Si Si6 0.917689 0.944842 0.471752
Si Si7 0.579694 0.556852 0.197842
O O1 0.750000 0.362744 0.527585
O O2 0.541074 0.293794 0.582663
O O3 0.481814 0.397681 0.524190
O O4 0.564107 0.321803 0.396553
O O5 0.750000 0.853656 0.289786
O O6 0.493555 0.814835 0.274126
O O7 0.548993 0.918791 0.213304
O O8 0.536581 0.893546 0.401231
O O9 0.750000 0.220629 0.216196
O O10 0.530775 0.288966 0.213107
O O11 0.750000 0.950103 0.083093
O O12 0.500000 0.000000 0.088783
O O13 0.250000 0.856587 0.760002
O O14 0.518706 0.893065 0.763503
O O15 0.750000 0.958746 0.458919
O O16 0.956593 0.928757 0.583947
O O17 0.000000 0.000000 0.436584
O O18 0.500000 0.500000 0.230566
O O19 0.750000 0.549758 0.216528
#
# Coordination Sequence:
#
# PCOD8191756 Si02
#       7
#     8   8   8   8   8   8   8
#     4   9  19  36  54  74 104 137 169 209 255 304
#     4   9  18  32  50  75 107 139 172 211 255 304
#     4   9  19  35  54  77 104 134 171 212 253 301
#     4  10  19  31  50  76 105 138 175 214 256 302
#     4  10  21  37  57  79 103 134 170 209 255 305
#     4   9  18  32  50  75 106 138 172 211 256 305
#     4  10  21  37  56  78 105 136 171 212 256 303
#
# _framework density 18.818897
#
# number of rings (size 3 to 8) (size 9 to 14) (size 15 to 20)
#    0.000    2.571    0.000    1.286    0.000    4.571 
#    0.000    1.429    0.000    0.000    0.000    0.000 
#    0.000    0.000    0.000    0.000    0.000    0.000 
#
# Total GULP energy -347247.614492 kJ/mol
# GULP energy per Si atom -12401.700518 kJ/mol
# Density = 1.877606 g / cm^3
# Si number density = 18.818897 Si / 1000 Ang^3
#
#
#
# Elastic Constant Matrix: (Units=GPa)
#
#
# Indices 1 2 3 4 5 6 
#
# 1 71.6852 57.8511 33.6243 -0.0001 0.0000 0.0000
# 2 57.8511 134.6945 54.4449 0.0001 0.0000 0.0000
# 3 33.6243 54.4449 80.6346 0.0009 -0.0003 -0.0001
# 4 -0.0001 0.0001 0.0009 25.0579 -0.0001 -0.0001
# 5 0.0000 0.0000 -0.0003 -0.0001 25.4319 0.0001
# 6 0.0000 0.0000 -0.0001 -0.0001 0.0001 33.1467
#
#
#
# Elastic Compliance Matrix: (Units=1/GPa)
#
#
# Indices 1 2 3 4 5 6 
#
# 1 0.022198 -0.007967 -0.003877 0.000000 0.000000 0.000000
# 2 -0.007967 0.013070 -0.005503 0.000000 0.000000 0.000000
# 3 -0.003877 -0.005503 0.017734 -0.000001 0.000000 0.000000
# 4 0.000000 0.000000 -0.000001 0.039908 0.000000 0.000000
# 5 0.000000 0.000000 0.000000 0.000000 0.039321 0.000000
# 6 0.000000 0.000000 0.000000 0.000000 0.000000 0.030169
#
#
# Mechanical properties :
#
#
# Convention : Reuss Voigt Hill
#
# Bulk Modulus (GPa) = 54.62030 64.31722 59.46876
# Shear Modulus (GPa) = 24.60679 26.13357 25.37018
#
# Velocity S-wave (km/s) = 3.61994 3.73055 3.67566
# Velocity P-wave (km/s) = 6.82343 7.26685 7.04863
#
# Compressibility (1/GPa) = 0.01830821
#
# Stress axis : x y z
#
# Youngs Moduli (GPa) = 45.04956 76.50941 56.38861
#
# Poissons Ratio (x) = 0.60953 0.21863
# Poissons Ratio (y) = 0.35890 0.31031
# Poissons Ratio (z) = 0.17467 0.42103
#
# Static dielectric constant tensor:
#      x y z
#    x 3.449490 0.000000 0.000000 
#    y 0.000000 3.358330 0.000000 
#    z 0.000000 0.000000 3.512070 
# 
# 
# High freq. dielectric constant tensor:
#      x y z
#    x 1.730630 0.000000 0.000000 
#    y 0.000000 1.723130 0.000000 
#    z 0.000000 0.000000 1.730100 
# 
# From -- ./inp_files/14146.got.cif
#   From: 2010.03.12/outbox.cif.g09.slc.cpg/sg46_8_cif.got.tgz:14146.got - 2010.04.14 02:56:35.
