data_PCOD8191504
_publ_section_title
;
Structure prediction by ZEFSAII (Michael W. Deem and Ramdas Pophale) SiO2 
 PCOD8191504
Probable space group: I M A 2
;
_chemical_formula_sum "Si O2"
_cell_formula_units_Z 40
_cell_length_a 8.717498
_cell_length_b 25.873627
_cell_length_c 9.708383
_cell_angle_alpha 90.000000
_cell_angle_beta 90.000000
_cell_angle_gamma 90.000000
_cell_volume 2189.757742
_symmetry_space_group_name_H-M "I M A 2"
_symmetry_group_IT_number 46
_symmetry_cell_setting 'orthorhombic'
loop_
_space_group_symop_operation_xyz
x,y,z
-x,-y,z
1/2-x,y,z
1/2+x,-y,z
1/2+x,1/2+y,1/2+z
1/2-x,1/2-y,1/2+z
-x,1/2+y,1/2+z
x,1/2-y,1/2+z
loop_
_atom_site_type_symbol
_atom_site_label
_atom_site_fract_x
_atom_site_fract_y
_atom_site_fract_z
Si Si1 0.931308 0.443576 0.633150
Si Si2 0.569310 0.136735 0.912046
Si Si3 0.069336 0.137989 0.334472
Si Si4 0.931039 0.283606 0.635377
Si Si5 0.568245 0.164660 0.615387
O O1 0.750000 0.446452 0.647462
O O2 0.980291 0.415778 0.489816
O O3 0.000000 0.500000 0.633368
O O4 0.994613 0.411390 0.761347
O O5 0.750000 0.141506 0.902950
O O6 0.506086 0.138313 0.756491
O O7 0.510629 0.186062 0.999610
O O8 0.250000 0.133718 0.320858
O O9 0.011158 0.191694 0.269017
O O10 0.019794 0.136063 0.493383
O O11 0.750000 0.289951 0.658142
O O12 0.979595 0.224560 0.620397
O O13 0.750000 0.158402 0.594861
#
# Coordination Sequence:
#
# PCOD8191504 Si02
#       5
#     8   8   8   8   8
#     4  10  20  38  60  79  99 130 175 222 269 319
#     4   8  16  30  51  78 103 130 171 219 261 303
#     4  11  22  34  50  78 112 143 175 213 260 312
#     4   9  17  32  54  77 103 142 186 219 250 297
#     4  10  18  32  54  78 107 143 179 215 255 303
#
# _framework density 18.266863000000001
#
# number of rings (size 3 to 8) (size 9 to 14) (size 15 to 20)
#    0.000    2.400    0.000    4.800    0.000    4.000 
#    0.000    6.000    0.000    2.400    0.000    0.000 
#    0.000    0.000    0.000    0.000    0.000    0.000 
#
# Total GULP energy -247983.425895 kJ/mol
# GULP energy per Si atom -12399.171295 kJ/mol
# Density = 1.822529 g / cm^3
# Si number density = 18.266863 Si / 1000 Ang^3
#
#
#
# Elastic Constant Matrix: (Units=GPa)
#
#
# Indices 1 2 3 4 5 6 
#
# 1 68.0686 54.0576 44.4646 -0.0012 -0.0013 0.0000
# 2 54.0576 131.7186 72.8200 0.0007 0.0006 0.0000
# 3 44.4646 72.8200 167.9196 -0.0073 -0.0074 -0.0003
# 4 -0.0012 0.0007 -0.0073 13.7917 -0.0020 0.0001
# 5 -0.0013 0.0006 -0.0074 -0.0020 17.3140 -0.0008
# 6 0.0000 0.0000 -0.0003 0.0001 -0.0008 24.1319
#
#
#
# Elastic Compliance Matrix: (Units=1/GPa)
#
#
# Indices 1 2 3 4 5 6 
#
# 1 0.022615 -0.007853 -0.002583 0.000001 0.000001 0.000000
# 2 -0.007853 0.012713 -0.003434 -0.000003 -0.000002 0.000000
# 3 -0.002583 -0.003434 0.008128 0.000004 0.000003 0.000000
# 4 0.000001 -0.000003 0.000004 0.072507 0.000008 0.000000
# 5 0.000001 -0.000002 0.000003 0.000008 0.057757 0.000002
# 6 0.000000 0.000000 0.000000 0.000000 0.000002 0.041439
#
#
# Mechanical properties :
#
#
# Convention : Reuss Voigt Hill
#
# Bulk Modulus (GPa) = 63.62565 78.93234 71.27900
# Shear Modulus (GPa) = 20.15008 24.13850 22.14429
#
# Velocity S-wave (km/s) = 3.32489 3.63910 3.48554
# Velocity P-wave (km/s) = 7.04604 7.80781 7.43668
#
# Compressibility (1/GPa) = 0.01571693
#
# Stress axis : x y z
#
# Youngs Moduli (GPa) = 44.21830 78.65771 123.02895
#
# Poissons Ratio (x) = 0.61773 0.31774
# Poissons Ratio (y) = 0.34727 0.42244
# Poissons Ratio (z) = 0.11420 0.27009
#
# Static dielectric constant tensor:
#      x y z
#    x 3.134640 0.000000 0.000000 
#    y 0.000000 3.261690 0.000000 
#    z 0.000000 0.000000 3.702760 
# 
# 
# High freq. dielectric constant tensor:
#      x y z
#    x 1.687300 0.000000 0.000000 
#    y 0.000000 1.694790 0.000000 
#    z 0.000000 0.000000 1.717910 
# 
# From -- ./inp_files/3530.got.cif
#   From: 2010.03.12/outbox.cif.g09.slc.cpg/sg46_2_cif.got.tgz:3530.got - 2010.04.14 02:56:35.
