data_PCOD8191645
_publ_section_title
;
Structure prediction by ZEFSAII (Michael W. Deem and Ramdas Pophale) SiO2 
 PCOD8191645
Probable space group: I M A 2
;
_chemical_formula_sum "Si O2"
_cell_formula_units_Z 64
_cell_length_a 9.055722
_cell_length_b 26.413145
_cell_length_c 18.571411
_cell_angle_alpha 90.000000
_cell_angle_beta 90.000000
_cell_angle_gamma 90.000000
_cell_volume 4442.097622
_symmetry_space_group_name_H-M "I M A 2"
_symmetry_group_IT_number 46
_symmetry_cell_setting 'orthorhombic'
loop_
_space_group_symop_operation_xyz
x,y,z
-x,-y,z
1/2-x,y,z
1/2+x,-y,z
1/2+x,1/2+y,1/2+z
1/2-x,1/2-y,1/2+z
-x,1/2+y,1/2+z
x,1/2-y,1/2+z
loop_
_atom_site_type_symbol
_atom_site_label
_atom_site_fract_x
_atom_site_fract_y
_atom_site_fract_z
Si Si1 0.576918 0.051894 0.796350
Si Si2 0.419658 0.297683 0.502251
Si Si3 0.075951 0.752993 0.125976
Si Si4 0.920114 0.350681 0.054718
Si Si5 0.923499 0.647324 0.362103
Si Si6 0.917430 0.289694 0.926616
Si Si7 0.920390 0.240441 0.786035
Si Si8 0.422150 0.551100 0.129481
O O1 0.750000 0.048266 0.812624
O O2 0.506065 0.096033 0.843182
O O3 0.545194 0.063034 0.712700
O O4 0.500000 0.000000 0.820344
O O5 0.250000 0.295033 0.523363
O O6 0.508987 0.298824 0.577732
O O7 0.451986 0.344259 0.447865
O O8 0.463138 0.248084 0.458113
O O9 0.250000 0.757650 0.120144
O O10 0.017515 0.698951 0.095677
O O11 0.021249 0.758308 0.208268
O O12 0.750000 0.355518 0.076210
O O13 0.993458 0.402587 0.083102
O O14 0.942625 0.343608 0.967606
O O15 0.750000 0.643077 0.345419
O O16 0.987274 0.692981 0.314281
O O17 0.750000 0.271195 0.946105
O O18 0.936574 0.289164 0.839959
O O19 0.750000 0.222784 0.780547
O O20 0.500000 0.500000 0.103625
O O21 0.250000 0.543599 0.114767
#
# Coordination Sequence:
#
# PCOD8191645 Si02
#       8
#     8   8   8   8   8   8   8   8
#     4  10  19  30  43  58  78 104 135 170 203 234
#     4   9  17  27  38  55  79 104 130 161 195 231
#     4   9  16  26  40  57  77 102 132 163 195 235
#     4   8  13  23  38  53  72 100 129 155 188 227
#     4  10  19  29  41  58  81 108 136 164 197 239
#     4   8  14  25  40  56  75 101 131 161 194 232
#     4   9  16  26  41  60  80 104 135 167 198 234
#     4   9  17  28  40  55  76 101 130 163 195 226
#
# _framework density 14.407607
#
# number of rings (size 3 to 8) (size 9 to 14) (size 15 to 20)
#    0.000    3.000    0.000    2.625    0.000    4.500 
#    0.000    2.500    0.000    0.000    0.000    0.000 
#    0.000    1.000    0.000    7.500    0.000    1.375 
#
# Total GULP energy -396447.677653 kJ/mol
# GULP energy per Si atom -12388.989927 kJ/mol
# Density = 1.437481 g / cm^3
# Si number density = 14.407607 Si / 1000 Ang^3
#
#
#
# Elastic Constant Matrix: (Units=GPa)
#
#
# Indices 1 2 3 4 5 6 
#
# 1 52.6675 37.1081 39.2643 0.0000 0.0000 0.0000
# 2 37.1081 83.3892 57.4102 0.0000 0.0000 0.0000
# 3 39.2643 57.4102 119.7253 0.0004 0.0000 0.0000
# 4 0.0000 0.0000 0.0004 25.1555 0.0000 0.0000
# 5 0.0000 0.0000 0.0000 0.0000 17.0617 0.0000
# 6 0.0000 0.0000 0.0000 0.0000 0.0000 19.3357
#
#
#
# Elastic Compliance Matrix: (Units=1/GPa)
#
#
# Indices 1 2 3 4 5 6 
#
# 1 0.029578 -0.009680 -0.005059 0.000000 0.000000 0.000000
# 2 -0.009680 0.021069 -0.006929 0.000000 0.000000 0.000000
# 3 -0.005059 -0.006929 0.013334 0.000000 0.000000 0.000000
# 4 0.000000 0.000000 0.000000 0.039753 0.000000 0.000000
# 5 0.000000 0.000000 0.000000 0.000000 0.058611 0.000000
# 6 0.000000 0.000000 0.000000 0.000000 0.000000 0.051718
#
#
# Mechanical properties :
#
#
# Convention : Reuss Voigt Hill
#
# Bulk Modulus (GPa) = 48.43165 58.14966 53.29065
# Shear Modulus (GPa) = 18.91934 20.44389 19.68162
#
# Velocity S-wave (km/s) = 3.62767 3.77100 3.70003
# Velocity P-wave (km/s) = 7.15786 7.70770 7.43786
#
# Compressibility (1/GPa) = 0.02064766
#
# Stress axis : x y z
#
# Youngs Moduli (GPa) = 33.80846 47.46202 74.99658
#
# Poissons Ratio (x) = 0.45941 0.37940
# Poissons Ratio (y) = 0.32725 0.51963
# Poissons Ratio (z) = 0.17103 0.32885
#
# Static dielectric constant tensor:
#      x y z
#    x 2.776590 0.000000 0.000000 
#    y 0.000000 2.718680 0.000000 
#    z 0.000000 0.000000 3.082210 
# 
# 
# High freq. dielectric constant tensor:
#      x y z
#    x 1.547860 0.000000 0.000000 
#    y 0.000000 1.513790 0.000000 
#    z 0.000000 0.000000 1.546150 
# 
# From -- ./inp_files/18633.got.cif
#   From: 2010.03.12/outbox.cif.g09.slc.cpg/sg46_10_cif.got.tgz:18633.got - 2010.04.14 02:56:35.
