data_PCOD8191587
_publ_section_title
;
Structure prediction by ZEFSAII (Michael W. Deem and Ramdas Pophale) SiO2 
 PCOD8191587
Probable space group: I M A 2
;
_chemical_formula_sum "Si O2"
_cell_formula_units_Z 64
_cell_length_a 8.956947
_cell_length_b 23.639910
_cell_length_c 15.328217
_cell_angle_alpha 90.000000
_cell_angle_beta 90.000000
_cell_angle_gamma 90.000000
_cell_volume 3245.618448
_symmetry_space_group_name_H-M "I M A 2"
_symmetry_group_IT_number 46
_symmetry_cell_setting 'orthorhombic'
loop_
_space_group_symop_operation_xyz
x,y,z
-x,-y,z
1/2-x,y,z
1/2+x,-y,z
1/2+x,1/2+y,1/2+z
1/2-x,1/2-y,1/2+z
-x,1/2+y,1/2+z
x,1/2-y,1/2+z
loop_
_atom_site_type_symbol
_atom_site_label
_atom_site_fract_x
_atom_site_fract_y
_atom_site_fract_z
Si Si1 0.079147 0.356964 0.383800
Si Si2 0.577952 0.250281 0.640881
Si Si3 0.426714 0.439470 0.535217
Si Si4 0.924872 0.247240 0.439714
Si Si5 0.421234 0.360446 0.188272
Si Si6 0.426245 0.874052 0.386560
Si Si7 0.073468 0.559388 0.052532
Si Si8 0.077065 0.876950 0.191768
O O1 0.250000 0.343807 0.406263
O O2 0.015135 0.400918 0.455034
O O3 0.061714 0.383281 0.287192
O O4 0.992545 0.298135 0.384841
O O5 0.750000 0.231525 0.651626
O O6 0.533866 0.255718 0.540215
O O7 0.471652 0.204781 0.686259
O O8 0.547687 0.310179 0.686001
O O9 0.500000 0.500000 0.523684
O O10 0.250000 0.446584 0.534258
O O11 0.474580 0.411764 0.626336
O O12 0.750000 0.248818 0.422909
O O13 0.994517 0.187913 0.406599
O O14 0.250000 0.365416 0.157131
O O15 0.527591 0.396273 0.126208
O O16 0.250000 0.868377 0.396370
O O17 0.484901 0.918754 0.458274
O O18 0.469052 0.895411 0.289882
O O19 0.250000 0.552506 0.054390
O O20 0.000000 0.500000 0.074322
O O21 0.250000 0.890745 0.171500
#
# Coordination Sequence:
#
# PCOD8191587 Si02
#       8
#     8   8   8   8   8   8   8   8
#     4  10  23  40  58  86 121 153 191 240 291 344
#     4  10  19  34  60  91 122 155 193 235 287 347
#     4  11  24  42  61  82 113 151 195 245 292 344
#     4  10  18  34  61  90 118 154 193 231 285 348
#     4  11  23  39  60  88 121 157 196 239 291 348
#     4   9  19  36  59  86 120 154 190 235 282 342
#     4  11  23  42  62  84 115 153 199 247 296 347
#     4  10  20  37  61  89 119 154 193 235 286 345
#
# _framework density 19.718892
#
# number of rings (size 3 to 8) (size 9 to 14) (size 15 to 20)
#    0.000    1.750    2.500    1.875    0.000    4.500 
#    0.000    4.375    0.000    0.000    0.000    0.000 
#    0.000    0.000    0.000    0.000    0.000    0.000 
#
# Total GULP energy -396887.835167 kJ/mol
# GULP energy per Si atom -12402.744849 kJ/mol
# Density = 1.967401 g / cm^3
# Si number density = 19.718892 Si / 1000 Ang^3
#
#
#
# Elastic Constant Matrix: (Units=GPa)
#
#
# Indices 1 2 3 4 5 6 
#
# 1 57.4938 30.3564 30.2038 0.0000 0.0000 0.0000
# 2 30.3564 87.6798 27.3584 -0.0003 0.0001 0.0001
# 3 30.2038 27.3584 100.8374 -0.0005 0.0002 0.0003
# 4 0.0000 -0.0003 -0.0005 10.4552 0.0000 0.0000
# 5 0.0000 0.0001 0.0002 0.0000 25.6110 -0.0001
# 6 0.0000 0.0001 0.0003 0.0000 -0.0001 30.4473
#
#
#
# Elastic Compliance Matrix: (Units=1/GPa)
#
#
# Indices 1 2 3 4 5 6 
#
# 1 0.023625 -0.006524 -0.005307 0.000000 0.000000 0.000000
# 2 -0.006524 0.014261 -0.001915 0.000000 0.000000 0.000000
# 3 -0.005307 -0.001915 0.012026 0.000000 0.000000 0.000000
# 4 0.000000 0.000000 0.000000 0.095646 0.000000 0.000000
# 5 0.000000 0.000000 0.000000 0.000000 0.039046 0.000000
# 6 0.000000 0.000000 0.000000 0.000000 0.000000 0.032844
#
#
# Mechanical properties :
#
#
# Convention : Reuss Voigt Hill
#
# Bulk Modulus (GPa) = 44.59950 46.87203 45.73577
# Shear Modulus (GPa) = 19.80877 23.84219 21.82548
#
# Velocity S-wave (km/s) = 3.17291 3.48099 3.33052
# Velocity P-wave (km/s) = 6.00749 6.32282 6.16717
#
# Compressibility (1/GPa) = 0.02242177
#
# Stress axis : x y z
#
# Youngs Moduli (GPa) = 42.32726 70.11934 83.15286
#
# Poissons Ratio (x) = 0.45744 0.44125
# Poissons Ratio (y) = 0.27613 0.15926
# Poissons Ratio (z) = 0.22461 0.13429
#
# Static dielectric constant tensor:
#      x y z
#    x 3.399790 0.000000 0.000000 
#    y 0.000000 3.570440 0.000000 
#    z 0.000000 0.000000 3.800880 
# 
# 
# High freq. dielectric constant tensor:
#      x y z
#    x 1.751330 0.000000 0.000000 
#    y 0.000000 1.764880 0.000000 
#    z 0.000000 0.000000 1.784370 
# 
# From -- ./inp_files/14469.got.cif
#   From: 2010.03.12/outbox.cif.g09.slc.cpg/sg46_8_cif.got.tgz:14469.got - 2010.04.14 02:56:35.
