data_PCOD8191966
_publ_section_title
;
Structure prediction by ZEFSAII (Michael W. Deem and Ramdas Pophale) SiO2 
 PCOD8191966
Probable space group: I M A 2
;
_chemical_formula_sum "Si O2"
_cell_formula_units_Z 64
_cell_length_a 8.762281
_cell_length_b 19.544985
_cell_length_c 20.522425
_cell_angle_alpha 90.000000
_cell_angle_beta 90.000000
_cell_angle_gamma 90.000000
_cell_volume 3514.642815
_symmetry_space_group_name_H-M "I M A 2"
_symmetry_group_IT_number 46
_symmetry_cell_setting 'orthorhombic'
loop_
_space_group_symop_operation_xyz
x,y,z
-x,-y,z
1/2-x,y,z
1/2+x,-y,z
1/2+x,1/2+y,1/2+z
1/2-x,1/2-y,1/2+z
-x,1/2+y,1/2+z
x,1/2-y,1/2+z
loop_
_atom_site_type_symbol
_atom_site_label
_atom_site_fract_x
_atom_site_fract_y
_atom_site_fract_z
Si Si1 0.430128 0.295294 0.919790
Si Si2 0.573784 0.710050 0.669021
Si Si3 0.570096 0.707149 0.296468
Si Si4 0.569123 0.428711 0.871225
Si Si5 0.428910 0.713173 0.535096
Si Si6 0.571364 0.431161 0.482246
Si Si7 0.072334 0.431296 0.731626
Si Si8 0.930049 0.069905 0.833816
O O1 0.250000 0.306536 0.915875
O O2 0.488093 0.248626 0.859696
O O3 0.512579 0.368437 0.918123
O O4 0.475411 0.260754 0.987332
O O5 0.750000 0.724849 0.652934
O O6 0.520585 0.751799 0.732249
O O7 0.470523 0.733678 0.608676
O O8 0.546867 0.629622 0.680991
O O9 0.750000 0.696844 0.300044
O O10 0.490717 0.633572 0.292317
O O11 0.500000 0.500000 0.897158
O O12 0.750000 0.433161 0.872094
O O13 0.511241 0.412952 0.798630
O O14 0.250000 0.723523 0.521833
O O15 0.479554 0.634540 0.523727
O O16 0.500000 0.500000 0.512928
O O17 0.750000 0.441173 0.483595
O O18 0.513496 0.420669 0.408248
O O19 0.250000 0.442583 0.747381
O O20 0.000000 0.500000 0.700726
O O21 0.750000 0.066440 0.828087
O O22 0.000000 0.000000 0.804761
#
# Coordination Sequence:
#
# PCOD8191966 Si02
#       8
#     8   8   8   8   8   8   8   8
#     4  11  21  37  60  84 111 147 187 231 283 333
#     4  10  22  39  55  77 111 151 191 229 279 338
#     4  10  20  36  58  82 110 144 187 232 277 328
#     4  11  21  34  56  85 116 146 184 232 281 331
#     4  11  23  38  54  81 114 147 190 234 280 333
#     4   9  19  33  50  75 109 145 184 225 265 323
#     4  10  19  34  53  78 112 150 192 231 276 332
#     4  10  19  33  54  82 113 142 180 226 278 327
#
# _framework density 18.209530999999998
#
# number of rings (size 3 to 8) (size 9 to 14) (size 15 to 20)
#    0.000    1.750    2.500    3.375    0.000    4.000 
#    0.000    2.500    0.000    0.750    0.000    1.750 
#    0.000    0.000    0.000    0.000    0.000    0.000 
#
# Total GULP energy -396916.794553 kJ/mol
# GULP energy per Si atom -12403.649830 kJ/mol
# Density = 1.816809 g / cm^3
# Si number density = 18.209531 Si / 1000 Ang^3
#
#
#
# Elastic Constant Matrix: (Units=GPa)
#
#
# Indices 1 2 3 4 5 6 
#
# 1 83.9647 47.5768 32.0857 0.0000 0.0000 0.0000
# 2 47.5768 119.6449 47.9291 0.0000 0.0000 0.0000
# 3 32.0857 47.9291 86.9647 0.0000 0.0000 0.0000
# 4 0.0000 0.0000 0.0000 20.4001 0.0000 0.0000
# 5 0.0000 0.0000 0.0000 0.0000 25.4147 0.0000
# 6 0.0000 0.0000 0.0000 0.0000 0.0000 34.5798
#
#
#
# Elastic Compliance Matrix: (Units=1/GPa)
#
#
# Indices 1 2 3 4 5 6 
#
# 1 0.015989 -0.005127 -0.003074 0.000000 0.000000 0.000000
# 2 -0.005127 0.012370 -0.004926 0.000000 0.000000 0.000000
# 3 -0.003074 -0.004926 0.015348 0.000000 0.000000 0.000000
# 4 0.000000 0.000000 0.000000 0.049019 0.000000 0.000000
# 5 0.000000 0.000000 0.000000 0.000000 0.039347 0.000000
# 6 0.000000 0.000000 0.000000 0.000000 0.000000 0.028919
#
#
# Mechanical properties :
#
#
# Convention : Reuss Voigt Hill
#
# Bulk Modulus (GPa) = 57.29294 60.63972 58.96633
# Shear Modulus (GPa) = 25.89818 26.94444 26.42131
#
# Velocity S-wave (km/s) = 3.77534 3.85085 3.81328
# Velocity P-wave (km/s) = 7.10885 7.29009 7.20004
#
# Compressibility (1/GPa) = 0.01745416
#
# Stress axis : x y z
#
# Youngs Moduli (GPa) = 62.54154 80.84013 65.15572
#
# Poissons Ratio (x) = 0.41446 0.20027
# Poissons Ratio (y) = 0.32064 0.32096
# Poissons Ratio (z) = 0.19223 0.39822
#
# Static dielectric constant tensor:
#      x y z
#    x 3.311620 0.000000 0.000000 
#    y 0.000000 3.623810 0.000000 
#    z 0.000000 0.000000 3.089480 
# 
# 
# High freq. dielectric constant tensor:
#      x y z
#    x 1.712180 0.000000 0.000000 
#    y 0.000000 1.712250 0.000000 
#    z 0.000000 0.000000 1.675720 
# 
# From -- ./inp_files/21309.got.cif
#   From: 2010.03.12/outbox.cif.g09.slc.cpg/sg46_11_cif.got.tgz:21309.got - 2010.04.14 02:56:35.
