data_PCOD8191507
_publ_section_title
;
Structure prediction by ZEFSAII (Michael W. Deem and Ramdas Pophale) SiO2 
 PCOD8191507
Probable space group: I M A 2
;
_chemical_formula_sum "Si O2"
_cell_formula_units_Z 64
_cell_length_a 15.622036
_cell_length_b 9.168974
_cell_length_c 21.996425
_cell_angle_alpha 90.000000
_cell_angle_beta 90.000000
_cell_angle_gamma 90.000000
_cell_volume 3150.724846
_symmetry_space_group_name_H-M "I M A 2"
_symmetry_group_IT_number 46
_symmetry_cell_setting 'orthorhombic'
loop_
_space_group_symop_operation_xyz
x,y,z
-x,-y,z
1/2-x,y,z
1/2+x,-y,z
1/2+x,1/2+y,1/2+z
1/2-x,1/2-y,1/2+z
-x,1/2+y,1/2+z
x,1/2-y,1/2+z
loop_
_atom_site_type_symbol
_atom_site_label
_atom_site_fract_x
_atom_site_fract_y
_atom_site_fract_z
Si Si1 0.511348 0.656136 0.545610
Si Si2 0.153405 0.850254 0.579669
Si Si3 0.348574 0.288877 0.266117
Si Si4 0.917317 0.577495 0.674377
Si Si5 0.404530 0.443426 0.852430
Si Si6 0.909219 0.925574 0.487292
Si Si7 0.091948 0.934999 0.710459
Si Si8 0.343455 0.649598 0.749376
O O1 0.500000 0.500000 0.510709
O O2 0.419891 0.730587 0.563019
O O3 0.565601 0.610600 0.604766
O O4 0.573605 0.757833 0.506238
O O5 0.250000 0.783939 0.574202
O O6 0.141446 0.913203 0.647228
O O7 0.150002 0.989572 0.534913
O O8 0.250000 0.244353 0.271583
O O9 0.391537 0.229067 0.204499
O O10 0.397937 0.219037 0.323697
O O11 0.359266 0.462198 0.259212
O O12 0.845303 0.456002 0.689659
O O13 0.000000 0.500000 0.706271
O O14 0.500000 0.500000 0.856474
O O15 0.365938 0.433530 0.920578
O O16 0.352727 0.556219 0.810817
O O17 0.000000 0.000000 0.486398
O O18 0.086020 0.778005 0.743782
O O19 0.000000 0.000000 0.694969
O O20 0.250000 0.723589 0.750257
#
# Coordination Sequence:
#
# PCOD8191507 Si02
#       8
#     8   8   8   8   8   8   8   8
#     4  10  20  37  60  84 115 151 188 236 288 343
#     4  11  22  37  59  87 118 151 191 238 288 342
#     4  11  21  33  52  80 113 141 177 232 282 322
#     4  10  18  32  54  79 109 148 182 218 272 338
#     4  10  20  38  59  80 108 150 196 229 269 333
#     4   9  20  39  61  82 109 152 199 233 273 339
#     4  12  22  36  56  82 115 147 184 230 285 345
#     4  11  22  36  57  84 115 150 190 236 287 340
#
# _framework density 20.312785999999999
#
# number of rings (size 3 to 8) (size 9 to 14) (size 15 to 20)
#    0.000    1.500    0.000    9.750    0.000    1.000 
#    0.000    8.125    0.000    1.500    0.000    0.000 
#    0.000    0.000    0.000    0.000    0.000    0.000 
#
# Total GULP energy -396522.070720 kJ/mol
# GULP energy per Si atom -12391.314710 kJ/mol
# Density = 2.026655 g / cm^3
# Si number density = 20.312786 Si / 1000 Ang^3
#
#
#
# Elastic Constant Matrix: (Units=GPa)
#
#
# Indices 1 2 3 4 5 6 
#
# 1 84.8884 25.9205 27.7723 0.0000 0.0000 0.0000
# 2 25.9205 144.1613 61.9059 0.0000 0.0000 0.0000
# 3 27.7723 61.9059 116.9828 0.0000 0.0000 0.0000
# 4 0.0000 0.0000 0.0000 19.8195 0.0000 0.0000
# 5 0.0000 0.0000 0.0000 0.0000 4.6021 0.0000
# 6 0.0000 0.0000 0.0000 0.0000 0.0000 29.9097
#
#
#
# Elastic Compliance Matrix: (Units=1/GPa)
#
#
# Indices 1 2 3 4 5 6 
#
# 1 0.012959 -0.001306 -0.002386 0.000000 0.000000 0.000000
# 2 -0.001306 0.009108 -0.004510 0.000000 0.000000 0.000000
# 3 -0.002386 -0.004510 0.011501 0.000000 0.000000 0.000000
# 4 0.000000 0.000000 0.000000 0.050455 0.000000 0.000000
# 5 0.000000 0.000000 0.000000 0.000000 0.217292 0.000000
# 6 0.000000 0.000000 0.000000 0.000000 0.000000 0.033434
#
#
# Mechanical properties :
#
#
# Convention : Reuss Voigt Hill
#
# Bulk Modulus (GPa) = 58.25416 64.13667 61.19541
# Shear Modulus (GPa) = 14.01053 26.22851 20.11952
#
# Velocity S-wave (km/s) = 2.62914 3.59727 3.15061
# Velocity P-wave (km/s) = 6.16095 6.99263 6.58992
#
# Compressibility (1/GPa) = 0.01716616
#
# Stress axis : x y z
#
# Youngs Moduli (GPa) = 77.16435 109.79256 86.94719
#
# Poissons Ratio (x) = 0.14335 0.20743
# Poissons Ratio (y) = 0.10075 0.39212
# Poissons Ratio (z) = 0.18409 0.49516
#
# Static dielectric constant tensor:
#      x y z
#    x 3.656000 0.000000 0.000000 
#    y 0.000000 4.350150 0.000000 
#    z 0.000000 0.000000 3.739390 
# 
# 
# High freq. dielectric constant tensor:
#      x y z
#    x 1.790580 0.000000 0.000000 
#    y 0.000000 1.802480 0.000000 
#    z 0.000000 0.000000 1.769920 
# 
# From -- ./inp_files/23664.got.cif
#   From: 2010.03.12/outbox.cif.g09.slc.cpg/sg46_12_cif.got.tgz:23664.got - 2010.04.14 02:56:35.
