data_PCOD8191912
_publ_section_title
;
Structure prediction by ZEFSAII (Michael W. Deem and Ramdas Pophale) SiO2 
 PCOD8191912
Probable space group: I M A 2
;
_chemical_formula_sum "Si O2"
_cell_formula_units_Z 64
_cell_length_a 8.527849
_cell_length_b 27.811423
_cell_length_c 14.583926
_cell_angle_alpha 90.000000
_cell_angle_beta 90.000000
_cell_angle_gamma 90.000000
_cell_volume 3458.893294
_symmetry_space_group_name_H-M "I M A 2"
_symmetry_group_IT_number 46
_symmetry_cell_setting 'orthorhombic'
loop_
_space_group_symop_operation_xyz
x,y,z
-x,-y,z
1/2-x,y,z
1/2+x,-y,z
1/2+x,1/2+y,1/2+z
1/2-x,1/2-y,1/2+z
-x,1/2+y,1/2+z
x,1/2-y,1/2+z
loop_
_atom_site_type_symbol
_atom_site_label
_atom_site_fract_x
_atom_site_fract_y
_atom_site_fract_z
Si Si1 0.433566 0.137212 0.622740
Si Si2 0.064324 0.863081 0.170236
Si Si3 0.433478 0.719758 0.004104
Si Si4 0.064020 0.051446 0.288186
Si Si5 0.433225 0.176429 0.995840
Si Si6 0.065166 0.779334 0.298423
Si Si7 0.934823 0.171595 0.803011
Si Si8 0.064962 0.050956 0.497003
O O1 0.250000 0.131830 0.638294
O O2 0.468484 0.187307 0.573039
O O3 0.517121 0.135684 0.721684
O O4 0.501098 0.093082 0.562414
O O5 0.250000 0.860149 0.157801
O O6 0.994752 0.817575 0.227287
O O7 0.020055 0.911078 0.222769
O O8 0.980216 0.863179 0.071512
O O9 0.250000 0.711488 0.022828
O O10 0.471260 0.775464 0.020923
O O11 0.484428 0.705480 0.901131
O O12 0.250000 0.054179 0.276766
O O13 0.010788 0.061686 0.392956
O O14 0.000000 0.000000 0.256946
O O15 0.250000 0.187455 0.997179
O O16 0.482186 0.155397 0.896978
O O17 0.250000 0.780100 0.290716
O O18 0.005540 0.725437 0.276797
O O19 0.750000 0.170659 0.819433
O O20 0.250000 0.048943 0.502140
O O21 0.000000 0.000000 0.531943
#
# Coordination Sequence:
#
# PCOD8191912 Si02
#       8
#     8   8   8   8   8   8   8   8
#     4  11  21  33  51  79 108 137 174 220 267 312
#     4  11  20  33  54  79 105 138 177 217 261 317
#     4  10  19  33  51  75 107 144 181 216 255 311
#     4  10  20  36  55  79 108 139 172 212 260 312
#     4  11  22  36  52  74 105 141 178 223 268 308
#     4   8  17  31  49  73 103 136 174 213 251 299
#     4  10  20  36  54  74 102 141 182 219 259 313
#     4   9  20  36  55  79 110 140 171 210 257 310
#
# _framework density 18.503028
#
# number of rings (size 3 to 8) (size 9 to 14) (size 15 to 20)
#    0.000    2.000    0.000    5.250    0.000    2.500 
#    0.000    6.250    0.000    0.750    0.000    3.500 
#    0.000    0.000    0.000    0.000    0.000    0.000 
#
# Total GULP energy -396871.607155 kJ/mol
# GULP energy per Si atom -12402.237724 kJ/mol
# Density = 1.846091 g / cm^3
# Si number density = 18.503028 Si / 1000 Ang^3
#
#
#
# Elastic Constant Matrix: (Units=GPa)
#
#
# Indices 1 2 3 4 5 6 
#
# 1 55.8745 16.2577 26.5648 0.0000 0.0000 0.0000
# 2 16.2577 79.1217 64.6879 0.0000 0.0000 0.0000
# 3 26.5648 64.6879 129.3488 0.0005 0.0001 0.0000
# 4 0.0000 0.0000 0.0005 53.4292 0.0000 0.0000
# 5 0.0000 0.0000 0.0001 0.0000 29.9032 0.0000
# 6 0.0000 0.0000 0.0000 0.0000 0.0000 26.9095
#
#
#
# Elastic Compliance Matrix: (Units=1/GPa)
#
#
# Indices 1 2 3 4 5 6 
#
# 1 0.019908 -0.001265 -0.003456 0.000000 0.000000 0.000000
# 2 -0.001265 0.021461 -0.010473 0.000000 0.000000 0.000000
# 3 -0.003456 -0.010473 0.013678 0.000000 0.000000 0.000000
# 4 0.000000 0.000000 0.000000 0.018716 0.000000 0.000000
# 5 0.000000 0.000000 0.000000 0.000000 0.033441 0.000000
# 6 0.000000 0.000000 0.000000 0.000000 0.000000 0.037162
#
#
# Mechanical properties :
#
#
# Convention : Reuss Voigt Hill
#
# Bulk Modulus (GPa) = 40.55201 53.26287 46.90744
# Shear Modulus (GPa) = 27.32606 32.50402 29.91504
#
# Velocity S-wave (km/s) = 3.84714 4.19583 4.02526
# Velocity P-wave (km/s) = 6.45740 7.23338 6.85638
#
# Compressibility (1/GPa) = 0.02465969
#
# Stress axis : x y z
#
# Youngs Moduli (GPa) = 50.22991 46.59571 73.10819
#
# Poissons Ratio (x) = 0.05896 0.25265
# Poissons Ratio (y) = 0.06356 0.76566
# Poissons Ratio (z) = 0.17359 0.48800
#
# Static dielectric constant tensor:
#      x y z
#    x 3.295090 0.000000 0.000000 
#    y 0.000000 3.366240 0.000000 
#    z 0.000000 0.000000 3.601570 
# 
# 
# High freq. dielectric constant tensor:
#      x y z
#    x 1.716600 0.000000 0.000000 
#    y 0.000000 1.693270 0.000000 
#    z 0.000000 0.000000 1.723050 
# 
# From -- ./inp_files/14559.got.cif
#   From: 2010.03.12/outbox.cif.g09.slc.cpg/sg46_8_cif.got.tgz:14559.got - 2010.04.14 02:56:35.
