data_PCOD8191372
_publ_section_title
;
Structure prediction by ZEFSAII (Michael W. Deem and Ramdas Pophale) SiO2 
 PCOD8191372
Probable space group: I M A 2
;
_chemical_formula_sum "Si O2"
_cell_formula_units_Z 64
_cell_length_a 8.718764
_cell_length_b 22.335563
_cell_length_c 15.461119
_cell_angle_alpha 90.000000
_cell_angle_beta 90.000000
_cell_angle_gamma 90.000000
_cell_volume 3010.875163
_symmetry_space_group_name_H-M "I M A 2"
_symmetry_group_IT_number 46
_symmetry_cell_setting 'orthorhombic'
loop_
_space_group_symop_operation_xyz
x,y,z
-x,-y,z
1/2-x,y,z
1/2+x,-y,z
1/2+x,1/2+y,1/2+z
1/2-x,1/2-y,1/2+z
-x,1/2+y,1/2+z
x,1/2-y,1/2+z
loop_
_atom_site_type_symbol
_atom_site_label
_atom_site_fract_x
_atom_site_fract_y
_atom_site_fract_z
Si Si1 0.931590 0.434456 0.235080
Si Si2 0.072838 0.759488 0.324487
Si Si3 0.431592 0.686608 0.002224
Si Si4 0.076380 0.561732 0.422090
Si Si5 0.069847 0.318725 0.178390
Si Si6 0.571344 0.434738 0.607087
Si Si7 0.924580 0.624460 0.764858
Si Si8 0.426340 0.436503 0.938900
O O1 0.750000 0.434851 0.218347
O O2 0.981015 0.410108 0.331754
O O3 0.000000 0.500000 0.217728
O O4 0.012229 0.387359 0.172161
O O5 0.250000 0.741026 0.318646
O O6 0.020717 0.766517 0.425433
O O7 0.980182 0.710803 0.269190
O O8 0.046183 0.823880 0.282846
O O9 0.250000 0.681945 0.007039
O O10 0.495401 0.619893 0.985480
O O11 0.497215 0.712612 0.092929
O O12 0.250000 0.545368 0.403817
O O13 0.056953 0.598322 0.512060
O O14 0.000000 0.500000 0.441894
O O15 0.250000 0.315176 0.170660
O O16 0.500000 0.500000 0.604762
O O17 0.750000 0.437391 0.635840
O O18 0.465873 0.397614 0.670460
O O19 0.750000 0.649326 0.765816
O O20 0.943050 0.571624 0.835203
O O21 0.500000 0.500000 0.966190
O O22 0.250000 0.437767 0.967733
#
# Coordination Sequence:
#
# PCOD8191372 Si02
#       8
#     8   8   8   8   8   8   8   8
#     4  10  20  38  62  89 122 158 200 248 304 363
#     4  10  22  43  67  89 117 157 202 253 306 359
#     4  10  22  42  67  92 121 159 204 255 308 361
#     4   8  16  30  49  73 106 148 189 237 290 343
#     4  12  25  42  66  95 126 161 202 248 304 367
#     4  10  18  29  47  75 111 154 201 251 303 361
#     4  10  20  34  53  80 115 156 200 252 306 361
#     4  10  20  34  55  85 122 161 202 248 304 367
#
# _framework density 21.256277999999998
#
# number of rings (size 3 to 8) (size 9 to 14) (size 15 to 20)
#    0.000    2.000    0.000    3.750    0.000    5.500 
#    2.250    2.500    0.000    0.000    0.000    0.000 
#    0.000    0.000    0.000    0.000    0.000    0.000 
#
# Total GULP energy -396478.216201 kJ/mol
# GULP energy per Si atom -12389.944256 kJ/mol
# Density = 2.120790 g / cm^3
# Si number density = 21.256278 Si / 1000 Ang^3
#
#
#
# Elastic Constant Matrix: (Units=GPa)
#
#
# Indices 1 2 3 4 5 6 
#
# 1 102.6293 33.2692 47.4011 -0.0001 0.0000 0.0000
# 2 33.2692 61.4950 36.3820 -0.0001 0.0000 0.0000
# 3 47.4011 36.3820 119.7383 -0.0004 0.0001 0.0001
# 4 -0.0001 -0.0001 -0.0004 24.2929 0.0000 0.0000
# 5 0.0000 0.0000 0.0001 0.0000 29.9777 0.0000
# 6 0.0000 0.0000 0.0001 0.0000 0.0000 33.1521
#
#
#
# Elastic Compliance Matrix: (Units=1/GPa)
#
#
# Indices 1 2 3 4 5 6 
#
# 1 0.013020 -0.004870 -0.003674 0.000000 0.000000 0.000000
# 2 -0.004870 0.021647 -0.004649 0.000000 0.000000 0.000000
# 3 -0.003674 -0.004649 0.011219 0.000000 0.000000 0.000000
# 4 0.000000 0.000000 0.000000 0.041164 0.000000 0.000000
# 5 0.000000 0.000000 0.000000 0.000000 0.033358 0.000000
# 6 0.000000 0.000000 0.000000 0.000000 0.000000 0.030164
#
#
# Mechanical properties :
#
#
# Convention : Reuss Voigt Hill
#
# Bulk Modulus (GPa) = 51.28768 57.55194 54.41981
# Shear Modulus (GPa) = 27.25417 28.60524 27.92970
#
# Velocity S-wave (km/s) = 3.58463 3.67240 3.62878
# Velocity P-wave (km/s) = 6.42755 6.71685 6.57379
#
# Compressibility (1/GPa) = 0.01949786
#
# Stress axis : x y z
#
# Youngs Moduli (GPa) = 76.80779 46.19618 89.13554
#
# Poissons Ratio (x) = 0.22496 0.32752
# Poissons Ratio (y) = 0.37404 0.41444
# Poissons Ratio (z) = 0.28222 0.21479
#
# Static dielectric constant tensor:
#      x y z
#    x 3.829200 0.000000 0.000000 
#    y 0.000000 3.624790 0.000000 
#    z 0.000000 0.000000 4.361320 
# 
# 
# High freq. dielectric constant tensor:
#      x y z
#    x 1.839880 0.000000 0.000000 
#    y 0.000000 1.802050 0.000000 
#    z 0.000000 0.000000 1.853370 
# 
# From -- ./inp_files/14480.got.cif
#   From: 2010.03.12/outbox.cif.g09.slc.cpg/sg46_8_cif.got.tgz:14480.got - 2010.04.14 02:56:35.
