data_PCOD8191672
_publ_section_title
;
Structure prediction by ZEFSAII (Michael W. Deem and Ramdas Pophale) SiO2 
 PCOD8191672
Probable space group: I M A 2
;
_chemical_formula_sum "Si O2"
_cell_formula_units_Z 64
_cell_length_a 8.792947
_cell_length_b 28.129894
_cell_length_c 14.692151
_cell_angle_alpha 90.000000
_cell_angle_beta 90.000000
_cell_angle_gamma 90.000000
_cell_volume 3634.025197
_symmetry_space_group_name_H-M "I M A 2"
_symmetry_group_IT_number 46
_symmetry_cell_setting 'orthorhombic'
loop_
_space_group_symop_operation_xyz
x,y,z
-x,-y,z
1/2-x,y,z
1/2+x,-y,z
1/2+x,1/2+y,1/2+z
1/2-x,1/2-y,1/2+z
-x,1/2+y,1/2+z
x,1/2-y,1/2+z
loop_
_atom_site_type_symbol
_atom_site_label
_atom_site_fract_x
_atom_site_fract_y
_atom_site_fract_z
Si Si1 0.068581 0.949907 0.396080
Si Si2 0.572842 0.672056 0.193702
Si Si3 0.929488 0.677079 0.396397
Si Si4 0.070723 0.364326 0.579639
Si Si5 0.429086 0.862988 0.519773
Si Si6 0.070011 0.777509 0.395818
Si Si7 0.571152 0.719912 0.704895
Si Si8 0.931952 0.550092 0.701461
O O1 0.250000 0.953589 0.386230
O O2 0.016643 0.910947 0.469781
O O3 0.997763 0.935097 0.299281
O O4 0.000000 0.000000 0.428838
O O5 0.750000 0.662546 0.183444
O O6 0.517183 0.659501 0.296613
O O7 0.489557 0.637520 0.123013
O O8 0.530393 0.726830 0.172695
O O9 0.750000 0.686187 0.395173
O O10 0.977145 0.638328 0.473031
O O11 0.003580 0.726844 0.424360
O O12 0.250000 0.365240 0.588737
O O13 0.010916 0.316778 0.629326
O O14 0.007454 0.411681 0.627565
O O15 0.250000 0.861789 0.522904
O O16 0.491735 0.817025 0.466157
O O17 0.250000 0.774757 0.396640
O O18 0.015361 0.793362 0.296719
O O19 0.750000 0.715537 0.723990
O O20 0.750000 0.547263 0.707022
O O21 0.000000 0.500000 0.669515
#
# Coordination Sequence:
#
# PCOD8191672 Si02
#       8
#     8   8   8   8   8   8   8   8
#     4  10  20  35  52  72  97 125 153 189 234 281
#     4   9  18  30  48  70  92 122 160 196 233 271
#     4   9  18  34  50  67  93 126 162 200 231 265
#     4   9  17  30  51  72  92 122 162 197 230 273
#     4  10  21  33  47  68  97 127 156 191 236 282
#     4  10  19  30  44  68  99 130 157 187 231 282
#     4   9  17  30  47  70  96 125 159 195 229 269
#     4  10  19  32  51  75  99 125 152 187 234 283
#
# _framework density 17.611325999999998
#
# number of rings (size 3 to 8) (size 9 to 14) (size 15 to 20)
#    0.000    2.500    0.000    4.125    0.000    5.000 
#    0.000    2.500    0.000    0.750    0.000    3.500 
#    0.000    0.000    0.000    0.000    0.000    0.000 
#
# Total GULP energy -396719.557715 kJ/mol
# GULP energy per Si atom -12397.486179 kJ/mol
# Density = 1.757124 g / cm^3
# Si number density = 17.611326 Si / 1000 Ang^3
#
#
#
# Elastic Constant Matrix: (Units=GPa)
#
#
# Indices 1 2 3 4 5 6 
#
# 1 41.0599 31.0214 29.2492 0.0001 0.0000 0.0000
# 2 31.0214 112.2230 93.3798 0.0000 0.0000 0.0000
# 3 29.2492 93.3798 144.0285 0.0002 0.0002 0.0001
# 4 0.0001 0.0000 0.0002 32.1693 0.0001 0.0000
# 5 0.0000 0.0000 0.0002 0.0001 24.6236 0.0000
# 6 0.0000 0.0000 0.0001 0.0000 0.0000 22.1036
#
#
#
# Elastic Compliance Matrix: (Units=1/GPa)
#
#
# Indices 1 2 3 4 5 6 
#
# 1 0.030953 -0.007222 -0.001604 0.000000 0.000000 0.000000
# 2 -0.007222 0.021034 -0.012171 0.000000 0.000000 0.000000
# 3 -0.001604 -0.012171 0.015160 0.000000 0.000000 0.000000
# 4 0.000000 0.000000 0.000000 0.031086 0.000000 0.000000
# 5 0.000000 0.000000 0.000000 0.000000 0.040611 0.000000
# 6 0.000000 0.000000 0.000000 0.000000 0.000000 0.045241
#
#
# Mechanical properties :
#
#
# Convention : Reuss Voigt Hill
#
# Bulk Modulus (GPa) = 39.75445 67.17912 53.46678
# Shear Modulus (GPa) = 21.32527 25.35672 23.34099
#
# Velocity S-wave (km/s) = 3.48355 3.79858 3.64447
# Velocity P-wave (km/s) = 6.22916 7.58071 6.93792
#
# Compressibility (1/GPa) = 0.02515442
#
# Stress axis : x y z
#
# Youngs Moduli (GPa) = 32.30675 47.54107 65.96442
#
# Poissons Ratio (x) = 0.34333 0.10579
# Poissons Ratio (y) = 0.23331 0.80285
# Poissons Ratio (z) = 0.05181 0.57862
#
# Static dielectric constant tensor:
#      x y z
#    x 3.102250 0.000000 0.000000 
#    y 0.000000 3.307140 0.000000 
#    z 0.000000 0.000000 3.529030 
# 
# 
# High freq. dielectric constant tensor:
#      x y z
#    x 1.669890 0.000000 0.000000 
#    y 0.000000 1.663070 0.000000 
#    z 0.000000 0.000000 1.683500 
# 
# From -- ./inp_files/14494.got.cif
#   From: 2010.03.12/outbox.cif.g09.slc.cpg/sg46_8_cif.got.tgz:14494.got - 2010.04.14 02:56:35.
