data_PCOD8191292
_publ_section_title
;
Structure prediction by ZEFSAII (Michael W. Deem and Ramdas Pophale) SiO2 
 PCOD8191292
Probable space group: I M A 2
;
_chemical_formula_sum "Si O2"
_cell_formula_units_Z 56
_cell_length_a 9.008468
_cell_length_b 13.508963
_cell_length_c 29.398856
_cell_angle_alpha 90.000000
_cell_angle_beta 90.000000
_cell_angle_gamma 90.000000
_cell_volume 3577.695571
_symmetry_space_group_name_H-M "I M A 2"
_symmetry_group_IT_number 46
_symmetry_cell_setting 'orthorhombic'
loop_
_space_group_symop_operation_xyz
x,y,z
-x,-y,z
1/2-x,y,z
1/2+x,-y,z
1/2+x,1/2+y,1/2+z
1/2-x,1/2-y,1/2+z
-x,1/2+y,1/2+z
x,1/2-y,1/2+z
loop_
_atom_site_type_symbol
_atom_site_label
_atom_site_fract_x
_atom_site_fract_y
_atom_site_fract_z
Si Si1 0.424180 0.394015 0.387390
Si Si2 0.424822 0.893566 0.974375
Si Si3 0.576816 0.299528 0.665483
Si Si4 0.921154 0.698772 0.292633
Si Si5 0.923508 0.599389 0.746783
Si Si6 0.423430 0.599103 0.211898
Si Si7 0.077703 0.604001 0.573772
O O1 0.500000 0.500000 0.378385
O O2 0.250000 0.410217 0.395081
O O3 0.496166 0.338638 0.431744
O O4 0.456648 0.322070 0.345121
O O5 0.250000 0.900714 0.965151
O O6 0.500000 0.000000 0.974630
O O7 0.459183 0.846798 0.024254
O O8 0.750000 0.319313 0.674592
O O9 0.485537 0.374235 0.697023
O O10 0.535292 0.186350 0.676714
O O11 0.531621 0.318953 0.613096
O O12 0.750000 0.677215 0.280767
O O13 0.961253 0.812868 0.282189
O O14 0.018895 0.625640 0.262100
O O15 0.750000 0.580351 0.742364
O O16 0.000000 0.500000 0.765416
O O17 0.500000 0.500000 0.193395
O O18 0.250000 0.580280 0.215120
O O19 0.250000 0.579162 0.576164
O O20 0.000000 0.500000 0.581873
#
# Coordination Sequence:
#
# PCOD8191292 Si02
#       7
#     8   8   8   8   8   8   8
#     4  10  18  28  42  61  85 112 139 170 206 246
#     4   9  16  26  40  59  83 110 137 168 205 247
#     4   9  18  31  45  63  85 113 145 174 207 248
#     4   9  19  32  45  62  85 113 144 174 208 248
#     4  10  19  31  45  63  87 113 141 175 210 247
#     4  10  19  30  45  63  86 113 142 176 211 247
#     4   9  17  28  42  61  86 112 139 169 204 245
#
# _framework density 15.652533999999999
#
# number of rings (size 3 to 8) (size 9 to 14) (size 15 to 20)
#    0.000    2.571    0.000    3.429    0.000    5.714 
#    0.000    0.000    0.000    0.000    0.000    1.000 
#    0.000    6.857    0.000    0.000    0.000    0.000 
#
# Total GULP energy -347072.393027 kJ/mol
# GULP energy per Si atom -12395.442608 kJ/mol
# Density = 1.561691 g / cm^3
# Si number density = 15.652534 Si / 1000 Ang^3
#
#
#
# Elastic Constant Matrix: (Units=GPa)
#
#
# Indices 1 2 3 4 5 6 
#
# 1 72.4542 38.0893 48.9697 0.0000 0.0000 0.0000
# 2 38.0893 81.8118 51.3258 0.0000 0.0000 0.0000
# 3 48.9697 51.3258 142.8078 0.0000 0.0000 0.0000
# 4 0.0000 0.0000 0.0000 23.0325 0.0000 0.0000
# 5 0.0000 0.0000 0.0000 0.0000 22.0404 0.0000
# 6 0.0000 0.0000 0.0000 0.0000 0.0000 23.1169
#
#
#
# Elastic Compliance Matrix: (Units=1/GPa)
#
#
# Indices 1 2 3 4 5 6 
#
# 1 0.020393 -0.006594 -0.004623 0.000000 0.000000 0.000000
# 2 -0.006594 0.017914 -0.004177 0.000000 0.000000 0.000000
# 3 -0.004623 -0.004177 0.010089 0.000000 0.000000 0.000000
# 4 0.000000 0.000000 0.000000 0.043417 0.000000 0.000000
# 5 0.000000 0.000000 0.000000 0.000000 0.045371 0.000000
# 6 0.000000 0.000000 0.000000 0.000000 0.000000 0.043258
#
#
# Mechanical properties :
#
#
# Convention : Reuss Voigt Hill
#
# Bulk Modulus (GPa) = 56.79467 63.76038 60.27752
# Shear Modulus (GPa) = 23.03091 24.21722 23.62406
#
# Velocity S-wave (km/s) = 3.84003 3.93768 3.88916
# Velocity P-wave (km/s) = 7.48495 7.84201 7.66556
#
# Compressibility (1/GPa) = 0.01760729
#
# Stress axis : x y z
#
# Youngs Moduli (GPa) = 49.03680 55.82284 99.11867
#
# Poissons Ratio (x) = 0.36810 0.45821
# Poissons Ratio (y) = 0.32336 0.41403
# Poissons Ratio (z) = 0.22669 0.23318
#
# Static dielectric constant tensor:
#      x y z
#    x 3.117290 0.000000 0.000000 
#    y 0.000000 2.813830 0.000000 
#    z 0.000000 0.000000 3.502860 
# 
# 
# High freq. dielectric constant tensor:
#      x y z
#    x 1.614650 0.000000 0.000000 
#    y 0.000000 1.565010 0.000000 
#    z 0.000000 0.000000 1.602190 
# 
# From -- ./inp_files/25240.got.cif
#   From: 2010.03.12/outbox.cif.g09.slc.cpg/sg46_13_cif.got.tgz:25240.got - 2010.04.14 02:56:35.
