data_PCOD8191442
_publ_section_title
;
Structure prediction by ZEFSAII (Michael W. Deem and Ramdas Pophale) SiO2 
 PCOD8191442
Probable space group: I M A 2
;
_chemical_formula_sum "Si O2"
_cell_formula_units_Z 40
_cell_length_a 8.981903
_cell_length_b 28.252549
_cell_length_c 9.547287
_cell_angle_alpha 90.000000
_cell_angle_beta 90.000000
_cell_angle_gamma 90.000000
_cell_volume 2422.735346
_symmetry_space_group_name_H-M "I M A 2"
_symmetry_group_IT_number 46
_symmetry_cell_setting 'orthorhombic'
loop_
_space_group_symop_operation_xyz
x,y,z
-x,-y,z
1/2-x,y,z
1/2+x,-y,z
1/2+x,1/2+y,1/2+z
1/2-x,1/2-y,1/2+z
-x,1/2+y,1/2+z
x,1/2-y,1/2+z
loop_
_atom_site_type_symbol
_atom_site_label
_atom_site_fract_x
_atom_site_fract_y
_atom_site_fract_z
Si Si1 0.072585 0.703353 0.061470
Si Si2 0.580762 0.861082 0.763456
Si Si3 0.926066 0.368874 0.534974
Si Si4 0.418470 0.451447 0.416796
Si Si5 0.574222 0.290427 0.746538
O O1 0.250000 0.699142 0.061863
O O2 0.011737 0.746415 0.156828
O O3 0.002515 0.655103 0.122702
O O4 0.010924 0.710206 0.903983
O O5 0.750000 0.842311 0.764729
O O6 0.492089 0.840641 0.899643
O O7 0.577625 0.918713 0.776123
O O8 0.750000 0.372964 0.517498
O O9 0.971651 0.339834 0.673311
O O10 0.998525 0.421679 0.540939
O O11 0.500000 0.500000 0.383411
O O12 0.250000 0.461830 0.464583
O O13 0.750000 0.285488 0.749089
#
# Coordination Sequence:
#
# PCOD8191442 Si02
#       5
#     8   8   8   8   8
#     4  10  18  31  50  71  98 133 172 208 247 295
#     4   9  19  32  46  71 101 127 165 206 247 298
#     4   9  16  30  51  73 100 130 164 205 249 293
#     4   9  18  31  51  77 103 127 167 210 252 300
#     4   9  18  30  49  75  99 130 172 210 245 298
#
# _framework density 16.510265
#
# number of rings (size 3 to 8) (size 9 to 14) (size 15 to 20)
#    1.200    1.600    0.000    2.400    0.000    3.200 
#    0.000    7.000    0.000    1.200    0.000    2.800 
#    0.000    0.000    0.000    0.000    0.000    0.000 
#
# Total GULP energy -247780.781496 kJ/mol
# GULP energy per Si atom -12389.039075 kJ/mol
# Density = 1.647269 g / cm^3
# Si number density = 16.510265 Si / 1000 Ang^3
#
#
#
# Elastic Constant Matrix: (Units=GPa)
#
#
# Indices 1 2 3 4 5 6 
#
# 1 83.3531 41.5347 38.9538 0.0017 -0.0009 -0.0005
# 2 41.5347 100.4859 56.6971 0.0022 -0.0023 -0.0005
# 3 38.9538 56.6971 125.1471 -0.0091 -0.0056 -0.0020
# 4 0.0017 0.0022 -0.0091 22.4802 0.0005 -0.0002
# 5 -0.0009 -0.0023 -0.0056 0.0005 14.5927 0.0001
# 6 -0.0005 -0.0005 -0.0020 -0.0002 0.0001 24.5787
#
#
#
# Elastic Compliance Matrix: (Units=1/GPa)
#
#
# Indices 1 2 3 4 5 6 
#
# 1 0.015723 -0.005021 -0.002619 -0.000002 -0.000001 0.000000
# 2 -0.005021 0.014973 -0.005220 -0.000003 0.000000 0.000000
# 3 -0.002619 -0.005220 0.011171 0.000005 0.000003 0.000001
# 4 -0.000002 -0.000003 0.000005 0.044484 -0.000002 0.000000
# 5 -0.000001 0.000000 0.000003 -0.000002 0.068527 0.000000
# 6 0.000000 0.000000 0.000001 0.000000 0.000000 0.040686
#
#
# Mechanical properties :
#
#
# Convention : Reuss Voigt Hill
#
# Bulk Modulus (GPa) = 61.93783 64.81748 63.37766
# Shear Modulus (GPa) = 22.05885 23.78370 22.92127
#
# Velocity S-wave (km/s) = 3.65919 3.79956 3.73004
# Velocity P-wave (km/s) = 7.44642 7.65461 7.55123
#
# Compressibility (1/GPa) = 0.01614522
#
# Stress axis : x y z
#
# Youngs Moduli (GPa) = 63.59999 66.78894 89.51822
#
# Poissons Ratio (x) = 0.33536 0.23447
# Poissons Ratio (y) = 0.31935 0.46731
# Poissons Ratio (z) = 0.16659 0.34866
#
# Static dielectric constant tensor:
#      x y z
#    x 2.980050 0.000000 0.000000 
#    y 0.000000 2.981800 0.000000 
#    z 0.000000 0.000000 3.038340 
# 
# 
# High freq. dielectric constant tensor:
#      x y z
#    x 1.631000 0.000000 0.000000 
#    y 0.000000 1.623680 0.000000 
#    z 0.000000 0.000000 1.610680 
# 
# From -- ./inp_files/3678.got.cif
#   From: 2010.03.12/outbox.cif.g09.slc.cpg/sg46_2_cif.got.tgz:3678.got - 2010.04.14 02:56:35.
