data_PCOD8191656
_publ_section_title
;
Structure prediction by ZEFSAII (Michael W. Deem and Ramdas Pophale) SiO2 
 PCOD8191656
Probable space group: I M A 2
;
_chemical_formula_sum "Si O2"
_cell_formula_units_Z 64
_cell_length_a 8.793348
_cell_length_b 18.472599
_cell_length_c 25.811143
_cell_angle_alpha 90.000000
_cell_angle_beta 90.000000
_cell_angle_gamma 90.000000
_cell_volume 4192.658604
_symmetry_space_group_name_H-M "I M A 2"
_symmetry_group_IT_number 46
_symmetry_cell_setting 'orthorhombic'
loop_
_space_group_symop_operation_xyz
x,y,z
-x,-y,z
1/2-x,y,z
1/2+x,-y,z
1/2+x,1/2+y,1/2+z
1/2-x,1/2-y,1/2+z
-x,1/2+y,1/2+z
x,1/2-y,1/2+z
loop_
_atom_site_type_symbol
_atom_site_label
_atom_site_fract_x
_atom_site_fract_y
_atom_site_fract_z
Si Si1 0.570885 0.076307 0.840910
Si Si2 0.923598 0.342744 0.142421
Si Si3 0.071037 0.078535 0.038377
Si Si4 0.070769 0.076501 0.732414
Si Si5 0.927051 0.422570 0.036676
Si Si6 0.075436 0.295588 0.989415
Si Si7 0.425105 0.342338 0.431231
Si Si8 0.074373 0.790654 0.079440
O O1 0.750000 0.067611 0.834306
O O2 0.499518 0.102236 0.786747
O O3 0.533855 0.135139 0.884465
O O4 0.500000 0.000000 0.858327
O O5 0.750000 0.362370 0.156725
O O6 0.974627 0.387352 0.091465
O O7 0.939675 0.256074 0.132432
O O8 0.032960 0.363537 0.189489
O O9 0.250000 0.075668 0.048803
O O10 0.990071 0.127538 0.083238
O O11 0.031976 0.111538 0.982143
O O12 0.000000 0.000000 0.042362
O O13 0.250000 0.067825 0.738410
O O14 0.000000 0.000000 0.714896
O O15 0.750000 0.432440 0.032491
O O16 0.000000 0.500000 0.029644
O O17 0.979290 0.369841 0.989584
O O18 0.250000 0.318107 0.993280
O O19 0.046255 0.243783 0.939791
O O20 0.033145 0.247900 0.038531
O O21 0.250000 0.357016 0.416434
O O22 0.250000 0.790406 0.060837
#
# Coordination Sequence:
#
# PCOD8191656 Si02
#       8
#     8   8   8   8   8   8   8   8
#     4  11  21  32  46  62  84 112 143 180 216 252
#     4   9  18  31  45  62  84 112 145 178 213 253
#     4  10  19  29  43  63  88 116 146 179 213 253
#     4  11  21  32  46  62  84 112 143 180 216 252
#     4  10  19  29  43  63  88 116 146 179 213 253
#     4   9  17  29  44  61  84 112 142 177 213 252
#     4   9  18  31  45  62  84 112 145 178 213 253
#     4   9  17  29  44  61  84 112 142 177 213 252
#
# _framework density 15.264778
#
# number of rings (size 3 to 8) (size 9 to 14) (size 15 to 20)
#    0.000    2.250    0.000    6.750    0.000    8.000 
#    0.000    0.000    0.000    0.000    0.000    0.000 
#    0.000    1.000    0.000   10.500    0.000    4.500 
#
# Total GULP energy -396682.324402 kJ/mol
# GULP energy per Si atom -12396.322638 kJ/mol
# Density = 1.523003 g / cm^3
# Si number density = 15.264778 Si / 1000 Ang^3
#
#
#
# Elastic Constant Matrix: (Units=GPa)
#
#
# Indices 1 2 3 4 5 6 
#
# 1 91.9799 47.7642 44.0727 0.0000 0.0000 0.0000
# 2 47.7642 115.4266 45.1214 0.0000 0.0000 0.0000
# 3 44.0727 45.1214 61.7465 0.0000 0.0000 0.0000
# 4 0.0000 0.0000 0.0000 26.8572 0.0000 0.0000
# 5 0.0000 0.0000 0.0000 0.0000 21.7228 0.0000
# 6 0.0000 0.0000 0.0000 0.0000 0.0000 28.9047
#
#
#
# Elastic Compliance Matrix: (Units=1/GPa)
#
#
# Indices 1 2 3 4 5 6 
#
# 1 0.017365 -0.003277 -0.010000 0.000000 0.000000 0.000000
# 2 -0.003277 0.012746 -0.006976 0.000000 0.000000 0.000000
# 3 -0.010000 -0.006976 0.028431 0.000000 0.000000 0.000000
# 4 0.000000 0.000000 0.000000 0.037234 0.000000 0.000000
# 5 0.000000 0.000000 0.000000 0.000000 0.046035 0.000000
# 6 0.000000 0.000000 0.000000 0.000000 0.000000 0.034596
#
#
# Mechanical properties :
#
#
# Convention : Reuss Voigt Hill
#
# Bulk Modulus (GPa) = 55.44177 60.34107 57.89142
# Shear Modulus (GPa) = 22.42915 24.30993 23.36954
#
# Velocity S-wave (km/s) = 3.83736 3.99501 3.91697
# Velocity P-wave (km/s) = 7.48550 7.80356 7.64618
#
# Compressibility (1/GPa) = 0.01803694
#
# Stress axis : x y z
#
# Youngs Moduli (GPa) = 57.58664 78.45467 35.17339
#
# Poissons Ratio (x) = 0.25706 0.35174
# Poissons Ratio (y) = 0.18869 0.24536
# Poissons Ratio (z) = 0.57588 0.54727
#
# Static dielectric constant tensor:
#      x y z
#    x 3.068360 0.000000 0.000000 
#    y 0.000000 3.126300 0.000000 
#    z 0.000000 0.000000 2.725220 
# 
# 
# High freq. dielectric constant tensor:
#      x y z
#    x 1.603700 0.000000 0.000000 
#    y 0.000000 1.579200 0.000000 
#    z 0.000000 0.000000 1.542780 
# 
# From -- ./inp_files/18690.got.cif
#   From: 2010.03.12/outbox.cif.g09.slc.cpg/sg46_10_cif.got.tgz:18690.got - 2010.04.14 02:56:35.
