data_PCOD8191881
_publ_section_title
;
Structure prediction by ZEFSAII (Michael W. Deem and Ramdas Pophale) SiO2 
 PCOD8191881
Probable space group: I M A 2
;
_chemical_formula_sum "Si O2"
_cell_formula_units_Z 56
_cell_length_a 8.798149
_cell_length_b 23.840918
_cell_length_c 13.575220
_cell_angle_alpha 90.000000
_cell_angle_beta 90.000000
_cell_angle_gamma 90.000000
_cell_volume 2847.483152
_symmetry_space_group_name_H-M "I M A 2"
_symmetry_group_IT_number 46
_symmetry_cell_setting 'orthorhombic'
loop_
_space_group_symop_operation_xyz
x,y,z
-x,-y,z
1/2-x,y,z
1/2+x,-y,z
1/2+x,1/2+y,1/2+z
1/2-x,1/2-y,1/2+z
-x,1/2+y,1/2+z
x,1/2-y,1/2+z
loop_
_atom_site_type_symbol
_atom_site_label
_atom_site_fract_x
_atom_site_fract_y
_atom_site_fract_z
Si Si1 0.574620 0.833941 0.313040
Si Si2 0.070255 0.940255 0.628189
Si Si3 0.425997 0.333929 0.038601
Si Si4 0.570951 0.058784 0.005475
Si Si5 0.429543 0.940458 0.228258
Si Si6 0.570791 0.376954 0.320686
Si Si7 0.569248 0.230598 0.710103
O O1 0.750000 0.836831 0.282819
O O2 0.553284 0.815396 0.425703
O O3 0.500105 0.894692 0.300102
O O4 0.490645 0.790872 0.241324
O O5 0.250000 0.942819 0.614616
O O6 0.022803 0.923010 0.739251
O O7 0.005140 0.894037 0.553538
O O8 0.000000 0.000000 0.601322
O O9 0.250000 0.339064 0.067920
O O10 0.505156 0.285489 0.102966
O O11 0.750000 0.052332 0.995138
O O12 0.507380 0.105126 0.928034
O O13 0.500000 0.000000 0.974994
O O14 0.525104 0.075952 0.116043
O O15 0.250000 0.943426 0.242530
O O16 0.500000 0.000000 0.257393
O O17 0.750000 0.372865 0.324705
O O18 0.509047 0.315838 0.288744
O O19 0.750000 0.232191 0.702948
#
# Coordination Sequence:
#
# PCOD8191881 Si02
#       7
#     8   8   8   8   8   8   8
#     4  11  24  41  61  84 111 146 187 231 280 335
#     4  10  19  32  53  81 113 150 190 234 284 336
#     4  10  22  40  59  81 112 148 187 233 281 333
#     4   9  17  31  51  78 111 145 182 223 270 324
#     4  10  21  37  58  83 112 147 186 232 282 333
#     4   8  16  31  51  78 111 145 182 223 269 325
#     4  10  21  38  60  85 114 147 184 230 280 334
#
# _framework density 19.66649
#
# number of rings (size 3 to 8) (size 9 to 14) (size 15 to 20)
#    0.000    2.286    0.000    3.429    0.000    4.571 
#    0.000    5.000    0.000    0.000    0.000    0.000 
#    0.000    0.000    0.000    0.000    0.000    0.000 
#
# Total GULP energy -347216.742330 kJ/mol
# GULP energy per Si atom -12400.597940 kJ/mol
# Density = 1.962173 g / cm^3
# Si number density = 19.666490 Si / 1000 Ang^3
#
#
#
# Elastic Constant Matrix: (Units=GPa)
#
#
# Indices 1 2 3 4 5 6 
#
# 1 99.7893 53.7008 41.6066 0.0000 0.0000 0.0000
# 2 53.7008 115.9349 48.8700 0.0000 0.0000 0.0000
# 3 41.6066 48.8700 81.9841 -0.0003 0.0000 0.0001
# 4 0.0000 0.0000 -0.0003 29.0200 0.0000 0.0000
# 5 0.0000 0.0000 0.0000 0.0000 26.3676 0.0000
# 6 0.0000 0.0000 0.0001 0.0000 0.0000 35.7193
#
#
#
# Elastic Compliance Matrix: (Units=1/GPa)
#
#
# Indices 1 2 3 4 5 6 
#
# 1 0.014482 -0.004821 -0.004475 0.000000 0.000000 0.000000
# 2 -0.004821 0.013125 -0.005377 0.000000 0.000000 0.000000
# 3 -0.004475 -0.005377 0.017674 0.000000 0.000000 0.000000
# 4 0.000000 0.000000 0.000000 0.034459 0.000000 0.000000
# 5 0.000000 0.000000 0.000000 0.000000 0.037925 0.000000
# 6 0.000000 0.000000 0.000000 0.000000 0.000000 0.027996
#
#
# Mechanical properties :
#
#
# Convention : Reuss Voigt Hill
#
# Bulk Modulus (GPa) = 62.76173 65.11812 63.93992
# Shear Modulus (GPa) = 27.72842 28.45677 28.09260
#
# Velocity S-wave (km/s) = 3.75898 3.80803 3.78358
# Velocity P-wave (km/s) = 7.12897 7.24692 7.18819
#
# Compressibility (1/GPa) = 0.01593328
#
# Stress axis : x y z
#
# Youngs Moduli (GPa) = 69.05261 76.18826 56.58035
#
# Poissons Ratio (x) = 0.36733 0.25322
# Poissons Ratio (y) = 0.33293 0.30424
# Poissons Ratio (z) = 0.30904 0.40967
#
# Static dielectric constant tensor:
#      x y z
#    x 3.523540 0.000000 0.000000 
#    y 0.000000 3.617320 0.000000 
#    z 0.000000 0.000000 3.711350 
# 
# 
# High freq. dielectric constant tensor:
#      x y z
#    x 1.764120 0.000000 0.000000 
#    y 0.000000 1.764080 0.000000 
#    z 0.000000 0.000000 1.765750 
# 
# From -- ./inp_files/14209.got.cif
#   From: 2010.03.12/outbox.cif.g09.slc.cpg/sg46_8_cif.got.tgz:14209.got - 2010.04.14 02:56:35.
