data_PCOD8191499
_publ_section_title
;
Structure prediction by ZEFSAII (Michael W. Deem and Ramdas Pophale) SiO2 
 PCOD8191499
Probable space group: I M A 2
;
_chemical_formula_sum "Si O2"
_cell_formula_units_Z 64
_cell_length_a 9.035491
_cell_length_b 33.445047
_cell_length_c 11.673878
_cell_angle_alpha 90.000000
_cell_angle_beta 90.000000
_cell_angle_gamma 90.000000
_cell_volume 3527.757457
_symmetry_space_group_name_H-M "I M A 2"
_symmetry_group_IT_number 46
_symmetry_cell_setting 'orthorhombic'
loop_
_space_group_symop_operation_xyz
x,y,z
-x,-y,z
1/2-x,y,z
1/2+x,-y,z
1/2+x,1/2+y,1/2+z
1/2-x,1/2-y,1/2+z
-x,1/2+y,1/2+z
x,1/2-y,1/2+z
loop_
_atom_site_type_symbol
_atom_site_label
_atom_site_fract_x
_atom_site_fract_y
_atom_site_fract_z
Si Si1 0.922018 0.960178 0.949350
Si Si2 0.073582 0.622445 0.779190
Si Si3 0.077317 0.269437 0.408520
Si Si4 0.917013 0.111104 0.845911
Si Si5 0.417022 0.670117 0.557559
Si Si6 0.419922 0.327788 0.208272
Si Si7 0.925378 0.541746 0.713665
Si Si8 0.421422 0.180940 0.443677
O O1 0.750000 0.965774 0.932601
O O2 0.978925 0.926438 0.864817
O O3 0.962510 0.950609 0.080692
O O4 0.000000 0.000000 0.907596
O O5 0.250000 0.616580 0.776964
O O6 0.017473 0.648956 0.671155
O O7 0.997220 0.578860 0.781390
O O8 0.022447 0.645819 0.892667
O O9 0.250000 0.270604 0.433655
O O10 0.032821 0.291074 0.290341
O O11 0.025063 0.223661 0.394332
O O12 0.006222 0.290464 0.520281
O O13 0.750000 0.097114 0.822130
O O14 0.978007 0.134242 0.735495
O O15 0.927281 0.138289 0.957090
O O16 0.250000 0.683745 0.581173
O O17 0.250000 0.339352 0.232267
O O18 0.447552 0.315673 0.078748
O O19 0.750000 0.539651 0.737204
O O20 0.000000 0.500000 0.754190
O O21 0.250000 0.172076 0.414357
#
# Coordination Sequence:
#
# PCOD8191499 Si02
#       8
#     8   8   8   8   8   8   8   8
#     4  10  19  30  49  79 112 143 174 214 265 321
#     4  11  22  36  54  80 114 148 184 229 276 331
#     4   9  19  34  56  79 103 138 180 227 275 323
#     4  10  18  32  53  75 104 140 176 217 263 318
#     4   9  19  33  50  75 107 140 176 219 268 320
#     4   9  19  36  53  75 105 138 180 225 271 322
#     4  10  20  34  55  82 114 149 183 224 276 333
#     4  10  22  37  55  79 107 142 185 233 277 326
#
# _framework density 18.141835
#
# number of rings (size 3 to 8) (size 9 to 14) (size 15 to 20)
#    0.000    2.250    1.250    1.500    1.750    3.500 
#    0.000    0.000    0.000    0.750    0.000    0.000 
#    0.000    0.000    0.000    0.000    0.000    0.000 
#
# Total GULP energy -396829.651279 kJ/mol
# GULP energy per Si atom -12400.926602 kJ/mol
# Density = 1.810054 g / cm^3
# Si number density = 18.141835 Si / 1000 Ang^3
#
#
#
# Elastic Constant Matrix: (Units=GPa)
#
#
# Indices 1 2 3 4 5 6 
#
# 1 73.1083 55.0137 26.6310 0.0012 0.0001 0.0000
# 2 55.0137 137.4238 39.9037 0.0011 0.0004 0.0002
# 3 26.6310 39.9037 65.2147 0.0040 0.0008 0.0005
# 4 0.0012 0.0011 0.0040 32.9278 0.0006 0.0004
# 5 0.0001 0.0004 0.0008 0.0006 24.8342 0.0004
# 6 0.0000 0.0002 0.0005 0.0004 0.0004 33.0781
#
#
#
# Elastic Compliance Matrix: (Units=1/GPa)
#
#
# Indices 1 2 3 4 5 6 
#
# 1 0.020422 -0.006997 -0.004058 0.000000 0.000000 0.000000
# 2 -0.006997 0.011246 -0.004024 0.000000 0.000000 0.000000
# 3 -0.004058 -0.004024 0.019453 -0.000002 -0.000001 0.000000
# 4 0.000000 0.000000 -0.000002 0.030369 -0.000001 0.000000
# 5 0.000000 0.000000 -0.000001 -0.000001 0.040267 -0.000001
# 6 0.000000 0.000000 0.000000 0.000000 -0.000001 0.030231
#
#
# Mechanical properties :
#
#
# Convention : Reuss Voigt Hill
#
# Bulk Modulus (GPa) = 47.70288 57.64929 52.67608
# Shear Modulus (GPa) = 26.43608 28.44790 27.44199
#
# Velocity S-wave (km/s) = 3.82146 3.96420 3.89348
# Velocity P-wave (km/s) = 6.76926 7.26630 7.02218
#
# Compressibility (1/GPa) = 0.02096310
#
# Stress axis : x y z
#
# Youngs Moduli (GPa) = 48.96748 88.91852 51.40480
#
# Poissons Ratio (x) = 0.62215 0.20861
# Poissons Ratio (y) = 0.34262 0.20686
# Poissons Ratio (z) = 0.19872 0.35782
#
# Static dielectric constant tensor:
#      x y z
#    x 3.398080 0.000000 0.000000 
#    y 0.000000 2.840100 0.000000 
#    z 0.000000 0.000000 3.111510 
# 
# 
# High freq. dielectric constant tensor:
#      x y z
#    x 1.706490 0.000000 0.000000 
#    y 0.000000 1.705700 0.000000 
#    z 0.000000 0.000000 1.675030 
# 
# From -- ./inp_files/9791.got.cif
#   From: 2010.03.12/outbox.cif.g09.slc.cpg/sg46_5_cif.got.tgz:9791.got - 2010.04.14 02:56:35.
