data_PCOD8191535
_publ_section_title
;
Structure prediction by ZEFSAII (Michael W. Deem and Ramdas Pophale) SiO2 
 PCOD8191535
Probable space group: I M A 2
;
_chemical_formula_sum "Si O2"
_cell_formula_units_Z 32
_cell_length_a 15.435879
_cell_length_b 8.195966
_cell_length_c 14.037572
_cell_angle_alpha 90.000000
_cell_angle_beta 90.000000
_cell_angle_gamma 90.000000
_cell_volume 1775.920459
_symmetry_space_group_name_H-M "I M A 2"
_symmetry_group_IT_number 46
_symmetry_cell_setting 'orthorhombic'
loop_
_space_group_symop_operation_xyz
x,y,z
-x,-y,z
1/2-x,y,z
1/2+x,-y,z
1/2+x,1/2+y,1/2+z
1/2-x,1/2-y,1/2+z
-x,1/2+y,1/2+z
x,1/2-y,1/2+z
loop_
_atom_site_type_symbol
_atom_site_label
_atom_site_fract_x
_atom_site_fract_y
_atom_site_fract_z
Si Si1 0.579408 0.619868 0.125000
Si Si2 0.485519 0.687158 0.770802
Si Si3 0.652639 0.295975 0.126445
Si Si4 0.012057 0.811496 0.979612
O O1 0.500000 0.500000 0.105542
O O2 0.566674 0.711487 0.226207
O O3 0.660755 0.496333 0.122047
O O4 0.572989 0.751791 0.039200
O O5 0.500000 0.500000 0.744688
O O6 0.395115 0.745976 0.724389
O O7 0.481488 0.710524 0.882926
O O8 0.750000 0.225797 0.125807
O O9 0.600499 0.218011 0.038229
O O10 0.000000 0.000000 0.955199
#
# Coordination Sequence:
#
# PCOD8191535 Si02
#       4
#     8   8   8   8
#     4   8  16  31  49  71  95 126 164 198 237 288
#     4  10  18  33  55  74  96 130 171 205 237 288
#     4  10  20  33  50  75 105 130 157 202 255 296
#     4  10  18  33  55  74  96 130 171 205 237 288
#
# _framework density 18.018825
#
# number of rings (size 3 to 8) (size 9 to 14) (size 15 to 20)
#    0.000    3.000    0.000    7.500    0.000    1.000 
#    0.000    5.000    0.000    6.000    0.000    0.000 
#    0.000    0.000    0.000    0.000    0.000    0.000 
#
# Total GULP energy -198225.907744 kJ/mol
# GULP energy per Si atom -12389.119234 kJ/mol
# Density = 1.797781 g / cm^3
# Si number density = 18.018825 Si / 1000 Ang^3
#
#
#
# Elastic Constant Matrix: (Units=GPa)
#
#
# Indices 1 2 3 4 5 6 
#
# 1 69.8855 21.4458 25.5789 0.0000 0.0000 0.0000
# 2 21.4458 94.3309 5.0706 0.0000 0.0000 0.0000
# 3 25.5789 5.0706 112.6577 0.0000 0.0000 0.0000
# 4 0.0000 0.0000 0.0000 31.8541 0.0000 0.0000
# 5 0.0000 0.0000 0.0000 0.0000 7.8961 0.0000
# 6 0.0000 0.0000 0.0000 0.0000 0.0000 16.5368
#
#
#
# Elastic Compliance Matrix: (Units=1/GPa)
#
#
# Indices 1 2 3 4 5 6 
#
# 1 0.016750 -0.003612 -0.003641 0.000000 0.000000 0.000000
# 2 -0.003612 0.011406 0.000307 0.000000 0.000000 0.000000
# 3 -0.003641 0.000307 0.009689 0.000000 0.000000 0.000000
# 4 0.000000 0.000000 0.000000 0.031393 0.000000 0.000000
# 5 0.000000 0.000000 0.000000 0.000000 0.126645 0.000000
# 6 0.000000 0.000000 0.000000 0.000000 0.000000 0.060471
#
#
# Mechanical properties :
#
#
# Convention : Reuss Voigt Hill
#
# Bulk Modulus (GPa) = 41.74855 42.34054 42.04455
# Shear Modulus (GPa) = 17.97072 26.24267 22.10669
#
# Velocity S-wave (km/s) = 3.16148 3.82042 3.50647
# Velocity P-wave (km/s) = 6.04535 6.55819 6.30699
#
# Compressibility (1/GPa) = 0.02395293
#
# Stress axis : x y z
#
# Youngs Moduli (GPa) = 59.70098 87.67506 103.20752
#
# Poissons Ratio (x) = 0.31672 0.37573
# Poissons Ratio (y) = 0.21566 -0.03167
# Poissons Ratio (z) = 0.21734 -0.02690
#
# Static dielectric constant tensor:
#      x y z
#    x 3.213510 0.000000 0.000000 
#    y 0.000000 4.000990 0.000000 
#    z 0.000000 0.000000 3.262000 
# 
# 
# High freq. dielectric constant tensor:
#      x y z
#    x 1.643510 0.000000 0.000000 
#    y 0.000000 1.719300 0.000000 
#    z 0.000000 0.000000 1.701900 
# 
# From -- ./inp_files/11550.got.cif
#   From: 2010.03.12/outbox.cif.g09.slc.cpg/sg46_6_cif.got.tgz:11550.got - 2010.04.14 02:56:35.
