data_PCOD8191940
_publ_section_title
;
Structure prediction by ZEFSAII (Michael W. Deem and Ramdas Pophale) SiO2 
 PCOD8191940
Probable space group: I M A 2
;
_chemical_formula_sum "Si O2"
_cell_formula_units_Z 64
_cell_length_a 8.825648
_cell_length_b 16.310800
_cell_length_c 22.074130
_cell_angle_alpha 90.000000
_cell_angle_beta 90.000000
_cell_angle_gamma 90.000000
_cell_volume 3177.645611
_symmetry_space_group_name_H-M "I M A 2"
_symmetry_group_IT_number 46
_symmetry_cell_setting 'orthorhombic'
loop_
_space_group_symop_operation_xyz
x,y,z
-x,-y,z
1/2-x,y,z
1/2+x,-y,z
1/2+x,1/2+y,1/2+z
1/2-x,1/2-y,1/2+z
-x,1/2+y,1/2+z
x,1/2-y,1/2+z
loop_
_atom_site_type_symbol
_atom_site_label
_atom_site_fract_x
_atom_site_fract_y
_atom_site_fract_z
Si Si1 0.073909 0.585091 0.339650
Si Si2 0.570178 0.576328 0.593478
Si Si3 0.071563 0.251344 0.135782
Si Si4 0.415625 0.922751 0.435399
Si Si5 0.921340 0.415851 0.792338
Si Si6 0.069208 0.261848 0.269266
Si Si7 0.925354 0.789745 0.507640
Si Si8 0.925170 0.126294 0.976877
O O1 0.250000 0.584956 0.321712
O O2 0.049577 0.585462 0.411624
O O3 0.000000 0.500000 0.314655
O O4 0.000672 0.668263 0.312213
O O5 0.500000 0.500000 0.631825
O O6 0.750000 0.571607 0.583032
O O7 0.520319 0.656716 0.630453
O O8 0.475722 0.566468 0.530504
O O9 0.250000 0.253130 0.130584
O O10 0.020386 0.287340 0.200456
O O11 0.009791 0.301263 0.076869
O O12 0.250000 0.925151 0.463278
O O13 0.414528 0.924299 0.363869
O O14 0.493298 0.841812 0.457668
O O15 0.500000 0.000000 0.463670
O O16 0.750000 0.410230 0.766179
O O17 0.000000 0.500000 0.766875
O O18 0.010625 0.331053 0.779458
O O19 0.250000 0.260632 0.277821
O O20 0.750000 0.810544 0.505445
O O21 0.954820 0.698914 0.484776
O O22 0.750000 0.154566 0.983832
#
# Coordination Sequence:
#
# PCOD8191940 Si02
#       8
#     8   8   8   8   8   8   8   8
#     4  11  24  40  58  83 113 146 187 234 282 333
#     4  10  19  33  53  79 111 142 175 215 264 321
#     4   8  19  37  54  75 104 140 181 224 266 317
#     4  10  20  34  53  79 110 140 174 218 269 325
#     4  10  21  37  57  85 119 151 186 228 275 331
#     4  11  22  39  61  82 110 149 191 234 281 329
#     4  10  19  34  56  80 108 140 176 218 269 325
#     4  10  20  34  54  81 112 142 175 217 268 327
#
# _framework density 20.140698
#
# number of rings (size 3 to 8) (size 9 to 14) (size 15 to 20)
#    0.000    2.000    0.000    4.500    0.000    8.000 
#    0.000    9.375    0.000    0.000    0.000    0.000 
#    0.000    0.000    0.000    0.000    0.000    0.000 
#
# Total GULP energy -396430.388142 kJ/mol
# GULP energy per Si atom -12388.449629 kJ/mol
# Density = 2.009486 g / cm^3
# Si number density = 20.140698 Si / 1000 Ang^3
#
#
#
# Elastic Constant Matrix: (Units=GPa)
#
#
# Indices 1 2 3 4 5 6 
#
# 1 113.1416 32.8936 30.7674 0.0000 0.0000 0.0000
# 2 32.8936 78.7487 18.0424 0.0000 0.0000 0.0000
# 3 30.7674 18.0424 39.0167 0.0000 0.0000 0.0000
# 4 0.0000 0.0000 0.0000 9.9374 0.0000 0.0000
# 5 0.0000 0.0000 0.0000 0.0000 20.3256 0.0000
# 6 0.0000 0.0000 0.0000 0.0000 0.0000 36.3329
#
#
#
# Elastic Compliance Matrix: (Units=1/GPa)
#
#
# Indices 1 2 3 4 5 6 
#
# 1 0.011915 -0.003159 -0.007935 0.000000 0.000000 0.000000
# 2 -0.003159 0.015041 -0.004464 0.000000 0.000000 0.000000
# 3 -0.007935 -0.004464 0.033952 0.000000 0.000000 0.000000
# 4 0.000000 0.000000 0.000000 0.100630 0.000000 0.000000
# 5 0.000000 0.000000 0.000000 0.000000 0.049199 0.000000
# 6 0.000000 0.000000 0.000000 0.000000 0.000000 0.027523
#
#
# Mechanical properties :
#
#
# Convention : Reuss Voigt Hill
#
# Bulk Modulus (GPa) = 33.56694 43.81264 38.68979
# Shear Modulus (GPa) = 17.90152 23.26609 20.58381
#
# Velocity S-wave (km/s) = 2.98455 3.40248 3.20034
# Velocity P-wave (km/s) = 5.34594 6.10216 5.73652
#
# Compressibility (1/GPa) = 0.02979122
#
# Stress axis : x y z
#
# Youngs Moduli (GPa) = 83.93064 66.48527 29.45366
#
# Poissons Ratio (x) = 0.21001 0.23371
# Poissons Ratio (y) = 0.26512 0.13149
# Poissons Ratio (z) = 0.66597 0.29682
#
# Static dielectric constant tensor:
#      x y z
#    x 3.790110 0.000000 0.000000 
#    y 0.000000 3.725710 0.000000 
#    z 0.000000 0.000000 3.910780 
# 
# 
# High freq. dielectric constant tensor:
#      x y z
#    x 1.789200 0.000000 0.000000 
#    y 0.000000 1.785530 0.000000 
#    z 0.000000 0.000000 1.779160 
# 
# From -- ./inp_files/23221.got.cif
#   From: 2010.03.12/outbox.cif.g09.slc.cpg/sg46_12_cif.got.tgz:23221.got - 2010.04.14 02:56:35.
