data_PCOD8191109
_publ_section_title
;
Structure prediction by ZEFSAII (Michael W. Deem and Ramdas Pophale) SiO2 
 PCOD8191109
Probable space group: I B A 2
;
_chemical_formula_sum "Si O2"
_cell_formula_units_Z 48
_cell_length_a 13.651784
_cell_length_b 13.312023
_cell_length_c 12.729238
_cell_angle_alpha 90.000000
_cell_angle_beta 90.000000
_cell_angle_gamma 90.000000
_cell_volume 2313.320860
_symmetry_space_group_name_H-M "I B A 2"
_symmetry_group_IT_number 45
_symmetry_cell_setting 'orthorhombic'
loop_
_space_group_symop_operation_xyz
x,y,z
-x,-y,z
-x,y,1/2+z
x,-y,1/2+z
1/2+x,1/2+y,1/2+z
1/2-x,1/2-y,1/2+z
1/2-x,1/2+y,z
1/2+x,1/2-y,z
loop_
_atom_site_type_symbol
_atom_site_label
_atom_site_fract_x
_atom_site_fract_y
_atom_site_fract_z
Si Si1 0.538469 0.168664 0.401410
Si Si2 0.000000 0.000000 0.498502
Si Si3 0.860116 0.547722 0.576196
Si Si4 0.000000 0.500000 0.249455
Si Si5 0.340839 0.828814 0.995999
Si Si6 0.354887 0.633878 0.364724
Si Si7 0.845590 0.873107 0.120254
O O1 0.589297 0.133893 0.508171
O O2 0.426146 0.203540 0.416237
O O3 0.589724 0.263066 0.351964
O O4 0.555433 0.080016 0.320109
O O5 0.946530 0.082494 0.572508
O O6 0.080774 0.051213 0.424653
O O7 0.880195 0.433684 0.541816
O O8 0.744594 0.564751 0.573427
O O9 0.914028 0.557571 0.687484
O O10 0.243096 0.846385 0.930291
O O11 0.331488 0.744246 0.087603
O O12 0.337419 0.603525 0.244140
#
# Coordination Sequence:
#
# PCOD8191109 Si02
#       7
#     8   4   8   4   8   8   8
#     4  12  24  43  69 100 139 174 224 287 338 403
#     4  12  26  52  72  94 148 180 238 300 336 426
#     4  12  24  43  69 100 139 174 224 287 338 403
#     4  12  22  40  72 102 132 176 226 280 340 414
#     4  12  23  48  70 101 144 172 232 296 334 419
#     4  12  27  46  72 103 137 190 232 284 354 416
#     4  12  27  46  72 103 137 190 232 284 354 416
#
# _framework density 20.749392
#
# number of rings (size 3 to 8) (size 9 to 14) (size 15 to 20)
#    0.000    0.000    8.333    2.500    0.000    0.000 
#    6.000    0.000    0.000    0.000    0.000    0.000 
#    0.000    0.000    0.000    0.000    0.000    0.000 
#
# Total GULP energy -297590.021833 kJ/mol
# GULP energy per Si atom -12399.584243 kJ/mol
# Density = 2.070217 g / cm^3
# Si number density = 20.749392 Si / 1000 Ang^3
#
#
#
# Elastic Constant Matrix: (Units=GPa)
#
#
# Indices 1 2 3 4 5 6 
#
# 1 122.3144 11.3807 29.0497 0.0000 0.0000 0.0000
# 2 11.3807 74.5679 11.6842 0.0000 0.0000 0.0000
# 3 29.0497 11.6842 90.4065 0.0000 0.0000 0.0000
# 4 0.0000 0.0000 0.0000 -67.8492 0.0000 0.0000
# 5 0.0000 0.0000 0.0000 0.0000 -26.0115 0.0000
# 6 0.0000 0.0000 0.0000 0.0000 0.0000 38.4908
#
#
#
# Elastic Compliance Matrix: (Units=1/GPa)
#
#
# Indices 1 2 3 4 5 6 
#
# 1 0.008914 -0.000931 -0.002744 0.000000 0.000000 0.000000
# 2 -0.000931 0.013785 -0.001483 0.000000 0.000000 0.000000
# 3 -0.002744 -0.001483 0.012134 0.000000 0.000000 0.000000
# 4 0.000000 0.000000 0.000000 -0.014739 0.000000 0.000000
# 5 0.000000 0.000000 0.000000 0.000000 -0.038445 0.000000
# 6 0.000000 0.000000 0.000000 0.000000 0.000000 0.025980
#
#
# Mechanical properties :
#
#
# Convention : Reuss Voigt Hill
#
# Bulk Modulus (GPa) = 40.78441 43.50199 42.14320
# Shear Modulus (GPa) = 191.44179 4.60431 98.02305
#
# Velocity S-wave (km/s) = 9.61583 1.49125 6.88070
# Velocity P-wave (km/s) = 11.95759 4.89653 9.13674
#
# Compressibility (1/GPa) = 0.02451917
#
# Stress axis : x y z
#
# Youngs Moduli (GPa) = 112.18397 72.54305 82.40986
#
# Poissons Ratio (x) = 0.06750 0.22613
# Poissons Ratio (y) = 0.10439 0.12218
# Poissons Ratio (z) = 0.30783 0.10755
#
# Static dielectric constant tensor:
#      x y z
#    x 4.511610 0.000000 0.000000 
#    y 0.000000 4.125430 0.000000 
#    z 0.000000 0.000000 3.728920 
# 
# 
# High freq. dielectric constant tensor:
#      x y z
#    x 1.830370 0.000000 0.000000 
#    y 0.000000 1.818080 0.000000 
#    z 0.000000 0.000000 1.814040 
# 
# From -- ./inp_files/4115.got.cif
#   From: 2010.03.12/outbox.cif.g09.slc.cpg/sg45_3_cif.got.tgz:4115.got - 2010.04.14 02:50:11.
