data_PCOD8191344
_publ_section_title
;
Structure prediction by ZEFSAII (Michael W. Deem and Ramdas Pophale) SiO2 
 PCOD8191344
Probable space group: I M A 2
;
_chemical_formula_sum "Si O2"
_cell_formula_units_Z 64
_cell_length_a 8.965849
_cell_length_b 18.360066
_cell_length_c 26.058678
_cell_angle_alpha 90.000000
_cell_angle_beta 90.000000
_cell_angle_gamma 90.000000
_cell_volume 4289.612260
_symmetry_space_group_name_H-M "I M A 2"
_symmetry_group_IT_number 46
_symmetry_cell_setting 'orthorhombic'
loop_
_space_group_symop_operation_xyz
x,y,z
-x,-y,z
1/2-x,y,z
1/2+x,-y,z
1/2+x,1/2+y,1/2+z
1/2-x,1/2-y,1/2+z
-x,1/2+y,1/2+z
x,1/2-y,1/2+z
loop_
_atom_site_type_symbol
_atom_site_label
_atom_site_fract_x
_atom_site_fract_y
_atom_site_fract_z
Si Si1 0.921650 0.846653 0.078550
Si Si2 0.925375 0.075746 0.982640
Si Si3 0.079550 0.713350 0.422535
Si Si4 0.418355 0.282932 0.012975
Si Si5 0.074800 0.167388 0.366852
Si Si6 0.924408 0.075153 0.283732
Si Si7 0.581018 0.925503 0.465535
Si Si8 0.924288 0.424985 0.665414
O O1 0.750000 0.870658 0.083792
O O2 0.934061 0.759320 0.067110
O O3 0.006659 0.860030 0.131813
O O4 0.995032 0.893279 0.033202
O O5 0.750000 0.067037 0.994476
O O6 0.951046 0.127703 0.932790
O O7 0.000000 0.000000 0.967304
O O8 0.250000 0.727769 0.407344
O O9 0.044921 0.751623 0.476397
O O10 0.976601 0.749355 0.378414
O O11 0.250000 0.268221 0.990377
O O12 0.440164 0.370735 0.014558
O O13 0.250000 0.166150 0.357426
O O14 0.024471 0.115450 0.414082
O O15 0.992424 0.141310 0.315749
O O16 0.750000 0.068024 0.294453
O O17 0.959825 0.092008 0.224518
O O18 0.000000 0.000000 0.301407
O O19 0.750000 0.947882 0.457120
O O20 0.500000 0.000000 0.477466
O O21 0.750000 0.431348 0.654896
O O22 0.000000 0.500000 0.647751
#
# Coordination Sequence:
#
# PCOD8191344 Si02
#       8
#     8   8   8   8   8   8   8   8
#     4  10  18  29  45  60  79 110 143 174 208 247
#     4  10  19  29  42  61  85 112 141 173 207 246
#     4   9  17  28  42  60  81 106 138 173 206 242
#     4   8  16  29  41  56  80 108 137 169 205 244
#     4  10  19  30  44  60  82 112 142 172 206 246
#     4  10  20  32  45  61  83 110 140 175 210 244
#     4   9  17  27  39  58  82 107 135 165 198 236
#     4  10  20  32  44  60  83 109 139 175 210 245
#
# _framework density 14.919764000000001
#
# number of rings (size 3 to 8) (size 9 to 14) (size 15 to 20)
#    0.000    2.500    0.000    3.750    0.000    7.000 
#    0.000    0.000    0.000    0.000    0.000    0.000 
#    0.000    1.000    0.000    7.500    0.000    4.375 
#
# Total GULP energy -396605.117128 kJ/mol
# GULP energy per Si atom -12393.909910 kJ/mol
# Density = 1.488581 g / cm^3
# Si number density = 14.919764 Si / 1000 Ang^3
#
#
#
# Elastic Constant Matrix: (Units=GPa)
#
#
# Indices 1 2 3 4 5 6 
#
# 1 80.3905 45.2674 38.2731 0.0000 0.0000 0.0000
# 2 45.2674 96.8706 43.2390 0.0000 0.0000 0.0000
# 3 38.2731 43.2390 64.1705 0.0000 0.0000 0.0000
# 4 0.0000 0.0000 0.0000 23.9028 0.0000 0.0000
# 5 0.0000 0.0000 0.0000 0.0000 22.0970 0.0000
# 6 0.0000 0.0000 0.0000 0.0000 0.0000 25.3891
#
#
#
# Elastic Compliance Matrix: (Units=1/GPa)
#
#
# Indices 1 2 3 4 5 6 
#
# 1 0.019245 -0.005534 -0.007749 0.000000 0.000000 0.000000
# 2 -0.005534 0.016355 -0.007719 0.000000 0.000000 0.000000
# 3 -0.007749 -0.007719 0.025407 0.000000 0.000000 0.000000
# 4 0.000000 0.000000 0.000000 0.041836 0.000000 0.000000
# 5 0.000000 0.000000 0.000000 0.000000 0.045255 0.000000
# 6 0.000000 0.000000 0.000000 0.000000 0.000000 0.039387
#
#
# Mechanical properties :
#
#
# Convention : Reuss Voigt Hill
#
# Bulk Modulus (GPa) = 52.62891 54.99896 53.81394
# Shear Modulus (GPa) = 21.20232 21.92126 21.56179
#
# Velocity S-wave (km/s) = 3.77382 3.83727 3.80568
# Velocity P-wave (km/s) = 7.37158 7.52171 7.44702
#
# Compressibility (1/GPa) = 0.01900096
#
# Stress axis : x y z
#
# Youngs Moduli (GPa) = 51.96202 61.14437 39.35971
#
# Poissons Ratio (x) = 0.33838 0.30500
# Poissons Ratio (y) = 0.28757 0.30383
# Poissons Ratio (z) = 0.40266 0.47199
#
# Static dielectric constant tensor:
#      x y z
#    x 3.009610 0.000000 0.000000 
#    y 0.000000 2.999590 0.000000 
#    z 0.000000 0.000000 2.698910 
# 
# 
# High freq. dielectric constant tensor:
#      x y z
#    x 1.590170 0.000000 0.000000 
#    y 0.000000 1.560330 0.000000 
#    z 0.000000 0.000000 1.532810 
# 
# From -- ./inp_files/23286.got.cif
#   From: 2010.03.12/outbox.cif.g09.slc.cpg/sg46_12_cif.got.tgz:23286.got - 2010.04.14 02:56:35.
