data_PCOD8191620
_publ_section_title
;
Structure prediction by ZEFSAII (Michael W. Deem and Ramdas Pophale) SiO2 
 PCOD8191620
Probable space group: I M A 2
;
_chemical_formula_sum "Si O2"
_cell_formula_units_Z 52
_cell_length_a 16.656678
_cell_length_b 10.821866
_cell_length_c 13.843660
_cell_angle_alpha 90.000000
_cell_angle_beta 90.000000
_cell_angle_gamma 90.000000
_cell_volume 2495.407447
_symmetry_space_group_name_H-M "I M A 2"
_symmetry_group_IT_number 46
_symmetry_cell_setting 'orthorhombic'
loop_
_space_group_symop_operation_xyz
x,y,z
-x,-y,z
1/2-x,y,z
1/2+x,-y,z
1/2+x,1/2+y,1/2+z
1/2-x,1/2-y,1/2+z
-x,1/2+y,1/2+z
x,1/2-y,1/2+z
loop_
_atom_site_type_symbol
_atom_site_label
_atom_site_fract_x
_atom_site_fract_y
_atom_site_fract_z
Si Si1 0.250000 0.192714 0.704000
Si Si2 0.660106 0.056285 0.301227
Si Si3 0.475037 0.861913 0.785367
Si Si4 0.155490 0.709898 0.423284
Si Si5 0.880934 0.796952 0.338408
Si Si6 0.881529 0.237747 0.134614
Si Si7 0.750000 0.667527 0.993199
Si Si8 0.750000 0.056320 0.620000
O O1 0.331143 0.237658 0.752018
O O2 0.250000 0.242892 0.593695
O O3 0.250000 0.042843 0.706890
O O4 0.750000 0.998634 0.307379
O O5 0.645518 0.148307 0.390435
O O6 0.653070 0.127115 0.199645
O O7 0.599586 0.940171 0.310535
O O8 0.391102 0.872355 0.844276
O O9 0.538177 0.783244 0.849584
O O10 0.463594 0.787198 0.684160
O O11 0.500000 0.000000 0.760869
O O12 0.250000 0.673049 0.428213
O O13 0.110772 0.687741 0.525593
O O14 0.830686 0.793564 0.437341
O O15 0.826210 0.357497 0.129300
O O16 0.750000 0.519303 0.017546
#
# Coordination Sequence:
#
# PCOD8191620 Si02
#       8
#     4   8   8   8   8   8   4   4
#     4   9  21  35  64  99 122 175 218 263 327 390
#     4  10  19  37  67  96 127 167 218 276 327 391
#     4  11  27  46  61  98 142 179 217 279 351 404
#     4  10  22  43  68  97 125 175 229 274 328 398
#     4  11  21  43  62  93 141 170 220 276 342 396
#     4  11  21  39  68  94 128 173 222 276 323 394
#     4   9  21  37  66  97 123 177 222 277 315 402
#     4  10  18  36  66 100 125 164 232 264 314 392
#
# _framework density 20.838280999999998
#
# number of rings (size 3 to 8) (size 9 to 14) (size 15 to 20)
#    0.462    1.231    3.077    1.846    1.077    3.692 
#   11.077    0.000    0.000    0.000    0.000    0.000 
#    0.000    0.000    0.000    0.000    0.000    0.000 
#
# Total GULP energy -322239.983653 kJ/mol
# GULP energy per Si atom -12393.845525 kJ/mol
# Density = 2.079085 g / cm^3
# Si number density = 20.838281 Si / 1000 Ang^3
#
#
#
# Elastic Constant Matrix: (Units=GPa)
#
#
# Indices 1 2 3 4 5 6 
#
# 1 76.5631 25.1092 25.6530 0.0000 0.0000 0.0000
# 2 25.1092 54.1298 6.4926 0.0000 0.0000 0.0000
# 3 25.6530 6.4926 118.5281 0.0000 0.0000 0.0000
# 4 0.0000 0.0000 0.0000 31.3166 0.0000 0.0000
# 5 0.0000 0.0000 0.0000 0.0000 23.1621 0.0000
# 6 0.0000 0.0000 0.0000 0.0000 0.0000 25.1422
#
#
#
# Elastic Compliance Matrix: (Units=1/GPa)
#
#
# Indices 1 2 3 4 5 6 
#
# 1 0.016512 -0.007279 -0.003175 0.000000 0.000000 0.000000
# 2 -0.007279 0.021805 0.000381 0.000000 0.000000 0.000000
# 3 -0.003175 0.000381 0.009103 0.000000 0.000000 0.000000
# 4 0.000000 0.000000 0.000000 0.031932 0.000000 0.000000
# 5 0.000000 0.000000 0.000000 0.000000 0.043174 0.000000
# 6 0.000000 0.000000 0.000000 0.000000 0.000000 0.039774
#
#
# Mechanical properties :
#
#
# Convention : Reuss Voigt Hill
#
# Bulk Modulus (GPa) = 36.66429 40.41452 38.53940
# Shear Modulus (GPa) = 26.10472 28.72193 27.41333
#
# Velocity S-wave (km/s) = 3.54323 3.71661 3.63095
# Velocity P-wave (km/s) = 5.86278 6.15256 6.00942
#
# Compressibility (1/GPa) = 0.02727450
#
# Stress axis : x y z
#
# Youngs Moduli (GPa) = 60.56220 45.86166 109.85250
#
# Poissons Ratio (x) = 0.33381 0.34878
# Poissons Ratio (y) = 0.44081 -0.04184
# Poissons Ratio (z) = 0.19228 -0.01747
#
# Static dielectric constant tensor:
#      x y z
#    x 4.414830 0.000000 0.000000 
#    y 0.000000 3.654860 0.000000 
#    z 0.000000 0.000000 3.935380 
# 
# 
# High freq. dielectric constant tensor:
#      x y z
#    x 1.799120 0.000000 0.000000 
#    y 0.000000 1.811490 0.000000 
#    z 0.000000 0.000000 1.818610 
# 
# From -- ./inp_files/16694.got.cif
#   From: 2010.03.12/outbox.cif.g09.slc.cpg/sg46_9_cif.got.tgz:16694.got - 2010.04.14 02:56:35.
