data_PCOD8191293
_publ_section_title
;
Structure prediction by ZEFSAII (Michael W. Deem and Ramdas Pophale) SiO2 
 PCOD8191293
Probable space group: I M A 2
;
_chemical_formula_sum "Si O2"
_cell_formula_units_Z 64
_cell_length_a 8.647866
_cell_length_b 18.425388
_cell_length_c 26.390740
_cell_angle_alpha 90.000000
_cell_angle_beta 90.000000
_cell_angle_gamma 90.000000
_cell_volume 4205.108070
_symmetry_space_group_name_H-M "I M A 2"
_symmetry_group_IT_number 46
_symmetry_cell_setting 'orthorhombic'
loop_
_space_group_symop_operation_xyz
x,y,z
-x,-y,z
1/2-x,y,z
1/2+x,-y,z
1/2+x,1/2+y,1/2+z
1/2-x,1/2-y,1/2+z
-x,1/2+y,1/2+z
x,1/2-y,1/2+z
loop_
_atom_site_type_symbol
_atom_site_label
_atom_site_fract_x
_atom_site_fract_y
_atom_site_fract_z
Si Si1 0.067110 0.079134 0.281160
Si Si2 0.066653 0.422672 0.963390
Si Si3 0.573337 0.576684 0.263706
Si Si4 0.929457 0.783846 0.817083
Si Si5 0.933166 0.671337 0.170012
Si Si6 0.568667 0.924243 0.578256
Si Si7 0.566576 0.166539 0.375545
Si Si8 0.569601 0.297198 0.724276
O O1 0.250000 0.075829 0.287124
O O2 0.995720 0.113184 0.332077
O O3 0.019386 0.126343 0.231645
O O4 0.000000 0.000000 0.272825
O O5 0.250000 0.422805 0.956176
O O6 0.000000 0.500000 0.945783
O O7 0.989336 0.360390 0.930050
O O8 0.015718 0.406107 0.021157
O O9 0.500000 0.500000 0.276121
O O10 0.750000 0.560687 0.252586
O O11 0.551295 0.628911 0.313218
O O12 0.505021 0.616317 0.213693
O O13 0.750000 0.762083 0.808550
O O14 0.994139 0.747930 0.868751
O O15 0.035352 0.750328 0.773530
O O16 0.750000 0.680738 0.174870
O O17 0.985832 0.639924 0.115660
O O18 0.008945 0.751173 0.175958
O O19 0.750000 0.933518 0.581027
O O20 0.500000 0.000000 0.597417
O O21 0.750000 0.169807 0.373398
O O22 0.750000 0.313082 0.718414
#
# Coordination Sequence:
#
# PCOD8191293 Si02
#       8
#     8   8   8   8   8   8   8   8
#     4  11  20  31  45  62  85 112 140 174 209 249
#     4  10  19  31  44  61  84 112 143 179 215 250
#     4   9  17  26  40  60  84 110 138 169 204 242
#     4   9  17  30  43  58  81 110 139 172 209 247
#     4   9  17  30  43  59  83 114 145 174 208 246
#     4   9  18  30  45  62  84 112 145 180 215 249
#     4  11  20  30  44  62  82 110 144 177 211 252
#     4  10  18  28  42  62  83 108 140 173 207 247
#
# _framework density 15.219583999999999
#
# number of rings (size 3 to 8) (size 9 to 14) (size 15 to 20)
#    0.000    2.250    0.000    7.125    0.000    3.500 
#    0.000    0.000    0.000    0.000    0.000    0.000 
#    0.000    1.000    0.000    6.500    0.000    4.875 
#
# Total GULP energy -396631.251472 kJ/mol
# GULP energy per Si atom -12394.726608 kJ/mol
# Density = 1.518494 g / cm^3
# Si number density = 15.219584 Si / 1000 Ang^3
#
#
#
# Elastic Constant Matrix: (Units=GPa)
#
#
# Indices 1 2 3 4 5 6 
#
# 1 74.7005 37.4875 27.0330 0.0000 0.0000 0.0000
# 2 37.4875 103.0028 47.2801 0.0000 0.0000 0.0000
# 3 27.0330 47.2801 72.3478 0.0000 0.0000 0.0000
# 4 0.0000 0.0000 0.0000 26.0307 0.0000 0.0000
# 5 0.0000 0.0000 0.0000 0.0000 17.3429 0.0000
# 6 0.0000 0.0000 0.0000 0.0000 0.0000 27.5520
#
#
#
# Elastic Compliance Matrix: (Units=1/GPa)
#
#
# Indices 1 2 3 4 5 6 
#
# 1 0.016906 -0.004647 -0.003280 0.000000 0.000000 0.000000
# 2 -0.004647 0.015146 -0.008162 0.000000 0.000000 0.000000
# 3 -0.003280 -0.008162 0.020381 0.000000 0.000000 0.000000
# 4 0.000000 0.000000 0.000000 0.038416 0.000000 0.000000
# 5 0.000000 0.000000 0.000000 0.000000 0.057661 0.000000
# 6 0.000000 0.000000 0.000000 0.000000 0.000000 0.036295
#
#
# Mechanical properties :
#
#
# Convention : Reuss Voigt Hill
#
# Bulk Modulus (GPa) = 49.36879 52.62803 50.99841
# Shear Modulus (GPa) = 22.34784 23.40181 22.87483
#
# Velocity S-wave (km/s) = 3.83608 3.92549 3.88104
# Velocity P-wave (km/s) = 7.22002 7.42968 7.32560
#
# Compressibility (1/GPa) = 0.02025571
#
# Stress axis : x y z
#
# Youngs Moduli (GPa) = 59.15076 66.02296 49.06419
#
# Poissons Ratio (x) = 0.30683 0.16093
# Poissons Ratio (y) = 0.27489 0.40045
# Poissons Ratio (z) = 0.19401 0.53886
#
# Static dielectric constant tensor:
#      x y z
#    x 2.980900 0.000000 0.000000 
#    y 0.000000 3.163740 0.000000 
#    z 0.000000 0.000000 2.947630 
# 
# 
# High freq. dielectric constant tensor:
#      x y z
#    x 1.596180 0.000000 0.000000 
#    y 0.000000 1.574330 0.000000 
#    z 0.000000 0.000000 1.547300 
# 
# From -- ./inp_files/24405.got.cif
#   From: 2010.03.12/outbox.cif.g09.slc.cpg/sg46_13_cif.got.tgz:24405.got - 2010.04.14 02:56:35.
