data_PCOD8191281
_publ_section_title
;
Structure prediction by ZEFSAII (Michael W. Deem and Ramdas Pophale) SiO2 
 PCOD8191281
Probable space group: I M A 2
;
_chemical_formula_sum "Si O2"
_cell_formula_units_Z 56
_cell_length_a 8.781621
_cell_length_b 21.651458
_cell_length_c 17.607602
_cell_angle_alpha 90.000000
_cell_angle_beta 90.000000
_cell_angle_gamma 90.000000
_cell_volume 3347.819615
_symmetry_space_group_name_H-M "I M A 2"
_symmetry_group_IT_number 46
_symmetry_cell_setting 'orthorhombic'
loop_
_space_group_symop_operation_xyz
x,y,z
-x,-y,z
1/2-x,y,z
1/2+x,-y,z
1/2+x,1/2+y,1/2+z
1/2-x,1/2-y,1/2+z
-x,1/2+y,1/2+z
x,1/2-y,1/2+z
loop_
_atom_site_type_symbol
_atom_site_label
_atom_site_fract_x
_atom_site_fract_y
_atom_site_fract_z
Si Si1 0.429405 0.225281 0.157570
Si Si2 0.581368 0.682701 0.499303
Si Si3 0.922601 0.151782 0.855242
Si Si4 0.930570 0.353262 0.110344
Si Si5 0.920853 0.825754 0.458190
Si Si6 0.575549 0.206314 0.310668
Si Si7 0.570506 0.934322 0.735822
O O1 0.250000 0.239724 0.159348
O O2 0.516498 0.289846 0.149183
O O3 0.483136 0.191431 0.233981
O O4 0.469730 0.179131 0.087578
O O5 0.750000 0.654560 0.488435
O O6 0.466710 0.645826 0.444412
O O7 0.583248 0.754303 0.478534
O O8 0.750000 0.128735 0.844408
O O9 0.942252 0.221888 0.829498
O O10 0.035419 0.110812 0.805825
O O11 0.750000 0.355069 0.111571
O O12 0.995588 0.410031 0.158403
O O13 0.988849 0.361454 0.024284
O O14 0.750000 0.852455 0.452344
O O15 0.005851 0.835289 0.378043
O O16 0.750000 0.187318 0.299463
O O17 0.750000 0.939302 0.724745
O O18 0.500000 0.000000 0.756188
#
# Coordination Sequence:
#
# PCOD8191281 Si02
#       7
#     8   8   8   8   8   8   8
#     4  10  18  28  44  66  93 125 158 189 228 277
#     4   8  16  28  42  62  87 119 155 187 225 274
#     4  10  19  31  46  65  89 119 154 192 235 276
#     4  11  20  32  47  65  90 119 155 194 236 278
#     4   9  17  29  44  63  88 120 156 188 228 277
#     4  10  18  27  43  67  95 124 156 191 229 275
#     4  12  24  37  52  68  90 120 159 200 239 278
#
# _framework density 16.727305999999999
#
# number of rings (size 3 to 8) (size 9 to 14) (size 15 to 20)
#    0.000    2.000    1.429    5.143    0.000    5.143 
#    0.000    0.000    0.000    0.000    0.000    0.000 
#    0.000    1.143    0.000    6.286    0.000    6.714 
#
# Total GULP energy -347190.927444 kJ/mol
# GULP energy per Si atom -12399.675980 kJ/mol
# Density = 1.668923 g / cm^3
# Si number density = 16.727306 Si / 1000 Ang^3
#
#
#
# Elastic Constant Matrix: (Units=GPa)
#
#
# Indices 1 2 3 4 5 6 
#
# 1 132.5436 21.2689 53.2667 0.0000 0.0000 0.0000
# 2 21.2689 22.3106 14.4322 0.0001 0.0000 0.0000
# 3 53.2667 14.4322 136.5877 0.0002 0.0000 0.0000
# 4 0.0000 0.0001 0.0002 20.1271 0.0000 0.0000
# 5 0.0000 0.0000 0.0000 0.0000 33.8540 0.0000
# 6 0.0000 0.0000 0.0000 0.0000 0.0000 17.3818
#
#
#
# Elastic Compliance Matrix: (Units=1/GPa)
#
#
# Indices 1 2 3 4 5 6 
#
# 1 0.010000 -0.007525 -0.003105 0.000000 0.000000 0.000000
# 2 -0.007525 0.053772 -0.002747 0.000000 0.000000 0.000000
# 3 -0.003105 -0.002747 0.008822 0.000000 0.000000 0.000000
# 4 0.000000 0.000000 0.000000 0.049684 0.000000 0.000000
# 5 0.000000 0.000000 0.000000 0.000000 0.029539 0.000000
# 6 0.000000 0.000000 0.000000 0.000000 0.000000 0.057532
#
#
# Mechanical properties :
#
#
# Convention : Reuss Voigt Hill
#
# Bulk Modulus (GPa) = 21.81439 52.15303 36.98371
# Shear Modulus (GPa) = 19.89003 27.77085 23.83044
#
# Velocity S-wave (km/s) = 3.45204 4.07899 3.77854
# Velocity P-wave (km/s) = 5.38129 7.30960 6.41828
#
# Compressibility (1/GPa) = 0.04584130
#
# Stress axis : x y z
#
# Youngs Moduli (GPa) = 100.00145 18.59699 113.34841
#
# Poissons Ratio (x) = 0.13993 0.35191
# Poissons Ratio (y) = 0.75247 0.31139
# Poissons Ratio (z) = 0.31047 0.05109
#
# Static dielectric constant tensor:
#      x y z
#    x 3.294400 0.000000 0.000000 
#    y 0.000000 2.558440 0.000000 
#    z 0.000000 0.000000 3.529800 
# 
# 
# High freq. dielectric constant tensor:
#      x y z
#    x 1.663770 0.000000 0.000000 
#    y 0.000000 1.564610 0.000000 
#    z 0.000000 0.000000 1.662520 
# 
# From -- ./inp_files/18446.got.cif
#   From: 2010.03.12/outbox.cif.g09.slc.cpg/sg46_10_cif.got.tgz:18446.got - 2010.04.14 02:56:35.
