data_PCOD8191665
_publ_section_title
;
Structure prediction by ZEFSAII (Michael W. Deem and Ramdas Pophale) SiO2 
 PCOD8191665
Probable space group: I M A 2
;
_chemical_formula_sum "Si O2"
_cell_formula_units_Z 64
_cell_length_a 9.015512
_cell_length_b 19.772582
_cell_length_c 22.593256
_cell_angle_alpha 90.000000
_cell_angle_beta 90.000000
_cell_angle_gamma 90.000000
_cell_volume 4027.472691
_symmetry_space_group_name_H-M "I M A 2"
_symmetry_group_IT_number 46
_symmetry_cell_setting 'orthorhombic'
loop_
_space_group_symop_operation_xyz
x,y,z
-x,-y,z
1/2-x,y,z
1/2+x,-y,z
1/2+x,1/2+y,1/2+z
1/2-x,1/2-y,1/2+z
-x,1/2+y,1/2+z
x,1/2-y,1/2+z
loop_
_atom_site_type_symbol
_atom_site_label
_atom_site_fract_x
_atom_site_fract_y
_atom_site_fract_z
Si Si1 0.416716 0.646416 0.890310
Si Si2 0.076319 0.931342 0.999310
Si Si3 0.077253 0.696379 0.577342
Si Si4 0.924627 0.183313 0.213014
Si Si5 0.915528 0.853433 0.903529
Si Si6 0.913419 0.279917 0.311866
Si Si7 0.583168 0.721570 0.984418
Si Si8 0.572845 0.570748 0.789714
O O1 0.250000 0.618126 0.899903
O O2 0.410342 0.715214 0.853998
O O3 0.492051 0.660551 0.953980
O O4 0.514293 0.592135 0.854545
O O5 0.250000 0.943150 0.994091
O O6 0.015980 0.910000 0.934793
O O7 0.034875 0.875012 0.047756
O O8 0.000000 0.000000 0.020989
O O9 0.250000 0.711428 0.569204
O O10 0.029566 0.693360 0.645357
O O11 0.990573 0.758046 0.546678
O O12 0.750000 0.165665 0.220682
O O13 0.962717 0.253621 0.246998
O O14 0.022442 0.123182 0.239457
O O15 0.750000 0.882292 0.897112
O O16 0.918295 0.785778 0.941706
O O17 0.976533 0.836686 0.837780
O O18 0.750000 0.312630 0.309194
O O19 0.750000 0.696550 0.996198
O O20 0.500000 0.500000 0.771919
O O21 0.750000 0.565745 0.790887
#
# Coordination Sequence:
#
# PCOD8191665 Si02
#       8
#     8   8   8   8   8   8   8   8
#     4   9  16  28  45  63  83 108 139 176 220 264
#     4  10  19  30  43  59  82 112 146 180 214 250
#     4   9  18  31  45  61  85 118 151 182 215 253
#     4   9  18  32  46  62  86 117 152 184 215 254
#     4   9  16  26  41  60  81 104 134 172 214 258
#     4   8  14  25  42  61  81 105 134 172 216 257
#     4   9  16  26  42  64  86 108 138 177 219 260
#     4  11  21  32  45  62  86 116 150 185 221 260
#
# _framework density 15.890858
#
# number of rings (size 3 to 8) (size 9 to 14) (size 15 to 20)
#    0.000    2.750    0.000    3.375    0.000    7.500 
#    0.000    1.250    0.000    0.000    0.000    0.000 
#    0.000    1.000    0.000    8.000    0.000    5.500 
#
# Total GULP energy -396721.233339 kJ/mol
# GULP energy per Si atom -12397.538542 kJ/mol
# Density = 1.585469 g / cm^3
# Si number density = 15.890858 Si / 1000 Ang^3
#
#
#
# Elastic Constant Matrix: (Units=GPa)
#
#
# Indices 1 2 3 4 5 6 
#
# 1 105.4145 22.7341 56.5893 0.0000 0.0000 0.0000
# 2 22.7341 18.9417 43.6304 0.0000 0.0000 0.0000
# 3 56.5893 43.6304 113.2778 0.0000 0.0000 0.0000
# 4 0.0000 0.0000 0.0000 13.2434 0.0000 0.0000
# 5 0.0000 0.0000 0.0000 0.0000 21.5431 0.0000
# 6 0.0000 0.0000 0.0000 0.0000 0.0000 23.5773
#
#
#
# Elastic Compliance Matrix: (Units=1/GPa)
#
#
# Indices 1 2 3 4 5 6 
#
# 1 0.013032 -0.005721 -0.004307 0.000000 0.000000 0.000000
# 2 -0.005721 0.470477 -0.178353 0.000000 0.000000 0.000000
# 3 -0.004307 -0.178353 0.079674 0.000000 0.000000 0.000000
# 4 0.000000 0.000000 0.000000 0.075509 0.000000 0.000000
# 5 0.000000 0.000000 0.000000 0.000000 0.046419 0.000000
# 6 0.000000 0.000000 0.000000 0.000000 0.000000 0.042414
#
#
# Mechanical properties :
#
#
# Convention : Reuss Voigt Hill
#
# Bulk Modulus (GPa) = 5.36414 53.72686 29.54550
# Shear Modulus (GPa) = 4.28660 19.31812 11.80236
#
# Velocity S-wave (km/s) = 1.64420 3.49044 2.72823
# Velocity P-wave (km/s) = 2.64338 7.08008 5.34392
#
# Compressibility (1/GPa) = 0.18642303
#
# Stress axis : x y z
#
# Youngs Moduli (GPa) = 76.73290 2.12550 12.55110
#
# Poissons Ratio (x) = 0.01216 0.05406
# Poissons Ratio (y) = 0.43897 2.23852
# Poissons Ratio (z) = 0.33049 0.37909
#
# Static dielectric constant tensor:
#      x y z
#    x 3.183520 0.000000 0.000000 
#    y 0.000000 2.753570 0.000000 
#    z 0.000000 0.000000 3.036880 
# 
# 
# High freq. dielectric constant tensor:
#      x y z
#    x 1.623890 0.000000 0.000000 
#    y 0.000000 1.567310 0.000000 
#    z 0.000000 0.000000 1.592880 
# 
# From -- ./inp_files/21419.got.cif
#   From: 2010.03.12/outbox.cif.g09.slc.cpg/sg46_11_cif.got.tgz:21419.got - 2010.04.14 02:56:35.
