data_PCOD8191153
_publ_section_title
;
Structure prediction by ZEFSAII (Michael W. Deem and Ramdas Pophale) SiO2 
 PCOD8191153
Probable space group: I M A 2
;
_chemical_formula_sum "Si O2"
_cell_formula_units_Z 40
_cell_length_a 10.210971
_cell_length_b 12.474514
_cell_length_c 16.840259
_cell_angle_alpha 90.000000
_cell_angle_beta 90.000000
_cell_angle_gamma 90.000000
_cell_volume 2145.059998
_symmetry_space_group_name_H-M "I M A 2"
_symmetry_group_IT_number 46
_symmetry_cell_setting 'orthorhombic'
loop_
_space_group_symop_operation_xyz
x,y,z
-x,-y,z
1/2-x,y,z
1/2+x,-y,z
1/2+x,1/2+y,1/2+z
1/2-x,1/2-y,1/2+z
-x,1/2+y,1/2+z
x,1/2-y,1/2+z
loop_
_atom_site_type_symbol
_atom_site_label
_atom_site_fract_x
_atom_site_fract_y
_atom_site_fract_z
Si Si1 0.750000 0.629510 0.939940
Si Si2 0.250000 0.595299 0.022748
Si Si3 0.521465 0.383390 0.323565
Si Si4 0.250000 0.564563 0.203650
Si Si5 0.529164 0.186083 0.419425
Si Si6 0.500000 0.000000 0.293074
Si Si7 0.250000 0.168786 0.749206
Si Si8 0.250000 0.095116 0.252406
O O1 0.750000 0.528002 0.997828
O O2 0.617571 0.696511 0.955623
O O3 0.750000 0.596863 0.848206
O O4 0.120535 0.652536 0.991430
O O5 0.250000 0.613410 0.116782
O O6 0.500000 0.500000 0.363131
O O7 0.619526 0.396819 0.249059
O O8 0.580370 0.300918 0.387375
O O9 0.381205 0.333667 0.301277
O O10 0.250000 0.434587 0.192006
O O11 0.540076 0.099819 0.348521
O O12 0.382261 0.030230 0.232137
O O13 0.250000 0.287624 0.709728
#
# Coordination Sequence:
#
# PCOD8191153 Si02
#       8
#     4   4   8   4   8   4   4   4
#     4  10  18  29  52  81 105 137 175 230 286 323
#     4  12  21  35  52  85 123 142 176 236 292 341
#     4  10  20  36  55  81 112 151 191 232 272 339
#     4  10  25  36  50  82 120 160 185 218 284 350
#     4  11  18  32  55  83 112 139 185 237 285 320
#     4  10  16  28  52  84 110 128 180 238 284 316
#     4  10  18  35  55  70 115 152 188 223 284 336
#     4  10  16  29  47  82 111 137 172 237 280 332
#
# _framework density 18.647496
#
# number of rings (size 3 to 8) (size 9 to 14) (size 15 to 20)
#    0.000    1.600    8.000    0.600    0.000    4.800 
#    0.000    0.000    0.000    0.000    2.600    2.800 
#    0.000    0.000    0.000    0.000    0.000    0.000 
#
# Total GULP energy -247847.412434 kJ/mol
# GULP energy per Si atom -12392.370622 kJ/mol
# Density = 1.860505 g / cm^3
# Si number density = 18.647496 Si / 1000 Ang^3
#
#
#
# Elastic Constant Matrix: (Units=GPa)
#
#
# Indices 1 2 3 4 5 6 
#
# 1 144.6292 49.5803 31.8335 0.0000 0.0000 0.0000
# 2 49.5803 138.2999 46.0830 0.0000 0.0000 0.0000
# 3 31.8335 46.0830 65.7791 0.0000 0.0000 0.0000
# 4 0.0000 0.0000 0.0000 15.8916 0.0000 0.0000
# 5 0.0000 0.0000 0.0000 0.0000 -5.8499 0.0000
# 6 0.0000 0.0000 0.0000 0.0000 0.0000 17.4924
#
#
#
# Elastic Compliance Matrix: (Units=1/GPa)
#
#
# Indices 1 2 3 4 5 6 
#
# 1 0.008183 -0.002106 -0.002485 0.000000 0.000000 0.000000
# 2 -0.002106 0.009974 -0.005969 0.000000 0.000000 0.000000
# 3 -0.002485 -0.005969 0.020587 0.000000 0.000000 0.000000
# 4 0.000000 0.000000 0.000000 0.062927 0.000000 0.000000
# 5 0.000000 0.000000 0.000000 0.000000 -0.170942 0.000000
# 6 0.000000 0.000000 0.000000 0.000000 0.000000 0.057168
#
#
# Mechanical properties :
#
#
# Convention : Reuss Voigt Hill
#
# Bulk Modulus (GPa) = 56.73697 67.07798 61.90747
# Shear Modulus (GPa) = 335.80682 20.25425 178.03053
#
# Velocity S-wave (km/s) = 13.43400 3.29928 9.78155
# Velocity P-wave (km/s) = 16.46578 7.11079 12.68237
#
# Compressibility (1/GPa) = 0.01762519
#
# Stress axis : x y z
#
# Youngs Moduli (GPa) = 122.20457 100.25702 48.57534
#
# Poissons Ratio (x) = 0.21110 0.12071
# Poissons Ratio (y) = 0.25731 0.28994
# Poissons Ratio (z) = 0.30368 0.59841
#
# Static dielectric constant tensor:
#      x y z
#    x 4.228380 0.000000 0.000000 
#    y 0.000000 3.596640 0.000000 
#    z 0.000000 0.000000 2.765020 
# 
# 
# High freq. dielectric constant tensor:
#      x y z
#    x 1.754750 0.000000 0.000000 
#    y 0.000000 1.725920 0.000000 
#    z 0.000000 0.000000 1.646960 
# 
# From -- ./inp_files/15079.got.cif
#   From: 2010.03.12/outbox.cif.g09.slc.cpg/sg46_8_cif.got.tgz:15079.got - 2010.04.14 02:56:35.
