data_PCOD8191986
_publ_section_title
;
Structure prediction by ZEFSAII (Michael W. Deem and Ramdas Pophale) SiO2 
 PCOD8191986
Probable space group: I M A 2
;
_chemical_formula_sum "Si O2"
_cell_formula_units_Z 64
_cell_length_a 16.361851
_cell_length_b 9.013843
_cell_length_c 23.511226
_cell_angle_alpha 90.000000
_cell_angle_beta 90.000000
_cell_angle_gamma 90.000000
_cell_volume 3467.509814
_symmetry_space_group_name_H-M "I M A 2"
_symmetry_group_IT_number 46
_symmetry_cell_setting 'orthorhombic'
loop_
_space_group_symop_operation_xyz
x,y,z
-x,-y,z
1/2-x,y,z
1/2+x,-y,z
1/2+x,1/2+y,1/2+z
1/2-x,1/2-y,1/2+z
-x,1/2+y,1/2+z
x,1/2-y,1/2+z
loop_
_atom_site_type_symbol
_atom_site_label
_atom_site_fract_x
_atom_site_fract_y
_atom_site_fract_z
Si Si1 0.926866 0.115425 0.233630
Si Si2 0.015748 0.331149 0.625575
Si Si3 0.843622 0.832982 0.814450
Si Si4 0.657433 0.841521 0.207720
Si Si5 0.155297 0.826022 0.820757
Si Si6 0.922776 0.100563 0.934485
Si Si7 0.985204 0.672745 0.009683
Si Si8 0.344609 0.310372 0.442653
O O1 0.905252 0.228613 0.282926
O O2 0.951336 0.204083 0.176168
O O3 0.846380 0.016749 0.221537
O O4 0.000000 0.000000 0.249356
O O5 0.106724 0.309616 0.650686
O O6 0.007622 0.212238 0.575883
O O7 0.000000 0.500000 0.603321
O O8 0.750000 0.784889 0.816493
O O9 0.883996 0.743662 0.762155
O O10 0.878229 0.792637 0.877304
O O11 0.853422 0.005598 0.800315
O O12 0.750000 0.789908 0.196773
O O13 0.250000 0.773869 0.818247
O O14 0.120428 0.810356 0.883930
O O15 0.946917 0.226170 0.979281
O O16 0.857617 0.983109 0.960824
O O17 0.000000 0.000000 0.914641
O O18 0.895538 0.704959 0.984318
O O19 0.000000 0.500000 0.000418
O O20 0.250000 0.268020 0.448682
#
# Coordination Sequence:
#
# PCOD8191986 Si02
#       8
#     8   8   8   8   8   8   8   8
#     4   9  20  33  50  77 108 138 173 212 258 314
#     4   9  20  37  52  70 100 140 185 219 254 316
#     4   8  16  30  50  79 107 131 163 206 255 306
#     4   9  17  32  54  77 103 135 173 216 261 309
#     4  10  19  33  55  82 110 137 171 213 257 309
#     4   9  19  34  55  80 109 145 180 211 255 316
#     4  11  23  37  54  78 108 139 177 227 277 318
#     4   9  18  36  59  79 105 143 184 218 255 314
#
# _framework density 18.457049000000001
#
# number of rings (size 3 to 8) (size 9 to 14) (size 15 to 20)
#    0.000    3.000    0.000    2.625    0.000    9.000 
#    0.000    3.125    0.000    6.000    0.000    0.000 
#    0.000    0.000    0.000    0.000    0.000    0.000 
#
# Total GULP energy -396522.376038 kJ/mol
# GULP energy per Si atom -12391.324251 kJ/mol
# Density = 1.841504 g / cm^3
# Si number density = 18.457049 Si / 1000 Ang^3
#
#
#
# Elastic Constant Matrix: (Units=GPa)
#
#
# Indices 1 2 3 4 5 6 
#
# 1 76.2376 39.4749 56.1320 0.0000 0.0000 0.0000
# 2 39.4749 89.9131 70.2699 0.0000 0.0000 0.0000
# 3 56.1320 70.2699 111.8447 0.0000 0.0000 0.0000
# 4 0.0000 0.0000 0.0000 28.6915 0.0000 0.0000
# 5 0.0000 0.0000 0.0000 0.0000 21.4071 0.0000
# 6 0.0000 0.0000 0.0000 0.0000 0.0000 21.5303
#
#
#
# Elastic Compliance Matrix: (Units=1/GPa)
#
#
# Indices 1 2 3 4 5 6 
#
# 1 0.020973 -0.001929 -0.009314 0.000000 0.000000 0.000000
# 2 -0.001929 0.022029 -0.012872 0.000000 0.000000 0.000000
# 3 -0.009314 -0.012872 0.021703 0.000000 0.000000 0.000000
# 4 0.000000 0.000000 0.000000 0.034854 0.000000 0.000000
# 5 0.000000 0.000000 0.000000 0.000000 0.046714 0.000000
# 6 0.000000 0.000000 0.000000 0.000000 0.000000 0.046446
#
#
# Mechanical properties :
#
#
# Convention : Reuss Voigt Hill
#
# Bulk Modulus (GPa) = 60.69923 67.74988 64.22456
# Shear Modulus (GPa) = 20.28891 21.80035 21.04463
#
# Velocity S-wave (km/s) = 3.31909 3.44050 3.38034
# Velocity P-wave (km/s) = 6.90265 7.25046 7.07869
#
# Compressibility (1/GPa) = 0.01647467
#
# Stress axis : x y z
#
# Youngs Moduli (GPa) = 47.67950 45.39540 46.07671
#
# Poissons Ratio (x) = 0.08755 0.42917
# Poissons Ratio (y) = 0.09196 0.59311
# Poissons Ratio (z) = 0.44410 0.58434
#
# Static dielectric constant tensor:
#      x y z
#    x 3.407890 0.000000 0.000000 
#    y 0.000000 3.304110 0.000000 
#    z 0.000000 0.000000 3.358570 
# 
# 
# High freq. dielectric constant tensor:
#      x y z
#    x 1.713920 0.000000 0.000000 
#    y 0.000000 1.700290 0.000000 
#    z 0.000000 0.000000 1.708470 
# 
# From -- ./inp_files/23798.got.cif
#   From: 2010.03.12/outbox.cif.g09.slc.cpg/sg46_12_cif.got.tgz:23798.got - 2010.04.14 02:56:35.
