data_PCOD8191653
_publ_section_title
;
Structure prediction by ZEFSAII (Michael W. Deem and Ramdas Pophale) SiO2 
 PCOD8191653
Probable space group: I M A 2
;
_chemical_formula_sum "Si O2"
_cell_formula_units_Z 56
_cell_length_a 8.782527
_cell_length_b 13.702016
_cell_length_c 29.448788
_cell_angle_alpha 90.000000
_cell_angle_beta 90.000000
_cell_angle_gamma 90.000000
_cell_volume 3543.817835
_symmetry_space_group_name_H-M "I M A 2"
_symmetry_group_IT_number 46
_symmetry_cell_setting 'orthorhombic'
loop_
_space_group_symop_operation_xyz
x,y,z
-x,-y,z
1/2-x,y,z
1/2+x,-y,z
1/2+x,1/2+y,1/2+z
1/2-x,1/2-y,1/2+z
-x,1/2+y,1/2+z
x,1/2-y,1/2+z
loop_
_atom_site_type_symbol
_atom_site_label
_atom_site_fract_x
_atom_site_fract_y
_atom_site_fract_z
Si Si1 0.429226 0.394167 0.492650
Si Si2 0.430770 0.396000 0.671136
Si Si3 0.072477 0.894204 0.804611
Si Si4 0.070231 0.208385 0.080891
Si Si5 0.428636 0.393827 0.393512
Si Si6 0.069129 0.398068 0.130375
Si Si7 0.571229 0.210845 0.712288
O O1 0.500000 0.500000 0.498257
O O2 0.250000 0.407369 0.498608
O O3 0.497492 0.324316 0.532143
O O4 0.465640 0.346368 0.443021
O O5 0.500000 0.500000 0.683849
O O6 0.250000 0.398771 0.675792
O O7 0.483335 0.366136 0.620276
O O8 0.496063 0.316775 0.706237
O O9 0.250000 0.910351 0.811141
O O10 0.035628 0.822555 0.763264
O O11 0.005267 0.840938 0.850115
O O12 0.000000 0.000000 0.795791
O O13 0.250000 0.207247 0.078613
O O14 0.016180 0.317646 0.093272
O O15 0.500000 0.500000 0.394577
O O16 0.250000 0.399936 0.385211
O O17 0.250000 0.405046 0.134304
O O18 0.000000 0.500000 0.114047
O O19 0.003732 0.368920 0.179281
O O20 0.750000 0.216381 0.702105
#
# Coordination Sequence:
#
# PCOD8191653 Si02
#       7
#     8   8   8   8   8   8   8
#     4   9  16  27  42  62  87 114 142 173 209 252
#     4  10  19  31  47  66  90 119 147 180 216 253
#     4  10  19  29  43  62  87 116 144 177 216 257
#     4   8  16  29  44  63  87 115 146 176 211 252
#     4   9  16  25  40  60  84 112 141 173 211 255
#     4  10  19  31  46  64  88 117 146 181 219 257
#     4  10  20  32  46  65  87 115 149 182 217 258
#
# _framework density 15.802166
#
# number of rings (size 3 to 8) (size 9 to 14) (size 15 to 20)
#    0.000    2.571    0.000    4.714    0.000    4.000 
#    0.000    3.571    0.000    0.000    0.000    1.000 
#    0.000    4.571    0.000    0.000    0.000    0.000 
#
# Total GULP energy -347021.038042 kJ/mol
# GULP energy per Si atom -12393.608502 kJ/mol
# Density = 1.576620 g / cm^3
# Si number density = 15.802166 Si / 1000 Ang^3
#
#
#
# Elastic Constant Matrix: (Units=GPa)
#
#
# Indices 1 2 3 4 5 6 
#
# 1 75.7050 37.7800 53.2005 0.0000 0.0000 0.0000
# 2 37.7800 98.8710 60.5321 0.0000 0.0000 0.0000
# 3 53.2005 60.5321 147.5351 0.0000 0.0000 0.0000
# 4 0.0000 0.0000 0.0000 20.7665 0.0000 0.0000
# 5 0.0000 0.0000 0.0000 0.0000 18.7523 0.0000
# 6 0.0000 0.0000 0.0000 0.0000 0.0000 23.6206
#
#
#
# Elastic Compliance Matrix: (Units=1/GPa)
#
#
# Indices 1 2 3 4 5 6 
#
# 1 0.018838 -0.004059 -0.005128 0.000000 0.000000 0.000000
# 2 -0.004059 0.014382 -0.004437 0.000000 0.000000 0.000000
# 3 -0.005128 -0.004437 0.010447 0.000000 0.000000 0.000000
# 4 0.000000 0.000000 0.000000 0.048155 0.000000 0.000000
# 5 0.000000 0.000000 0.000000 0.000000 0.053327 0.000000
# 6 0.000000 0.000000 0.000000 0.000000 0.000000 0.042336
#
#
# Mechanical properties :
#
#
# Convention : Reuss Voigt Hill
#
# Bulk Modulus (GPa) = 60.90099 69.45959 65.18029
# Shear Modulus (GPa) = 22.70610 24.00110 23.35360
#
# Velocity S-wave (km/s) = 3.79476 3.90147 3.84848
# Velocity P-wave (km/s) = 7.60418 8.02162 7.81569
#
# Compressibility (1/GPa) = 0.01642009
#
# Stress axis : x y z
#
# Youngs Moduli (GPa) = 53.08389 69.53292 95.71697
#
# Poissons Ratio (x) = 0.28224 0.49079
# Poissons Ratio (y) = 0.21547 0.42469
# Poissons Ratio (z) = 0.27219 0.30852
#
# Static dielectric constant tensor:
#      x y z
#    x 3.048090 0.000000 0.000000 
#    y 0.000000 2.829310 0.000000 
#    z 0.000000 0.000000 3.624220 
# 
# 
# High freq. dielectric constant tensor:
#      x y z
#    x 1.613730 0.000000 0.000000 
#    y 0.000000 1.573390 0.000000 
#    z 0.000000 0.000000 1.610350 
# 
# From -- ./inp_files/25230.got.cif
#   From: 2010.03.12/outbox.cif.g09.slc.cpg/sg46_13_cif.got.tgz:25230.got - 2010.04.14 02:56:35.
