data_PCOD8191926
_publ_section_title
;
Structure prediction by ZEFSAII (Michael W. Deem and Ramdas Pophale) SiO2 
 PCOD8191926
Probable space group: I M A 2
;
_chemical_formula_sum "Si O2"
_cell_formula_units_Z 64
_cell_length_a 9.041772
_cell_length_b 20.465602
_cell_length_c 19.473099
_cell_angle_alpha 90.000000
_cell_angle_beta 90.000000
_cell_angle_gamma 90.000000
_cell_volume 3603.405585
_symmetry_space_group_name_H-M "I M A 2"
_symmetry_group_IT_number 46
_symmetry_cell_setting 'orthorhombic'
loop_
_space_group_symop_operation_xyz
x,y,z
-x,-y,z
1/2-x,y,z
1/2+x,-y,z
1/2+x,1/2+y,1/2+z
1/2-x,1/2-y,1/2+z
-x,1/2+y,1/2+z
x,1/2-y,1/2+z
loop_
_atom_site_type_symbol
_atom_site_label
_atom_site_fract_x
_atom_site_fract_y
_atom_site_fract_z
Si Si1 0.423967 0.433330 0.185560
Si Si2 0.080301 0.230473 0.039604
Si Si3 0.420827 0.733822 0.406036
Si Si4 0.578891 0.880950 0.538234
Si Si5 0.422210 0.193804 0.188436
Si Si6 0.576295 0.935728 0.270479
Si Si7 0.576850 0.185892 0.758679
Si Si8 0.075068 0.882218 0.401888
O O1 0.500000 0.500000 0.209849
O O2 0.250000 0.437312 0.198453
O O3 0.461233 0.421738 0.105812
O O4 0.487397 0.375303 0.231228
O O5 0.250000 0.222128 0.021232
O O6 0.039794 0.305781 0.054311
O O7 0.037808 0.190069 0.107713
O O8 0.995207 0.202409 0.973392
O O9 0.250000 0.738269 0.422773
O O10 0.454462 0.689397 0.340162
O O11 0.479367 0.807386 0.392713
O O12 0.750000 0.888927 0.517701
O O13 0.477207 0.907727 0.476533
O O14 0.250000 0.213013 0.198540
O O15 0.460512 0.123861 0.220026
O O16 0.522878 0.247447 0.224487
O O17 0.750000 0.946790 0.278412
O O18 0.506453 0.924716 0.345059
O O19 0.500000 0.000000 0.238262
O O20 0.750000 0.177579 0.742938
O O21 0.250000 0.890731 0.393997
#
# Coordination Sequence:
#
# PCOD8191926 Si02
#       8
#     8   8   8   8   8   8   8   8
#     4  11  23  39  56  79 111 146 186 227 272 325
#     4   9  17  32  54  80 107 137 177 223 269 320
#     4   9  19  33  51  81 113 140 175 221 268 319
#     4   9  18  33  52  75 108 146 182 221 265 319
#     4  10  20  36  57  82 108 141 183 227 272 324
#     4  11  23  37  55  77 109 147 185 226 274 325
#     4  11  21  35  57  83 111 143 181 226 272 321
#     4  10  19  33  52  77 111 145 183 223 264 319
#
# _framework density 17.760974999999998
#
# number of rings (size 3 to 8) (size 9 to 14) (size 15 to 20)
#    0.000    2.000    2.500    1.500    0.000    4.000 
#    0.000    1.250    0.000    0.750    0.000    3.500 
#    0.000    0.000    0.000    0.000    0.000    0.000 
#
# Total GULP energy -396878.512752 kJ/mol
# GULP energy per Si atom -12402.453524 kJ/mol
# Density = 1.772055 g / cm^3
# Si number density = 17.760975 Si / 1000 Ang^3
#
#
#
# Elastic Constant Matrix: (Units=GPa)
#
#
# Indices 1 2 3 4 5 6 
#
# 1 84.6268 52.3635 56.0678 0.0000 0.0000 0.0000
# 2 52.3635 98.8726 53.3398 0.0000 0.0000 0.0000
# 3 56.0678 53.3398 105.5679 0.0000 0.0000 0.0000
# 4 0.0000 0.0000 0.0000 19.0313 0.0000 0.0000
# 5 0.0000 0.0000 0.0000 0.0000 30.7343 0.0000
# 6 0.0000 0.0000 0.0000 0.0000 0.0000 27.7717
#
#
#
# Elastic Compliance Matrix: (Units=1/GPa)
#
#
# Indices 1 2 3 4 5 6 
#
# 1 0.021360 -0.007138 -0.007738 0.000000 0.000000 0.000000
# 2 -0.007138 0.016289 -0.004439 0.000000 0.000000 0.000000
# 3 -0.007738 -0.004439 0.015825 0.000000 0.000000 0.000000
# 4 0.000000 0.000000 0.000000 0.052545 0.000000 0.000000
# 5 0.000000 0.000000 0.000000 0.000000 0.032537 0.000000
# 6 0.000000 0.000000 0.000000 0.000000 0.000000 0.036008
#
#
# Mechanical properties :
#
#
# Convention : Reuss Voigt Hill
#
# Bulk Modulus (GPa) = 67.36686 68.06773 67.71730
# Shear Modulus (GPa) = 22.92083 23.99387 23.45735
#
# Velocity S-wave (km/s) = 3.59627 3.67949 3.63812
# Velocity P-wave (km/s) = 7.43346 7.51392 7.47380
#
# Compressibility (1/GPa) = 0.01484409
#
# Stress axis : x y z
#
# Youngs Moduli (GPa) = 46.81714 61.39014 63.19015
#
# Poissons Ratio (x) = 0.43819 0.48895
# Poissons Ratio (y) = 0.33417 0.28053
# Poissons Ratio (z) = 0.36226 0.27254
#
# Static dielectric constant tensor:
#      x y z
#    x 3.317220 0.000000 0.000000 
#    y 0.000000 3.169450 0.000000 
#    z 0.000000 0.000000 3.394530 
# 
# 
# High freq. dielectric constant tensor:
#      x y z
#    x 1.694130 0.000000 0.000000 
#    y 0.000000 1.663490 0.000000 
#    z 0.000000 0.000000 1.688850 
# 
# From -- ./inp_files/18569.got.cif
#   From: 2010.03.12/outbox.cif.g09.slc.cpg/sg46_10_cif.got.tgz:18569.got - 2010.04.14 02:56:35.
