data_PCOD8191538
_publ_section_title
;
Structure prediction by ZEFSAII (Michael W. Deem and Ramdas Pophale) SiO2 
 PCOD8191538
Probable space group: I M A 2
;
_chemical_formula_sum "Si O2"
_cell_formula_units_Z 64
_cell_length_a 17.700022
_cell_length_b 9.549036
_cell_length_c 19.933974
_cell_angle_alpha 90.000000
_cell_angle_beta 90.000000
_cell_angle_gamma 90.000000
_cell_volume 3369.203353
_symmetry_space_group_name_H-M "I M A 2"
_symmetry_group_IT_number 46
_symmetry_cell_setting 'orthorhombic'
loop_
_space_group_symop_operation_xyz
x,y,z
-x,-y,z
1/2-x,y,z
1/2+x,-y,z
1/2+x,1/2+y,1/2+z
1/2-x,1/2-y,1/2+z
-x,1/2+y,1/2+z
x,1/2-y,1/2+z
loop_
_atom_site_type_symbol
_atom_site_label
_atom_site_fract_x
_atom_site_fract_y
_atom_site_fract_z
Si Si1 0.339414 0.079093 0.612570
Si Si2 0.068439 0.899528 0.702605
Si Si3 0.074249 0.913366 0.241308
Si Si4 0.585584 0.467010 0.354453
Si Si5 0.660336 0.833960 0.204832
Si Si6 0.336650 0.444084 0.964279
Si Si7 0.162337 0.808451 0.370786
Si Si8 0.338817 0.247263 0.851267
O O1 0.250000 0.072673 0.610617
O O2 0.367214 0.220854 0.649852
O O3 0.374522 0.076060 0.537350
O O4 0.364929 0.938344 0.651208
O O5 0.052371 0.731682 0.702672
O O6 0.094754 0.942977 0.775860
O O7 0.000000 0.000000 0.679804
O O8 0.123545 0.884769 0.307679
O O9 0.123434 0.013283 0.191493
O O10 0.000000 0.000000 0.261937
O O11 0.500000 0.500000 0.375960
O O12 0.617636 0.331216 0.391609
O O13 0.639534 0.593171 0.374645
O O14 0.750000 0.848865 0.203578
O O15 0.628870 0.782416 0.277501
O O16 0.250000 0.397607 0.970871
O O17 0.343754 0.602447 0.938688
O O18 0.375763 0.347501 0.907564
O O19 0.250000 0.780092 0.351803
O O20 0.250000 0.267905 0.848422
#
# Coordination Sequence:
#
# PCOD8191538 Si02
#       8
#     8   8   8   8   8   8   8   8
#     4  10  20  36  58  81 108 146 188 228 277 340
#     4  10  21  36  53  78 112 145 185 227 283 338
#     4  11  22  33  56  83 113 146 185 239 288 334
#     4  10  21  33  54  83 113 143 184 239 279 332
#     4  10  19  33  56  84 110 140 186 236 280 336
#     4   9  19  35  56  81 110 145 182 225 279 337
#     4  10  20  35  55  82 115 147 186 234 286 337
#     4  10  18  33  56  80 108 142 182 228 282 332
#
# _framework density 18.995588000000001
#
# number of rings (size 3 to 8) (size 9 to 14) (size 15 to 20)
#    0.000    2.000    2.500    1.500    3.500    2.500 
#    0.000    3.125    0.000    6.000    0.000    0.000 
#    0.000    0.000    0.000    0.000    0.000    0.000 
#
# Total GULP energy -396648.868805 kJ/mol
# GULP energy per Si atom -12395.277150 kJ/mol
# Density = 1.895235 g / cm^3
# Si number density = 18.995588 Si / 1000 Ang^3
#
#
#
# Elastic Constant Matrix: (Units=GPa)
#
#
# Indices 1 2 3 4 5 6 
#
# 1 54.6022 47.7863 35.4160 0.0000 0.0000 0.0000
# 2 47.7863 153.3849 57.4951 0.0000 0.0000 0.0000
# 3 35.4160 57.4951 92.9363 0.0000 0.0000 0.0000
# 4 0.0000 0.0000 0.0000 21.9030 0.0000 0.0000
# 5 0.0000 0.0000 0.0000 0.0000 10.9333 0.0000
# 6 0.0000 0.0000 0.0000 0.0000 0.0000 38.2817
#
#
#
# Elastic Compliance Matrix: (Units=1/GPa)
#
#
# Indices 1 2 3 4 5 6 
#
# 1 0.028230 -0.006200 -0.006922 0.000000 0.000000 0.000000
# 2 -0.006200 0.009850 -0.003731 0.000000 0.000000 0.000000
# 3 -0.006922 -0.003731 0.015706 0.000000 0.000000 0.000000
# 4 0.000000 0.000000 0.000000 0.045656 0.000000 0.000000
# 5 0.000000 0.000000 0.000000 0.000000 0.091464 0.000000
# 6 0.000000 0.000000 0.000000 0.000000 0.000000 0.026122
#
#
# Mechanical properties :
#
#
# Convention : Reuss Voigt Hill
#
# Bulk Modulus (GPa) = 49.80161 64.70204 57.25183
# Shear Modulus (GPa) = 19.42294 24.90532 22.16413
#
# Velocity S-wave (km/s) = 3.20112 3.62485 3.41956
# Velocity P-wave (km/s) = 6.31959 7.18714 6.76728
#
# Compressibility (1/GPa) = 0.02007967
#
# Stress axis : x y z
#
# Youngs Moduli (GPa) = 35.42271 101.52650 63.67019
#
# Poissons Ratio (x) = 0.62950 0.44074
# Poissons Ratio (y) = 0.21963 0.23753
# Poissons Ratio (z) = 0.24520 0.37876
#
# Static dielectric constant tensor:
#      x y z
#    x 3.396830 0.000000 0.000000 
#    y 0.000000 3.762640 0.000000 
#    z 0.000000 0.000000 3.454860 
# 
# 
# High freq. dielectric constant tensor:
#      x y z
#    x 1.730200 0.000000 0.000000 
#    y 0.000000 1.750560 0.000000 
#    z 0.000000 0.000000 1.704730 
# 
# From -- ./inp_files/20270.got.cif
#   From: 2010.03.12/outbox.cif.g09.slc.cpg/sg46_11_cif.got.tgz:20270.got - 2010.04.14 02:56:35.
