data_PCOD8191829
_publ_section_title
;
Structure prediction by ZEFSAII (Michael W. Deem and Ramdas Pophale) SiO2 
 PCOD8191829
Probable space group: I M A 2
;
_chemical_formula_sum "Si O2"
_cell_formula_units_Z 40
_cell_length_a 14.549143
_cell_length_b 14.298721
_cell_length_c 9.612354
_cell_angle_alpha 90.000000
_cell_angle_beta 90.000000
_cell_angle_gamma 90.000000
_cell_volume 1999.697765
_symmetry_space_group_name_H-M "I M A 2"
_symmetry_group_IT_number 46
_symmetry_cell_setting 'orthorhombic'
loop_
_space_group_symop_operation_xyz
x,y,z
-x,-y,z
1/2-x,y,z
1/2+x,-y,z
1/2+x,1/2+y,1/2+z
1/2-x,1/2-y,1/2+z
-x,1/2+y,1/2+z
x,1/2-y,1/2+z
loop_
_atom_site_type_symbol
_atom_site_label
_atom_site_fract_x
_atom_site_fract_y
_atom_site_fract_z
Si Si1 0.148191 0.898127 0.644010
Si Si2 0.145258 0.061835 0.445970
Si Si3 0.097040 0.041862 0.869068
Si Si4 0.958427 0.687893 0.148638
Si Si5 0.148383 0.373920 0.649187
O O1 0.250000 0.852310 0.629012
O O2 0.069939 0.818753 0.655813
O O3 0.122101 0.960169 0.508884
O O4 0.151382 0.965790 0.778185
O O5 0.250000 0.088907 0.484490
O O6 0.078040 0.139958 0.508414
O O7 0.129607 0.058294 0.280263
O O8 0.086099 0.137339 0.781688
O O9 0.149933 0.063716 0.010662
O O10 0.000000 0.000000 0.911470
O O11 0.930404 0.795724 0.145770
O O12 0.250000 0.327733 0.663966
#
# Coordination Sequence:
#
# PCOD8191829 Si02
#       5
#     8   8   8   8   8
#     4   9  18  35  56  74  97 136 180 210 241 299
#     4   9  18  31  49  75 105 134 165 205 255 307
#     4   9  19  34  53  76 102 136 172 208 253 303
#     4  10  19  32  51  77 105 136 170 207 254 304
#     4  11  21  32  52  82 110 132 161 212 267 303
#
# _framework density 20.003022999999999
#
# number of rings (size 3 to 8) (size 9 to 14) (size 15 to 20)
#    0.000    2.400    0.000    4.200    0.000    5.600 
#    0.000    0.000    0.000   12.000    0.000    0.000 
#    0.000    0.000    0.000    0.000    0.000    0.000 
#
# Total GULP energy -247962.891203 kJ/mol
# GULP energy per Si atom -12398.144560 kJ/mol
# Density = 1.995750 g / cm^3
# Si number density = 20.003023 Si / 1000 Ang^3
#
#
#
# Elastic Constant Matrix: (Units=GPa)
#
#
# Indices 1 2 3 4 5 6 
#
# 1 105.5918 35.4237 32.5074 0.0000 0.0000 0.0000
# 2 35.4237 54.3043 29.8157 0.0000 0.0000 0.0000
# 3 32.5074 29.8157 141.5891 0.0000 0.0000 0.0000
# 4 0.0000 0.0000 0.0000 10.9725 0.0000 0.0000
# 5 0.0000 0.0000 0.0000 0.0000 24.8013 0.0000
# 6 0.0000 0.0000 0.0000 0.0000 0.0000 23.0006
#
#
#
# Elastic Compliance Matrix: (Units=1/GPa)
#
#
# Indices 1 2 3 4 5 6 
#
# 1 0.012327 -0.007335 -0.001285 0.000000 0.000000 0.000000
# 2 -0.007335 0.025187 -0.003620 0.000000 0.000000 0.000000
# 3 -0.001285 -0.003620 0.008120 0.000000 0.000000 0.000000
# 4 0.000000 0.000000 0.000000 0.091137 0.000000 0.000000
# 5 0.000000 0.000000 0.000000 0.000000 0.040321 0.000000
# 6 0.000000 0.000000 0.000000 0.000000 0.000000 0.043477
#
#
# Mechanical properties :
#
#
# Convention : Reuss Voigt Hill
#
# Bulk Modulus (GPa) = 47.27448 55.21984 51.24716
# Shear Modulus (GPa) = 19.83331 25.33743 22.58537
#
# Velocity S-wave (km/s) = 3.15225 3.56291 3.36385
# Velocity P-wave (km/s) = 6.07733 6.67768 6.38456
#
# Compressibility (1/GPa) = 0.02115306
#
# Stress axis : x y z
#
# Youngs Moduli (GPa) = 81.12253 39.70273 123.15160
#
# Poissons Ratio (x) = 0.29123 0.15831
# Poissons Ratio (y) = 0.59506 0.44578
# Poissons Ratio (z) = 0.10428 0.14371
#
# Static dielectric constant tensor:
#      x y z
#    x 3.751570 0.000000 0.000000 
#    y 0.000000 3.093500 0.000000 
#    z 0.000000 0.000000 3.726850 
# 
# 
# High freq. dielectric constant tensor:
#      x y z
#    x 1.789310 0.000000 0.000000 
#    y 0.000000 1.729450 0.000000 
#    z 0.000000 0.000000 1.786860 
# 
# From -- ./inp_files/5388.got.cif
#   From: 2010.03.12/outbox.cif.g09.slc.cpg/sg46_3_cif.got.tgz:5388.got - 2010.04.14 02:56:35.
