data_PCOD8191102
_publ_section_title
;
Structure prediction by ZEFSAII (Michael W. Deem and Ramdas Pophale) SiO2 
 PCOD8191102
Probable space group: I B A 2
;
_chemical_formula_sum "Si O2"
_cell_formula_units_Z 64
_cell_length_a 8.973374
_cell_length_b 14.237171
_cell_length_c 21.336365
_cell_angle_alpha 90.000000
_cell_angle_beta 90.000000
_cell_angle_gamma 90.000000
_cell_volume 2725.837127
_symmetry_space_group_name_H-M "I B A 2"
_symmetry_group_IT_number 45
_symmetry_cell_setting 'orthorhombic'
loop_
_space_group_symop_operation_xyz
x,y,z
-x,-y,z
-x,y,1/2+z
x,-y,1/2+z
1/2+x,1/2+y,1/2+z
1/2-x,1/2-y,1/2+z
1/2-x,1/2+y,z
1/2+x,1/2-y,z
loop_
_atom_site_type_symbol
_atom_site_label
_atom_site_fract_x
_atom_site_fract_y
_atom_site_fract_z
Si Si1 0.721530 0.422502 0.958850
Si Si2 0.633716 0.060323 0.202151
Si Si3 0.877879 0.632594 0.334022
Si Si4 0.612622 0.254821 0.136711
Si Si5 0.122952 0.069313 0.216374
Si Si6 0.637828 0.216604 0.547994
Si Si7 0.886665 0.875631 0.452829
Si Si8 0.776225 0.325448 0.328112
O O1 0.822801 0.419964 0.896625
O O2 0.566193 0.366609 0.949428
O O3 0.675366 0.526711 0.979372
O O4 0.821673 0.382047 0.015605
O O5 0.634858 0.057648 0.278145
O O6 0.614938 0.168166 0.183669
O O7 0.500000 0.000000 0.174047
O O8 0.779290 0.005936 0.176353
O O9 0.765659 0.717144 0.318042
O O10 0.047911 0.667807 0.342366
O O11 0.552655 0.348965 0.172079
O O12 0.531206 0.229263 0.071186
O O13 0.779792 0.274293 0.114593
O O14 0.232098 0.117346 0.266251
O O15 0.000000 0.000000 0.247592
O O16 0.678822 0.295567 0.497298
O O17 0.823191 0.864773 0.383818
#
# Coordination Sequence:
#
# PCOD8191102 Si02
#       8
#     8   8   8   8   8   8   8   8
#     4  11  26  48  75 108 149 191 246 304 379 442
#     4  12  26  49  75 109 150 191 247 311 379 453
#     4  12  26  45  77 111 151 192 237 311 380 456
#     4  12  28  49  75 104 149 198 257 310 366 440
#     4  12  28  47  77 112 148 198 249 310 383 451
#     4  12  26  49  73 104 146 195 252 305 359 433
#     4  11  26  48  74 109 147 194 243 308 371 452
#     4  12  26  45  77 111 151 191 242 305 390 447
#
# _framework density 23.479026000000001
#
# number of rings (size 3 to 8) (size 9 to 14) (size 15 to 20)
#    0.000    0.250    5.000    3.000    7.000    3.000 
#    0.000    0.000    0.000    0.000    0.000    0.000 
#    0.000    0.000    0.000    0.000    0.000    0.000 
#
# Total GULP energy -396777.164853 kJ/mol
# GULP energy per Si atom -12399.286402 kJ/mol
# Density = 2.342559 g / cm^3
# Si number density = 23.479026 Si / 1000 Ang^3
#
#
#
# Elastic Constant Matrix: (Units=GPa)
#
#
# Indices 1 2 3 4 5 6 
#
# 1 87.9310 28.3415 19.0228 0.0000 0.0000 0.0000
# 2 28.3415 115.6497 24.5407 0.0000 0.0000 0.0000
# 3 19.0228 24.5407 88.4488 0.0000 0.0000 0.0000
# 4 0.0000 0.0000 0.0000 18.8431 0.0000 0.0000
# 5 0.0000 0.0000 0.0000 0.0000 38.9646 0.0000
# 6 0.0000 0.0000 0.0000 0.0000 0.0000 40.8971
#
#
#
# Elastic Compliance Matrix: (Units=1/GPa)
#
#
# Indices 1 2 3 4 5 6 
#
# 1 0.012666 -0.002684 -0.001979 0.000000 0.000000 0.000000
# 2 -0.002684 0.009756 -0.002130 0.000000 0.000000 0.000000
# 3 -0.001979 -0.002130 0.012323 0.000000 0.000000 0.000000
# 4 0.000000 0.000000 0.000000 0.053070 0.000000 0.000000
# 5 0.000000 0.000000 0.000000 0.000000 0.025664 0.000000
# 6 0.000000 0.000000 0.000000 0.000000 0.000000 0.024452
#
#
# Mechanical properties :
#
#
# Convention : Reuss Voigt Hill
#
# Bulk Modulus (GPa) = 47.26172 48.42662 47.84417
# Shear Modulus (GPa) = 31.53186 34.41592 32.97389
#
# Velocity S-wave (km/s) = 3.66864 3.83275 3.75160
# Velocity P-wave (km/s) = 6.17400 6.34483 6.26000
#
# Compressibility (1/GPa) = 0.02115877
#
# Stress axis : x y z
#
# Youngs Moduli (GPa) = 78.95252 102.49612 81.15169
#
# Poissons Ratio (x) = 0.27509 0.16063
# Poissons Ratio (y) = 0.21190 0.17283
# Poissons Ratio (z) = 0.15628 0.21829
#
# Static dielectric constant tensor:
#      x y z
#    x 4.300640 0.000000 0.000000 
#    y 0.000000 4.397900 0.000000 
#    z 0.000000 0.000000 4.021600 
# 
# 
# High freq. dielectric constant tensor:
#      x y z
#    x 1.940070 0.000000 0.000000 
#    y 0.000000 1.943830 0.000000 
#    z 0.000000 0.000000 1.917660 
# 
# From -- ./inp_files/9616.got.cif
#   From: 2010.03.12/outbox.cif.g09.slc.cpg/sg45_5_cif.got.tgz:9616.got - 2010.04.14 02:50:11.
