data_PCOD8191438
_publ_section_title
;
Structure prediction by ZEFSAII (Michael W. Deem and Ramdas Pophale) SiO2 
 PCOD8191438
Probable space group: I M A 2
;
_chemical_formula_sum "Si O2"
_cell_formula_units_Z 64
_cell_length_a 9.044245
_cell_length_b 14.199869
_cell_length_c 24.147665
_cell_angle_alpha 90.000000
_cell_angle_beta 90.000000
_cell_angle_gamma 90.000000
_cell_volume 3101.214448
_symmetry_space_group_name_H-M "I M A 2"
_symmetry_group_IT_number 46
_symmetry_cell_setting 'orthorhombic'
loop_
_space_group_symop_operation_xyz
x,y,z
-x,-y,z
1/2-x,y,z
1/2+x,-y,z
1/2+x,1/2+y,1/2+z
1/2-x,1/2-y,1/2+z
-x,1/2+y,1/2+z
x,1/2-y,1/2+z
loop_
_atom_site_type_symbol
_atom_site_label
_atom_site_fract_x
_atom_site_fract_y
_atom_site_fract_z
Si Si1 0.586241 0.385201 0.732110
Si Si2 0.075979 0.099349 0.956976
Si Si3 0.926438 0.402366 0.114624
Si Si4 0.086148 0.077480 0.124843
Si Si5 0.586464 0.334474 0.234039
Si Si6 0.922546 0.591002 0.840662
Si Si7 0.077160 0.197398 0.843852
Si Si8 0.415096 0.246752 0.047335
O O1 0.750000 0.424183 0.748000
O O2 0.528522 0.424458 0.675161
O O3 0.596471 0.274955 0.724714
O O4 0.463039 0.416395 0.776178
O O5 0.250000 0.086534 0.967845
O O6 0.038499 0.129234 0.894458
O O7 0.019294 0.184822 0.996437
O O8 0.000000 0.000000 0.969941
O O9 0.750000 0.407194 0.112923
O O10 0.981946 0.377509 0.177226
O O11 0.000000 0.500000 0.097616
O O12 0.978105 0.330560 0.066387
O O13 0.250000 0.043249 0.141228
O O14 0.097603 0.179464 0.099680
O O15 0.000000 0.000000 0.085401
O O16 0.750000 0.377383 0.244256
O O17 0.490421 0.352354 0.289262
O O18 0.750000 0.581340 0.851949
O O19 0.981143 0.695878 0.858434
O O20 0.000000 0.500000 0.871107
O O21 0.250000 0.206108 0.832563
O O22 0.250000 0.285439 0.032503
#
# Coordination Sequence:
#
# PCOD8191438 Si02
#       8
#     8   8   8   8   8   8   8   8
#     4  10  18  31  49  73 108 148 187 232 280 337
#     4  10  22  42  65  91 120 154 198 249 303 357
#     4  11  23  40  62  90 122 158 199 245 298 358
#     4  11  21  31  48  76 108 146 188 231 283 341
#     4   9  19  35  56  83 117 155 196 243 292 347
#     4  10  19  32  50  76 109 150 192 234 285 343
#     4   9  20  37  59  85 118 158 199 245 298 356
#     4  10  22  40  61  84 116 154 194 244 296 350
#
# _framework density 20.637076
#
# number of rings (size 3 to 8) (size 9 to 14) (size 15 to 20)
#    0.000    2.000    1.250    2.250    0.000    4.000 
#    0.000    3.125    0.000    1.500    0.000    0.000 
#    0.000    0.000    0.000    0.000    0.000    0.000 
#
# Total GULP energy -396418.571727 kJ/mol
# GULP energy per Si atom -12388.080366 kJ/mol
# Density = 2.059011 g / cm^3
# Si number density = 20.637076 Si / 1000 Ang^3
#
#
#
# Elastic Constant Matrix: (Units=GPa)
#
#
# Indices 1 2 3 4 5 6 
#
# 1 85.0277 44.3230 35.5892 0.0000 0.0000 0.0000
# 2 44.3230 106.1979 46.9509 0.0000 0.0000 0.0000
# 3 35.5892 46.9509 96.6049 0.0000 0.0000 0.0000
# 4 0.0000 0.0000 0.0000 20.2544 0.0000 0.0000
# 5 0.0000 0.0000 0.0000 0.0000 23.1786 0.0000
# 6 0.0000 0.0000 0.0000 0.0000 0.0000 32.6419
#
#
#
# Elastic Compliance Matrix: (Units=1/GPa)
#
#
# Indices 1 2 3 4 5 6 
#
# 1 0.015834 -0.005132 -0.003339 0.000000 0.000000 0.000000
# 2 -0.005132 0.013657 -0.004747 0.000000 0.000000 0.000000
# 3 -0.003339 -0.004747 0.013888 0.000000 0.000000 0.000000
# 4 0.000000 0.000000 0.000000 0.049372 0.000000 0.000000
# 5 0.000000 0.000000 0.000000 0.000000 0.043143 0.000000
# 6 0.000000 0.000000 0.000000 0.000000 0.000000 0.030635
#
#
# Mechanical properties :
#
#
# Convention : Reuss Voigt Hill
#
# Bulk Modulus (GPa) = 59.01956 60.17295 59.59625
# Shear Modulus (GPa) = 25.17458 25.94615 25.56037
#
# Velocity S-wave (km/s) = 3.49646 3.54963 3.52314
# Velocity P-wave (km/s) = 6.70531 6.78387 6.74470
#
# Compressibility (1/GPa) = 0.01694353
#
# Stress axis : x y z
#
# Youngs Moduli (GPa) = 63.15649 73.22291 72.00265
#
# Poissons Ratio (x) = 0.37580 0.24040
# Poissons Ratio (y) = 0.32414 0.34177
# Poissons Ratio (z) = 0.21087 0.34756
#
# Static dielectric constant tensor:
#      x y z
#    x 3.812810 0.000000 0.000000 
#    y 0.000000 3.992300 0.000000 
#    z 0.000000 0.000000 3.553150 
# 
# 
# High freq. dielectric constant tensor:
#      x y z
#    x 1.802920 0.000000 0.000000 
#    y 0.000000 1.819720 0.000000 
#    z 0.000000 0.000000 1.781700 
# 
# From -- ./inp_files/23170.got.cif
#   From: 2010.03.12/outbox.cif.g09.slc.cpg/sg46_12_cif.got.tgz:23170.got - 2010.04.14 02:56:35.
