data_PCOD8191272
_publ_section_title
;
Structure prediction by ZEFSAII (Michael W. Deem and Ramdas Pophale) SiO2 
 PCOD8191272
Probable space group: I M A 2
;
_chemical_formula_sum "Si O2"
_cell_formula_units_Z 64
_cell_length_a 9.027439
_cell_length_b 18.312290
_cell_length_c 26.320615
_cell_angle_alpha 90.000000
_cell_angle_beta 90.000000
_cell_angle_gamma 90.000000
_cell_volume 4351.141957
_symmetry_space_group_name_H-M "I M A 2"
_symmetry_group_IT_number 46
_symmetry_cell_setting 'orthorhombic'
loop_
_space_group_symop_operation_xyz
x,y,z
-x,-y,z
1/2-x,y,z
1/2+x,-y,z
1/2+x,1/2+y,1/2+z
1/2-x,1/2-y,1/2+z
-x,1/2+y,1/2+z
x,1/2-y,1/2+z
loop_
_atom_site_type_symbol
_atom_site_label
_atom_site_fract_x
_atom_site_fract_y
_atom_site_fract_z
Si Si1 0.417639 0.797772 0.042830
Si Si2 0.926028 0.921604 0.096918
Si Si3 0.576949 0.668203 0.695864
Si Si4 0.924353 0.832227 0.497185
Si Si5 0.086895 0.790076 0.647031
Si Si6 0.075207 0.074960 0.288503
Si Si7 0.926692 0.423225 0.084529
Si Si8 0.421236 0.073590 0.402443
O O1 0.250000 0.814552 0.024293
O O2 0.507904 0.872722 0.051086
O O3 0.414560 0.753425 0.094640
O O4 0.502727 0.747923 0.001496
O O5 0.750000 0.927747 0.090712
O O6 0.972292 0.886217 0.150796
O O7 0.000000 0.000000 0.093449
O O8 0.750000 0.677071 0.695979
O O9 0.515475 0.750017 0.688089
O O10 0.518788 0.637122 0.749597
O O11 0.750000 0.827572 0.509784
O O12 0.954969 0.859448 0.439928
O O13 0.000469 0.890729 0.534000
O O14 0.250000 0.791237 0.670861
O O15 0.035154 0.872119 0.633286
O O16 0.250000 0.064433 0.283316
O O17 0.026958 0.096727 0.345707
O O18 0.000000 0.000000 0.271697
O O19 0.750000 0.429233 0.076243
O O20 0.000000 0.500000 0.097117
O O21 0.250000 0.053635 0.402213
O O22 0.500000 0.000000 0.421225
#
# Coordination Sequence:
#
# PCOD8191272 Si02
#       8
#     8   8   8   8   8   8   8   8
#     4   9  17  29  42  57  78 105 134 167 202 239
#     4  10  18  27  40  60  83 108 137 168 200 238
#     4   9  17  27  41  58  78 106 138 167 198 234
#     4  10  18  28  42  59  79 107 138 168 201 239
#     4   8  16  28  40  55  77 102 130 162 198 236
#     4   9  17  29  41  57  80 106 136 169 200 232
#     4  10  19  29  41  59  81 107 135 166 200 237
#     4   9  18  29  41  57  80 107 136 169 202 233
#
# _framework density 14.708781999999999
#
# number of rings (size 3 to 8) (size 9 to 14) (size 15 to 20)
#    0.000    2.750    0.000    3.000    0.000    6.500 
#    0.000    0.000    0.000    0.000    0.000    0.000 
#    0.000    1.000    0.000    4.250    0.000    3.875 
#
# Total GULP energy -396670.891384 kJ/mol
# GULP energy per Si atom -12395.965356 kJ/mol
# Density = 1.467530 g / cm^3
# Si number density = 14.708782 Si / 1000 Ang^3
#
#
#
# Elastic Constant Matrix: (Units=GPa)
#
#
# Indices 1 2 3 4 5 6 
#
# 1 66.5036 48.4761 34.7485 0.0000 0.0000 0.0000
# 2 48.4761 107.4245 49.7370 0.0000 0.0000 0.0000
# 3 34.7485 49.7370 70.3714 0.0000 0.0000 0.0000
# 4 0.0000 0.0000 0.0000 22.7015 0.0000 0.0000
# 5 0.0000 0.0000 0.0000 0.0000 16.1063 0.0000
# 6 0.0000 0.0000 0.0000 0.0000 0.0000 29.6187
#
#
#
# Elastic Compliance Matrix: (Units=1/GPa)
#
#
# Indices 1 2 3 4 5 6 
#
# 1 0.024137 -0.007988 -0.006273 0.000000 0.000000 0.000000
# 2 -0.007988 0.016480 -0.007704 0.000000 0.000000 0.000000
# 3 -0.006273 -0.007704 0.022753 0.000000 0.000000 0.000000
# 4 0.000000 0.000000 0.000000 0.044050 0.000000 0.000000
# 5 0.000000 0.000000 0.000000 0.000000 0.062087 0.000000
# 6 0.000000 0.000000 0.000000 0.000000 0.000000 0.033762
#
#
# Mechanical properties :
#
#
# Convention : Reuss Voigt Hill
#
# Bulk Modulus (GPa) = 51.43739 56.69142 54.06440
# Shear Modulus (GPa) = 19.71005 21.10784 20.40894
#
# Velocity S-wave (km/s) = 3.66460 3.79231 3.72900
# Velocity P-wave (km/s) = 7.27682 7.60275 7.44157
#
# Compressibility (1/GPa) = 0.01944111
#
# Stress axis : x y z
#
# Youngs Moduli (GPa) = 41.43060 60.67958 43.95109
#
# Poissons Ratio (x) = 0.48468 0.27571
# Poissons Ratio (y) = 0.33093 0.33858
# Poissons Ratio (z) = 0.25989 0.46745
#
# Static dielectric constant tensor:
#      x y z
#    x 2.984580 0.000000 0.000000 
#    y 0.000000 2.937170 0.000000 
#    z 0.000000 0.000000 2.817700 
# 
# 
# High freq. dielectric constant tensor:
#      x y z
#    x 1.574940 0.000000 0.000000 
#    y 0.000000 1.552220 0.000000 
#    z 0.000000 0.000000 1.528090 
# 
# From -- ./inp_files/23314.got.cif
#   From: 2010.03.12/outbox.cif.g09.slc.cpg/sg46_12_cif.got.tgz:23314.got - 2010.04.14 02:56:35.
