data_PCOD8191604
_publ_section_title
;
Structure prediction by ZEFSAII (Michael W. Deem and Ramdas Pophale) SiO2 
 PCOD8191604
Probable space group: I M A 2
;
_chemical_formula_sum "Si O2"
_cell_formula_units_Z 64
_cell_length_a 16.650062
_cell_length_b 13.688664
_cell_length_c 14.209599
_cell_angle_alpha 90.000000
_cell_angle_beta 90.000000
_cell_angle_gamma 90.000000
_cell_volume 3238.610657
_symmetry_space_group_name_H-M "I M A 2"
_symmetry_group_IT_number 46
_symmetry_cell_setting 'orthorhombic'
loop_
_space_group_symop_operation_xyz
x,y,z
-x,-y,z
1/2-x,y,z
1/2+x,-y,z
1/2+x,1/2+y,1/2+z
1/2-x,1/2-y,1/2+z
-x,1/2+y,1/2+z
x,1/2-y,1/2+z
loop_
_atom_site_type_symbol
_atom_site_label
_atom_site_fract_x
_atom_site_fract_y
_atom_site_fract_z
Si Si1 0.344432 0.215430 0.756440
Si Si2 0.888708 0.782955 0.961757
Si Si3 0.654409 0.113617 0.158558
Si Si4 0.659440 0.939086 0.481322
Si Si5 0.841115 0.896135 0.143212
Si Si6 0.442081 0.739127 0.028175
Si Si7 0.841496 0.373594 0.871895
Si Si8 0.044168 0.413157 0.137018
O O1 0.250000 0.211792 0.739845
O O2 0.368338 0.177974 0.859029
O O3 0.377816 0.322299 0.722688
O O4 0.383599 0.135603 0.690688
O O5 0.855303 0.673264 0.956558
O O6 0.844406 0.846287 0.040671
O O7 0.983560 0.792981 0.978375
O O8 0.750000 0.119059 0.142146
O O9 0.612482 0.183643 0.083271
O O10 0.631314 0.146675 0.264605
O O11 0.618931 0.003594 0.143090
O O12 0.750000 0.951032 0.522148
O O13 0.589527 0.970803 0.552763
O O14 0.649791 0.009835 0.390890
O O15 0.750000 0.914605 0.172070
O O16 0.477811 0.663929 0.103671
O O17 0.392908 0.688050 0.945389
O O18 0.750000 0.339957 0.885663
O O19 0.000000 0.500000 0.194990
#
# Coordination Sequence:
#
# PCOD8191604 Si02
#       8
#     8   8   8   8   8   8   8   8
#     4  11  22  40  64  90 121 164 207 250 305 370
#     4  11  23  36  60  92 122 157 202 254 312 367
#     4  10  23  42  63  90 123 162 211 254 299 369
#     4  10  18  35  62  90 120 153 197 254 307 361
#     4  10  20  39  63  90 123 158 203 255 303 359
#     4  11  23  39  60  86 128 161 196 254 315 355
#     4  10  21  38  65  92 116 162 212 251 303 368
#     4  11  22  39  56  89 125 159 198 258 304 361
#
# _framework density 19.761559999999999
#
# number of rings (size 3 to 8) (size 9 to 14) (size 15 to 20)
#    0.000    1.500    3.750    2.625    1.750    2.500 
#    2.250    2.500    0.000    0.000    0.000    0.000 
#    0.000    0.000    0.000    0.000    0.000    0.000 
#
# Total GULP energy -396559.948068 kJ/mol
# GULP energy per Si atom -12392.498377 kJ/mol
# Density = 1.971658 g / cm^3
# Si number density = 19.761560 Si / 1000 Ang^3
#
#
#
# Elastic Constant Matrix: (Units=GPa)
#
#
# Indices 1 2 3 4 5 6 
#
# 1 84.2965 49.8063 29.7209 0.0000 0.0000 0.0000
# 2 49.8063 84.5439 46.6203 0.0000 0.0000 0.0000
# 3 29.7209 46.6203 97.3466 0.0000 0.0000 0.0000
# 4 0.0000 0.0000 0.0000 22.2781 0.0000 0.0000
# 5 0.0000 0.0000 0.0000 0.0000 30.4896 0.0000
# 6 0.0000 0.0000 0.0000 0.0000 0.0000 26.6010
#
#
#
# Elastic Compliance Matrix: (Units=1/GPa)
#
#
# Indices 1 2 3 4 5 6 
#
# 1 0.018220 -0.010418 -0.000574 0.000000 0.000000 0.000000
# 2 -0.010418 0.022029 -0.007369 0.000000 0.000000 0.000000
# 3 -0.000574 -0.007369 0.013977 0.000000 0.000000 0.000000
# 4 0.000000 0.000000 0.000000 0.044887 0.000000 0.000000
# 5 0.000000 0.000000 0.000000 0.000000 0.032798 0.000000
# 6 0.000000 0.000000 0.000000 0.000000 0.000000 0.037593
#
#
# Mechanical properties :
#
#
# Convention : Reuss Voigt Hill
#
# Bulk Modulus (GPa) = 57.12636 57.60910 57.36773
# Shear Modulus (GPa) = 23.57817 25.20971 24.39394
#
# Velocity S-wave (km/s) = 3.45792 3.57556 3.51723
# Velocity P-wave (km/s) = 6.70176 6.80159 6.75186
#
# Compressibility (1/GPa) = 0.01750505
#
# Stress axis : x y z
#
# Youngs Moduli (GPa) = 54.88367 45.39468 71.54604
#
# Poissons Ratio (x) = 0.47290 0.04105
# Poissons Ratio (y) = 0.57175 0.52725
# Poissons Ratio (z) = 0.03149 0.33453
#
# Static dielectric constant tensor:
#      x y z
#    x 3.675620 0.000000 0.000000 
#    y 0.000000 3.614520 0.000000 
#    z 0.000000 0.000000 3.647300 
# 
# 
# High freq. dielectric constant tensor:
#      x y z
#    x 1.775930 0.000000 0.000000 
#    y 0.000000 1.763350 0.000000 
#    z 0.000000 0.000000 1.763950 
# 
# From -- ./inp_files/16780.got.cif
#   From: 2010.03.12/outbox.cif.g09.slc.cpg/sg46_9_cif.got.tgz:16780.got - 2010.04.14 02:56:35.
