data_PCOD8191286
_publ_section_title
;
Structure prediction by ZEFSAII (Michael W. Deem and Ramdas Pophale) SiO2 
 PCOD8191286
Probable space group: I M A 2
;
_chemical_formula_sum "Si O2"
_cell_formula_units_Z 64
_cell_length_a 8.632191
_cell_length_b 18.539651
_cell_length_c 26.513150
_cell_angle_alpha 90.000000
_cell_angle_beta 90.000000
_cell_angle_gamma 90.000000
_cell_volume 4243.106423
_symmetry_space_group_name_H-M "I M A 2"
_symmetry_group_IT_number 46
_symmetry_cell_setting 'orthorhombic'
loop_
_space_group_symop_operation_xyz
x,y,z
-x,-y,z
1/2-x,y,z
1/2+x,-y,z
1/2+x,1/2+y,1/2+z
1/2-x,1/2-y,1/2+z
-x,1/2+y,1/2+z
x,1/2-y,1/2+z
loop_
_atom_site_type_symbol
_atom_site_label
_atom_site_fract_x
_atom_site_fract_y
_atom_site_fract_z
Si Si1 0.066693 0.922110 0.835400
Si Si2 0.919074 0.706346 0.881228
Si Si3 0.931670 0.575451 0.527012
Si Si4 0.064441 0.078006 0.321252
Si Si5 0.564537 0.657078 0.430300
Si Si6 0.421702 0.294818 0.279103
Si Si7 0.933040 0.163361 0.229140
Si Si8 0.934001 0.577751 0.640731
O O1 0.250000 0.924990 0.837290
O O2 0.005009 0.898466 0.890172
O O3 0.014647 0.868054 0.790727
O O4 0.000000 0.000000 0.821789
O O5 0.750000 0.687675 0.903153
O O6 0.000951 0.630591 0.866428
O O7 0.002619 0.761098 0.920562
O O8 0.904175 0.749859 0.829649
O O9 0.750000 0.566567 0.525545
O O10 0.986230 0.635615 0.486779
O O11 0.985702 0.595889 0.583328
O O12 0.000000 0.500000 0.509036
O O13 0.250000 0.078661 0.320068
O O14 0.004723 0.105455 0.267631
O O15 0.000000 0.000000 0.333673
O O16 0.750000 0.656966 0.422971
O O17 0.250000 0.313636 0.258237
O O18 0.511551 0.245338 0.238531
O O19 0.750000 0.159872 0.233447
O O20 0.989450 0.140299 0.173847
O O21 0.750000 0.577423 0.647663
O O22 0.000000 0.500000 0.656970
#
# Coordination Sequence:
#
# PCOD8191286 Si02
#       8
#     8   8   8   8   8   8   8   8
#     4  11  20  29  42  63  88 116 146 176 208 248
#     4   7  13  25  41  57  77 103 132 164 204 246
#     4   9  18  29  43  60  81 108 141 178 215 251
#     4  10  18  28  41  59  82 111 141 173 208 246
#     4   9  16  29  45  61  81 110 144 178 214 254
#     4   9  17  31  46  61  82 109 138 173 210 248
#     4  11  20  30  44  62  82 109 141 173 209 255
#     4  10  19  31  43  59  82 110 142 179 216 252
#
# _framework density 15.083288
#
# number of rings (size 3 to 8) (size 9 to 14) (size 15 to 20)
#    0.000    2.500    0.000    5.625    0.000    2.000 
#    0.000    0.625    0.000    0.000    0.000    0.000 
#    0.000    1.000    0.000    6.500    0.000    2.125 
#
# Total GULP energy -396538.455955 kJ/mol
# GULP energy per Si atom -12391.826749 kJ/mol
# Density = 1.504896 g / cm^3
# Si number density = 15.083288 Si / 1000 Ang^3
#
#
#
# Elastic Constant Matrix: (Units=GPa)
#
#
# Indices 1 2 3 4 5 6 
#
# 1 75.2323 36.7993 27.2066 0.0000 0.0000 0.0000
# 2 36.7993 121.1428 60.7480 0.0000 0.0000 0.0000
# 3 27.2066 60.7480 81.7338 0.0000 0.0000 0.0000
# 4 0.0000 0.0000 0.0000 29.2288 0.0000 0.0000
# 5 0.0000 0.0000 0.0000 0.0000 15.1612 0.0000
# 6 0.0000 0.0000 0.0000 0.0000 0.0000 23.3197
#
#
#
# Elastic Compliance Matrix: (Units=1/GPa)
#
#
# Indices 1 2 3 4 5 6 
#
# 1 0.015985 -0.003487 -0.002729 0.000000 0.000000 0.000000
# 2 -0.003487 0.013920 -0.009185 0.000000 0.000000 0.000000
# 3 -0.002729 -0.009185 0.019970 0.000000 0.000000 0.000000
# 4 0.000000 0.000000 0.000000 0.034213 0.000000 0.000000
# 5 0.000000 0.000000 0.000000 0.000000 0.065958 0.000000
# 6 0.000000 0.000000 0.000000 0.000000 0.000000 0.042882
#
#
# Mechanical properties :
#
#
# Convention : Reuss Voigt Hill
#
# Bulk Modulus (GPa) = 52.43253 58.62408 55.52830
# Shear Modulus (GPa) = 21.73086 23.76562 22.74824
#
# Velocity S-wave (km/s) = 3.79981 3.97372 3.88774
# Velocity P-wave (km/s) = 7.35451 7.74630 7.55295
#
# Compressibility (1/GPa) = 0.01907213
#
# Stress axis : x y z
#
# Youngs Moduli (GPa) = 62.55944 71.83918 50.07504
#
# Poissons Ratio (x) = 0.25052 0.13666
# Poissons Ratio (y) = 0.21816 0.45995
# Poissons Ratio (z) = 0.17073 0.65985
#
# Static dielectric constant tensor:
#      x y z
#    x 2.927490 0.000000 0.000000 
#    y 0.000000 3.133900 0.000000 
#    z 0.000000 0.000000 2.917460 
# 
# 
# High freq. dielectric constant tensor:
#      x y z
#    x 1.581120 0.000000 0.000000 
#    y 0.000000 1.571460 0.000000 
#    z 0.000000 0.000000 1.544490 
# 
# From -- ./inp_files/24410.got.cif
#   From: 2010.03.12/outbox.cif.g09.slc.cpg/sg46_13_cif.got.tgz:24410.got - 2010.04.14 02:56:35.
