data_PCOD8191853
_publ_section_title
;
Structure prediction by ZEFSAII (Michael W. Deem and Ramdas Pophale) SiO2 
 PCOD8191853
Probable space group: I M A 2
;
_chemical_formula_sum "Si O2"
_cell_formula_units_Z 64
_cell_length_a 8.902528
_cell_length_b 16.043504
_cell_length_c 22.779173
_cell_angle_alpha 90.000000
_cell_angle_beta 90.000000
_cell_angle_gamma 90.000000
_cell_volume 3253.497880
_symmetry_space_group_name_H-M "I M A 2"
_symmetry_group_IT_number 46
_symmetry_cell_setting 'orthorhombic'
loop_
_space_group_symop_operation_xyz
x,y,z
-x,-y,z
1/2-x,y,z
1/2+x,-y,z
1/2+x,1/2+y,1/2+z
1/2-x,1/2-y,1/2+z
-x,1/2+y,1/2+z
x,1/2-y,1/2+z
loop_
_atom_site_type_symbol
_atom_site_label
_atom_site_fract_x
_atom_site_fract_y
_atom_site_fract_z
Si Si1 0.427085 0.804932 0.930550
Si Si2 0.419268 0.417211 0.342705
Si Si3 0.424516 0.636058 0.876841
Si Si4 0.423602 0.251683 0.040875
Si Si5 0.929737 0.412572 0.749314
Si Si6 0.924932 0.418501 0.003406
Si Si7 0.419428 0.089379 0.713257
Si Si8 0.074872 0.266638 0.672921
O O1 0.250000 0.799116 0.940581
O O2 0.472768 0.883451 0.892869
O O3 0.491453 0.726369 0.893767
O O4 0.505272 0.811743 0.993842
O O5 0.500000 0.500000 0.323695
O O6 0.250000 0.426522 0.367263
O O7 0.420780 0.372582 0.279630
O O8 0.250000 0.647506 0.865173
O O9 0.492970 0.600948 0.816112
O O10 0.457004 0.578362 0.933173
O O11 0.250000 0.266109 0.026562
O O12 0.505668 0.339827 0.035660
O O13 0.447310 0.210847 0.104548
O O14 0.750000 0.418822 0.746259
O O15 0.000000 0.500000 0.726435
O O16 0.982273 0.334310 0.710200
O O17 0.750000 0.418118 0.016722
O O18 0.000000 0.500000 0.031588
O O19 0.250000 0.071810 0.692611
O O20 0.485695 0.170554 0.679221
O O21 0.500000 0.000000 0.701988
O O22 0.250000 0.271342 0.691260
#
# Coordination Sequence:
#
# PCOD8191853 Si02
#       8
#     8   8   8   8   8   8   8   8
#     4  10  19  34  55  79 108 138 174 219 268 323
#     4  10  19  32  52  79 109 139 173 214 266 324
#     4   8  17  32  52  80 110 140 172 212 264 323
#     4  10  21  37  55  75 103 140 183 226 268 317
#     4  11  22  37  58  83 111 144 184 228 277 330
#     4  10  19  33  53  79 112 144 177 216 263 319
#     4   9  19  35  56  84 116 148 182 222 270 327
#     4  10  22  40  58  79 110 147 188 233 276 321
#
# _framework density 19.671137000000002
#
# number of rings (size 3 to 8) (size 9 to 14) (size 15 to 20)
#    0.000    2.250    0.000    3.750    0.000    2.500 
#    0.000    8.125    0.000    3.000    0.000    0.000 
#    0.000    0.000    0.000    0.000    0.000    0.000 
#
# Total GULP energy -396508.274135 kJ/mol
# GULP energy per Si atom -12390.883567 kJ/mol
# Density = 1.962636 g / cm^3
# Si number density = 19.671137 Si / 1000 Ang^3
#
#
#
# Elastic Constant Matrix: (Units=GPa)
#
#
# Indices 1 2 3 4 5 6 
#
# 1 93.6266 33.5110 35.5618 0.0000 0.0000 0.0000
# 2 33.5110 70.7825 30.2915 0.0000 0.0000 0.0000
# 3 35.5618 30.2915 78.2917 0.0000 0.0000 0.0000
# 4 0.0000 0.0000 0.0000 16.4851 0.0000 0.0000
# 5 0.0000 0.0000 0.0000 0.0000 25.9540 0.0000
# 6 0.0000 0.0000 0.0000 0.0000 0.0000 34.7986
#
#
#
# Elastic Compliance Matrix: (Units=1/GPa)
#
#
# Indices 1 2 3 4 5 6 
#
# 1 0.014111 -0.004719 -0.004584 0.000000 0.000000 0.000000
# 2 -0.004719 0.018509 -0.005018 0.000000 0.000000 0.000000
# 3 -0.004584 -0.005018 0.016796 0.000000 0.000000 0.000000
# 4 0.000000 0.000000 0.000000 0.060661 0.000000 0.000000
# 5 0.000000 0.000000 0.000000 0.000000 0.038530 0.000000
# 6 0.000000 0.000000 0.000000 0.000000 0.000000 0.028737
#
#
# Mechanical properties :
#
#
# Convention : Reuss Voigt Hill
#
# Bulk Modulus (GPa) = 48.13413 49.04771 48.59092
# Shear Modulus (GPa) = 23.48416 25.00331 24.24373
#
# Velocity S-wave (km/s) = 3.45895 3.56907 3.51444
# Velocity P-wave (km/s) = 6.36199 6.47860 6.42056
#
# Compressibility (1/GPa) = 0.02077528
#
# Stress axis : x y z
#
# Youngs Moduli (GPa) = 70.86815 54.02676 59.53742
#
# Poissons Ratio (x) = 0.25495 0.27290
# Poissons Ratio (y) = 0.33442 0.29875
# Poissons Ratio (z) = 0.32483 0.27110
#
# Static dielectric constant tensor:
#      x y z
#    x 3.490800 0.000000 0.000000 
#    y 0.000000 3.475270 0.000000 
#    z 0.000000 0.000000 3.599390 
# 
# 
# High freq. dielectric constant tensor:
#      x y z
#    x 1.761610 0.000000 0.000000 
#    y 0.000000 1.755740 0.000000 
#    z 0.000000 0.000000 1.765170 
# 
# From -- ./inp_files/23154.got.cif
#   From: 2010.03.12/outbox.cif.g09.slc.cpg/sg46_12_cif.got.tgz:23154.got - 2010.04.14 02:56:35.
