data_PCOD8191522
_publ_section_title
;
Structure prediction by ZEFSAII (Michael W. Deem and Ramdas Pophale) SiO2 
 PCOD8191522
Probable space group: I M A 2
;
_chemical_formula_sum "Si O2"
_cell_formula_units_Z 64
_cell_length_a 8.953978
_cell_length_b 33.226029
_cell_length_c 11.617994
_cell_angle_alpha 90.000000
_cell_angle_beta 90.000000
_cell_angle_gamma 90.000000
_cell_volume 3456.412847
_symmetry_space_group_name_H-M "I M A 2"
_symmetry_group_IT_number 46
_symmetry_cell_setting 'orthorhombic'
loop_
_space_group_symop_operation_xyz
x,y,z
-x,-y,z
1/2-x,y,z
1/2+x,-y,z
1/2+x,1/2+y,1/2+z
1/2-x,1/2-y,1/2+z
-x,1/2+y,1/2+z
x,1/2-y,1/2+z
loop_
_atom_site_type_symbol
_atom_site_label
_atom_site_fract_x
_atom_site_fract_y
_atom_site_fract_z
Si Si1 0.577391 0.174076 0.333290
Si Si2 0.075936 0.122486 0.909019
Si Si3 0.424375 0.959770 0.585577
Si Si4 0.581360 0.828044 0.690252
Si Si5 0.582361 0.612314 0.977897
Si Si6 0.077217 0.766012 0.541268
Si Si7 0.426504 0.541759 0.349646
Si Si8 0.923731 0.687806 0.596407
O O1 0.750000 0.162060 0.326533
O O2 0.482837 0.134916 0.367287
O O3 0.550718 0.209048 0.425569
O O4 0.520497 0.188928 0.211237
O O5 0.250000 0.113061 0.888558
O O6 0.015734 0.150106 0.803707
O O7 0.988990 0.080175 0.919232
O O8 0.047897 0.146701 0.026658
O O9 0.250000 0.964993 0.575341
O O10 0.477537 0.925302 0.500746
O O11 0.472062 0.950942 0.717001
O O12 0.500000 0.000000 0.540213
O O13 0.750000 0.812532 0.713394
O O14 0.579113 0.859855 0.588614
O O15 0.478757 0.790352 0.654325
O O16 0.750000 0.598049 0.949928
O O17 0.250000 0.755473 0.560949
O O18 0.980823 0.725757 0.522527
O O19 0.500000 0.500000 0.394233
O O20 0.250000 0.538681 0.367844
O O21 0.750000 0.693027 0.625287
#
# Coordination Sequence:
#
# PCOD8191522 Si02
#       8
#     8   8   8   8   8   8   8   8
#     4  10  22  40  58  79 109 145 186 230 277 330
#     4  10  21  37  56  83 115 148 188 235 282 336
#     4  10  19  30  48  79 115 148 182 223 274 331
#     4   9  18  33  54  80 109 143 181 223 275 332
#     4  10  18  32  56  80 107 144 181 224 274 329
#     4  10  22  38  57  81 109 143 184 233 282 328
#     4  10  20  33  54  82 116 154 188 231 283 340
#     4  11  24  39  58  82 110 147 189 233 280 334
#
# _framework density 18.516307000000001
#
# number of rings (size 3 to 8) (size 9 to 14) (size 15 to 20)
#    0.000    2.000    1.250    2.250    1.750    4.500 
#    0.000    0.000    0.000    0.750    0.000    1.750 
#    0.000    0.000    0.000    0.000    0.000    0.000 
#
# Total GULP energy -396892.271526 kJ/mol
# GULP energy per Si atom -12402.883485 kJ/mol
# Density = 1.847416 g / cm^3
# Si number density = 18.516307 Si / 1000 Ang^3
#
#
#
# Elastic Constant Matrix: (Units=GPa)
#
#
# Indices 1 2 3 4 5 6 
#
# 1 80.2291 45.5402 30.5900 0.0002 -0.0002 -0.0001
# 2 45.5402 111.2592 26.4184 0.0004 -0.0001 0.0000
# 3 30.5900 26.4184 62.9189 0.0015 0.0000 0.0001
# 4 0.0002 0.0004 0.0015 24.3947 0.0000 0.0001
# 5 -0.0002 -0.0001 0.0000 0.0000 25.1928 0.0003
# 6 -0.0001 0.0000 0.0001 0.0001 0.0003 38.8691
#
#
#
# Elastic Compliance Matrix: (Units=1/GPa)
#
#
# Indices 1 2 3 4 5 6 
#
# 1 0.018287 -0.005969 -0.006384 0.000000 0.000000 0.000000
# 2 -0.005969 0.011932 -0.002108 0.000000 0.000000 0.000000
# 3 -0.006384 -0.002108 0.019882 -0.000001 0.000000 0.000000
# 4 0.000000 0.000000 -0.000001 0.040993 0.000000 0.000000
# 5 0.000000 0.000000 0.000000 0.000000 0.039694 0.000000
# 6 0.000000 0.000000 0.000000 0.000000 0.000000 0.025727
#
#
# Mechanical properties :
#
#
# Convention : Reuss Voigt Hill
#
# Bulk Modulus (GPa) = 47.21798 51.05604 49.13701
# Shear Modulus (GPa) = 25.97443 27.81522 26.89483
#
# Velocity S-wave (km/s) = 3.74944 3.88003 3.81529
# Velocity P-wave (km/s) = 6.65587 6.90697 6.78258
#
# Compressibility (1/GPa) = 0.02117838
#
# Stress axis : x y z
#
# Youngs Moduli (GPa) = 54.68426 83.80966 50.29553
#
# Poissons Ratio (x) = 0.50027 0.32111
# Poissons Ratio (y) = 0.32642 0.10602
# Poissons Ratio (z) = 0.34912 0.17666
#
# Static dielectric constant tensor:
#      x y z
#    x 3.487820 0.000000 0.000000 
#    y 0.000000 3.193840 0.000000 
#    z 0.000000 0.000000 3.160950 
# 
# 
# High freq. dielectric constant tensor:
#      x y z
#    x 1.729250 0.000000 0.000000 
#    y 0.000000 1.719520 0.000000 
#    z 0.000000 0.000000 1.689790 
# 
# From -- ./inp_files/9695.got.cif
#   From: 2010.03.12/outbox.cif.g09.slc.cpg/sg46_5_cif.got.tgz:9695.got - 2010.04.14 02:56:35.
