data_PCOD8191658
_publ_section_title
;
Structure prediction by ZEFSAII (Michael W. Deem and Ramdas Pophale) SiO2 
 PCOD8191658
Probable space group: I M A 2
;
_chemical_formula_sum "Si O2"
_cell_formula_units_Z 56
_cell_length_a 9.091334
_cell_length_b 18.255446
_cell_length_c 20.687228
_cell_angle_alpha 90.000000
_cell_angle_beta 90.000000
_cell_angle_gamma 90.000000
_cell_volume 3433.383866
_symmetry_space_group_name_H-M "I M A 2"
_symmetry_group_IT_number 46
_symmetry_cell_setting 'orthorhombic'
loop_
_space_group_symop_operation_xyz
x,y,z
-x,-y,z
1/2-x,y,z
1/2+x,-y,z
1/2+x,1/2+y,1/2+z
1/2-x,1/2-y,1/2+z
-x,1/2+y,1/2+z
x,1/2-y,1/2+z
loop_
_atom_site_type_symbol
_atom_site_label
_atom_site_fract_x
_atom_site_fract_y
_atom_site_fract_z
Si Si1 0.576687 0.925340 0.435650
Si Si2 0.919617 0.423534 0.446553
Si Si3 0.580260 0.156047 0.811494
Si Si4 0.424740 0.152188 0.563450
Si Si5 0.925038 0.578252 0.195304
Si Si6 0.413342 0.202498 0.005331
Si Si7 0.587414 0.718621 0.868621
O O1 0.750000 0.937980 0.439734
O O2 0.514117 0.898762 0.505392
O O3 0.538032 0.865283 0.380487
O O4 0.500000 0.000000 0.414627
O O5 0.750000 0.435947 0.461305
O O6 0.945964 0.392450 0.375021
O O7 0.000000 0.500000 0.453379
O O8 0.981063 0.367700 0.500679
O O9 0.750000 0.155329 0.790112
O O10 0.477111 0.123918 0.756492
O O11 0.530221 0.239893 0.823562
O O12 0.250000 0.152988 0.558644
O O13 0.479855 0.120441 0.631348
O O14 0.478057 0.236991 0.555738
O O15 0.750000 0.568864 0.197413
O O16 0.000000 0.500000 0.196691
O O17 0.250000 0.175952 0.026040
O O18 0.403216 0.242763 0.937330
O O19 0.750000 0.721532 0.836295
#
# Coordination Sequence:
#
# PCOD8191658 Si02
#       7
#     8   8   8   8   8   8   8
#     4   9  16  27  44  67  93 118 146 180 220 263
#     4  10  19  29  43  65  90 115 144 180 222 264
#     4  10  20  32  45  63  88 118 153 188 221 259
#     4   8  16  30  46  64  88 120 152 180 213 257
#     4  11  21  32  46  65  91 122 155 184 213 252
#     4   8  14  28  47  63  83 112 145 180 219 262
#     4   8  15  28  45  63  85 115 147 180 221 267
#
# _framework density 16.31044
#
# number of rings (size 3 to 8) (size 9 to 14) (size 15 to 20)
#    0.000    2.857    0.000    3.857    0.000    3.429 
#    0.000    4.286    0.000    0.000    0.000    1.000 
#    0.000    4.571    0.000    0.000    0.000    0.000 
#
# Total GULP energy -347077.182185 kJ/mol
# GULP energy per Si atom -12395.613649 kJ/mol
# Density = 1.627332 g / cm^3
# Si number density = 16.310440 Si / 1000 Ang^3
#
#
#
# Elastic Constant Matrix: (Units=GPa)
#
#
# Indices 1 2 3 4 5 6 
#
# 1 66.7564 57.6973 30.2931 0.0000 0.0000 0.0000
# 2 57.6973 142.7570 46.0411 0.0000 0.0000 0.0000
# 3 30.2931 46.0411 55.7320 0.0000 0.0000 0.0000
# 4 0.0000 0.0000 0.0000 23.1248 0.0000 0.0000
# 5 0.0000 0.0000 0.0000 0.0000 14.7189 0.0000
# 6 0.0000 0.0000 0.0000 0.0000 0.0000 29.4810
#
#
#
# Elastic Compliance Matrix: (Units=1/GPa)
#
#
# Indices 1 2 3 4 5 6 
#
# 1 0.024939 -0.007781 -0.007128 0.000000 0.000000 0.000000
# 2 -0.007781 0.011977 -0.005665 0.000000 0.000000 0.000000
# 3 -0.007128 -0.005665 0.026497 0.000000 0.000000 0.000000
# 4 0.000000 0.000000 0.000000 0.043244 0.000000 0.000000
# 5 0.000000 0.000000 0.000000 0.000000 0.067940 0.000000
# 6 0.000000 0.000000 0.000000 0.000000 0.000000 0.033920
#
#
# Mechanical properties :
#
#
# Convention : Reuss Voigt Hill
#
# Bulk Modulus (GPa) = 44.91143 59.25649 52.08396
# Shear Modulus (GPa) = 19.44879 22.21254 20.83066
#
# Velocity S-wave (km/s) = 3.45688 3.69434 3.57758
# Velocity P-wave (km/s) = 6.59762 7.38964 7.00483
#
# Compressibility (1/GPa) = 0.02226605
#
# Stress axis : x y z
#
# Youngs Moduli (GPa) = 40.09754 83.49630 37.73987
#
# Poissons Ratio (x) = 0.64966 0.26901
# Poissons Ratio (y) = 0.31199 0.21379
# Poissons Ratio (z) = 0.28581 0.47299
#
# Static dielectric constant tensor:
#      x y z
#    x 3.044560 0.000000 0.000000 
#    y 0.000000 3.314720 0.000000 
#    z 0.000000 0.000000 3.000940 
# 
# 
# High freq. dielectric constant tensor:
#      x y z
#    x 1.621890 0.000000 0.000000 
#    y 0.000000 1.633100 0.000000 
#    z 0.000000 0.000000 1.587200 
# 
# From -- ./inp_files/21213.got.cif
#   From: 2010.03.12/outbox.cif.g09.slc.cpg/sg46_11_cif.got.tgz:21213.got - 2010.04.14 02:56:35.
