data_PCOD8191419
_publ_section_title
;
Structure prediction by ZEFSAII (Michael W. Deem and Ramdas Pophale) SiO2 
 PCOD8191419
Probable space group: I M A 2
;
_chemical_formula_sum "Si O2"
_cell_formula_units_Z 64
_cell_length_a 8.947292
_cell_length_b 23.372242
_cell_length_c 19.161965
_cell_angle_alpha 90.000000
_cell_angle_beta 90.000000
_cell_angle_gamma 90.000000
_cell_volume 4007.117045
_symmetry_space_group_name_H-M "I M A 2"
_symmetry_group_IT_number 46
_symmetry_cell_setting 'orthorhombic'
loop_
_space_group_symop_operation_xyz
x,y,z
-x,-y,z
1/2-x,y,z
1/2+x,-y,z
1/2+x,1/2+y,1/2+z
1/2-x,1/2-y,1/2+z
-x,1/2+y,1/2+z
x,1/2-y,1/2+z
loop_
_atom_site_type_symbol
_atom_site_label
_atom_site_fract_x
_atom_site_fract_y
_atom_site_fract_z
Si Si1 0.425242 0.837002 0.065530
Si Si2 0.576792 0.764206 0.301435
Si Si3 0.928549 0.940211 0.439040
Si Si4 0.576617 0.762645 0.648615
Si Si5 0.924678 0.665611 0.024307
Si Si6 0.576022 0.778255 0.947387
Si Si7 0.072924 0.614497 0.805640
Si Si8 0.924800 0.060130 0.159808
O O1 0.250000 0.829356 0.060786
O O2 0.484253 0.790265 0.119734
O O3 0.469679 0.898958 0.095377
O O4 0.493109 0.829628 0.987864
O O5 0.750000 0.783948 0.304829
O O6 0.541332 0.729434 0.230433
O O7 0.541339 0.720525 0.364778
O O8 0.473820 0.819488 0.308070
O O9 0.750000 0.945455 0.436978
O O10 0.989790 0.894445 0.496607
O O11 0.986527 0.921860 0.363388
O O12 0.000000 0.000000 0.461490
O O13 0.750000 0.748276 0.635808
O O14 0.534985 0.820797 0.605600
O O15 0.750000 0.661397 0.012077
O O16 0.985573 0.717932 0.977336
O O17 0.750000 0.785324 0.963379
O O18 0.250000 0.609851 0.817467
O O19 0.021036 0.588446 0.731952
O O20 0.750000 0.050093 0.163152
O O21 0.000000 0.000000 0.146072
#
# Coordination Sequence:
#
# PCOD8191419 Si02
#       8
#     8   8   8   8   8   8   8   8
#     4  10  19  32  46  68  96 123 154 198 241 277
#     4  10  18  30  50  73  97 126 160 196 235 281
#     4  11  21  34  48  66  94 128 165 203 235 275
#     4   9  17  30  50  71  91 123 158 192 236 283
#     4   8  15  29  46  65  92 119 151 193 233 273
#     4   9  17  31  48  69  93 122 157 192 235 287
#     4  11  21  33  46  67  98 130 163 196 231 278
#     4  10  22  35  47  65  93 126 163 199 233 276
#
# _framework density 15.971582
#
# number of rings (size 3 to 8) (size 9 to 14) (size 15 to 20)
#    0.000    2.250    2.500    2.250    0.000    3.500 
#    0.000    0.625    0.000    0.000    0.000    0.875 
#    0.000    4.000    0.000    0.000    0.000    0.000 
#
# Total GULP energy -396667.902422 kJ/mol
# GULP energy per Si atom -12395.871951 kJ/mol
# Density = 1.593523 g / cm^3
# Si number density = 15.971582 Si / 1000 Ang^3
#
#
#
# Elastic Constant Matrix: (Units=GPa)
#
#
# Indices 1 2 3 4 5 6 
#
# 1 51.2243 41.2094 37.5951 0.0000 0.0000 0.0000
# 2 41.2094 91.5838 63.5187 0.0000 0.0000 0.0000
# 3 37.5951 63.5187 129.7717 0.0000 0.0000 0.0000
# 4 0.0000 0.0000 0.0000 24.2379 0.0000 0.0000
# 5 0.0000 0.0000 0.0000 0.0000 19.6476 0.0000
# 6 0.0000 0.0000 0.0000 0.0000 0.0000 24.4210
#
#
#
# Elastic Compliance Matrix: (Units=1/GPa)
#
#
# Indices 1 2 3 4 5 6 
#
# 1 0.031512 -0.011881 -0.003314 0.000000 0.000000 0.000000
# 2 -0.011881 0.021010 -0.006842 0.000000 0.000000 0.000000
# 3 -0.003314 -0.006842 0.012015 0.000000 0.000000 0.000000
# 4 0.000000 0.000000 0.000000 0.041258 0.000000 0.000000
# 5 0.000000 0.000000 0.000000 0.000000 0.050897 0.000000
# 6 0.000000 0.000000 0.000000 0.000000 0.000000 0.040948
#
#
# Mechanical properties :
#
#
# Convention : Reuss Voigt Hill
#
# Bulk Modulus (GPa) = 48.86670 61.91402 55.39036
# Shear Modulus (GPa) = 20.11792 22.34507 21.23150
#
# Velocity S-wave (km/s) = 3.55294 3.74445 3.64995
# Velocity P-wave (km/s) = 6.89157 7.58576 7.24698
#
# Compressibility (1/GPa) = 0.02046383
#
# Stress axis : x y z
#
# Youngs Moduli (GPa) = 31.73365 47.59592 83.23163
#
# Poissons Ratio (x) = 0.56549 0.27581
# Poissons Ratio (y) = 0.37703 0.56945
# Poissons Ratio (z) = 0.10516 0.32564
#
# Static dielectric constant tensor:
#      x y z
#    x 2.963830 0.000000 0.000000 
#    y 0.000000 3.081000 0.000000 
#    z 0.000000 0.000000 3.308660 
# 
# 
# High freq. dielectric constant tensor:
#      x y z
#    x 1.609190 0.000000 0.000000 
#    y 0.000000 1.585980 0.000000 
#    z 0.000000 0.000000 1.614570 
# 
# From -- ./inp_files/21458.got.cif
#   From: 2010.03.12/outbox.cif.g09.slc.cpg/sg46_11_cif.got.tgz:21458.got - 2010.04.14 02:56:35.
