data_PCOD8191528
_publ_section_title
;
Structure prediction by ZEFSAII (Michael W. Deem and Ramdas Pophale) SiO2 
 PCOD8191528
Probable space group: I M A 2
;
_chemical_formula_sum "Si O2"
_cell_formula_units_Z 48
_cell_length_a 14.691035
_cell_length_b 9.234017
_cell_length_c 16.969732
_cell_angle_alpha 90.000000
_cell_angle_beta 90.000000
_cell_angle_gamma 90.000000
_cell_volume 2302.067464
_symmetry_space_group_name_H-M "I M A 2"
_symmetry_group_IT_number 46
_symmetry_cell_setting 'orthorhombic'
loop_
_space_group_symop_operation_xyz
x,y,z
-x,-y,z
1/2-x,y,z
1/2+x,-y,z
1/2+x,1/2+y,1/2+z
1/2-x,1/2-y,1/2+z
-x,1/2+y,1/2+z
x,1/2-y,1/2+z
loop_
_atom_site_type_symbol
_atom_site_label
_atom_site_fract_x
_atom_site_fract_y
_atom_site_fract_z
Si Si1 0.062092 0.363044 0.233130
Si Si2 0.750000 0.778424 0.678432
Si Si3 0.097198 0.688828 0.425705
Si Si4 0.938555 0.133572 0.271935
Si Si5 0.250000 0.294838 0.003684
Si Si6 0.750000 0.487897 0.770671
Si Si7 0.099417 0.133766 0.916631
Si Si8 0.250000 0.600939 0.953827
O O1 0.157745 0.373087 0.186862
O O2 0.086003 0.344247 0.324407
O O3 0.000000 0.500000 0.213426
O O4 0.001841 0.220543 0.209000
O O5 0.750000 0.717816 0.588957
O O6 0.750000 0.655052 0.745111
O O7 0.089277 0.749355 0.337462
O O8 0.140522 0.527640 0.427703
O O9 0.161393 0.800549 0.472403
O O10 0.996293 0.666466 0.461105
O O11 0.842790 0.080225 0.234285
O O12 0.000000 0.000000 0.305194
O O13 0.163756 0.253216 0.952394
O O14 0.250000 0.468684 0.014940
O O15 0.750000 0.466799 0.865359
#
# Coordination Sequence:
#
# PCOD8191528 Si02
#       8
#     8   4   8   8   4   4   8   4
#     4  11  21  41  70  96 124 163 216 271 314 375
#     4  12  26  43  57  91 133 177 211 254 329 395
#     4   9  19  34  63  94 124 144 205 263 319 359
#     4  10  18  32  62 102 125 147 200 268 328 366
#     4  12  27  39  59  88 130 173 208 251 325 385
#     4  10  20  36  65  93 123 159 210 261 312 366
#     4  10  19  40  64  93 118 164 204 258 313 374
#     4  10  21  36  61 100 118 155 203 272 304 356
#
# _framework density 20.850822999999998
#
# number of rings (size 3 to 8) (size 9 to 14) (size 15 to 20)
#    0.000    1.667    5.000    2.000    7.000    0.667 
#    3.000    3.333    3.667    0.000    0.000    0.000 
#    0.000    0.000    0.000    0.000    0.000    0.000 
#
# Total GULP energy -297331.761096 kJ/mol
# GULP energy per Si atom -12388.823379 kJ/mol
# Density = 2.080337 g / cm^3
# Si number density = 20.850823 Si / 1000 Ang^3
#
#
#
# Elastic Constant Matrix: (Units=GPa)
#
#
# Indices 1 2 3 4 5 6 
#
# 1 167.5090 67.5873 22.0279 0.0000 0.0000 0.0000
# 2 67.5873 134.0772 17.2054 0.0000 0.0000 0.0000
# 3 22.0279 17.2054 19.3234 0.0000 0.0000 0.0000
# 4 0.0000 0.0000 0.0000 8.5758 0.0000 0.0000
# 5 0.0000 0.0000 0.0000 0.0000 -2.2889 0.0000
# 6 0.0000 0.0000 0.0000 0.0000 0.0000 106.5250
#
#
#
# Elastic Compliance Matrix: (Units=1/GPa)
#
#
# Indices 1 2 3 4 5 6 
#
# 1 0.008129 -0.003284 -0.006343 0.000000 0.000000 0.000000
# 2 -0.003284 0.009747 -0.004935 0.000000 0.000000 0.000000
# 3 -0.006343 -0.004935 0.063376 0.000000 0.000000 0.000000
# 4 0.000000 0.000000 0.000000 0.116607 0.000000 0.000000
# 5 0.000000 0.000000 0.000000 0.000000 -0.436894 0.000000
# 6 0.000000 0.000000 0.000000 0.000000 0.000000 0.009387
#
#
# Mechanical properties :
#
#
# Convention : Reuss Voigt Hill
#
# Bulk Modulus (GPa) = 19.18358 59.39452 39.28905
# Shear Modulus (GPa) = -27.30025 36.83499 4.76737
#
# Velocity S-wave (km/s) = -3.62237 4.20765 1.51373
# Velocity P-wave (km/s) = 2.87664 7.22171 4.68391
#
# Compressibility (1/GPa) = 0.05212791
#
# Stress axis : x y z
#
# Youngs Moduli (GPa) = 123.01847 102.59525 15.77891
#
# Poissons Ratio (x) = 0.33690 0.10008
# Poissons Ratio (y) = 0.40396 0.07787
# Poissons Ratio (z) = 0.78027 0.50635
#
# Static dielectric constant tensor:
#      x y z
#    x 4.918590 0.000000 0.000000 
#    y 0.000000 3.994390 0.000000 
#    z 0.000000 0.000000 3.037480 
# 
# 
# High freq. dielectric constant tensor:
#      x y z
#    x 1.844890 0.000000 0.000000 
#    y 0.000000 1.829700 0.000000 
#    z 0.000000 0.000000 1.736640 
# 
# From -- ./inp_files/19459.got.cif
#   From: 2010.03.12/outbox.cif.g09.slc.cpg/sg46_10_cif.got.tgz:19459.got - 2010.04.14 02:56:35.
