data_PCOD8191597
_publ_section_title
;
Structure prediction by ZEFSAII (Michael W. Deem and Ramdas Pophale) SiO2 
 PCOD8191597
Probable space group: I M A 2
;
_chemical_formula_sum "Si O2"
_cell_formula_units_Z 64
_cell_length_a 8.825005
_cell_length_b 15.508882
_cell_length_c 23.936510
_cell_angle_alpha 90.000000
_cell_angle_beta 90.000000
_cell_angle_gamma 90.000000
_cell_volume 3276.093449
_symmetry_space_group_name_H-M "I M A 2"
_symmetry_group_IT_number 46
_symmetry_cell_setting 'orthorhombic'
loop_
_space_group_symop_operation_xyz
x,y,z
-x,-y,z
1/2-x,y,z
1/2+x,-y,z
1/2+x,1/2+y,1/2+z
1/2-x,1/2-y,1/2+z
-x,1/2+y,1/2+z
x,1/2-y,1/2+z
loop_
_atom_site_type_symbol
_atom_site_label
_atom_site_fract_x
_atom_site_fract_y
_atom_site_fract_z
Si Si1 0.569941 0.411017 0.814930
Si Si2 0.070166 0.751087 0.242962
Si Si3 0.571563 0.410996 0.312077
Si Si4 0.070164 0.844150 0.432551
Si Si5 0.929331 0.257045 0.615660
Si Si6 0.070519 0.088290 0.046666
Si Si7 0.428959 0.648205 0.434950
Si Si8 0.428556 0.911977 0.549605
O O1 0.500000 0.500000 0.793214
O O2 0.750000 0.417060 0.813574
O O3 0.509538 0.335820 0.774477
O O4 0.508606 0.391602 0.877364
O O5 0.250000 0.748650 0.246524
O O6 0.005561 0.665939 0.273539
O O7 0.014555 0.754960 0.179368
O O8 0.500000 0.500000 0.291049
O O9 0.750000 0.416871 0.304882
O O10 0.527175 0.394424 0.376218
O O11 0.250000 0.841807 0.431294
O O12 0.011945 0.746262 0.434199
O O13 0.009620 0.894067 0.487023
O O14 0.750000 0.271907 0.609979
O O15 0.978757 0.166292 0.589079
O O16 0.013282 0.333159 0.583982
O O17 0.250000 0.083007 0.049580
O O18 0.000000 0.000000 0.070975
O O19 0.017982 0.097844 0.982774
O O20 0.250000 0.643203 0.447155
O O21 0.250000 0.922425 0.549687
O O22 0.500000 0.000000 0.572820
#
# Coordination Sequence:
#
# PCOD8191597 Si02
#       8
#     8   8   8   8   8   8   8   8
#     4  10  19  34  56  82 111 144 182 226 275 331
#     4   9  19  37  60  82 108 150 196 231 274 334
#     4  10  20  35  58  86 116 151 189 232 281 340
#     4   9  16  31  56  81 109 147 183 220 275 337
#     4  10  21  40  62  82 110 152 198 241 283 335
#     4  12  25  40  60  87 117 149 189 238 293 349
#     4  10  18  35  61  85 115 152 191 232 283 345
#     4  10  20  34  55  81 111 146 185 227 280 335
#
# _framework density 19.535463
#
# number of rings (size 3 to 8) (size 9 to 14) (size 15 to 20)
#    0.000    2.000    2.500    1.875    0.000    3.000 
#    0.000    3.750    0.000    0.000    0.000    0.000 
#    0.000    0.000    0.000    0.000    0.000    0.000 
#
# Total GULP energy -396862.891321 kJ/mol
# GULP energy per Si atom -12401.965354 kJ/mol
# Density = 1.949100 g / cm^3
# Si number density = 19.535463 Si / 1000 Ang^3
#
#
#
# Elastic Constant Matrix: (Units=GPa)
#
#
# Indices 1 2 3 4 5 6 
#
# 1 47.4046 45.0677 38.0311 0.0000 0.0000 0.0000
# 2 45.0677 184.8389 77.0455 0.0000 0.0000 0.0000
# 3 38.0311 77.0455 149.8311 0.0000 0.0000 0.0000
# 4 0.0000 0.0000 0.0000 9.6200 0.0000 0.0000
# 5 0.0000 0.0000 0.0000 0.0000 10.4432 0.0000
# 6 0.0000 0.0000 0.0000 0.0000 0.0000 32.9213
#
#
#
# Elastic Compliance Matrix: (Units=1/GPa)
#
#
# Indices 1 2 3 4 5 6 
#
# 1 0.030058 -0.005280 -0.004914 0.000000 0.000000 0.000000
# 2 -0.005280 0.007814 -0.002678 0.000000 0.000000 0.000000
# 3 -0.004914 -0.002678 0.009298 0.000000 0.000000 0.000000
# 4 0.000000 0.000000 0.000000 0.103950 0.000000 0.000000
# 5 0.000000 0.000000 0.000000 0.000000 0.095756 0.000000
# 6 0.000000 0.000000 0.000000 0.000000 0.000000 0.030375
#
#
# Mechanical properties :
#
#
# Convention : Reuss Voigt Hill
#
# Bulk Modulus (GPa) = 46.67367 78.04035 62.35701
# Shear Modulus (GPa) = 16.12189 25.39226 20.75707
#
# Velocity S-wave (km/s) = 2.87586 3.60919 3.26319
# Velocity P-wave (km/s) = 5.91363 7.57648 6.79611
#
# Compressibility (1/GPa) = 0.02142536
#
# Stress axis : x y z
#
# Youngs Moduli (GPa) = 33.26954 127.98071 107.54532
#
# Poissons Ratio (x) = 0.67578 0.52850
# Poissons Ratio (y) = 0.17567 0.28797
# Poissons Ratio (z) = 0.16349 0.34268
#
# Static dielectric constant tensor:
#      x y z
#    x 3.116180 0.000000 0.000000 
#    y 0.000000 3.745340 0.000000 
#    z 0.000000 0.000000 3.729520 
# 
# 
# High freq. dielectric constant tensor:
#      x y z
#    x 1.721360 0.000000 0.000000 
#    y 0.000000 1.779510 0.000000 
#    z 0.000000 0.000000 1.762090 
# 
# From -- ./inp_files/23149.got.cif
#   From: 2010.03.12/outbox.cif.g09.slc.cpg/sg46_12_cif.got.tgz:23149.got - 2010.04.14 02:56:35.
