data_PCOD8191046
_publ_section_title
;
Structure prediction by ZEFSAII (Michael W. Deem and Ramdas Pophale) SiO2 
 PCOD8191046
Probable space group: I B A 2
;
_chemical_formula_sum "Si O2"
_cell_formula_units_Z 48
_cell_length_a 11.775812
_cell_length_b 19.824895
_cell_length_c 8.638609
_cell_angle_alpha 90.000000
_cell_angle_beta 90.000000
_cell_angle_gamma 90.000000
_cell_volume 2016.719868
_symmetry_space_group_name_H-M "I B A 2"
_symmetry_group_IT_number 45
_symmetry_cell_setting 'orthorhombic'
loop_
_space_group_symop_operation_xyz
x,y,z
-x,-y,z
-x,y,1/2+z
x,-y,1/2+z
1/2+x,1/2+y,1/2+z
1/2-x,1/2-y,1/2+z
1/2-x,1/2+y,z
1/2+x,1/2-y,z
loop_
_atom_site_type_symbol
_atom_site_label
_atom_site_fract_x
_atom_site_fract_y
_atom_site_fract_z
Si Si1 0.874322 0.011420 0.406590
Si Si2 0.036377 0.423097 0.842249
Si Si3 0.877964 0.653084 0.136491
Si Si4 0.414028 0.303370 0.558582
Si Si5 0.875178 0.144303 0.226416
Si Si6 0.735228 0.414255 0.183691
O O1 0.879889 0.065592 0.268115
O O2 0.790881 0.037418 0.539267
O O3 0.824304 0.942076 0.339368
O O4 0.000000 0.000000 0.475204
O O5 0.129342 0.413975 0.705491
O O6 0.000000 0.500000 0.862064
O O7 0.927783 0.377591 0.795861
O O8 0.089591 0.398098 0.001320
O O9 0.929554 0.726482 0.106711
O O10 0.743727 0.661519 0.147558
O O11 0.529174 0.342938 0.598241
O O12 0.394240 0.308173 0.375221
O O13 0.309711 0.338737 0.650273
#
# Coordination Sequence:
#
# PCOD8191046 Si02
#       6
#     8   8   8   8   8   8
#     4  11  23  44  73 112 150 192 250 313 394 448
#     4  12  30  52  76 113 153 208 270 319 391 469
#     4  12  30  50  80 107 156 207 256 324 388 466
#     4  11  27  48  77 113 155 198 266 311 401 463
#     4  11  27  48  74 113 151 200 251 321 381 465
#     4  11  27  43  76 108 153 197 249 325 376 469
#
# _framework density 23.801026
#
# number of rings (size 3 to 8) (size 9 to 14) (size 15 to 20)
#    0.000    0.667    1.667    3.000   21.000    0.000 
#    0.000    0.000    0.000    0.000    0.000    0.000 
#    0.000    0.000    0.000    0.000    0.000    0.000 
#
# Total GULP energy -297820.586112 kJ/mol
# GULP energy per Si atom -12409.191088 kJ/mol
# Density = 2.374685 g / cm^3
# Si number density = 23.801026 Si / 1000 Ang^3
#
#
#
# Elastic Constant Matrix: (Units=GPa)
#
#
# Indices 1 2 3 4 5 6 
#
# 1 127.2972 19.7162 38.6609 0.0004 0.0000 0.0000
# 2 19.7162 125.1045 35.9517 0.0011 0.0001 0.0002
# 3 38.6609 35.9517 90.0746 -0.0007 0.0005 -0.0002
# 4 0.0004 0.0011 -0.0007 30.9923 0.0003 0.0002
# 5 0.0000 0.0001 0.0005 0.0003 40.9940 -0.0001
# 6 0.0000 0.0002 -0.0002 0.0002 -0.0001 22.7844
#
#
#
# Elastic Compliance Matrix: (Units=1/GPa)
#
#
# Indices 1 2 3 4 5 6 
#
# 1 0.009047 -0.000350 -0.003743 0.000000 0.000000 0.000000
# 2 -0.000350 0.009042 -0.003459 0.000000 0.000000 0.000000
# 3 -0.003743 -0.003459 0.014089 0.000001 0.000000 0.000000
# 4 0.000000 0.000000 0.000001 0.032266 0.000000 0.000000
# 5 0.000000 0.000000 0.000000 0.000000 0.024394 0.000000
# 6 0.000000 0.000000 0.000000 0.000000 0.000000 0.043890
#
#
# Mechanical properties :
#
#
# Convention : Reuss Voigt Hill
#
# Bulk Modulus (GPa) = 58.56879 59.01488 58.79183
# Shear Modulus (GPa) = 32.56833 35.49732 34.03282
#
# Velocity S-wave (km/s) = 3.70315 3.86608 3.78549
# Velocity P-wave (km/s) = 6.55328 6.69161 6.62281
#
# Compressibility (1/GPa) = 0.01707394
#
# Stress axis : x y z
#
# Youngs Moduli (GPa) = 110.53781 110.58910 70.97684
#
# Poissons Ratio (x) = 0.03871 0.26568
# Poissons Ratio (y) = 0.03869 0.24550
# Poissons Ratio (z) = 0.41377 0.38252
#
# Static dielectric constant tensor:
#      x y z
#    x 4.411220 0.000000 0.000000 
#    y 0.000000 4.302830 0.000000 
#    z 0.000000 0.000000 4.231550 
# 
# 
# High freq. dielectric constant tensor:
#      x y z
#    x 1.952790 0.000000 0.000000 
#    y 0.000000 1.945950 0.000000 
#    z 0.000000 0.000000 1.948420 
# 
# From -- ./inp_files/1360.got.cif
#   From: 2010.03.12/outbox.cif.g09.slc.cpg/sg45_1_cif.got.tgz:1360.got - 2010.04.14 02:50:11.
