data_PCOD8191037
_publ_section_title
;
Structure prediction by ZEFSAII (Michael W. Deem and Ramdas Pophale) SiO2 
 PCOD8191037
Probable space group: I B A 2
;
_chemical_formula_sum "Si O2"
_cell_formula_units_Z 48
_cell_length_a 10.276346
_cell_length_b 8.508352
_cell_length_c 23.959627
_cell_angle_alpha 90.000000
_cell_angle_beta 90.000000
_cell_angle_gamma 90.000000
_cell_volume 2094.904453
_symmetry_space_group_name_H-M "I B A 2"
_symmetry_group_IT_number 45
_symmetry_cell_setting 'orthorhombic'
loop_
_space_group_symop_operation_xyz
x,y,z
-x,-y,z
-x,y,1/2+z
x,-y,1/2+z
1/2+x,1/2+y,1/2+z
1/2-x,1/2-y,1/2+z
1/2-x,1/2+y,z
1/2+x,1/2-y,z
loop_
_atom_site_type_symbol
_atom_site_label
_atom_site_fract_x
_atom_site_fract_y
_atom_site_fract_z
Si Si1 0.347797 0.387223 0.610720
Si Si2 0.846488 0.111577 0.736579
Si Si3 0.391192 0.721132 0.570213
Si Si4 0.847739 0.357191 0.948910
Si Si5 0.105027 0.221907 0.777452
Si Si6 0.104224 0.701441 0.403509
O O1 0.377801 0.443879 0.673625
O O2 0.353194 0.536273 0.568821
O O3 0.459348 0.263083 0.590803
O O4 0.208018 0.305079 0.612449
O O5 0.704007 0.186743 0.737310
O O6 0.956026 0.238936 0.756133
O O7 0.856269 0.961995 0.777620
O O8 0.370299 0.811672 0.512662
O O9 0.869860 0.539125 0.935596
O O10 0.700252 0.326422 0.931007
O O11 0.953042 0.252923 0.914245
O O12 0.124869 0.302096 0.837493
#
# Coordination Sequence:
#
# PCOD8191037 Si02
#       6
#     8   8   8   8   8   8
#     4  11  23  42  66  98 131 168 212 261 318 384
#     4  11  23  42  66  98 131 168 212 261 318 384
#     4  11  23  41  64  92 130 170 210 264 318 375
#     4  11  24  42  63  92 125 165 214 262 313 375
#     4  11  23  41  64  92 130 170 210 264 318 375
#     4  11  24  42  63  92 125 165 214 262 313 375
#
# _framework density 22.912738999999998
#
# number of rings (size 3 to 8) (size 9 to 14) (size 15 to 20)
#    0.000    1.000    0.000    8.000    0.000    7.333 
#    0.000    3.333    0.000    0.000    0.000    0.000 
#    0.000    0.000    0.000    0.000    0.000    0.000 
#
# Total GULP energy -297529.310928 kJ/mol
# GULP energy per Si atom -12397.054622 kJ/mol
# Density = 2.286059 g / cm^3
# Si number density = 22.912739 Si / 1000 Ang^3
#
#
#
# Elastic Constant Matrix: (Units=GPa)
#
#
# Indices 1 2 3 4 5 6 
#
# 1 93.0451 38.2571 20.4729 0.0000 0.0000 0.0000
# 2 38.2571 74.8862 39.8658 0.0000 0.0000 0.0000
# 3 20.4729 39.8658 134.1259 0.0000 0.0000 0.0000
# 4 0.0000 0.0000 0.0000 28.6741 0.0000 0.0000
# 5 0.0000 0.0000 0.0000 0.0000 32.6741 0.0000
# 6 0.0000 0.0000 0.0000 0.0000 0.0000 45.4290
#
#
#
# Elastic Compliance Matrix: (Units=1/GPa)
#
#
# Indices 1 2 3 4 5 6 
#
# 1 0.013605 -0.006944 -0.000013 0.000000 0.000000 0.000000
# 2 -0.006944 0.019408 -0.004709 0.000000 0.000000 0.000000
# 3 -0.000013 -0.004709 0.008857 0.000000 0.000000 0.000000
# 4 0.000000 0.000000 0.000000 0.034875 0.000000 0.000000
# 5 0.000000 0.000000 0.000000 0.000000 0.030605 0.000000
# 6 0.000000 0.000000 0.000000 0.000000 0.000000 0.022012
#
#
# Mechanical properties :
#
#
# Convention : Reuss Voigt Hill
#
# Bulk Modulus (GPa) = 53.93807 55.47209 54.70508
# Shear Modulus (GPa) = 31.47179 34.91954 33.19567
#
# Velocity S-wave (km/s) = 3.71016 3.90811 3.81042
# Velocity P-wave (km/s) = 6.47654 6.68035 6.57923
#
# Compressibility (1/GPa) = 0.01853978
#
# Stress axis : x y z
#
# Youngs Moduli (GPa) = 73.50060 51.52643 112.90319
#
# Poissons Ratio (x) = 0.35778 0.00145
# Poissons Ratio (y) = 0.51037 0.53161
# Poissons Ratio (z) = 0.00094 0.24261
#
# Static dielectric constant tensor:
#      x y z
#    x 4.863940 0.000000 0.000000 
#    y 0.000000 3.799970 0.000000 
#    z 0.000000 0.000000 3.982290 
# 
# 
# High freq. dielectric constant tensor:
#      x y z
#    x 1.932020 0.000000 0.000000 
#    y 0.000000 1.885030 0.000000 
#    z 0.000000 0.000000 1.905560 
# 
# From -- ./inp_files/9667.got.cif
#   From: 2010.03.12/outbox.cif.g09.slc.cpg/sg45_5_cif.got.tgz:9667.got - 2010.04.14 02:50:11.
