data_PCOD8191895
_publ_section_title
;
Structure prediction by ZEFSAII (Michael W. Deem and Ramdas Pophale) SiO2 
 PCOD8191895
Probable space group: I M A 2
;
_chemical_formula_sum "Si O2"
_cell_formula_units_Z 56
_cell_length_a 8.739181
_cell_length_b 14.446792
_cell_length_c 22.197399
_cell_angle_alpha 90.000000
_cell_angle_beta 90.000000
_cell_angle_gamma 90.000000
_cell_volume 2802.491105
_symmetry_space_group_name_H-M "I M A 2"
_symmetry_group_IT_number 46
_symmetry_cell_setting 'orthorhombic'
loop_
_space_group_symop_operation_xyz
x,y,z
-x,-y,z
1/2-x,y,z
1/2+x,-y,z
1/2+x,1/2+y,1/2+z
1/2-x,1/2-y,1/2+z
-x,1/2+y,1/2+z
x,1/2-y,1/2+z
loop_
_atom_site_type_symbol
_atom_site_label
_atom_site_fract_x
_atom_site_fract_y
_atom_site_fract_z
Si Si1 0.929018 0.904823 0.362900
Si Si2 0.569841 0.405035 0.288487
Si Si3 0.428690 0.721672 0.399804
Si Si4 0.430637 0.601174 0.511246
Si Si5 0.431042 0.720656 0.625404
Si Si6 0.568432 0.902552 0.659247
Si Si7 0.069135 0.403677 0.724275
O O1 0.750000 0.912565 0.370025
O O2 0.977683 0.888903 0.293614
O O3 0.988995 0.820440 0.403189
O O4 0.000000 0.000000 0.387627
O O5 0.500000 0.500000 0.314609
O O6 0.750000 0.417519 0.276915
O O7 0.533691 0.325254 0.336093
O O8 0.486848 0.379163 0.226635
O O9 0.250000 0.738889 0.408381
O O10 0.492093 0.656892 0.453212
O O11 0.500000 0.500000 0.512253
O O12 0.250000 0.590837 0.508457
O O13 0.483715 0.656029 0.570520
O O14 0.250000 0.731340 0.628870
O O15 0.505993 0.821672 0.615852
O O16 0.493200 0.679163 0.687615
O O17 0.750000 0.907112 0.657041
O O18 0.500000 0.000000 0.636866
O O19 0.250000 0.404102 0.714263
O O20 0.000000 0.500000 0.700153
#
# Coordination Sequence:
#
# PCOD8191895 Si02
#       7
#     8   8   8   8   8   8   8
#     4  10  21  36  56  82 111 144 181 225 274 327
#     4  10  19  32  54  83 115 148 182 223 273 327
#     4  10  21  37  56  80 111 147 185 226 272 321
#     4  10  23  41  60  83 112 145 182 226 270 318
#     4  11  22  37  57  81 111 147 187 229 275 325
#     4  11  22  37  57  82 113 145 182 227 276 330
#     4  10  20  34  54  83 116 148 184 226 276 330
#
# _framework density 19.982222
#
# number of rings (size 3 to 8) (size 9 to 14) (size 15 to 20)
#    0.000    1.714    0.000    5.571    0.000    8.000 
#    0.000    0.714    0.000    0.000    0.000    0.000 
#    0.000    0.000    0.000    0.000    0.000    0.000 
#
# Total GULP energy -347329.713028 kJ/mol
# GULP energy per Si atom -12404.632608 kJ/mol
# Density = 1.993674 g / cm^3
# Si number density = 19.982222 Si / 1000 Ang^3
#
#
#
# Elastic Constant Matrix: (Units=GPa)
#
#
# Indices 1 2 3 4 5 6 
#
# 1 93.6300 61.9040 35.8433 0.0000 0.0000 0.0000
# 2 61.9040 189.2971 65.0578 0.0000 0.0000 0.0000
# 3 35.8433 65.0578 67.0814 0.0000 0.0000 0.0000
# 4 0.0000 0.0000 0.0000 31.9373 0.0000 0.0000
# 5 0.0000 0.0000 0.0000 0.0000 21.6423 0.0000
# 6 0.0000 0.0000 0.0000 0.0000 0.0000 42.1233
#
#
#
# Elastic Compliance Matrix: (Units=1/GPa)
#
#
# Indices 1 2 3 4 5 6 
#
# 1 0.014569 -0.003133 -0.004746 0.000000 0.000000 0.000000
# 2 -0.003133 0.008598 -0.006664 0.000000 0.000000 0.000000
# 3 -0.004746 -0.006664 0.023906 0.000000 0.000000 0.000000
# 4 0.000000 0.000000 0.000000 0.031311 0.000000 0.000000
# 5 0.000000 0.000000 0.000000 0.000000 0.046206 0.000000
# 6 0.000000 0.000000 0.000000 0.000000 0.000000 0.023740
#
#
# Mechanical properties :
#
#
# Convention : Reuss Voigt Hill
#
# Bulk Modulus (GPa) = 55.59784 75.06872 65.33328
# Shear Modulus (GPa) = 27.26119 31.62080 29.44100
#
# Velocity S-wave (km/s) = 3.69761 3.98231 3.84260
# Velocity P-wave (km/s) = 6.79072 7.66775 7.24252
#
# Compressibility (1/GPa) = 0.01798631
#
# Stress axis : x y z
#
# Youngs Moduli (GPa) = 68.64071 116.31062 41.83034
#
# Poissons Ratio (x) = 0.36443 0.19851
# Poissons Ratio (y) = 0.21507 0.27876
# Poissons Ratio (z) = 0.32575 0.77511
#
# Static dielectric constant tensor:
#      x y z
#    x 3.593070 0.000000 0.000000 
#    y 0.000000 3.871720 0.000000 
#    z 0.000000 0.000000 3.553440 
# 
# 
# High freq. dielectric constant tensor:
#      x y z
#    x 1.784880 0.000000 0.000000 
#    y 0.000000 1.797840 0.000000 
#    z 0.000000 0.000000 1.757020 
# 
# From -- ./inp_files/21092.got.cif
#   From: 2010.03.12/outbox.cif.g09.slc.cpg/sg46_11_cif.got.tgz:21092.got - 2010.04.14 02:56:35.
