data_PCOD8191417
_publ_section_title
;
Structure prediction by ZEFSAII (Michael W. Deem and Ramdas Pophale) SiO2 
 PCOD8191417
Probable space group: I M A 2
;
_chemical_formula_sum "Si O2"
_cell_formula_units_Z 64
_cell_length_a 9.004930
_cell_length_b 18.453963
_cell_length_c 21.532964
_cell_angle_alpha 90.000000
_cell_angle_beta 90.000000
_cell_angle_gamma 90.000000
_cell_volume 3578.275715
_symmetry_space_group_name_H-M "I M A 2"
_symmetry_group_IT_number 46
_symmetry_cell_setting 'orthorhombic'
loop_
_space_group_symop_operation_xyz
x,y,z
-x,-y,z
1/2-x,y,z
1/2+x,-y,z
1/2+x,1/2+y,1/2+z
1/2-x,1/2-y,1/2+z
-x,1/2+y,1/2+z
x,1/2-y,1/2+z
loop_
_atom_site_type_symbol
_atom_site_label
_atom_site_fract_x
_atom_site_fract_y
_atom_site_fract_z
Si Si1 0.422680 0.784843 0.211860
Si Si2 0.924754 0.179757 0.413557
Si Si3 0.079133 0.632518 0.158074
Si Si4 0.578810 0.570944 0.275624
Si Si5 0.583894 0.570212 0.693422
Si Si6 0.915009 0.567669 0.839171
Si Si7 0.925449 0.423195 0.024159
Si Si8 0.922743 0.778609 0.832421
O O1 0.250000 0.799713 0.226105
O O2 0.443290 0.719040 0.163117
O O3 0.493850 0.855904 0.179879
O O4 0.503502 0.764310 0.275480
O O5 0.750000 0.190313 0.413083
O O6 0.979359 0.138406 0.475327
O O7 0.982447 0.136032 0.353558
O O8 0.002995 0.257426 0.399320
O O9 0.250000 0.611837 0.169373
O O10 0.024168 0.606221 0.090922
O O11 0.983381 0.589727 0.208018
O O12 0.500000 0.500000 0.303300
O O13 0.750000 0.553628 0.266914
O O14 0.551549 0.635820 0.324076
O O15 0.500000 0.500000 0.664244
O O16 0.750000 0.575870 0.664688
O O17 0.597549 0.557724 0.766333
O O18 0.750000 0.574234 0.868567
O O19 0.000000 0.500000 0.870184
O O20 0.750000 0.433443 0.019199
O O21 0.000000 0.500000 0.009231
O O22 0.750000 0.757525 0.832418
#
# Coordination Sequence:
#
# PCOD8191417 Si02
#       8
#     8   8   8   8   8   8   8   8
#     4  10  18  30  50  72  96 128 164 204 251 300
#     4  11  21  32  48  68  95 131 168 205 242 288
#     4   9  19  35  53  73 100 133 169 208 249 294
#     4  10  20  33  52  77 103 129 161 202 251 301
#     4  10  19  29  43  65  96 128 159 198 240 290
#     4  10  19  29  42  61  90 126 161 198 235 279
#     4  10  22  37  51  72 101 134 174 211 244 284
#     4  10  20  33  48  70  99 129 161 202 247 298
#
# _framework density 17.88571
#
# number of rings (size 3 to 8) (size 9 to 14) (size 15 to 20)
#    0.000    2.000    1.250    3.000    0.000    6.500 
#    0.000    0.000    0.000    0.000    0.000    0.875 
#    0.000    2.000    0.000    0.000    0.000    0.125 
#
# Total GULP energy -396688.522444 kJ/mol
# GULP energy per Si atom -12396.516326 kJ/mol
# Density = 1.784500 g / cm^3
# Si number density = 17.885710 Si / 1000 Ang^3
#
#
#
# Elastic Constant Matrix: (Units=GPa)
#
#
# Indices 1 2 3 4 5 6 
#
# 1 104.9623 63.7584 36.0792 0.0000 0.0000 0.0000
# 2 63.7584 124.3268 38.8369 0.0000 0.0000 0.0000
# 3 36.0792 38.8369 63.9048 0.0000 0.0000 0.0000
# 4 0.0000 0.0000 0.0000 24.8752 0.0000 0.0000
# 5 0.0000 0.0000 0.0000 0.0000 17.2565 0.0000
# 6 0.0000 0.0000 0.0000 0.0000 0.0000 34.0800
#
#
#
# Elastic Compliance Matrix: (Units=1/GPa)
#
#
# Indices 1 2 3 4 5 6 
#
# 1 0.014877 -0.006178 -0.004644 0.000000 0.000000 0.000000
# 2 -0.006178 0.012494 -0.004105 0.000000 0.000000 0.000000
# 3 -0.004644 -0.004105 0.020765 0.000000 0.000000 0.000000
# 4 0.000000 0.000000 0.000000 0.040201 0.000000 0.000000
# 5 0.000000 0.000000 0.000000 0.000000 0.057949 0.000000
# 6 0.000000 0.000000 0.000000 0.000000 0.000000 0.029343
#
#
# Mechanical properties :
#
#
# Convention : Reuss Voigt Hill
#
# Bulk Modulus (GPa) = 54.70244 63.39364 59.04804
# Shear Modulus (GPa) = 23.63209 25.54363 24.58786
#
# Velocity S-wave (km/s) = 3.63889 3.78320 3.71175
# Velocity P-wave (km/s) = 6.95027 7.38946 7.17323
#
# Compressibility (1/GPa) = 0.01828072
#
# Stress axis : x y z
#
# Youngs Moduli (GPa) = 67.21955 80.03815 48.15824
#
# Poissons Ratio (x) = 0.49451 0.22366
# Poissons Ratio (y) = 0.41531 0.19768
# Poissons Ratio (z) = 0.31218 0.32854
#
# Static dielectric constant tensor:
#      x y z
#    x 3.523720 0.000000 0.000000 
#    y 0.000000 3.697280 0.000000 
#    z 0.000000 0.000000 2.980790 
# 
# 
# High freq. dielectric constant tensor:
#      x y z
#    x 1.707290 0.000000 0.000000 
#    y 0.000000 1.701250 0.000000 
#    z 0.000000 0.000000 1.637430 
# 
# From -- ./inp_files/21289.got.cif
#   From: 2010.03.12/outbox.cif.g09.slc.cpg/sg46_11_cif.got.tgz:21289.got - 2010.04.14 02:56:35.
