data_PCOD8191945
_publ_section_title
;
Structure prediction by ZEFSAII (Michael W. Deem and Ramdas Pophale) SiO2 
 PCOD8191945
Probable space group: I M A 2
;
_chemical_formula_sum "Si O2"
_cell_formula_units_Z 64
_cell_length_a 8.720779
_cell_length_b 22.208365
_cell_length_c 15.525164
_cell_angle_alpha 90.000000
_cell_angle_beta 90.000000
_cell_angle_gamma 90.000000
_cell_volume 3006.824387
_symmetry_space_group_name_H-M "I M A 2"
_symmetry_group_IT_number 46
_symmetry_cell_setting 'orthorhombic'
loop_
_space_group_symop_operation_xyz
x,y,z
-x,-y,z
1/2-x,y,z
1/2+x,-y,z
1/2+x,1/2+y,1/2+z
1/2-x,1/2-y,1/2+z
-x,1/2+y,1/2+z
x,1/2-y,1/2+z
loop_
_atom_site_type_symbol
_atom_site_label
_atom_site_fract_x
_atom_site_fract_y
_atom_site_fract_z
Si Si1 0.567894 0.938255 0.887880
Si Si2 0.069519 0.934162 0.401240
Si Si3 0.425665 0.936683 0.216569
Si Si4 0.930007 0.321920 0.136029
Si Si5 0.572208 0.757252 0.989653
Si Si6 0.429428 0.621906 0.541169
Si Si7 0.929927 0.934170 0.571575
Si Si8 0.070199 0.309016 0.310988
O O1 0.750000 0.943828 0.898073
O O2 0.523164 0.878045 0.834567
O O3 0.500000 0.000000 0.845089
O O4 0.484654 0.933013 0.980981
O O5 0.250000 0.935266 0.422157
O O6 0.028716 0.905058 0.308241
O O7 0.981974 0.902956 0.480762
O O8 0.000000 0.000000 0.397195
O O9 0.250000 0.953586 0.222801
O O10 0.462081 0.891352 0.140664
O O11 0.500000 0.000000 0.197666
O O12 0.750000 0.328888 0.136763
O O13 0.975208 0.288860 0.047141
O O14 0.008393 0.387901 0.142799
O O15 0.983926 0.288141 0.223513
O O16 0.750000 0.740457 0.999785
O O17 0.542120 0.823243 0.025247
O O18 0.524839 0.761846 0.887889
O O19 0.250000 0.636845 0.524796
O O20 0.750000 0.939950 0.578149
O O21 0.000000 0.000000 0.585859
O O22 0.250000 0.305600 0.294062
#
# Coordination Sequence:
#
# PCOD8191945 Si02
#       8
#     8   8   8   8   8   8   8   8
#     4  10  20  34  55  85 121 162 203 249 305 366
#     4   9  16  30  49  73 108 149 191 239 292 349
#     4   9  18  29  46  74 111 153 197 247 299 355
#     4  12  25  42  67  96 124 160 202 248 305 366
#     4  10  22  43  66  88 119 159 202 253 306 359
#     4  10  19  33  53  80 115 156 202 253 306 361
#     4  11  22  39  62  89 122 158 198 246 302 363
#     4   9  21  42  65  89 122 161 204 255 308 361
#
# _framework density 21.284915999999999
#
# number of rings (size 3 to 8) (size 9 to 14) (size 15 to 20)
#    0.000    2.000    0.000    5.625    0.000    6.000 
#    2.250    1.250    0.000    0.000    0.000    0.000 
#    0.000    0.000    0.000    0.000    0.000    0.000 
#
# Total GULP energy -396524.819272 kJ/mol
# GULP energy per Si atom -12391.400602 kJ/mol
# Density = 2.123647 g / cm^3
# Si number density = 21.284916 Si / 1000 Ang^3
#
#
#
# Elastic Constant Matrix: (Units=GPa)
#
#
# Indices 1 2 3 4 5 6 
#
# 1 108.8647 21.8293 53.1381 0.0000 0.0000 0.0000
# 2 21.8293 51.8583 27.3761 0.0001 0.0000 0.0000
# 3 53.1381 27.3761 111.1576 0.0000 0.0000 0.0000
# 4 0.0000 0.0001 0.0000 39.9556 0.0000 0.0000
# 5 0.0000 0.0000 0.0000 0.0000 33.3604 0.0000
# 6 0.0000 0.0000 0.0000 0.0000 0.0000 32.4547
#
#
#
# Elastic Compliance Matrix: (Units=1/GPa)
#
#
# Indices 1 2 3 4 5 6 
#
# 1 0.012230 -0.002370 -0.005263 0.000000 0.000000 0.000000
# 2 -0.002370 0.022624 -0.004439 0.000000 0.000000 0.000000
# 3 -0.005263 -0.004439 0.012605 0.000000 0.000000 0.000000
# 4 0.000000 0.000000 0.000000 0.025028 0.000000 0.000000
# 5 0.000000 0.000000 0.000000 0.000000 0.029976 0.000000
# 6 0.000000 0.000000 0.000000 0.000000 0.000000 0.030812
#
#
# Mechanical properties :
#
#
# Convention : Reuss Voigt Hill
#
# Bulk Modulus (GPa) = 42.88880 52.95196 47.92038
# Shear Modulus (GPa) = 30.26819 32.45661 31.36240
#
# Velocity S-wave (km/s) = 3.77510 3.90919 3.84273
# Velocity P-wave (km/s) = 6.26062 6.73107 6.50011
#
# Compressibility (1/GPa) = 0.02331611
#
# Stress axis : x y z
#
# Youngs Moduli (GPa) = 81.76838 44.20039 79.33182
#
# Poissons Ratio (x) = 0.10475 0.41750
# Poissons Ratio (y) = 0.19377 0.35216
# Poissons Ratio (z) = 0.43032 0.19621
#
# Static dielectric constant tensor:
#      x y z
#    x 3.662210 0.000000 0.000000 
#    y 0.000000 3.510210 0.000000 
#    z 0.000000 0.000000 5.282580 
# 
# 
# High freq. dielectric constant tensor:
#      x y z
#    x 1.838410 0.000000 0.000000 
#    y 0.000000 1.810590 0.000000 
#    z 0.000000 0.000000 1.847590 
# 
# From -- ./inp_files/14505.got.cif
#   From: 2010.03.12/outbox.cif.g09.slc.cpg/sg46_8_cif.got.tgz:14505.got - 2010.04.14 02:56:35.
