data_PCOD8191858
_publ_section_title
;
Structure prediction by ZEFSAII (Michael W. Deem and Ramdas Pophale) SiO2 
 PCOD8191858
Probable space group: I M A 2
;
_chemical_formula_sum "Si O2"
_cell_formula_units_Z 56
_cell_length_a 8.967145
_cell_length_b 14.451893
_cell_length_c 22.034370
_cell_angle_alpha 90.000000
_cell_angle_beta 90.000000
_cell_angle_gamma 90.000000
_cell_volume 2855.482926
_symmetry_space_group_name_H-M "I M A 2"
_symmetry_group_IT_number 46
_symmetry_cell_setting 'orthorhombic'
loop_
_space_group_symop_operation_xyz
x,y,z
-x,-y,z
1/2-x,y,z
1/2+x,-y,z
1/2+x,1/2+y,1/2+z
1/2-x,1/2-y,1/2+z
-x,1/2+y,1/2+z
x,1/2-y,1/2+z
loop_
_atom_site_type_symbol
_atom_site_label
_atom_site_fract_x
_atom_site_fract_y
_atom_site_fract_z
Si Si1 0.074017 0.093202 0.631120
Si Si2 0.922387 0.210128 0.533677
Si Si3 0.575368 0.592014 0.269294
Si Si4 0.425698 0.599770 0.915314
Si Si5 0.921163 0.788537 0.311551
Si Si6 0.577180 0.909063 0.196959
Si Si7 0.576827 0.091483 0.069972
O O1 0.250000 0.084912 0.625445
O O2 0.021140 0.108981 0.700270
O O3 0.018551 0.178421 0.591067
O O4 0.000000 0.000000 0.604782
O O5 0.750000 0.187420 0.546615
O O6 0.978568 0.158927 0.473273
O O7 0.946772 0.320622 0.525707
O O8 0.500000 0.500000 0.296919
O O9 0.750000 0.575601 0.270011
O O10 0.532028 0.680486 0.310316
O O11 0.500000 0.500000 0.917120
O O12 0.250000 0.585627 0.913929
O O13 0.472381 0.655848 0.855949
O O14 0.750000 0.801091 0.332622
O O15 0.941762 0.824880 0.243225
O O16 0.750000 0.929614 0.183825
O O17 0.496014 0.883827 0.134521
O O18 0.500000 0.000000 0.225902
O O19 0.750000 0.070167 0.079895
O O20 0.500000 0.000000 0.041239
#
# Coordination Sequence:
#
# PCOD8191858 Si02
#       7
#     8   8   8   8   8   8   8
#     4  10  19  32  54  83 113 144 177 216 265 320
#     4  10  22  38  55  78 108 142 181 224 266 313
#     4   9  19  35  54  80 112 142 176 219 265 316
#     4  11  24  41  59  80 107 139 178 221 265 314
#     4  10  21  37  56  79 108 142 181 223 266 314
#     4  10  19  32  52  80 112 142 175 217 267 321
#     4  10  20  35  55  80 110 141 177 220 266 318
#
# _framework density 19.611395000000002
#
# number of rings (size 3 to 8) (size 9 to 14) (size 15 to 20)
#    0.000    2.000    0.000    4.286    0.000    8.000 
#    0.000    0.714    0.000    3.429    0.000    0.000 
#    0.000    0.000    0.000    0.000    0.000    0.000 
#
# Total GULP energy -347231.855134 kJ/mol
# GULP energy per Si atom -12401.137683 kJ/mol
# Density = 1.956676 g / cm^3
# Si number density = 19.611395 Si / 1000 Ang^3
#
#
#
# Elastic Constant Matrix: (Units=GPa)
#
#
# Indices 1 2 3 4 5 6 
#
# 1 88.6170 56.0911 33.4402 0.0000 0.0000 0.0000
# 2 56.0911 160.7598 54.0095 0.0000 0.0000 0.0000
# 3 33.4402 54.0095 62.0350 0.0000 0.0000 0.0000
# 4 0.0000 0.0000 0.0000 30.4772 0.0000 0.0000
# 5 0.0000 0.0000 0.0000 0.0000 18.5900 0.0000
# 6 0.0000 0.0000 0.0000 0.0000 0.0000 32.5583
#
#
#
# Elastic Compliance Matrix: (Units=1/GPa)
#
#
# Indices 1 2 3 4 5 6 
#
# 1 0.015578 -0.003695 -0.005181 0.000000 0.000000 0.000000
# 2 -0.003695 0.009669 -0.006426 0.000000 0.000000 0.000000
# 3 -0.005181 -0.006426 0.024507 0.000000 0.000000 0.000000
# 4 0.000000 0.000000 0.000000 0.032811 0.000000 0.000000
# 5 0.000000 0.000000 0.000000 0.000000 0.053792 0.000000
# 6 0.000000 0.000000 0.000000 0.000000 0.000000 0.030714
#
#
# Mechanical properties :
#
#
# Convention : Reuss Voigt Hill
#
# Bulk Modulus (GPa) = 52.21664 66.49927 59.35796
# Shear Modulus (GPa) = 24.50280 27.51651 26.00966
#
# Velocity S-wave (km/s) = 3.53854 3.74985 3.64573
# Velocity P-wave (km/s) = 6.58624 7.26158 6.93214
#
# Compressibility (1/GPa) = 0.01915098
#
# Stress axis : x y z
#
# Youngs Moduli (GPa) = 64.19231 103.42798 40.80439
#
# Poissons Ratio (x) = 0.38216 0.21139
# Poissons Ratio (y) = 0.23719 0.26221
# Poissons Ratio (z) = 0.33255 0.66462
#
# Static dielectric constant tensor:
#      x y z
#    x 3.597270 0.000000 0.000000 
#    y 0.000000 3.820510 0.000000 
#    z 0.000000 0.000000 3.322710 
# 
# 
# High freq. dielectric constant tensor:
#      x y z
#    x 1.768060 0.000000 0.000000 
#    y 0.000000 1.780810 0.000000 
#    z 0.000000 0.000000 1.735920 
# 
# From -- ./inp_files/21040.got.cif
#   From: 2010.03.12/outbox.cif.g09.slc.cpg/sg46_11_cif.got.tgz:21040.got - 2010.04.14 02:56:35.
