data_PCOD8191581
_publ_section_title
;
Structure prediction by ZEFSAII (Michael W. Deem and Ramdas Pophale) SiO2 
 PCOD8191581
Probable space group: I M A 2
;
_chemical_formula_sum "Si O2"
_cell_formula_units_Z 48
_cell_length_a 26.063541
_cell_length_b 15.469087
_cell_length_c 5.294926
_cell_angle_alpha 90.000000
_cell_angle_beta 90.000000
_cell_angle_gamma 90.000000
_cell_volume 2134.803940
_symmetry_space_group_name_H-M "I M A 2"
_symmetry_group_IT_number 46
_symmetry_cell_setting 'orthorhombic'
loop_
_space_group_symop_operation_xyz
x,y,z
-x,-y,z
1/2-x,y,z
1/2+x,-y,z
1/2+x,1/2+y,1/2+z
1/2-x,1/2-y,1/2+z
-x,1/2+y,1/2+z
x,1/2-y,1/2+z
loop_
_atom_site_type_symbol
_atom_site_label
_atom_site_fract_x
_atom_site_fract_y
_atom_site_fract_z
Si Si1 0.693171 0.853819 0.096050
Si Si2 0.018044 0.835883 0.139645
Si Si3 0.807119 0.471908 0.826875
Si Si4 0.024293 0.352304 0.136763
Si Si5 0.642520 0.618474 0.091680
Si Si6 0.637033 0.299672 0.679866
O O1 0.750000 0.812078 0.118934
O O2 0.658252 0.825733 0.340197
O O3 0.697464 0.958344 0.102068
O O4 0.668601 0.831346 0.825726
O O5 0.981553 0.751417 0.124846
O O6 0.001936 0.892147 0.384189
O O7 0.076041 0.806239 0.169392
O O8 0.006197 0.889197 0.882816
O O9 0.750000 0.442742 0.915364
O O10 0.838858 0.392921 0.716448
O O11 0.837165 0.519376 0.059472
O O12 0.082469 0.382864 0.142197
O O13 0.655596 0.259741 0.413941
#
# Coordination Sequence:
#
# PCOD8191581 Si02
#       6
#     8   8   8   8   8   8
#     4   9  18  35  55  81 115 152 189 236 291 349
#     4  10  19  37  57  83 115 154 195 240 288 356
#     4   9  23  40  60  86 120 153 202 250 294 353
#     4  10  18  34  60  84 114 151 198 237 291 351
#     4  10  19  34  59  87 114 154 198 239 299 349
#     4  12  23  40  62  84 116 162 199 244 299 350
#
# _framework density 22.484499
#
# number of rings (size 3 to 8) (size 9 to 14) (size 15 to 20)
#    1.000    1.000    3.333    2.000    2.333    0.667 
#    0.000    0.833    0.000    0.000    0.000   79.333 
#    0.000    0.000    0.000    0.000    0.000    0.000 
#
# Total GULP energy -297321.220160 kJ/mol
# GULP energy per Si atom -12388.384173 kJ/mol
# Density = 2.243332 g / cm^3
# Si number density = 22.484499 Si / 1000 Ang^3
#
#
#
# Elastic Constant Matrix: (Units=GPa)
#
#
# Indices 1 2 3 4 5 6 
#
# 1 70.1366 31.1413 26.4506 0.0000 0.0000 0.0000
# 2 31.1413 53.2057 7.0588 0.0000 0.0000 0.0000
# 3 26.4506 7.0588 191.4418 0.0000 0.0000 0.0000
# 4 0.0000 0.0000 0.0000 100.2526 0.0000 0.0000
# 5 0.0000 0.0000 0.0000 0.0000 29.5353 0.0000
# 6 0.0000 0.0000 0.0000 0.0000 0.0000 -3.1702
#
#
#
# Elastic Compliance Matrix: (Units=1/GPa)
#
#
# Indices 1 2 3 4 5 6 
#
# 1 0.020286 -0.011558 -0.002377 0.000000 0.000000 0.000000
# 2 -0.011558 0.025473 0.000658 0.000000 0.000000 0.000000
# 3 -0.002377 0.000658 0.005528 0.000000 0.000000 0.000000
# 4 0.000000 0.000000 0.000000 0.009975 0.000000 0.000000
# 5 0.000000 0.000000 0.000000 0.000000 0.033858 0.000000
# 6 0.000000 0.000000 0.000000 0.000000 0.000000 -0.315440
#
#
# Mechanical properties :
#
#
# Convention : Reuss Voigt Hill
#
# Bulk Modulus (GPa) = 40.43304 49.34283 44.88793
# Shear Modulus (GPa) = -26.95089 41.99910 7.52411
#
# Velocity S-wave (km/s) = -3.46590 4.32663 1.83129
# Velocity P-wave (km/s) = 1.41600 6.85219 4.94760
#
# Compressibility (1/GPa) = 0.02473225
#
# Stress axis : x y z
#
# Youngs Moduli (GPa) = 49.29475 39.25774 180.90900
#
# Poissons Ratio (x) = 0.45375 0.42996
# Poissons Ratio (y) = 0.56976 -0.11899
# Poissons Ratio (z) = 0.11716 -0.02582
#
# Static dielectric constant tensor:
#      x y z
#    x 3.870700 0.000000 0.000000 
#    y 0.000000 3.469340 0.000000 
#    z 0.000000 0.000000 5.010460 
# 
# 
# High freq. dielectric constant tensor:
#      x y z
#    x 1.880890 0.000000 0.000000 
#    y 0.000000 1.844390 0.000000 
#    z 0.000000 0.000000 1.904780 
# 
# From -- ./inp_files/2362.got.cif
#   From: 2010.03.12/outbox.cif.g09.slc.cpg/sg46_2_cif.got.tgz:2362.got - 2010.04.14 02:56:35.
