data_PCOD8191714
_publ_section_title
;
Structure prediction by ZEFSAII (Michael W. Deem and Ramdas Pophale) SiO2 
 PCOD8191714
Probable space group: I M A 2
;
_chemical_formula_sum "Si O2"
_cell_formula_units_Z 64
_cell_length_a 8.998080
_cell_length_b 14.752925
_cell_length_c 27.199213
_cell_angle_alpha 90.000000
_cell_angle_beta 90.000000
_cell_angle_gamma 90.000000
_cell_volume 3610.641111
_symmetry_space_group_name_H-M "I M A 2"
_symmetry_group_IT_number 46
_symmetry_cell_setting 'orthorhombic'
loop_
_space_group_symop_operation_xyz
x,y,z
-x,-y,z
1/2-x,y,z
1/2+x,-y,z
1/2+x,1/2+y,1/2+z
1/2-x,1/2-y,1/2+z
-x,1/2+y,1/2+z
x,1/2-y,1/2+z
loop_
_atom_site_type_symbol
_atom_site_label
_atom_site_fract_x
_atom_site_fract_y
_atom_site_fract_z
Si Si1 0.925335 0.091440 0.404440
Si Si2 0.574425 0.284834 0.259020
Si Si3 0.421984 0.910779 0.292391
Si Si4 0.421413 0.411321 0.450047
Si Si5 0.426276 0.407410 0.337173
Si Si6 0.423775 0.217233 0.480123
Si Si7 0.422670 0.408717 0.067534
Si Si8 0.073657 0.405491 0.179551
O O1 0.750000 0.083394 0.410421
O O2 0.975565 0.107516 0.348224
O O3 0.983344 0.175353 0.435822
O O4 0.000000 0.000000 0.425190
O O5 0.750000 0.305170 0.259172
O O6 0.542144 0.177113 0.259422
O O7 0.499769 0.325660 0.307577
O O8 0.497395 0.324594 0.210624
O O9 0.250000 0.933164 0.292487
O O10 0.500000 0.000000 0.269939
O O11 0.500000 0.500000 0.472114
O O12 0.250000 0.433937 0.452278
O O13 0.469316 0.392385 0.393894
O O14 0.462858 0.323891 0.482731
O O15 0.500000 0.500000 0.317514
O O16 0.250000 0.410067 0.327930
O O17 0.250000 0.202862 0.468648
O O18 0.470279 0.173810 0.532250
O O19 0.500000 0.500000 0.048902
O O20 0.250000 0.428527 0.064197
O O21 0.468433 0.384202 0.123120
O O22 0.250000 0.410590 0.188458
O O23 0.000000 0.500000 0.196286
#
# Coordination Sequence:
#
# PCOD8191714 Si02
#       8
#     8   8   8   8   8   8   8   8
#     4  10  19  31  47  71 101 132 162 195 234 282
#     4  11  21  33  50  73  98 126 160 201 242 285
#     4   9  20  35  50  69  97 130 164 200 238 277
#     4   9  19  33  49  69  97 130 165 202 239 277
#     4  10  19  31  47  70  99 132 164 197 236 283
#     4  10  19  32  50  73  98 127 162 201 240 283
#     4   9  19  34  52  73  99 126 155 192 238 287
#     4  10  20  35  53  74  98 127 158 194 240 290
#
# _framework density 17.725383999999998
#
# number of rings (size 3 to 8) (size 9 to 14) (size 15 to 20)
#    0.000    2.250    0.000    3.000    0.000    4.500 
#    0.000    0.000    0.000    0.750    0.000    3.500 
#    0.000    0.000    0.000    0.000    0.000    0.000 
#
# Total GULP energy -396846.292960 kJ/mol
# GULP energy per Si atom -12401.446655 kJ/mol
# Density = 1.768504 g / cm^3
# Si number density = 17.725384 Si / 1000 Ang^3
#
#
#
# Elastic Constant Matrix: (Units=GPa)
#
#
# Indices 1 2 3 4 5 6 
#
# 1 71.1774 56.6314 35.0528 0.0000 0.0000 0.0000
# 2 56.6314 143.8270 64.6049 0.0000 0.0000 0.0000
# 3 35.0528 64.6049 77.0057 0.0000 0.0000 0.0000
# 4 0.0000 0.0000 0.0000 28.8789 0.0000 0.0000
# 5 0.0000 0.0000 0.0000 0.0000 17.9997 0.0000
# 6 0.0000 0.0000 0.0000 0.0000 0.0000 32.4176
#
#
#
# Elastic Compliance Matrix: (Units=1/GPa)
#
#
# Indices 1 2 3 4 5 6 
#
# 1 0.021298 -0.006469 -0.004267 0.000000 0.000000 0.000000
# 2 -0.006469 0.013122 -0.008064 0.000000 0.000000 0.000000
# 3 -0.004267 -0.008064 0.021694 0.000000 0.000000 0.000000
# 4 0.000000 0.000000 0.000000 0.034627 0.000000 0.000000
# 5 0.000000 0.000000 0.000000 0.000000 0.055557 0.000000
# 6 0.000000 0.000000 0.000000 0.000000 0.000000 0.030847
#
#
# Mechanical properties :
#
#
# Convention : Reuss Voigt Hill
#
# Bulk Modulus (GPa) = 54.01694 67.17648 60.59671
# Shear Modulus (GPa) = 22.63267 24.90729 23.76998
#
# Velocity S-wave (km/s) = 3.57718 3.75264 3.66596
# Velocity P-wave (km/s) = 6.89943 7.53373 7.22355
#
# Compressibility (1/GPa) = 0.01851271
#
# Stress axis : x y z
#
# Youngs Moduli (GPa) = 46.95242 76.20516 46.09489
#
# Poissons Ratio (x) = 0.49299 0.19671
# Poissons Ratio (y) = 0.30374 0.37173
# Poissons Ratio (z) = 0.20037 0.61456
#
# Static dielectric constant tensor:
#      x y z
#    x 3.324450 0.000000 0.000000 
#    y 0.000000 3.367020 0.000000 
#    z 0.000000 0.000000 3.222570 
# 
# 
# High freq. dielectric constant tensor:
#      x y z
#    x 1.692270 0.000000 0.000000 
#    y 0.000000 1.685840 0.000000 
#    z 0.000000 0.000000 1.662580 
# 
# From -- ./inp_files/23249.got.cif
#   From: 2010.03.12/outbox.cif.g09.slc.cpg/sg46_12_cif.got.tgz:23249.got - 2010.04.14 02:56:35.
