data_PCOD8191049
_publ_section_title
;
Structure prediction by ZEFSAII (Michael W. Deem and Ramdas Pophale) SiO2 
 PCOD8191049
Probable space group: I B A 2
;
_chemical_formula_sum "Si O2"
_cell_formula_units_Z 60
_cell_length_a 15.764221
_cell_length_b 9.179169
_cell_length_c 19.064352
_cell_angle_alpha 90.000000
_cell_angle_beta 90.000000
_cell_angle_gamma 90.000000
_cell_volume 2758.658418
_symmetry_space_group_name_H-M "I B A 2"
_symmetry_group_IT_number 45
_symmetry_cell_setting 'orthorhombic'
loop_
_space_group_symop_operation_xyz
x,y,z
-x,-y,z
-x,y,1/2+z
x,-y,1/2+z
1/2+x,1/2+y,1/2+z
1/2-x,1/2-y,1/2+z
1/2-x,1/2+y,z
1/2+x,1/2-y,z
loop_
_atom_site_type_symbol
_atom_site_label
_atom_site_fract_x
_atom_site_fract_y
_atom_site_fract_z
Si Si1 0.743042 0.342420 0.198660
Si Si2 0.881411 0.261618 0.505863
Si Si3 0.364448 0.202393 0.914515
Si Si4 0.000000 0.500000 0.948507
Si Si5 0.093202 0.036096 0.119928
Si Si6 0.805267 0.232786 0.057960
Si Si7 0.402348 0.470230 0.381969
Si Si8 0.749115 0.583320 0.294432
O O1 0.652133 0.418309 0.184898
O O2 0.796876 0.335704 0.126778
O O3 0.785178 0.430280 0.263766
O O4 0.731117 0.181314 0.227139
O O5 0.933776 0.409417 0.495407
O O6 0.922426 0.173326 0.569571
O O7 0.786538 0.311563 0.526653
O O8 0.886821 0.156046 0.438481
O O9 0.452210 0.117768 0.898487
O O10 0.363823 0.375606 0.906454
O O11 0.294344 0.129442 0.865699
O O12 0.348705 0.171570 0.997123
O O13 0.138206 0.907918 0.075686
O O14 0.000000 0.000000 0.149661
O O15 0.500000 0.500000 0.363874
O O16 0.351323 0.424619 0.311907
#
# Coordination Sequence:
#
# PCOD8191049 Si02
#       8
#     8   8   8   4   8   8   8   8
#     4  11  26  46  68 104 142 187 241 287 364 427
#     4  11  24  41  69 108 149 179 238 302 363 425
#     4  12  26  43  72 106 141 186 242 293 362 421
#     4  12  28  40  64 116 150 172 232 318 356 414
#     4  11  23  45  72 104 143 192 244 293 357 440
#     4  11  24  44  77 104 137 194 236 298 357 436
#     4  12  24  45  72 105 139 190 243 297 355 431
#     4  12  26  47  69 104 144 191 234 294 359 440
#
# _framework density 21.749703
#
# number of rings (size 3 to 8) (size 9 to 14) (size 15 to 20)
#    0.000    0.533    6.667    1.200    7.467    0.533 
#    0.000    1.333    0.000    0.800    0.000    0.000 
#    0.000    0.000    0.000    0.000    0.000    0.000 
#
# Total GULP energy -371835.049441 kJ/mol
# GULP energy per Si atom -12394.501648 kJ/mol
# Density = 2.170020 g / cm^3
# Si number density = 21.749703 Si / 1000 Ang^3
#
#
#
# Elastic Constant Matrix: (Units=GPa)
#
#
# Indices 1 2 3 4 5 6 
#
# 1 121.2497 44.9655 39.6930 0.0000 0.0000 0.0000
# 2 44.9655 105.4211 37.1992 0.0000 0.0000 0.0000
# 3 39.6930 37.1992 105.2245 0.0000 0.0000 0.0000
# 4 0.0000 0.0000 0.0000 36.1083 0.0000 0.0000
# 5 0.0000 0.0000 0.0000 0.0000 16.8343 0.0000
# 6 0.0000 0.0000 0.0000 0.0000 0.0000 37.9786
#
#
#
# Elastic Compliance Matrix: (Units=1/GPa)
#
#
# Indices 1 2 3 4 5 6 
#
# 1 0.010427 -0.003496 -0.002697 0.000000 0.000000 0.000000
# 2 -0.003496 0.012010 -0.002927 0.000000 0.000000 0.000000
# 3 -0.002697 -0.002927 0.011556 0.000000 0.000000 0.000000
# 4 0.000000 0.000000 0.000000 0.027694 0.000000 0.000000
# 5 0.000000 0.000000 0.000000 0.000000 0.059403 0.000000
# 6 0.000000 0.000000 0.000000 0.000000 0.000000 0.026331
#
#
# Mechanical properties :
#
#
# Convention : Reuss Voigt Hill
#
# Bulk Modulus (GPa) = 63.48370 63.95674 63.72022
# Shear Modulus (GPa) = 29.25503 32.18675 30.72089
#
# Velocity S-wave (km/s) = 3.67151 3.85108 3.76237
# Velocity P-wave (km/s) = 6.87204 7.01741 6.94511
#
# Compressibility (1/GPa) = 0.01575207
#
# Stress axis : x y z
#
# Youngs Moduli (GPa) = 95.90653 83.26686 86.53650
#
# Poissons Ratio (x) = 0.29106 0.23343
# Poissons Ratio (y) = 0.33524 0.25330
# Poissons Ratio (z) = 0.25871 0.24373
#
# Static dielectric constant tensor:
#      x y z
#    x 4.014270 0.000000 0.000000 
#    y 0.000000 4.060290 0.000000 
#    z 0.000000 0.000000 3.875440 
# 
# 
# High freq. dielectric constant tensor:
#      x y z
#    x 1.846850 0.000000 0.000000 
#    y 0.000000 1.869890 0.000000 
#    z 0.000000 0.000000 1.850940 
# 
# From -- ./inp_files/8368.got.cif
#   From: 2010.03.12/outbox.cif.g09.slc.cpg/sg45_5_cif.got.tgz:8368.got - 2010.04.14 02:50:11.
