data_PCOD8191000
_publ_section_title
;
Structure prediction by ZEFSAII (Michael W. Deem and Ramdas Pophale) SiO2 
 PCOD8191000
Probable space group: I B A 2
;
_chemical_formula_sum "Si O2"
_cell_formula_units_Z 48
_cell_length_a 10.184686
_cell_length_b 13.904507
_cell_length_c 16.591245
_cell_angle_alpha 90.000000
_cell_angle_beta 90.000000
_cell_angle_gamma 90.000000
_cell_volume 2349.536605
_symmetry_space_group_name_H-M "I B A 2"
_symmetry_group_IT_number 45
_symmetry_cell_setting 'orthorhombic'
loop_
_space_group_symop_operation_xyz
x,y,z
-x,-y,z
-x,y,1/2+z
x,-y,1/2+z
1/2+x,1/2+y,1/2+z
1/2-x,1/2-y,1/2+z
1/2-x,1/2+y,z
1/2+x,1/2-y,z
loop_
_atom_site_type_symbol
_atom_site_label
_atom_site_fract_x
_atom_site_fract_y
_atom_site_fract_z
Si Si1 0.614754 0.568969 0.844270
Si Si2 0.855248 0.740995 0.055217
Si Si3 0.356497 0.971150 0.091587
Si Si4 0.888665 0.072977 0.658966
Si Si5 0.107395 0.258789 0.449854
Si Si6 0.640871 0.966435 0.907478
O O1 0.500000 0.500000 0.878114
O O2 0.587453 0.597148 0.752266
O O3 0.619960 0.664680 0.896455
O O4 0.751016 0.512291 0.849768
O O5 0.846658 0.642848 0.105412
O O6 0.901709 0.827701 0.111382
O O7 0.709084 0.758261 0.023319
O O8 0.959572 0.729463 0.982760
O O9 0.500000 0.000000 0.121330
O O10 0.252480 0.024542 0.147682
O O11 0.331473 0.000872 0.999087
O O12 0.000000 0.000000 0.626299
O O13 0.144697 0.351513 0.396930
O O14 0.500000 0.000000 0.876538
#
# Coordination Sequence:
#
# PCOD8191000 Si02
#       6
#     8   8   8   8   8   8
#     4  11  26  43  62  96 136 170 207 263 327 378
#     4  12  22  38  68  95 121 168 219 261 310 380
#     4  11  21  41  65  96 124 163 217 263 317 376
#     4  11  26  43  62  96 136 170 207 263 327 378
#     4  12  22  38  68  95 121 168 219 261 310 380
#     4  11  21  41  65  96 124 163 217 263 317 376
#
# _framework density 20.429559999999999
#
# number of rings (size 3 to 8) (size 9 to 14) (size 15 to 20)
#    0.000    0.667    6.667    2.000    0.000    2.000 
#    0.000    8.333    0.000    0.000    0.000    0.000 
#    0.000    0.000    0.000    0.000    0.000    0.000 
#
# Total GULP energy -297734.025783 kJ/mol
# GULP energy per Si atom -12405.584408 kJ/mol
# Density = 2.038306 g / cm^3
# Si number density = 20.429560 Si / 1000 Ang^3
#
#
#
# Elastic Constant Matrix: (Units=GPa)
#
#
# Indices 1 2 3 4 5 6 
#
# 1 95.0452 19.0681 7.2701 0.0000 0.0000 0.0000
# 2 19.0681 164.8989 27.4254 0.0000 0.0000 0.0000
# 3 7.2701 27.4254 46.9618 0.0000 0.0000 0.0000
# 4 0.0000 0.0000 0.0000 30.3934 0.0000 0.0000
# 5 0.0000 0.0000 0.0000 0.0000 21.7513 0.0000
# 6 0.0000 0.0000 0.0000 0.0000 0.0000 36.3325
#
#
#
# Elastic Compliance Matrix: (Units=1/GPa)
#
#
# Indices 1 2 3 4 5 6 
#
# 1 0.010817 -0.001077 -0.001046 0.000000 0.000000 0.000000
# 2 -0.001077 0.006824 -0.003818 0.000000 0.000000 0.000000
# 3 -0.001046 -0.003818 0.023686 0.000000 0.000000 0.000000
# 4 0.000000 0.000000 0.000000 0.032902 0.000000 0.000000
# 5 0.000000 0.000000 0.000000 0.000000 0.045974 0.000000
# 6 0.000000 0.000000 0.000000 0.000000 0.000000 0.027524
#
#
# Mechanical properties :
#
#
# Convention : Reuss Voigt Hill
#
# Bulk Modulus (GPa) = 33.96175 46.04813 40.00494
# Shear Modulus (GPa) = 29.51179 34.57158 32.04168
#
# Velocity S-wave (km/s) = 3.80486 4.11814 3.96460
# Velocity P-wave (km/s) = 5.99688 6.72317 6.37038
#
# Compressibility (1/GPa) = 0.02944489
#
# Stress axis : x y z
#
# Youngs Moduli (GPa) = 92.44399 146.54329 42.21956
#
# Poissons Ratio (x) = 0.15782 0.04415
# Poissons Ratio (y) = 0.09956 0.16121
# Poissons Ratio (z) = 0.09667 0.55956
#
# Static dielectric constant tensor:
#      x y z
#    x 3.892270 0.000000 0.000000 
#    y 0.000000 3.862810 0.000000 
#    z 0.000000 0.000000 3.308420 
# 
# 
# High freq. dielectric constant tensor:
#      x y z
#    x 1.818110 0.000000 0.000000 
#    y 0.000000 1.822150 0.000000 
#    z 0.000000 0.000000 1.764520 
# 
# From -- ./inp_files/6101.got.cif
#   From: 2010.03.12/outbox.cif.g09.slc.cpg/sg45_4_cif.got.tgz:6101.got - 2010.04.14 02:50:11.
