data_PCOD8191248
_publ_section_title
;
Structure prediction by ZEFSAII (Michael W. Deem and Ramdas Pophale) SiO2 
 PCOD8191248
Probable space group: I M A 2
;
_chemical_formula_sum "Si O2"
_cell_formula_units_Z 56
_cell_length_a 9.378682
_cell_length_b 22.643722
_cell_length_c 17.589887
_cell_angle_alpha 90.000000
_cell_angle_beta 90.000000
_cell_angle_gamma 90.000000
_cell_volume 3735.533835
_symmetry_space_group_name_H-M "I M A 2"
_symmetry_group_IT_number 46
_symmetry_cell_setting 'orthorhombic'
loop_
_space_group_symop_operation_xyz
x,y,z
-x,-y,z
1/2-x,y,z
1/2+x,-y,z
1/2+x,1/2+y,1/2+z
1/2-x,1/2-y,1/2+z
-x,1/2+y,1/2+z
x,1/2-y,1/2+z
loop_
_atom_site_type_symbol
_atom_site_label
_atom_site_fract_x
_atom_site_fract_y
_atom_site_fract_z
Si Si1 0.582893 0.439497 0.143120
Si Si2 0.584188 0.770821 0.064491
Si Si3 0.411094 0.695771 0.866980
Si Si4 0.410789 0.718692 0.705910
Si Si5 0.913149 0.345883 0.023528
Si Si6 0.585847 0.151374 0.771467
Si Si7 0.914501 0.808422 0.903027
O O1 0.500000 0.500000 0.146780
O O2 0.750000 0.452989 0.145139
O O3 0.538725 0.405664 0.065398
O O4 0.535106 0.399563 0.214363
O O5 0.750000 0.757639 0.077484
O O6 0.518103 0.801162 0.139558
O O7 0.506607 0.708764 0.051223
O O8 0.562290 0.816415 0.993957
O O9 0.250000 0.723425 0.872639
O O10 0.432980 0.675056 0.779340
O O11 0.530463 0.743405 0.884680
O O12 0.426895 0.644926 0.931554
O O13 0.250000 0.713742 0.674666
O O14 0.444203 0.785520 0.732580
O O15 0.750000 0.331595 0.047237
O O16 0.750000 0.143781 0.792212
O O17 0.499441 0.144626 0.850966
O O18 0.750000 0.813042 0.880773
#
# Coordination Sequence:
#
# PCOD8191248 Si02
#       7
#     8   8   8   8   8   8   8
#     4  10  20  32  45  62  82 107 143 180 210 244
#     4  10  18  25  37  60  86 110 136 165 202 246
#     4   8  15  26  41  57  75 105 139 167 200 242
#     4   9  15  25  40  59  81 106 138 167 197 242
#     4   9  16  30  45  55  76 109 141 173 205 239
#     4   9  17  30  43  56  77 107 142 174 204 241
#     4   9  17  26  37  57  81 105 135 167 202 246
#
# _framework density 14.991163999999999
#
# number of rings (size 3 to 8) (size 9 to 14) (size 15 to 20)
#    0.000    2.857    1.429    1.714    0.000    5.143 
#    0.000    0.000    0.000    0.000    0.000    0.000 
#    0.000    1.143    0.000    8.000    0.000    4.000 
#
# Total GULP energy -346895.542987 kJ/mol
# GULP energy per Si atom -12389.126535 kJ/mol
# Density = 1.495704 g / cm^3
# Si number density = 14.991164 Si / 1000 Ang^3
#
#
#
# Elastic Constant Matrix: (Units=GPa)
#
#
# Indices 1 2 3 4 5 6 
#
# 1 71.6012 24.7970 63.7650 0.0000 0.0000 0.0000
# 2 24.7970 49.2620 44.2369 0.0000 0.0000 0.0000
# 3 63.7650 44.2369 139.5566 0.0000 0.0000 0.0000
# 4 0.0000 0.0000 0.0000 15.9122 0.0000 0.0000
# 5 0.0000 0.0000 0.0000 0.0000 23.8704 0.0000
# 6 0.0000 0.0000 0.0000 0.0000 0.0000 17.0290
#
#
#
# Elastic Compliance Matrix: (Units=1/GPa)
#
#
# Indices 1 2 3 4 5 6 
#
# 1 0.023884 -0.003107 -0.009928 0.000000 0.000000 0.000000
# 2 -0.003107 0.028781 -0.007703 0.000000 0.000000 0.000000
# 3 -0.009928 -0.007703 0.014144 0.000000 0.000000 0.000000
# 4 0.000000 0.000000 0.000000 0.062845 0.000000 0.000000
# 5 0.000000 0.000000 0.000000 0.000000 0.041893 0.000000
# 6 0.000000 0.000000 0.000000 0.000000 0.000000 0.058723
#
#
# Mechanical properties :
#
#
# Convention : Reuss Voigt Hill
#
# Bulk Modulus (GPa) = 39.47638 58.44641 48.96139
# Shear Modulus (GPa) = 17.84501 19.87037 18.85769
#
# Velocity S-wave (km/s) = 3.45391 3.64465 3.55056
# Velocity P-wave (km/s) = 6.50356 7.53546 7.03845
#
# Compressibility (1/GPa) = 0.02533161
#
# Stress axis : x y z
#
# Youngs Moduli (GPa) = 41.86979 34.74475 70.70382
#
# Poissons Ratio (x) = 0.10796 0.70193
# Poissons Ratio (y) = 0.13010 0.54466
# Poissons Ratio (z) = 0.41567 0.26765
#
# Static dielectric constant tensor:
#      x y z
#    x 2.933080 0.000000 0.000000 
#    y 0.000000 2.377140 0.000000 
#    z 0.000000 0.000000 3.491090 
# 
# 
# High freq. dielectric constant tensor:
#      x y z
#    x 1.580980 0.000000 0.000000 
#    y 0.000000 1.495500 0.000000 
#    z 0.000000 0.000000 1.594750 
# 
# From -- ./inp_files/18455.got.cif
#   From: 2010.03.12/outbox.cif.g09.slc.cpg/sg46_10_cif.got.tgz:18455.got - 2010.04.14 02:56:35.
