data_PCOD8191544
_publ_section_title
;
Structure prediction by ZEFSAII (Michael W. Deem and Ramdas Pophale) SiO2 
 PCOD8191544
Probable space group: I M A 2
;
_chemical_formula_sum "Si O2"
_cell_formula_units_Z 40
_cell_length_a 14.968392
_cell_length_b 14.581399
_cell_length_c 8.603944
_cell_angle_alpha 90.000000
_cell_angle_beta 90.000000
_cell_angle_gamma 90.000000
_cell_volume 1877.897645
_symmetry_space_group_name_H-M "I M A 2"
_symmetry_group_IT_number 46
_symmetry_cell_setting 'orthorhombic'
loop_
_space_group_symop_operation_xyz
x,y,z
-x,-y,z
1/2-x,y,z
1/2+x,-y,z
1/2+x,1/2+y,1/2+z
1/2-x,1/2-y,1/2+z
-x,1/2+y,1/2+z
x,1/2-y,1/2+z
loop_
_atom_site_type_symbol
_atom_site_label
_atom_site_fract_x
_atom_site_fract_y
_atom_site_fract_z
Si Si1 0.142971 0.858520 0.649920
Si Si2 0.900024 0.995090 0.122322
Si Si3 0.250000 0.369779 0.486322
Si Si4 0.849155 0.527907 0.957924
Si Si5 0.852262 0.178293 0.988946
Si Si6 0.250000 0.173187 0.626021
O O1 0.250000 0.862213 0.657045
O O2 0.105843 0.950963 0.568693
O O3 0.103831 0.852187 0.825099
O O4 0.104107 0.771273 0.555733
O O5 0.904913 0.959416 0.300182
O O6 0.838986 0.928159 0.019196
O O7 0.000000 0.000000 0.054093
O O8 0.861043 0.097827 0.115654
O O9 0.250000 0.280932 0.595680
O O10 0.250000 0.340286 0.309115
O O11 0.750000 0.493604 0.906512
O O12 0.838496 0.624287 0.051792
O O13 0.750000 0.201944 0.958510
#
# Coordination Sequence:
#
# PCOD8191544 Si02
#       6
#     8   8   4   8   8   4
#     4   9  17  30  59  89 122 152 202 238 305 372
#     4  12  24  39  63  93 128 169 212 263 321 382
#     4  12  22  46  67  96 129 166 226 266 324 384
#     4   9  18  38  62  95 116 162 206 254 319 371
#     4  10  18  33  56  88 120 162 189 249 302 365
#     4  10  22  40  77  92 121 176 214 276 322 380
#
# _framework density 21.300415999999998
#
# number of rings (size 3 to 8) (size 9 to 14) (size 15 to 20)
#    0.600    1.200    2.000    3.600    0.000    3.200 
#    0.000   12.000    0.000    0.000    0.000    0.000 
#    0.000    0.000    0.000    0.000    0.000    0.000 
#
# Total GULP energy -247910.015114 kJ/mol
# GULP energy per Si atom -12395.500756 kJ/mol
# Density = 2.125193 g / cm^3
# Si number density = 21.300416 Si / 1000 Ang^3
#
#
#
# Elastic Constant Matrix: (Units=GPa)
#
#
# Indices 1 2 3 4 5 6 
#
# 1 61.5401 33.8516 32.3840 0.0000 0.0000 0.0000
# 2 33.8516 123.2465 12.8338 0.0000 0.0000 0.0000
# 3 32.3840 12.8338 105.5840 0.0000 0.0000 0.0000
# 4 0.0000 0.0000 0.0000 40.5673 0.0000 0.0000
# 5 0.0000 0.0000 0.0000 0.0000 10.8483 0.0000
# 6 0.0000 0.0000 0.0000 0.0000 0.0000 6.1322
#
#
#
# Elastic Compliance Matrix: (Units=1/GPa)
#
#
# Indices 1 2 3 4 5 6 
#
# 1 0.022597 -0.005555 -0.006256 0.000000 0.000000 0.000000
# 2 -0.005555 0.009584 0.000539 0.000000 0.000000 0.000000
# 3 -0.006256 0.000539 0.011324 0.000000 0.000000 0.000000
# 4 0.000000 0.000000 0.000000 0.024650 0.000000 0.000000
# 5 0.000000 0.000000 0.000000 0.000000 0.092180 0.000000
# 6 0.000000 0.000000 0.000000 0.000000 0.000000 0.163074
#
#
# Mechanical properties :
#
#
# Convention : Reuss Voigt Hill
#
# Bulk Modulus (GPa) = 47.70707 49.83439 48.77073
# Shear Modulus (GPa) = 14.16667 25.59630 19.88148
#
# Velocity S-wave (km/s) = 2.58173 3.47029 3.05845
# Velocity P-wave (km/s) = 5.59759 6.28522 5.95134
#
# Compressibility (1/GPa) = 0.02096125
#
# Stress axis : x y z
#
# Youngs Moduli (GPa) = 44.25319 104.34560 88.30570
#
# Poissons Ratio (x) = 0.57967 0.55241
# Poissons Ratio (y) = 0.24584 -0.04760
# Poissons Ratio (z) = 0.27683 -0.05624
#
# Static dielectric constant tensor:
#      x y z
#    x 3.249540 0.000000 0.000000 
#    y 0.000000 3.882510 0.000000 
#    z 0.000000 0.000000 3.930410 
# 
# 
# High freq. dielectric constant tensor:
#      x y z
#    x 1.773960 0.000000 0.000000 
#    y 0.000000 1.840220 0.000000 
#    z 0.000000 0.000000 1.847940 
# 
# From -- ./inp_files/5451.got.cif
#   From: 2010.03.12/outbox.cif.g09.slc.cpg/sg46_3_cif.got.tgz:5451.got - 2010.04.14 02:56:35.
