data_PCOD8191638
_publ_section_title
;
Structure prediction by ZEFSAII (Michael W. Deem and Ramdas Pophale) SiO2 
 PCOD8191638
Probable space group: I M A 2
;
_chemical_formula_sum "Si O2"
_cell_formula_units_Z 64
_cell_length_a 9.228255
_cell_length_b 18.275080
_cell_length_c 21.598730
_cell_angle_alpha 90.000000
_cell_angle_beta 90.000000
_cell_angle_gamma 90.000000
_cell_volume 3642.563143
_symmetry_space_group_name_H-M "I M A 2"
_symmetry_group_IT_number 46
_symmetry_cell_setting 'orthorhombic'
loop_
_space_group_symop_operation_xyz
x,y,z
-x,-y,z
1/2-x,y,z
1/2+x,-y,z
1/2+x,1/2+y,1/2+z
1/2-x,1/2-y,1/2+z
-x,1/2+y,1/2+z
x,1/2-y,1/2+z
loop_
_atom_site_type_symbol
_atom_site_label
_atom_site_fract_x
_atom_site_fract_y
_atom_site_fract_z
Si Si1 0.914241 0.712995 0.106990
Si Si2 0.914438 0.829374 0.811759
Si Si3 0.591858 0.435022 0.240755
Si Si4 0.911502 0.068893 0.595315
Si Si5 0.417831 0.369066 0.559525
Si Si6 0.919946 0.574827 0.426007
Si Si7 0.915139 0.796900 0.230863
Si Si8 0.923300 0.426074 0.678216
O O1 0.750000 0.683990 0.104830
O O2 0.937213 0.781425 0.060675
O O3 0.953295 0.739041 0.176369
O O4 0.013239 0.646759 0.082588
O O5 0.750000 0.853974 0.798767
O O6 0.962710 0.858755 0.879076
O O7 0.929475 0.741854 0.798829
O O8 0.015181 0.860283 0.757915
O O9 0.500000 0.500000 0.271755
O O10 0.750000 0.437652 0.271101
O O11 0.600824 0.444010 0.167955
O O12 0.750000 0.070348 0.566111
O O13 0.000000 0.000000 0.566335
O O14 0.250000 0.389558 0.573330
O O15 0.470015 0.398425 0.493334
O O16 0.520628 0.407173 0.609618
O O17 0.750000 0.559437 0.424414
O O18 0.000000 0.500000 0.407516
O O19 0.750000 0.825071 0.220340
O O20 0.026617 0.864025 0.227007
O O21 0.750000 0.433247 0.678332
O O22 0.000000 0.500000 0.700809
#
# Coordination Sequence:
#
# PCOD8191638 Si02
#       8
#     8   8   8   8   8   8   8   8
#     4   9  16  29  48  67  92 125 159 200 248 294
#     4  10  19  32  49  68  95 131 166 202 241 286
#     4  10  19  28  40  60  89 125 162 197 233 277
#     4  10  19  28  41  63  92 123 157 194 236 287
#     4   9  19  35  52  72  99 132 169 208 250 294
#     4  10  21  35  51  72 100 135 175 209 241 283
#     4   9  18  32  49  70  98 129 161 198 246 299
#     4  11  21  33  52  76 101 128 161 202 252 302
#
# _framework density 17.570046000000001
#
# number of rings (size 3 to 8) (size 9 to 14) (size 15 to 20)
#    0.000    2.250    1.250    3.375    0.000    6.500 
#    0.000    0.000    0.000    0.000    0.000    0.875 
#    0.000    0.000    0.000    0.000    0.000    0.125 
#
# Total GULP energy -396601.576268 kJ/mol
# GULP energy per Si atom -12393.799258 kJ/mol
# Density = 1.753006 g / cm^3
# Si number density = 17.570046 Si / 1000 Ang^3
#
#
#
# Elastic Constant Matrix: (Units=GPa)
#
#
# Indices 1 2 3 4 5 6 
#
# 1 103.7548 58.1911 22.2066 0.0000 0.0000 0.0000
# 2 58.1911 109.9001 34.9878 0.0000 0.0000 0.0000
# 3 22.2066 34.9878 58.8975 0.0000 0.0000 0.0000
# 4 0.0000 0.0000 0.0000 23.4832 0.0000 0.0000
# 5 0.0000 0.0000 0.0000 0.0000 12.4552 0.0000
# 6 0.0000 0.0000 0.0000 0.0000 0.0000 32.9734
#
#
#
# Elastic Compliance Matrix: (Units=1/GPa)
#
#
# Indices 1 2 3 4 5 6 
#
# 1 0.013763 -0.006950 -0.001061 0.000000 0.000000 0.000000
# 2 -0.006950 0.014731 -0.006130 0.000000 0.000000 0.000000
# 3 -0.001061 -0.006130 0.021020 0.000000 0.000000 0.000000
# 4 0.000000 0.000000 0.000000 0.042584 0.000000 0.000000
# 5 0.000000 0.000000 0.000000 0.000000 0.080288 0.000000
# 6 0.000000 0.000000 0.000000 0.000000 0.000000 0.030327
#
#
# Mechanical properties :
#
#
# Convention : Reuss Voigt Hill
#
# Bulk Modulus (GPa) = 47.09802 55.92481 51.51142
# Shear Modulus (GPa) = 21.00211 24.26017 22.63114
#
# Velocity S-wave (km/s) = 3.46111 3.71990 3.59284
# Velocity P-wave (km/s) = 6.54496 7.09570 6.82589
#
# Compressibility (1/GPa) = 0.02123231
#
# Stress axis : x y z
#
# Youngs Moduli (GPa) = 72.65947 67.88602 47.57305
#
# Poissons Ratio (x) = 0.47178 0.05046
# Poissons Ratio (y) = 0.50495 0.29164
# Poissons Ratio (z) = 0.07707 0.41617
#
# Static dielectric constant tensor:
#      x y z
#    x 3.376110 0.000000 0.000000 
#    y 0.000000 3.329530 0.000000 
#    z 0.000000 0.000000 2.954770 
# 
# 
# High freq. dielectric constant tensor:
#      x y z
#    x 1.683880 0.000000 0.000000 
#    y 0.000000 1.679810 0.000000 
#    z 0.000000 0.000000 1.628240 
# 
# From -- ./inp_files/23280.got.cif
#   From: 2010.03.12/outbox.cif.g09.slc.cpg/sg46_12_cif.got.tgz:23280.got - 2010.04.14 02:56:35.
