data_PCOD8191237
_publ_section_title
;
Structure prediction by ZEFSAII (Michael W. Deem and Ramdas Pophale) SiO2 
 PCOD8191237
Probable space group: I M A 2
;
_chemical_formula_sum "Si O2"
_cell_formula_units_Z 64
_cell_length_a 8.929170
_cell_length_b 23.772775
_cell_length_c 15.442872
_cell_angle_alpha 90.000000
_cell_angle_beta 90.000000
_cell_angle_gamma 90.000000
_cell_volume 3278.076189
_symmetry_space_group_name_H-M "I M A 2"
_symmetry_group_IT_number 46
_symmetry_cell_setting 'orthorhombic'
loop_
_space_group_symop_operation_xyz
x,y,z
-x,-y,z
1/2-x,y,z
1/2+x,-y,z
1/2+x,1/2+y,1/2+z
1/2-x,1/2-y,1/2+z
-x,1/2+y,1/2+z
x,1/2-y,1/2+z
loop_
_atom_site_type_symbol
_atom_site_label
_atom_site_fract_x
_atom_site_fract_y
_atom_site_fract_z
Si Si1 0.072791 0.440458 0.064550
Si Si2 0.072973 0.745270 0.965903
Si Si3 0.073763 0.559223 0.553694
Si Si4 0.426416 0.877036 0.409506
Si Si5 0.073272 0.139968 0.720872
Si Si6 0.571594 0.251088 0.661125
Si Si7 0.573667 0.137774 0.893616
Si Si8 0.926495 0.372354 0.715604
O O1 0.250000 0.447278 0.060428
O O2 0.021337 0.398091 0.140113
O O3 0.000000 0.500000 0.085739
O O4 0.015400 0.418133 0.972470
O O5 0.250000 0.749426 0.969833
O O6 0.020335 0.687350 0.921978
O O7 0.014641 0.798738 0.911768
O O8 0.010856 0.747451 0.063271
O O9 0.250000 0.550786 0.560191
O O10 0.030140 0.600450 0.475927
O O11 0.008446 0.585251 0.643307
O O12 0.000000 0.500000 0.535086
O O13 0.250000 0.882996 0.428248
O O14 0.467899 0.894546 0.311318
O O15 0.250000 0.144802 0.723884
O O16 0.000638 0.201196 0.715341
O O17 0.012299 0.113019 0.810090
O O18 0.750000 0.245325 0.667347
O O19 0.511870 0.309367 0.701487
O O20 0.750000 0.136073 0.875479
O O21 0.750000 0.368666 0.702833
#
# Coordination Sequence:
#
# PCOD8191237 Si02
#       8
#     8   8   8   8   8   8   8   8
#     4  11  25  43  60  79 109 148 192 239 284 335
#     4   9  16  30  58  91 114 142 187 232 275 328
#     4  10  21  38  58  82 113 150 192 238 283 329
#     4  10  19  34  59  89 116 145 183 230 284 335
#     4  11  24  39  56  85 120 149 182 231 291 342
#     4  10  17  33  62  88 114 149 190 230 272 332
#     4  10  20  37  61  86 113 150 194 233 274 331
#     4   9  18  34  59  88 117 149 189 233 273 330
#
# _framework density 19.523645999999999
#
# number of rings (size 3 to 8) (size 9 to 14) (size 15 to 20)
#    0.000    2.000    2.500    1.500    0.000    5.000 
#    0.000    8.125    0.000    0.000    0.000    0.000 
#    0.000    0.000    0.000    0.000    0.000    0.000 
#
# Total GULP energy -396835.373847 kJ/mol
# GULP energy per Si atom -12401.105433 kJ/mol
# Density = 1.947921 g / cm^3
# Si number density = 19.523646 Si / 1000 Ang^3
#
#
#
# Elastic Constant Matrix: (Units=GPa)
#
#
# Indices 1 2 3 4 5 6 
#
# 1 38.1632 27.2923 33.2210 0.0000 -0.0001 0.0000
# 2 27.2923 94.8897 29.9202 0.0000 -0.0001 0.0000
# 3 33.2210 29.9202 131.5613 -0.0003 -0.0004 0.0000
# 4 0.0000 0.0000 -0.0003 8.9850 -0.0001 0.0000
# 5 -0.0001 -0.0001 -0.0004 -0.0001 16.4086 0.0000
# 6 0.0000 0.0000 0.0000 0.0000 0.0000 24.4301
#
#
#
# Elastic Compliance Matrix: (Units=1/GPa)
#
#
# Indices 1 2 3 4 5 6 
#
# 1 0.039445 -0.008838 -0.007950 0.000000 0.000000 0.000000
# 2 -0.008838 0.013333 -0.000800 0.000000 0.000000 0.000000
# 3 -0.007950 -0.000800 0.009791 0.000000 0.000000 0.000000
# 4 0.000000 0.000000 0.000000 0.111296 0.000000 0.000000
# 5 0.000000 0.000000 0.000000 0.000000 0.060944 0.000000
# 6 0.000000 0.000000 0.000000 0.000000 0.000000 0.040933
#
#
# Mechanical properties :
#
#
# Convention : Reuss Voigt Hill
#
# Bulk Modulus (GPa) = 36.50933 49.49791 43.00362
# Shear Modulus (GPa) = 15.62258 21.57679 18.59969
#
# Velocity S-wave (km/s) = 2.83183 3.32800 3.08989
# Velocity P-wave (km/s) = 5.42522 6.33840 5.89950
#
# Compressibility (1/GPa) = 0.02739026
#
# Stress axis : x y z
#
# Youngs Moduli (GPa) = 25.35197 75.00170 102.13864
#
# Poissons Ratio (x) = 0.66289 0.81203
# Poissons Ratio (y) = 0.22407 0.08176
# Poissons Ratio (z) = 0.20155 0.06004
#
# Static dielectric constant tensor:
#      x y z
#    x 3.157040 0.000000 0.000000 
#    y 0.000000 3.624530 0.000000 
#    z 0.000000 0.000000 3.795520 
# 
# 
# High freq. dielectric constant tensor:
#      x y z
#    x 1.721370 0.000000 0.000000 
#    y 0.000000 1.759970 0.000000 
#    z 0.000000 0.000000 1.779570 
# 
# From -- ./inp_files/14482.got.cif
#   From: 2010.03.12/outbox.cif.g09.slc.cpg/sg46_8_cif.got.tgz:14482.got - 2010.04.14 02:56:35.
