data_PCOD8191482
_publ_section_title
;
Structure prediction by ZEFSAII (Michael W. Deem and Ramdas Pophale) SiO2 
 PCOD8191482
Probable space group: I M A 2
;
_chemical_formula_sum "Si O2"
_cell_formula_units_Z 64
_cell_length_a 9.190328
_cell_length_b 30.024680
_cell_length_c 14.311031
_cell_angle_alpha 90.000000
_cell_angle_beta 90.000000
_cell_angle_gamma 90.000000
_cell_volume 3948.938057
_symmetry_space_group_name_H-M "I M A 2"
_symmetry_group_IT_number 46
_symmetry_cell_setting 'orthorhombic'
loop_
_space_group_symop_operation_xyz
x,y,z
-x,-y,z
1/2-x,y,z
1/2+x,-y,z
1/2+x,1/2+y,1/2+z
1/2-x,1/2-y,1/2+z
-x,1/2+y,1/2+z
x,1/2-y,1/2+z
loop_
_atom_site_type_symbol
_atom_site_label
_atom_site_fract_x
_atom_site_fract_y
_atom_site_fract_z
Si Si1 0.418279 0.805812 0.162210
Si Si2 0.418994 0.637287 0.195116
Si Si3 0.584308 0.041987 0.737561
Si Si4 0.576744 0.045238 0.952546
Si Si5 0.581557 0.871358 0.039092
Si Si6 0.417344 0.731273 0.858382
Si Si7 0.078103 0.785152 0.564754
Si Si8 0.084134 0.179661 0.852585
O O1 0.250000 0.813040 0.133807
O O2 0.512450 0.848191 0.130333
O O3 0.435691 0.803999 0.274644
O O4 0.477761 0.759987 0.114780
O O5 0.250000 0.647306 0.214088
O O6 0.441915 0.585009 0.170777
O O7 0.483047 0.670491 0.116182
O O8 0.504080 0.642940 0.291305
O O9 0.750000 0.027262 0.737955
O O10 0.536119 0.052803 0.843893
O O11 0.500000 0.000000 0.694821
O O12 0.750000 0.043158 0.969109
O O13 0.500000 0.000000 0.987753
O O14 0.509003 0.084895 0.013603
O O15 0.750000 0.884094 0.056886
O O16 0.567116 0.833942 0.959701
O O17 0.250000 0.746612 0.867435
O O18 0.511131 0.773540 0.831508
O O19 0.473560 0.711558 0.957054
O O20 0.250000 0.786308 0.571605
O O21 0.250000 0.182578 0.821018
#
# Coordination Sequence:
#
# PCOD8191482 Si02
#       8
#     8   8   8   8   8   8   8   8
#     4  10  19  31  50  70  91 125 164 202 241 286
#     4  10  18  32  49  69  93 128 165 195 234 283
#     4   9  18  29  46  68  95 125 156 193 234 282
#     4  10  19  32  50  72  98 128 160 197 240 290
#     4  11  22  33  46  69 100 132 165 200 239 286
#     4  10  19  33  49  67  93 126 163 203 241 283
#     4   9  17  29  49  71  92 120 162 205 237 281
#     4  11  21  29  43  68  97 128 159 198 237 278
#
# _framework density 16.206889
#
# number of rings (size 3 to 8) (size 9 to 14) (size 15 to 20)
#    0.000    2.000    3.750    1.125    0.000    2.500 
#    0.000    0.625    0.000    0.000    0.000    0.875 
#    0.000    2.000    0.000    0.000    0.000    0.000 
#
# Total GULP energy -396708.599027 kJ/mol
# GULP energy per Si atom -12397.143720 kJ/mol
# Density = 1.617000 g / cm^3
# Si number density = 16.206889 Si / 1000 Ang^3
#
#
#
# Elastic Constant Matrix: (Units=GPa)
#
#
# Indices 1 2 3 4 5 6 
#
# 1 65.5788 41.4925 21.5451 0.0005 0.0000 0.0001
# 2 41.4925 102.3859 29.4687 0.0007 0.0000 0.0001
# 3 21.5451 29.4687 67.9874 0.0029 0.0004 0.0004
# 4 0.0005 0.0007 0.0029 23.9943 -0.0001 0.0001
# 5 0.0000 0.0000 0.0004 -0.0001 13.4364 0.0002
# 6 0.0001 0.0001 0.0004 0.0001 0.0002 27.1202
#
#
#
# Elastic Compliance Matrix: (Units=1/GPa)
#
#
# Indices 1 2 3 4 5 6 
#
# 1 0.021180 -0.007600 -0.003418 0.000000 0.000000 0.000000
# 2 -0.007600 0.013886 -0.003610 0.000000 0.000000 0.000000
# 3 -0.003418 -0.003610 0.017357 -0.000002 -0.000001 0.000000
# 4 0.000000 0.000000 -0.000002 0.041677 0.000000 0.000000
# 5 0.000000 0.000000 -0.000001 0.000000 0.074425 -0.000001
# 6 0.000000 0.000000 0.000000 0.000000 -0.000001 0.036873
#
#
# Mechanical properties :
#
#
# Convention : Reuss Voigt Hill
#
# Bulk Modulus (GPa) = 43.16544 46.77387 44.96965
# Shear Modulus (GPa) = 20.62917 22.47322 21.55119
#
# Velocity S-wave (km/s) = 3.57159 3.72781 3.65054
# Velocity P-wave (km/s) = 6.61061 6.88853 6.75100
#
# Compressibility (1/GPa) = 0.02316668
#
# Stress axis : x y z
#
# Youngs Moduli (GPa) = 47.21407 72.01534 57.61470
#
# Poissons Ratio (x) = 0.54729 0.19692
# Poissons Ratio (y) = 0.35881 0.20802
# Poissons Ratio (z) = 0.16137 0.26001
#
# Static dielectric constant tensor:
#      x y z
#    x 3.006140 0.000000 0.000000 
#    y 0.000000 3.052690 0.000000 
#    z 0.000000 0.000000 3.021620 
# 
# 
# High freq. dielectric constant tensor:
#      x y z
#    x 1.617460 0.000000 0.000000 
#    y 0.000000 1.616090 0.000000 
#    z 0.000000 0.000000 1.593520 
# 
# From -- ./inp_files/14730.got.cif
#   From: 2010.03.12/outbox.cif.g09.slc.cpg/sg46_8_cif.got.tgz:14730.got - 2010.04.14 02:56:35.
