data_PCOD8191284
_publ_section_title
;
Structure prediction by ZEFSAII (Michael W. Deem and Ramdas Pophale) SiO2 
 PCOD8191284
Probable space group: I M A 2
;
_chemical_formula_sum "Si O2"
_cell_formula_units_Z 64
_cell_length_a 9.423192
_cell_length_b 18.573316
_cell_length_c 21.658138
_cell_angle_alpha 90.000000
_cell_angle_beta 90.000000
_cell_angle_gamma 90.000000
_cell_volume 3790.605640
_symmetry_space_group_name_H-M "I M A 2"
_symmetry_group_IT_number 46
_symmetry_cell_setting 'orthorhombic'
loop_
_space_group_symop_operation_xyz
x,y,z
-x,-y,z
1/2-x,y,z
1/2+x,-y,z
1/2+x,1/2+y,1/2+z
1/2-x,1/2-y,1/2+z
-x,1/2+y,1/2+z
x,1/2-y,1/2+z
loop_
_atom_site_type_symbol
_atom_site_label
_atom_site_fract_x
_atom_site_fract_y
_atom_site_fract_z
Si Si1 0.094268 0.064726 0.985830
Si Si2 0.079170 0.273642 0.474168
Si Si3 0.588311 0.068902 0.402592
Si Si4 0.412246 0.718657 0.858416
Si Si5 0.589952 0.336775 0.272242
Si Si6 0.915735 0.146520 0.529048
Si Si7 0.083781 0.926985 0.655437
Si Si8 0.094483 0.062184 0.840778
O O1 0.250000 0.057430 0.015914
O O2 0.035680 0.145688 0.996956
O O3 0.106718 0.052063 0.913157
O O4 0.000000 0.000000 0.014881
O O5 0.250000 0.266154 0.470729
O O6 0.014914 0.259152 0.406539
O O7 0.011510 0.218162 0.523264
O O8 0.750000 0.045326 0.396942
O O9 0.549419 0.134051 0.355785
O O10 0.552536 0.094014 0.471957
O O11 0.500000 0.000000 0.382854
O O12 0.250000 0.726074 0.883913
O O13 0.422022 0.751160 0.788269
O O14 0.750000 0.363728 0.285324
O O15 0.544919 0.363050 0.204221
O O16 0.484444 0.364877 0.324610
O O17 0.750000 0.168466 0.532437
O O18 0.964795 0.103718 0.589664
O O19 0.250000 0.945127 0.656034
O O20 0.000000 0.000000 0.671173
O O21 0.250000 0.060494 0.810148
O O22 0.000000 0.000000 0.809386
#
# Coordination Sequence:
#
# PCOD8191284 Si02
#       8
#     8   8   8   8   8   8   8   8
#     4   9  18  28  40  62  91 120 151 187 228 276
#     4  10  18  30  47  70  94 119 157 200 241 282
#     4   9  17  29  46  68  91 117 147 187 236 284
#     4   9  18  31  46  66  94 125 156 189 236 291
#     4  10  19  31  47  66  91 127 163 198 234 275
#     4   9  19  34  49  67  93 125 160 197 239 287
#     4  10  21  35  50  70  97 129 169 205 236 277
#     4  10  18  28  40  59  88 122 157 191 226 270
#
# _framework density 16.883845999999998
#
# number of rings (size 3 to 8) (size 9 to 14) (size 15 to 20)
#    0.000    2.500    1.250    2.250    0.000    5.500 
#    0.000    0.000    0.000    0.000    0.000    0.875 
#    0.000    4.000    0.000    0.000    0.000    0.250 
#
# Total GULP energy -396479.435811 kJ/mol
# GULP energy per Si atom -12389.982369 kJ/mol
# Density = 1.684542 g / cm^3
# Si number density = 16.883846 Si / 1000 Ang^3
#
#
#
# Elastic Constant Matrix: (Units=GPa)
#
#
# Indices 1 2 3 4 5 6 
#
# 1 74.3657 56.3233 19.7199 0.0000 0.0000 0.0000
# 2 56.3233 142.0789 44.0094 0.0000 0.0000 0.0000
# 3 19.7199 44.0094 60.4077 0.0000 0.0000 0.0000
# 4 0.0000 0.0000 0.0000 23.5121 0.0000 0.0000
# 5 0.0000 0.0000 0.0000 0.0000 12.8237 0.0000
# 6 0.0000 0.0000 0.0000 0.0000 0.0000 30.5241
#
#
#
# Elastic Compliance Matrix: (Units=1/GPa)
#
#
# Indices 1 2 3 4 5 6 
#
# 1 0.019258 -0.007344 -0.000936 0.000000 0.000000 0.000000
# 2 -0.007344 0.011890 -0.006265 0.000000 0.000000 0.000000
# 3 -0.000936 -0.006265 0.021424 0.000000 0.000000 0.000000
# 4 0.000000 0.000000 0.000000 0.042531 0.000000 0.000000
# 5 0.000000 0.000000 0.000000 0.000000 0.077980 0.000000
# 6 0.000000 0.000000 0.000000 0.000000 0.000000 0.032761
#
#
# Mechanical properties :
#
#
# Convention : Reuss Voigt Hill
#
# Bulk Modulus (GPa) = 42.58685 57.43971 50.01328
# Shear Modulus (GPa) = 20.59623 23.82531 22.21077
#
# Velocity S-wave (km/s) = 3.49646 3.76058 3.63092
# Velocity P-wave (km/s) = 6.44814 7.27669 6.87491
#
# Compressibility (1/GPa) = 0.02348143
#
# Stress axis : x y z
#
# Youngs Moduli (GPa) = 51.92732 84.10137 46.67630
#
# Poissons Ratio (x) = 0.61766 0.04369
# Poissons Ratio (y) = 0.38137 0.29243
# Poissons Ratio (z) = 0.04861 0.52691
#
# Static dielectric constant tensor:
#      x y z
#    x 3.341430 0.000000 0.000000 
#    y 0.000000 3.306120 0.000000 
#    z 0.000000 0.000000 2.854170 
# 
# 
# High freq. dielectric constant tensor:
#      x y z
#    x 1.657050 0.000000 0.000000 
#    y 0.000000 1.653410 0.000000 
#    z 0.000000 0.000000 1.600770 
# 
# From -- ./inp_files/21416.got.cif
#   From: 2010.03.12/outbox.cif.g09.slc.cpg/sg46_11_cif.got.tgz:21416.got - 2010.04.14 02:56:35.
