data_PCOD8191913
_publ_section_title
;
Structure prediction by ZEFSAII (Michael W. Deem and Ramdas Pophale) SiO2 
 PCOD8191913
Probable space group: I M A 2
;
_chemical_formula_sum "Si O2"
_cell_formula_units_Z 48
_cell_length_a 8.551960
_cell_length_b 31.001511
_cell_length_c 9.196842
_cell_angle_alpha 90.000000
_cell_angle_beta 90.000000
_cell_angle_gamma 90.000000
_cell_volume 2438.300614
_symmetry_space_group_name_H-M "I M A 2"
_symmetry_group_IT_number 46
_symmetry_cell_setting 'orthorhombic'
loop_
_space_group_symop_operation_xyz
x,y,z
-x,-y,z
1/2-x,y,z
1/2+x,-y,z
1/2+x,1/2+y,1/2+z
1/2-x,1/2-y,1/2+z
-x,1/2+y,1/2+z
x,1/2-y,1/2+z
loop_
_atom_site_type_symbol
_atom_site_label
_atom_site_fract_x
_atom_site_fract_y
_atom_site_fract_z
Si Si1 0.935390 0.626828 0.791630
Si Si2 0.936807 0.790523 0.119985
Si Si3 0.435426 0.377076 0.122631
Si Si4 0.435115 0.453979 0.611418
Si Si5 0.435878 0.207530 0.791438
Si Si6 0.433825 0.954450 0.797299
O O1 0.750000 0.627829 0.781867
O O2 0.003240 0.667520 0.702898
O O3 0.998566 0.582501 0.721249
O O4 0.990266 0.630289 0.957567
O O5 0.750000 0.790513 0.119744
O O6 0.001764 0.748191 0.201505
O O7 0.001383 0.790780 0.955420
O O8 0.250000 0.383815 0.134984
O O9 0.493487 0.336255 0.215549
O O10 0.522870 0.419217 0.178374
O O11 0.500000 0.500000 0.663544
O O12 0.250000 0.456136 0.611052
O O13 0.490939 0.441522 0.450772
O O14 0.250000 0.209185 0.792107
O O15 0.250000 0.958315 0.817667
O O16 0.500000 0.000000 0.741663
#
# Coordination Sequence:
#
# PCOD8191913 Si02
#       6
#     8   8   8   8   8   8
#     4   9  18  30  48  74 107 139 174 216 261 307
#     4   9  15  25  41  70 105 138 173 214 259 303
#     4  10  19  33  51  76 107 140 173 213 259 307
#     4  10  19  34  54  77 103 135 172 216 262 311
#     4   9  16  25  44  71 105 140 173 213 258 302
#     4  11  22  37  56  78 102 134 172 214 258 310
#
# _framework density 19.685841
#
# number of rings (size 3 to 8) (size 9 to 14) (size 15 to 20)
#    0.000    2.333    0.000    5.000    0.000    7.333 
#    0.000    3.333    0.000    0.000    0.000   11.667 
#    0.000    0.000    0.000    0.000    0.000    0.000 
#
# Total GULP energy -297630.598228 kJ/mol
# GULP energy per Si atom -12401.274926 kJ/mol
# Density = 1.964104 g / cm^3
# Si number density = 19.685841 Si / 1000 Ang^3
#
#
#
# Elastic Constant Matrix: (Units=GPa)
#
#
# Indices 1 2 3 4 5 6 
#
# 1 42.3506 24.2685 13.9100 0.0006 0.0003 0.0002
# 2 24.2685 176.5391 106.7342 0.0028 0.0008 0.0004
# 3 13.9100 106.7342 169.9289 0.0062 0.0016 0.0012
# 4 0.0006 0.0028 0.0062 46.5510 0.0009 0.0004
# 5 0.0003 0.0008 0.0016 0.0009 13.9779 0.0012
# 6 0.0002 0.0004 0.0012 0.0004 0.0012 20.3707
#
#
#
# Elastic Compliance Matrix: (Units=1/GPa)
#
#
# Indices 1 2 3 4 5 6 
#
# 1 0.025635 -0.003636 0.000185 0.000000 0.000000 0.000000
# 2 -0.003636 0.009648 -0.005763 0.000000 0.000000 0.000000
# 3 0.000185 -0.005763 0.009489 -0.000001 -0.000001 0.000000
# 4 0.000000 0.000000 -0.000001 0.021482 -0.000001 0.000000
# 5 0.000000 0.000000 -0.000001 -0.000001 0.071541 -0.000004
# 6 0.000000 0.000000 0.000000 0.000000 -0.000004 0.049090
#
#
# Mechanical properties :
#
#
# Convention : Reuss Voigt Hill
#
# Bulk Modulus (GPa) = 37.95626 75.40491 56.68059
# Shear Modulus (GPa) = 23.35417 32.44031 27.89724
#
# Velocity S-wave (km/s) = 3.44807 4.06384 3.76855
# Velocity P-wave (km/s) = 5.93086 7.77219 6.91311
#
# Compressibility (1/GPa) = 0.02634611
#
# Stress axis : x y z
#
# Youngs Moduli (GPa) = 39.00897 103.64491 105.38331
#
# Poissons Ratio (x) = 0.37687 -0.01954
# Poissons Ratio (y) = 0.14184 0.60728
# Poissons Ratio (z) = -0.00723 0.59726
#
# Static dielectric constant tensor:
#      x y z
#    x 3.033090 0.000000 0.000000 
#    y 0.000000 3.841790 0.000000 
#    z 0.000000 0.000000 3.744060 
# 
# 
# High freq. dielectric constant tensor:
#      x y z
#    x 1.713160 0.000000 0.000000 
#    y 0.000000 1.785720 0.000000 
#    z 0.000000 0.000000 1.775410 
# 
# From -- ./inp_files/3932.got.cif
#   From: 2010.03.12/outbox.cif.g09.slc.cpg/sg46_2_cif.got.tgz:3932.got - 2010.04.14 02:56:35.
