data_PCOD8191085
_publ_section_title
;
Structure prediction by ZEFSAII (Michael W. Deem and Ramdas Pophale) SiO2 
 PCOD8191085
Probable space group: I B A 2
;
_chemical_formula_sum "Si O2"
_cell_formula_units_Z 44
_cell_length_a 9.280130
_cell_length_b 16.097613
_cell_length_c 13.950961
_cell_angle_alpha 90.000000
_cell_angle_beta 90.000000
_cell_angle_gamma 90.000000
_cell_volume 2084.105343
_symmetry_space_group_name_H-M "I B A 2"
_symmetry_group_IT_number 45
_symmetry_cell_setting 'orthorhombic'
loop_
_space_group_symop_operation_xyz
x,y,z
-x,-y,z
-x,y,1/2+z
x,-y,1/2+z
1/2+x,1/2+y,1/2+z
1/2-x,1/2-y,1/2+z
1/2-x,1/2+y,z
1/2+x,1/2-y,z
loop_
_atom_site_type_symbol
_atom_site_label
_atom_site_fract_x
_atom_site_fract_y
_atom_site_fract_z
Si Si1 0.430764 0.254344 0.386330
Si Si2 0.157324 0.493654 0.808333
Si Si3 0.831469 0.350376 0.560705
Si Si4 0.820249 0.322984 0.778275
Si Si5 0.500000 0.000000 0.126526
Si Si6 0.402613 0.418259 0.933750
O O1 0.395400 0.219745 0.491291
O O2 0.283064 0.257375 0.328121
O O3 0.522953 0.190261 0.324002
O O4 0.499002 0.345710 0.391741
O O5 0.230420 0.584202 0.803205
O O6 0.126740 0.464773 0.697678
O O7 0.269540 0.433663 0.860645
O O8 0.000000 0.500000 0.861567
O O9 0.820619 0.308143 0.664504
O O10 0.673602 0.385224 0.530756
O O11 0.943630 0.426624 0.559685
O O12 0.500000 0.500000 0.953299
#
# Coordination Sequence:
#
# PCOD8191085 Si02
#       6
#     8   8   8   8   4   8
#     4  12  26  45  72 103 144 186 228 298 355 420
#     4   9  20  44  70 100 130 183 232 284 355 410
#     4  11  26  46  70 106 141 184 241 284 360 427
#     4  11  25  46  69 101 143 184 231 293 357 417
#     4   8  22  42  76 104 128 192 238 292 342 432
#     4  12  25  45  71 105 140 185 238 295 348 422
#
# _framework density 21.112178
#
# number of rings (size 3 to 8) (size 9 to 14) (size 15 to 20)
#    0.545    0.727    3.636    1.091    6.364    0.000 
#    6.545    0.000    0.000    0.000    0.000    0.000 
#    0.000    0.000    0.000    0.000    0.000    0.000 
#
# Total GULP energy -272696.330538 kJ/mol
# GULP energy per Si atom -12395.287752 kJ/mol
# Density = 2.106413 g / cm^3
# Si number density = 21.112178 Si / 1000 Ang^3
#
#
#
# Elastic Constant Matrix: (Units=GPa)
#
#
# Indices 1 2 3 4 5 6 
#
# 1 101.0719 26.2789 45.7236 0.0000 0.0000 0.0000
# 2 26.2789 72.6900 40.3644 0.0000 0.0000 0.0000
# 3 45.7236 40.3644 135.3286 0.0000 0.0000 0.0000
# 4 0.0000 0.0000 0.0000 37.2775 0.0000 0.0000
# 5 0.0000 0.0000 0.0000 0.0000 14.9945 0.0000
# 6 0.0000 0.0000 0.0000 0.0000 0.0000 38.2122
#
#
#
# Elastic Compliance Matrix: (Units=1/GPa)
#
#
# Indices 1 2 3 4 5 6 
#
# 1 0.012050 -0.002511 -0.003322 0.000000 0.000000 0.000000
# 2 -0.002511 0.017011 -0.004225 0.000000 0.000000 0.000000
# 3 -0.003322 -0.004225 0.009772 0.000000 0.000000 0.000000
# 4 0.000000 0.000000 0.000000 0.026826 0.000000 0.000000
# 5 0.000000 0.000000 0.000000 0.000000 0.066691 0.000000
# 6 0.000000 0.000000 0.000000 0.000000 0.000000 0.026170
#
#
# Mechanical properties :
#
#
# Convention : Reuss Voigt Hill
#
# Bulk Modulus (GPa) = 53.43237 59.31382 56.37309
# Shear Modulus (GPa) = 27.04510 31.21176 29.12843
#
# Velocity S-wave (km/s) = 3.58302 3.84914 3.71846
# Velocity P-wave (km/s) = 6.51775 6.92171 6.72277
#
# Compressibility (1/GPa) = 0.01871525
#
# Stress axis : x y z
#
# Youngs Moduli (GPa) = 82.98862 58.78431 102.33103
#
# Poissons Ratio (x) = 0.14763 0.33996
# Poissons Ratio (y) = 0.20842 0.43239
# Poissons Ratio (z) = 0.27570 0.24839
#
# Static dielectric constant tensor:
#      x y z
#    x 3.886130 0.000000 0.000000 
#    y 0.000000 3.734250 0.000000 
#    z 0.000000 0.000000 3.654130 
# 
# 
# High freq. dielectric constant tensor:
#      x y z
#    x 1.827040 0.000000 0.000000 
#    y 0.000000 1.834660 0.000000 
#    z 0.000000 0.000000 1.821020 
# 
# From -- ./inp_files/5571.got.cif
#   From: 2010.03.12/outbox.cif.g09.slc.cpg/sg45_3_cif.got.tgz:5571.got - 2010.04.14 02:50:11.
