data_PCOD8191021
_publ_section_title
;
Structure prediction by ZEFSAII (Michael W. Deem and Ramdas Pophale) SiO2 
 PCOD8191021
Probable space group: I B A 2
;
_chemical_formula_sum "Si O2"
_cell_formula_units_Z 64
_cell_length_a 13.636636
_cell_length_b 22.226269
_cell_length_c 8.780749
_cell_angle_alpha 90.000000
_cell_angle_beta 90.000000
_cell_angle_gamma 90.000000
_cell_volume 2661.370737
_symmetry_space_group_name_H-M "I B A 2"
_symmetry_group_IT_number 45
_symmetry_cell_setting 'orthorhombic'
loop_
_space_group_symop_operation_xyz
x,y,z
-x,-y,z
-x,y,1/2+z
x,-y,1/2+z
1/2+x,1/2+y,1/2+z
1/2-x,1/2-y,1/2+z
1/2-x,1/2+y,z
1/2+x,1/2-y,z
loop_
_atom_site_type_symbol
_atom_site_label
_atom_site_fract_x
_atom_site_fract_y
_atom_site_fract_z
Si Si1 0.451504 0.806734 0.048890
Si Si2 0.645251 0.294401 0.237960
Si Si3 0.764726 0.480322 0.208763
Si Si4 0.575042 0.555353 0.251718
Si Si5 0.400207 0.412841 0.584129
Si Si6 0.838318 0.581184 0.004333
Si Si7 0.150815 0.841870 0.059858
Si Si8 0.367800 0.226442 0.228032
O O1 0.387769 0.771382 0.178509
O O2 0.435291 0.879306 0.037040
O O3 0.566009 0.800721 0.091639
O O4 0.425372 0.778450 0.886186
O O5 0.588989 0.344015 0.137298
O O6 0.611519 0.305952 0.412095
O O7 0.762220 0.305392 0.227738
O O8 0.672570 0.516216 0.277420
O O9 0.714575 0.432181 0.093787
O O10 0.836371 0.525927 0.121522
O O11 0.829335 0.445964 0.334792
O O12 0.557762 0.584797 0.414919
O O13 0.460738 0.538908 0.197535
O O14 0.585284 0.601815 0.110334
O O15 0.757175 0.632154 0.026740
O O16 0.152721 0.796845 0.202083
#
# Coordination Sequence:
#
# PCOD8191021 Si02
#       8
#     8   8   8   8   8   8   8   8
#     4  12  26  46  74 107 152 190 245 306 374 448
#     4  12  23  44  74 103 149 193 235 303 374 446
#     4  11  23  42  69  97 138 191 246 301 359 428
#     4  11  25  37  64 101 145 194 243 294 359 440
#     4  12  23  40  63 101 146 192 240 294 366 438
#     4  11  23  47  71 105 140 193 245 308 366 438
#     4  11  22  43  69 103 148 184 240 290 367 449
#     4  12  24  45  69 107 142 194 239 296 374 446
#
# _framework density 24.04776
#
# number of rings (size 3 to 8) (size 9 to 14) (size 15 to 20)
#    0.000    0.500    5.000    3.375    1.750    1.000 
#    4.500    0.000    0.000    6.000    0.000    0.000 
#    0.000    0.000    0.000    0.000    0.000    0.000 
#
# Total GULP energy -396490.701623 kJ/mol
# GULP energy per Si atom -12390.334426 kJ/mol
# Density = 2.399303 g / cm^3
# Si number density = 24.047760 Si / 1000 Ang^3
#
#
#
# Elastic Constant Matrix: (Units=GPa)
#
#
# Indices 1 2 3 4 5 6 
#
# 1 62.6639 8.2525 25.9466 0.0033 0.0018 0.0010
# 2 8.2525 99.7826 34.5648 0.0012 0.0007 0.0000
# 3 25.9466 34.5648 118.6483 -0.0090 -0.0015 -0.0017
# 4 0.0033 0.0012 -0.0090 39.3687 -0.0009 -0.0011
# 5 0.0018 0.0007 -0.0015 -0.0009 26.3725 -0.0004
# 6 0.0010 0.0000 -0.0017 -0.0011 -0.0004 34.2988
#
#
#
# Elastic Compliance Matrix: (Units=1/GPa)
#
#
# Indices 1 2 3 4 5 6 
#
# 1 0.017549 -0.000136 -0.003798 -0.000002 -0.000001 -0.000001
# 2 -0.000136 0.011148 -0.003218 -0.000001 0.000000 0.000000
# 3 -0.003798 -0.003218 0.010196 0.000003 0.000001 0.000001
# 4 -0.000002 -0.000001 0.000003 0.025401 0.000001 0.000001
# 5 -0.000001 0.000000 0.000001 0.000001 0.037918 0.000000
# 6 -0.000001 0.000000 0.000001 0.000001 0.000000 0.029156
#
#
# Mechanical properties :
#
#
# Convention : Reuss Voigt Hill
#
# Bulk Modulus (GPa) = 40.66811 46.51362 43.59086
# Shear Modulus (GPa) = 32.49556 34.16339 33.32947
#
# Velocity S-wave (km/s) = 3.67998 3.77324 3.72690
# Velocity P-wave (km/s) = 5.91646 6.19413 6.05688
#
# Compressibility (1/GPa) = 0.02458929
#
# Stress axis : x y z
#
# Youngs Moduli (GPa) = 56.98443 89.70465 98.07481
#
# Poissons Ratio (x) = 0.01217 0.37250
# Poissons Ratio (y) = 0.00773 0.31559
# Poissons Ratio (z) = 0.21643 0.28866
#
# Static dielectric constant tensor:
#      x y z
#    x 4.305040 0.000000 0.000000 
#    y 0.000000 4.543580 0.000000 
#    z 0.000000 0.000000 4.245010 
# 
# 
# High freq. dielectric constant tensor:
#      x y z
#    x 1.941660 0.000000 0.000000 
#    y 0.000000 1.964850 0.000000 
#    z 0.000000 0.000000 1.953550 
# 
# From -- ./inp_files/1918.got.cif
#   From: 2010.03.12/outbox.cif.g09.slc.cpg/sg45_1_cif.got.tgz:1918.got - 2010.04.14 02:50:11.
