data_PCOD8191042
_publ_section_title
;
Structure prediction by ZEFSAII (Michael W. Deem and Ramdas Pophale) SiO2 
 PCOD8191042
Probable space group: I B A 2
;
_chemical_formula_sum "Si O2"
_cell_formula_units_Z 40
_cell_length_a 18.485189
_cell_length_b 10.702545
_cell_length_c 8.583953
_cell_angle_alpha 90.000000
_cell_angle_beta 90.000000
_cell_angle_gamma 90.000000
_cell_volume 1698.236962
_symmetry_space_group_name_H-M "I B A 2"
_symmetry_group_IT_number 45
_symmetry_cell_setting 'orthorhombic'
loop_
_space_group_symop_operation_xyz
x,y,z
-x,-y,z
-x,y,1/2+z
x,-y,1/2+z
1/2+x,1/2+y,1/2+z
1/2-x,1/2-y,1/2+z
1/2-x,1/2+y,z
1/2+x,1/2-y,z
loop_
_atom_site_type_symbol
_atom_site_label
_atom_site_fract_x
_atom_site_fract_y
_atom_site_fract_z
Si Si1 0.919769 0.548786 0.165850
Si Si2 0.459418 0.374085 0.617268
Si Si3 0.567811 0.242817 0.423632
Si Si4 0.818204 0.691815 0.651676
Si Si5 0.831971 0.229786 0.495830
O O1 0.930136 0.606791 0.340165
O O2 0.862347 0.436340 0.174514
O O3 0.000000 0.500000 0.108159
O O4 0.877276 0.650780 0.060487
O O5 0.500000 0.500000 0.589317
O O6 0.503964 0.253051 0.552100
O O7 0.443858 0.352169 0.798678
O O8 0.385961 0.386799 0.518542
O O9 0.641361 0.271001 0.518011
O O10 0.813776 0.761337 0.815598
O O11 0.736279 0.685162 0.595508
#
# Coordination Sequence:
#
# PCOD8191042 Si02
#       5
#     8   8   8   8   8
#     4  11  24  46  76 107 139 185 236 291 353 418
#     4  11  23  43  69 101 142 185 229 286 348 414
#     4  11  24  42  69 104 138 182 240 285 341 424
#     4  12  25  45  70 101 144 184 230 297 350 408
#     4  11  25  44  70 105 141 184 238 285 350 426
#
# _framework density 23.553839
#
# number of rings (size 3 to 8) (size 9 to 14) (size 15 to 20)
#    0.000    0.800    0.000    9.000    0.000    4.800 
#    0.000   11.000    0.000    0.000    0.000    0.000 
#    0.000    0.000    0.000    0.000    0.000    0.000 
#
# Total GULP energy -247783.564078 kJ/mol
# GULP energy per Si atom -12389.178204 kJ/mol
# Density = 2.350023 g / cm^3
# Si number density = 23.553839 Si / 1000 Ang^3
#
#
#
# Elastic Constant Matrix: (Units=GPa)
#
#
# Indices 1 2 3 4 5 6 
#
# 1 207.1315 88.2106 64.6871 0.0000 0.0000 0.0000
# 2 88.2106 98.7436 64.0061 0.0000 0.0000 0.0000
# 3 64.6871 64.0061 151.1135 0.0000 0.0000 0.0000
# 4 0.0000 0.0000 0.0000 16.5754 0.0000 0.0000
# 5 0.0000 0.0000 0.0000 0.0000 49.0416 0.0000
# 6 0.0000 0.0000 0.0000 0.0000 0.0000 38.4324
#
#
#
# Elastic Compliance Matrix: (Units=1/GPa)
#
#
# Indices 1 2 3 4 5 6 
#
# 1 0.007824 -0.006642 -0.000536 0.000000 0.000000 0.000000
# 2 -0.006642 0.019599 -0.005458 0.000000 0.000000 0.000000
# 3 -0.000536 -0.005458 0.009159 0.000000 0.000000 0.000000
# 4 0.000000 0.000000 0.000000 0.060330 0.000000 0.000000
# 5 0.000000 0.000000 0.000000 0.000000 0.020391 0.000000
# 6 0.000000 0.000000 0.000000 0.000000 0.000000 0.026020
#
#
# Mechanical properties :
#
#
# Convention : Reuss Voigt Hill
#
# Bulk Modulus (GPa) = 88.42103 98.97737 93.69920
# Shear Modulus (GPa) = 29.00851 36.81553 32.91202
#
# Velocity S-wave (km/s) = 3.51320 3.95782 3.74212
# Velocity P-wave (km/s) = 7.35379 7.93717 7.65104
#
# Compressibility (1/GPa) = 0.01130953
#
# Stress axis : x y z
#
# Youngs Moduli (GPa) = 127.81606 51.02424 109.18506
#
# Poissons Ratio (x) = 0.33889 0.05851
# Poissons Ratio (y) = 0.84893 0.59594
# Poissons Ratio (z) = 0.06849 0.27849
#
# Static dielectric constant tensor:
#      x y z
#    x 4.666060 0.000000 0.000000 
#    y 0.000000 4.062930 0.000000 
#    z 0.000000 0.000000 4.471390 
# 
# 
# High freq. dielectric constant tensor:
#      x y z
#    x 1.951130 0.000000 0.000000 
#    y 0.000000 1.917260 0.000000 
#    z 0.000000 0.000000 1.953980 
# 
# From -- ./inp_files/1271.got.cif
#   From: 2010.03.12/outbox.cif.g09.slc.cpg/sg45_1_cif.got.tgz:1271.got - 2010.04.14 02:50:11.
