data_PCOD8191456
_publ_section_title
;
Structure prediction by ZEFSAII (Michael W. Deem and Ramdas Pophale) SiO2 
 PCOD8191456
Probable space group: I M A 2
;
_chemical_formula_sum "Si O2"
_cell_formula_units_Z 48
_cell_length_a 16.987007
_cell_length_b 8.398732
_cell_length_c 18.702339
_cell_angle_alpha 90.000000
_cell_angle_beta 90.000000
_cell_angle_gamma 90.000000
_cell_volume 2668.249974
_symmetry_space_group_name_H-M "I M A 2"
_symmetry_group_IT_number 46
_symmetry_cell_setting 'orthorhombic'
loop_
_space_group_symop_operation_xyz
x,y,z
-x,-y,z
1/2-x,y,z
1/2+x,-y,z
1/2+x,1/2+y,1/2+z
1/2-x,1/2-y,1/2+z
-x,1/2+y,1/2+z
x,1/2-y,1/2+z
loop_
_atom_site_type_symbol
_atom_site_label
_atom_site_fract_x
_atom_site_fract_y
_atom_site_fract_z
Si Si1 0.022138 0.679171 0.442110
Si Si2 0.930342 0.628840 0.223877
Si Si3 0.430006 0.388228 0.841374
Si Si4 0.659565 0.190017 0.348365
Si Si5 0.520886 0.179448 0.592834
Si Si6 0.839370 0.341500 0.197253
O O1 0.106123 0.716508 0.405642
O O2 0.023145 0.699558 0.527250
O O3 0.000000 0.500000 0.422220
O O4 0.955898 0.801005 0.414059
O O5 0.911440 0.753217 0.284663
O O6 0.850220 0.529082 0.214350
O O7 0.000000 0.500000 0.241795
O O8 0.954166 0.724262 0.151611
O O9 0.500000 0.500000 0.812212
O O10 0.354365 0.499536 0.855626
O O11 0.750000 0.229541 0.365962
O O12 0.636899 0.241128 0.267825
O O13 0.605798 0.200723 0.630191
O O14 0.500000 0.000000 0.566767
O O15 0.750000 0.306613 0.174960
#
# Coordination Sequence:
#
# PCOD8191456 Si02
#       6
#     8   8   8   8   8   8
#     4  11  21  34  54  76 100 134 174 213 251 296
#     4   9  17  31  52  76 100 128 164 206 246 291
#     4  10  18  31  52  75 101 132 167 207 248 296
#     4  10  21  35  52  76 105 135 167 207 255 302
#     4   9  18  32  50  74 101 130 166 205 247 295
#     4   9  18  33  52  73 100 133 164 198 248 304
#
# _framework density 17.989318999999998
#
# number of rings (size 3 to 8) (size 9 to 14) (size 15 to 20)
#    0.000    2.667    0.000    7.000    0.000    4.000 
#    0.000    0.833    0.000    4.000    0.000    0.000 
#    0.000    0.000    0.000    0.000    0.000    0.000 
#
# Total GULP energy -297440.554301 kJ/mol
# GULP energy per Si atom -12393.356429 kJ/mol
# Density = 1.794837 g / cm^3
# Si number density = 17.989319 Si / 1000 Ang^3
#
#
#
# Elastic Constant Matrix: (Units=GPa)
#
#
# Indices 1 2 3 4 5 6 
#
# 1 73.2391 37.7033 45.3363 0.0000 0.0000 0.0000
# 2 37.7033 86.8474 48.9985 0.0000 0.0000 0.0000
# 3 45.3363 48.9985 107.1268 0.0000 0.0000 0.0000
# 4 0.0000 0.0000 0.0000 33.1454 0.0000 0.0000
# 5 0.0000 0.0000 0.0000 0.0000 9.9946 0.0000
# 6 0.0000 0.0000 0.0000 0.0000 0.0000 17.3714
#
#
#
# Elastic Compliance Matrix: (Units=1/GPa)
#
#
# Indices 1 2 3 4 5 6 
#
# 1 0.020167 -0.005310 -0.006106 0.000000 0.000000 0.000000
# 2 -0.005310 0.016918 -0.005491 0.000000 0.000000 0.000000
# 3 -0.006106 -0.005491 0.014430 0.000000 0.000000 0.000000
# 4 0.000000 0.000000 0.000000 0.030170 0.000000 0.000000
# 5 0.000000 0.000000 0.000000 0.000000 0.100054 0.000000
# 6 0.000000 0.000000 0.000000 0.000000 0.000000 0.057566
#
#
# Mechanical properties :
#
#
# Convention : Reuss Voigt Hill
#
# Bulk Modulus (GPa) = 56.49309 59.03215 57.76262
# Shear Modulus (GPa) = 17.91995 21.11398 19.51696
#
# Velocity S-wave (km/s) = 3.15960 3.42964 3.29739
# Velocity P-wave (km/s) = 6.69198 6.96919 6.83199
#
# Compressibility (1/GPa) = 0.01770128
#
# Stress axis : x y z
#
# Youngs Moduli (GPa) = 49.58502 59.11020 69.29969
#
# Poissons Ratio (x) = 0.31390 0.42314
# Poissons Ratio (y) = 0.26332 0.38049
# Poissons Ratio (z) = 0.30276 0.32455
#
# Static dielectric constant tensor:
#      x y z
#    x 3.184070 0.000000 0.000000 
#    y 0.000000 3.390240 0.000000 
#    z 0.000000 0.000000 3.258930 
# 
# 
# High freq. dielectric constant tensor:
#      x y z
#    x 1.676360 0.000000 0.000000 
#    y 0.000000 1.693270 0.000000 
#    z 0.000000 0.000000 1.694310 
# 
# From -- ./inp_files/19849.got.cif
#   From: 2010.03.12/outbox.cif.g09.slc.cpg/sg46_10_cif.got.tgz:19849.got - 2010.04.14 02:56:35.
