data_PCOD8191865
_publ_section_title
;
Structure prediction by ZEFSAII (Michael W. Deem and Ramdas Pophale) SiO2 
 PCOD8191865
Probable space group: I M A 2
;
_chemical_formula_sum "Si O2"
_cell_formula_units_Z 48
_cell_length_a 8.900727
_cell_length_b 9.615694
_cell_length_c 30.493799
_cell_angle_alpha 90.000000
_cell_angle_beta 90.000000
_cell_angle_gamma 90.000000
_cell_volume 2609.862627
_symmetry_space_group_name_H-M "I M A 2"
_symmetry_group_IT_number 46
_symmetry_cell_setting 'orthorhombic'
loop_
_space_group_symop_operation_xyz
x,y,z
-x,-y,z
1/2-x,y,z
1/2+x,-y,z
1/2+x,1/2+y,1/2+z
1/2-x,1/2-y,1/2+z
-x,1/2+y,1/2+z
x,1/2-y,1/2+z
loop_
_atom_site_type_symbol
_atom_site_label
_atom_site_fract_x
_atom_site_fract_y
_atom_site_fract_z
Si Si1 0.576368 0.354013 0.576000
Si Si2 0.075153 0.355468 0.814324
Si Si3 0.071050 0.848769 0.748684
Si Si4 0.576659 0.641635 0.916907
Si Si5 0.073284 0.849681 0.981638
Si Si6 0.573390 0.349760 0.670941
O O1 0.500000 0.500000 0.573717
O O2 0.750000 0.386904 0.577766
O O3 0.539908 0.276108 0.529709
O O4 0.529884 0.284081 0.622661
O O5 0.250000 0.359695 0.801347
O O6 0.051848 0.331340 0.865719
O O7 0.000000 0.500000 0.799017
O O8 0.992162 0.226911 0.791668
O O9 0.250000 0.861145 0.751874
O O10 0.016319 0.760462 0.706602
O O11 0.000000 0.000000 0.744898
O O12 0.500000 0.500000 0.932153
O O13 0.750000 0.633336 0.929513
O O14 0.499698 0.764900 0.942775
O O15 0.250000 0.862342 0.973017
O O16 0.000000 0.000000 0.980599
O O17 0.500000 0.500000 0.678950
O O18 0.750000 0.371876 0.675844
#
# Coordination Sequence:
#
# PCOD8191865 Si02
#       6
#     8   8   8   8   8   8
#     4   8  15  29  49  74 103 134 171 213 254 299
#     4  10  21  38  59  80 103 134 173 215 258 309
#     4  11  23  37  54  77 107 140 173 214 262 310
#     4  10  21  37  56  78 105 137 173 214 260 310
#     4  10  19  32  53  79 108 141 176 216 259 305
#     4   9  18  33  54  78 103 134 173 214 256 305
#
# _framework density 18.391773000000001
#
# number of rings (size 3 to 8) (size 9 to 14) (size 15 to 20)
#    0.000    2.333    0.000    2.500    0.000    6.000 
#    0.000    0.833    0.000    2.000    0.000    0.000 
#    0.000    0.000    0.000    0.000    0.000    0.000 
#
# Total GULP energy -297403.838549 kJ/mol
# GULP energy per Si atom -12391.826606 kJ/mol
# Density = 1.834991 g / cm^3
# Si number density = 18.391773 Si / 1000 Ang^3
#
#
#
# Elastic Constant Matrix: (Units=GPa)
#
#
# Indices 1 2 3 4 5 6 
#
# 1 93.0148 52.5411 55.4203 0.0000 0.0000 0.0000
# 2 52.5411 112.8520 64.6972 0.0000 0.0000 0.0000
# 3 55.4203 64.6972 96.9110 0.0000 0.0000 0.0000
# 4 0.0000 0.0000 0.0000 24.5306 0.0000 0.0000
# 5 0.0000 0.0000 0.0000 0.0000 35.7891 0.0000
# 6 0.0000 0.0000 0.0000 0.0000 0.0000 33.6189
#
#
#
# Elastic Compliance Matrix: (Units=1/GPa)
#
#
# Indices 1 2 3 4 5 6 
#
# 1 0.017285 -0.003857 -0.007310 0.000000 0.000000 0.000000
# 2 -0.003857 0.015216 -0.007953 0.000000 0.000000 0.000000
# 3 -0.007310 -0.007953 0.019808 0.000000 0.000000 0.000000
# 4 0.000000 0.000000 0.000000 0.040765 0.000000 0.000000
# 5 0.000000 0.000000 0.000000 0.000000 0.027941 0.000000
# 6 0.000000 0.000000 0.000000 0.000000 0.000000 0.029745
#
#
# Mechanical properties :
#
#
# Convention : Reuss Voigt Hill
#
# Bulk Modulus (GPa) = 71.07032 72.01055 71.54044
# Shear Modulus (GPa) = 25.81450 27.46234 26.63842
#
# Velocity S-wave (km/s) = 3.75052 3.86837 3.80990
# Velocity P-wave (km/s) = 7.58166 7.69357 7.63782
#
# Compressibility (1/GPa) = 0.01407057
#
# Stress axis : x y z
#
# Youngs Moduli (GPa) = 57.85373 65.72097 50.48424
#
# Poissons Ratio (x) = 0.25346 0.36904
# Poissons Ratio (y) = 0.22312 0.40148
# Poissons Ratio (z) = 0.42291 0.52265
#
# Static dielectric constant tensor:
#      x y z
#    x 3.339640 0.000000 0.000000 
#    y 0.000000 3.113310 0.000000 
#    z 0.000000 0.000000 4.016890 
# 
# 
# High freq. dielectric constant tensor:
#      x y z
#    x 1.725510 0.000000 0.000000 
#    y 0.000000 1.682840 0.000000 
#    z 0.000000 0.000000 1.736080 
# 
# From -- ./inp_files/24980.got.cif
#   From: 2010.03.12/outbox.cif.g09.slc.cpg/sg46_13_cif.got.tgz:24980.got - 2010.04.14 02:56:35.
