data_PCOD8191039
_publ_section_title
;
Structure prediction by ZEFSAII (Michael W. Deem and Ramdas Pophale) SiO2 
 PCOD8191039
Probable space group: I B A 2
;
_chemical_formula_sum "Si O2"
_cell_formula_units_Z 64
_cell_length_a 32.556715
_cell_length_b 9.235044
_cell_length_c 10.352653
_cell_angle_alpha 90.000000
_cell_angle_beta 90.000000
_cell_angle_gamma 90.000000
_cell_volume 3112.656557
_symmetry_space_group_name_H-M "I B A 2"
_symmetry_group_IT_number 45
_symmetry_cell_setting 'orthorhombic'
loop_
_space_group_symop_operation_xyz
x,y,z
-x,-y,z
-x,y,1/2+z
x,-y,1/2+z
1/2+x,1/2+y,1/2+z
1/2-x,1/2-y,1/2+z
1/2-x,1/2+y,z
1/2+x,1/2-y,z
loop_
_atom_site_type_symbol
_atom_site_label
_atom_site_fract_x
_atom_site_fract_y
_atom_site_fract_z
Si Si1 0.776199 0.604844 0.849700
Si Si2 0.388471 0.787457 0.189324
Si Si3 0.026040 0.350502 0.499800
Si Si4 0.178035 0.499416 0.098827
Si Si5 0.357087 0.499615 0.591303
Si Si6 0.480022 0.156413 0.724364
Si Si7 0.616625 0.212630 0.487245
Si Si8 0.696345 0.432146 0.841493
O O1 0.800940 0.523885 0.736579
O O2 0.728592 0.564020 0.834593
O O3 0.780574 0.777601 0.838987
O O4 0.789755 0.548089 0.990182
O O5 0.388278 0.625699 0.134119
O O6 0.433528 0.856401 0.173922
O O7 0.373708 0.788947 0.336383
O O8 0.356472 0.876930 0.105002
O O9 0.019033 0.265816 0.364592
O O10 0.074667 0.374881 0.518604
O O11 0.000000 0.500000 0.507864
O O12 0.007665 0.256633 0.619345
O O13 0.155709 0.646609 0.058859
O O14 0.387151 0.624497 0.539210
O O15 0.331913 0.554350 0.715596
O O16 0.328008 0.445203 0.475635
O O17 0.500000 0.000000 0.750005
#
# Coordination Sequence:
#
# PCOD8191039 Si02
#       8
#     8   8   8   8   8   8   8   8
#     4  12  28  42  68  96 127 174 220 280 334 396
#     4  11  23  41  69  98 136 174 217 275 328 389
#     4   9  18  36  60  95 128 162 203 257 316 376
#     4  12  23  42  65 100 128 168 226 268 333 402
#     4  12  25  46  67  94 136 176 224 274 333 394
#     4   9  18  36  60  95 128 162 203 257 316 376
#     4  11  23  41  69  98 136 174 217 275 328 389
#     4  12  28  46  66  96 133 175 224 277 337 399
#
# _framework density 20.561212999999999
#
# number of rings (size 3 to 8) (size 9 to 14) (size 15 to 20)
#    0.000    1.000    5.000    2.250    3.500    2.000 
#    4.500    0.625    0.000    3.000    0.000    0.000 
#    0.000    0.000    0.000    0.000    0.000    0.000 
#
# Total GULP energy -396637.941816 kJ/mol
# GULP energy per Si atom -12394.935682 kJ/mol
# Density = 2.051441 g / cm^3
# Si number density = 20.561213 Si / 1000 Ang^3
#
#
#
# Elastic Constant Matrix: (Units=GPa)
#
#
# Indices 1 2 3 4 5 6 
#
# 1 77.7792 19.1181 18.0706 0.0000 0.0000 0.0000
# 2 19.1181 85.9446 -0.3137 0.0000 0.0000 0.0000
# 3 18.0706 -0.3137 110.0927 0.0000 0.0000 0.0000
# 4 0.0000 0.0000 0.0000 27.5768 0.0000 0.0000
# 5 0.0000 0.0000 0.0000 0.0000 33.5901 0.0000
# 6 0.0000 0.0000 0.0000 0.0000 0.0000 27.3424
#
#
#
# Elastic Compliance Matrix: (Units=1/GPa)
#
#
# Indices 1 2 3 4 5 6 
#
# 1 0.014177 -0.003162 -0.002336 0.000000 0.000000 0.000000
# 2 -0.003162 0.012341 0.000554 0.000000 0.000000 0.000000
# 3 -0.002336 0.000554 0.009468 0.000000 0.000000 0.000000
# 4 0.000000 0.000000 0.000000 0.036262 0.000000 0.000000
# 5 0.000000 0.000000 0.000000 0.000000 0.029771 0.000000
# 6 0.000000 0.000000 0.000000 0.000000 0.000000 0.036573
#
#
# Mechanical properties :
#
#
# Convention : Reuss Voigt Hill
#
# Bulk Modulus (GPa) = 38.31696 38.61851 38.46774
# Shear Modulus (GPa) = 31.81075 33.49795 32.65435
#
# Velocity S-wave (km/s) = 3.93762 4.04069 3.98949
# Velocity P-wave (km/s) = 6.27289 6.37123 6.32225
#
# Compressibility (1/GPa) = 0.02609810
#
# Stress axis : x y z
#
# Youngs Moduli (GPa) = 70.53737 81.03187 105.61595
#
# Poissons Ratio (x) = 0.25623 0.24672
# Poissons Ratio (y) = 0.22305 -0.05853
# Poissons Ratio (z) = 0.16478 -0.04491
#
# Static dielectric constant tensor:
#      x y z
#    x 3.667530 0.000000 0.000000 
#    y 0.000000 3.553700 0.000000 
#    z 0.000000 0.000000 4.609690 
# 
# 
# High freq. dielectric constant tensor:
#      x y z
#    x 1.804060 0.000000 0.000000 
#    y 0.000000 1.779060 0.000000 
#    z 0.000000 0.000000 1.835930 
# 
# From -- ./inp_files/4957.got.cif
#   From: 2010.03.12/outbox.cif.g09.slc.cpg/sg45_3_cif.got.tgz:4957.got - 2010.04.14 02:50:11.
