data_PCOD8191050
_publ_section_title
;
Structure prediction by ZEFSAII (Michael W. Deem and Ramdas Pophale) SiO2 
 PCOD8191050
Probable space group: I B A 2
;
_chemical_formula_sum "Si O2"
_cell_formula_units_Z 48
_cell_length_a 16.630731
_cell_length_b 9.266389
_cell_length_c 13.868837
_cell_angle_alpha 90.000000
_cell_angle_beta 90.000000
_cell_angle_gamma 90.000000
_cell_volume 2137.282406
_symmetry_space_group_name_H-M "I B A 2"
_symmetry_group_IT_number 45
_symmetry_cell_setting 'orthorhombic'
loop_
_space_group_symop_operation_xyz
x,y,z
-x,-y,z
-x,y,1/2+z
x,-y,1/2+z
1/2+x,1/2+y,1/2+z
1/2-x,1/2-y,1/2+z
1/2-x,1/2+y,z
1/2+x,1/2-y,z
loop_
_atom_site_type_symbol
_atom_site_label
_atom_site_fract_x
_atom_site_fract_y
_atom_site_fract_z
Si Si1 0.664898 0.305701 0.785800
Si Si2 0.413383 0.574517 0.598774
Si Si3 0.159695 0.676829 0.994063
Si Si4 0.669350 0.960774 0.791730
Si Si5 0.158106 0.180961 0.999889
Si Si6 0.087176 0.560814 0.604909
O O1 0.601884 0.353480 0.703391
O O2 0.747796 0.385524 0.760883
O O3 0.632615 0.359178 0.890119
O O4 0.677965 0.133642 0.791609
O O5 0.500000 0.500000 0.595373
O O6 0.404771 0.697628 0.516617
O O7 0.346850 0.456064 0.570496
O O8 0.154004 0.557187 0.077240
O O9 0.139042 0.598893 0.893938
O O10 0.250226 0.739697 0.997457
O O11 0.600963 0.906760 0.717559
O O12 0.096802 0.298359 0.040221
O O13 0.000000 0.500000 0.583564
#
# Coordination Sequence:
#
# PCOD8191050 Si02
#       6
#     8   8   8   8   8   8
#     4  11  25  46  72 105 142 189 248 298 362 431
#     4  12  27  46  71 108 152 189 236 304 376 440
#     4  11  23  46  73 102 141 189 248 297 359 436
#     4  11  25  44  74 105 141 189 246 302 352 442
#     4  11  25  44  75 104 140 193 242 302 358 438
#     4  12  25  44  68 106 144 187 237 295 374 434
#
# _framework density 22.458425999999999
#
# number of rings (size 3 to 8) (size 9 to 14) (size 15 to 20)
#    0.000    0.667    3.333    4.000    9.333    1.333 
#    3.000    0.000    0.000    0.000    0.000    0.000 
#    0.000    0.000    0.000    0.000    0.000    0.000 
#
# Total GULP energy -297595.428770 kJ/mol
# GULP energy per Si atom -12399.809532 kJ/mol
# Density = 2.240731 g / cm^3
# Si number density = 22.458426 Si / 1000 Ang^3
#
#
#
# Elastic Constant Matrix: (Units=GPa)
#
#
# Indices 1 2 3 4 5 6 
#
# 1 76.5099 59.5315 75.4798 0.0000 0.0000 0.0000
# 2 59.5315 148.9526 68.4676 0.0000 0.0000 0.0000
# 3 75.4798 68.4676 154.1692 0.0000 0.0000 0.0000
# 4 0.0000 0.0000 0.0000 45.2275 0.0000 0.0000
# 5 0.0000 0.0000 0.0000 0.0000 21.7096 0.0000
# 6 0.0000 0.0000 0.0000 0.0000 0.0000 42.8902
#
#
#
# Elastic Compliance Matrix: (Units=1/GPa)
#
#
# Indices 1 2 3 4 5 6 
#
# 1 0.029543 -0.006482 -0.011585 0.000000 0.000000 0.000000
# 2 -0.006482 0.009858 -0.001204 0.000000 0.000000 0.000000
# 3 -0.011585 -0.001204 0.012693 0.000000 0.000000 0.000000
# 4 0.000000 0.000000 0.000000 0.022110 0.000000 0.000000
# 5 0.000000 0.000000 0.000000 0.000000 0.046063 0.000000
# 6 0.000000 0.000000 0.000000 0.000000 0.000000 0.023315
#
#
# Mechanical properties :
#
#
# Convention : Reuss Voigt Hill
#
# Bulk Modulus (GPa) = 73.79667 87.39883 80.59775
# Shear Modulus (GPa) = 26.78909 33.70899 30.24904
#
# Velocity S-wave (km/s) = 3.45748 3.87841 3.67398
# Velocity P-wave (km/s) = 6.99067 7.68482 7.34595
#
# Compressibility (1/GPa) = 0.01355075
#
# Stress axis : x y z
#
# Youngs Moduli (GPa) = 33.84873 101.44216 78.78186
#
# Poissons Ratio (x) = 0.65756 0.91271
# Poissons Ratio (y) = 0.21941 0.09488
# Poissons Ratio (z) = 0.39215 0.12217
#
# Static dielectric constant tensor:
#      x y z
#    x 3.720780 0.000000 0.000000 
#    y 0.000000 4.334890 0.000000 
#    z 0.000000 0.000000 4.316940 
# 
# 
# High freq. dielectric constant tensor:
#      x y z
#    x 1.866520 0.000000 0.000000 
#    y 0.000000 1.899860 0.000000 
#    z 0.000000 0.000000 1.901130 
# 
# From -- ./inp_files/5610.got.cif
#   From: 2010.03.12/outbox.cif.g09.slc.cpg/sg45_3_cif.got.tgz:5610.got - 2010.04.14 02:50:11.
