data_PCOD8191445
_publ_section_title
;
Structure prediction by ZEFSAII (Michael W. Deem and Ramdas Pophale) SiO2 
 PCOD8191445
Probable space group: I M A 2
;
_chemical_formula_sum "Si O2"
_cell_formula_units_Z 56
_cell_length_a 16.920823
_cell_length_b 18.718500
_cell_length_c 9.812816
_cell_angle_alpha 90.000000
_cell_angle_beta 90.000000
_cell_angle_gamma 90.000000
_cell_volume 3108.037011
_symmetry_space_group_name_H-M "I M A 2"
_symmetry_group_IT_number 46
_symmetry_cell_setting 'orthorhombic'
loop_
_space_group_symop_operation_xyz
x,y,z
-x,-y,z
1/2-x,y,z
1/2+x,-y,z
1/2+x,1/2+y,1/2+z
1/2-x,1/2-y,1/2+z
-x,1/2+y,1/2+z
x,1/2-y,1/2+z
loop_
_atom_site_type_symbol
_atom_site_label
_atom_site_fract_x
_atom_site_fract_y
_atom_site_fract_z
Si Si1 0.007511 0.868774 0.713570
Si Si2 0.440655 0.065400 0.230272
Si Si3 0.661947 0.771935 0.499712
Si Si4 0.922927 0.547474 0.433445
Si Si5 0.338289 0.543429 0.225972
Si Si6 0.938882 0.777660 0.233265
Si Si7 0.383662 0.426265 0.021856
O O1 0.951890 0.884597 0.845137
O O2 0.003944 0.782959 0.696027
O O3 0.971749 0.912256 0.584102
O O4 0.098708 0.891908 0.726600
O O5 0.481546 0.144451 0.236173
O O6 0.383467 0.058238 0.359993
O O7 0.500000 0.000000 0.238506
O O8 0.393176 0.064659 0.086420
O O9 0.750000 0.746454 0.459557
O O10 0.601380 0.762521 0.377106
O O11 0.630842 0.722415 0.621746
O O12 0.666146 0.854484 0.549836
O O13 0.852507 0.506584 0.357169
O O14 0.000000 0.500000 0.444774
O O15 0.250000 0.575923 0.234172
O O16 0.344471 0.494987 0.091089
#
# Coordination Sequence:
#
# PCOD8191445 Si02
#       7
#     8   8   8   8   8   8   8
#     4   9  17  32  49  70  98 129 169 206 235 287
#     4  10  18  31  50  74  96 123 160 199 239 288
#     4  10  19  32  48  73 103 128 154 191 238 293
#     4   8  16  30  48  69  96 124 158 199 238 284
#     4  10  18  31  51  74  98 130 165 204 244 280
#     4  10  20  31  48  72  98 131 161 192 240 286
#     4   9  18  31  50  74 101 129 158 195 243 296
#
# _framework density 18.017804000000002
#
# number of rings (size 3 to 8) (size 9 to 14) (size 15 to 20)
#    0.000    2.571    0.000    3.857    0.000    0.000 
#    0.000    9.286    0.000    0.000    0.000   54.000 
#    0.000    0.000    0.000    0.000    0.000    0.000 
#
# Total GULP energy -346942.161679 kJ/mol
# GULP energy per Si atom -12390.791489 kJ/mol
# Density = 1.797679 g / cm^3
# Si number density = 18.017804 Si / 1000 Ang^3
#
#
#
# Elastic Constant Matrix: (Units=GPa)
#
#
# Indices 1 2 3 4 5 6 
#
# 1 96.8972 39.1320 16.2940 0.0000 0.0000 0.0000
# 2 39.1320 103.6542 19.3653 0.0000 0.0000 0.0000
# 3 16.2940 19.3653 118.7971 0.0000 0.0000 0.0000
# 4 0.0000 0.0000 0.0000 21.6073 0.0000 0.0000
# 5 0.0000 0.0000 0.0000 0.0000 11.1239 0.0000
# 6 0.0000 0.0000 0.0000 0.0000 0.0000 13.7370
#
#
#
# Elastic Compliance Matrix: (Units=1/GPa)
#
#
# Indices 1 2 3 4 5 6 
#
# 1 0.012281 -0.004458 -0.000958 0.000000 0.000000 0.000000
# 2 -0.004458 0.011568 -0.001274 0.000000 0.000000 0.000000
# 3 -0.000958 -0.001274 0.008757 0.000000 0.000000 0.000000
# 4 0.000000 0.000000 0.000000 0.046281 0.000000 0.000000
# 5 0.000000 0.000000 0.000000 0.000000 0.089897 0.000000
# 6 0.000000 0.000000 0.000000 0.000000 0.000000 0.072796
#
#
# Mechanical properties :
#
#
# Convention : Reuss Voigt Hill
#
# Bulk Modulus (GPa) = 52.01015 52.10344 52.05680
# Shear Modulus (GPa) = 19.13004 25.59744 22.36374
#
# Velocity S-wave (km/s) = 3.26195 3.77327 3.52689
# Velocity P-wave (km/s) = 6.56626 6.92560 6.74832
#
# Compressibility (1/GPa) = 0.01922702
#
# Stress axis : x y z
#
# Youngs Moduli (GPa) = 81.42330 86.44231 114.19650
#
# Poissons Ratio (x) = 0.38533 0.10938
# Poissons Ratio (y) = 0.36295 0.14553
# Poissons Ratio (z) = 0.07799 0.11016
#
# Static dielectric constant tensor:
#      x y z
#    x 2.893310 0.000000 0.000000 
#    y 0.000000 3.422480 0.000000 
#    z 0.000000 0.000000 3.827470 
# 
# 
# High freq. dielectric constant tensor:
#      x y z
#    x 1.647370 0.000000 0.000000 
#    y 0.000000 1.693820 0.000000 
#    z 0.000000 0.000000 1.715080 
# 
# From -- ./inp_files/6864.got.cif
#   From: 2010.03.12/outbox.cif.g09.slc.cpg/sg46_4_cif.got.tgz:6864.got - 2010.04.14 02:56:35.
