data_PCOD8191366
_publ_section_title
;
Structure prediction by ZEFSAII (Michael W. Deem and Ramdas Pophale) SiO2 
 PCOD8191366
Probable space group: I M A 2
;
_chemical_formula_sum "Si O2"
_cell_formula_units_Z 52
_cell_length_a 9.640643
_cell_length_b 14.840896
_cell_length_c 20.656298
_cell_angle_alpha 90.000000
_cell_angle_beta 90.000000
_cell_angle_gamma 90.000000
_cell_volume 2955.415951
_symmetry_space_group_name_H-M "I M A 2"
_symmetry_group_IT_number 46
_symmetry_cell_setting 'orthorhombic'
loop_
_space_group_symop_operation_xyz
x,y,z
-x,-y,z
1/2-x,y,z
1/2+x,-y,z
1/2+x,1/2+y,1/2+z
1/2-x,1/2-y,1/2+z
-x,1/2+y,1/2+z
x,1/2-y,1/2+z
loop_
_atom_site_type_symbol
_atom_site_label
_atom_site_fract_x
_atom_site_fract_y
_atom_site_fract_z
Si Si1 0.897629 0.158313 0.163000
Si Si2 0.595637 0.722370 0.230940
Si Si3 0.588982 0.584137 0.335264
Si Si4 0.000000 0.500000 0.580470
Si Si5 0.094941 0.140518 0.979704
Si Si6 0.092906 0.783767 0.541260
Si Si7 0.910232 0.586040 0.111944
O O1 0.750000 0.156840 0.199103
O O2 0.912851 0.062159 0.128660
O O3 0.897220 0.235455 0.109575
O O4 0.010570 0.185993 0.216647
O O5 0.750000 0.757694 0.242968
O O6 0.540003 0.672327 0.295381
O O7 0.591388 0.653044 0.172008
O O8 0.500000 0.500000 0.310433
O O9 0.750000 0.564085 0.320185
O O10 0.560986 0.597392 0.410856
O O11 0.093822 0.436885 0.534675
O O12 0.250000 0.182630 0.980825
O O13 0.980101 0.217225 0.990127
O O14 0.250000 0.809255 0.517652
O O15 0.992512 0.870208 0.550690
O O16 0.750000 0.561993 0.092834
O O17 0.000000 0.500000 0.133191
#
# Coordination Sequence:
#
# PCOD8191366 Si02
#       7
#     8   8   8   4   8   8   8
#     4   9  18  30  47  70  96 127 163 203 246 292
#     4   9  19  33  47  67  98 134 169 201 241 290
#     4  10  20  33  49  72 100 134 169 200 241 293
#     4  10  18  30  50  76 102 130 162 204 252 302
#     4  10  19  31  48  71 101 131 161 199 247 300
#     4   9  18  31  46  67  96 126 159 199 246 297
#     4  10  18  29  47  70  96 127 163 203 245 288
#
# _framework density 17.594815000000001
#
# number of rings (size 3 to 8) (size 9 to 14) (size 15 to 20)
#    0.000    2.462    0.769    1.846    0.000    6.769 
#    0.000    0.000    0.000    0.000    2.000    0.000 
#    0.000    0.000    0.000    0.000    0.000    0.000 
#
# Total GULP energy -322203.933742 kJ/mol
# GULP energy per Si atom -12392.458990 kJ/mol
# Density = 1.755477 g / cm^3
# Si number density = 17.594815 Si / 1000 Ang^3
#
#
#
# Elastic Constant Matrix: (Units=GPa)
#
#
# Indices 1 2 3 4 5 6 
#
# 1 121.2896 35.1936 35.3537 0.0000 0.0000 0.0000
# 2 35.1936 51.8693 31.0714 0.0000 0.0000 0.0000
# 3 35.3537 31.0714 57.8045 0.0000 0.0000 0.0000
# 4 0.0000 0.0000 0.0000 22.6083 0.0000 0.0000
# 5 0.0000 0.0000 0.0000 0.0000 19.6106 0.0000
# 6 0.0000 0.0000 0.0000 0.0000 0.0000 21.7806
#
#
#
# Elastic Compliance Matrix: (Units=1/GPa)
#
#
# Indices 1 2 3 4 5 6 
#
# 1 0.010844 -0.004992 -0.003949 0.000000 0.000000 0.000000
# 2 -0.004992 0.030734 -0.013467 0.000000 0.000000 0.000000
# 3 -0.003949 -0.013467 0.026954 0.000000 0.000000 0.000000
# 4 0.000000 0.000000 0.000000 0.044232 0.000000 0.000000
# 5 0.000000 0.000000 0.000000 0.000000 0.050993 0.000000
# 6 0.000000 0.000000 0.000000 0.000000 0.000000 0.045912
#
#
# Mechanical properties :
#
#
# Convention : Reuss Voigt Hill
#
# Bulk Modulus (GPa) = 42.16661 48.24453 45.20557
# Shear Modulus (GPa) = 19.05564 21.42288 20.23926
#
# Velocity S-wave (km/s) = 3.29451 3.49315 3.39528
# Velocity P-wave (km/s) = 6.20396 6.61428 6.41240
#
# Compressibility (1/GPa) = 0.02371545
#
# Stress axis : x y z
#
# Youngs Moduli (GPa) = 92.21361 32.53774 37.10085
#
# Poissons Ratio (x) = 0.16244 0.14651
# Poissons Ratio (y) = 0.46037 0.49962
# Poissons Ratio (z) = 0.36415 0.43817
#
# Static dielectric constant tensor:
#      x y z
#    x 3.626600 0.000000 0.000000 
#    y 0.000000 3.185790 0.000000 
#    z 0.000000 0.000000 3.019600 
# 
# 
# High freq. dielectric constant tensor:
#      x y z
#    x 1.694680 0.000000 0.000000 
#    y 0.000000 1.662180 0.000000 
#    z 0.000000 0.000000 1.643500 
# 
# From -- ./inp_files/20980.got.cif
#   From: 2010.03.12/outbox.cif.g09.slc.cpg/sg46_11_cif.got.tgz:20980.got - 2010.04.14 02:56:35.
