data_PCOD8191403
_publ_section_title
;
Structure prediction by ZEFSAII (Michael W. Deem and Ramdas Pophale) SiO2 
 PCOD8191403
Probable space group: I M A 2
;
_chemical_formula_sum "Si O2"
_cell_formula_units_Z 48
_cell_length_a 8.809127
_cell_length_b 13.786454
_cell_length_c 23.765396
_cell_angle_alpha 90.000000
_cell_angle_beta 90.000000
_cell_angle_gamma 90.000000
_cell_volume 2886.227116
_symmetry_space_group_name_H-M "I M A 2"
_symmetry_group_IT_number 46
_symmetry_cell_setting 'orthorhombic'
loop_
_space_group_symop_operation_xyz
x,y,z
-x,-y,z
1/2-x,y,z
1/2+x,-y,z
1/2+x,1/2+y,1/2+z
1/2-x,1/2-y,1/2+z
-x,1/2+y,1/2+z
x,1/2-y,1/2+z
loop_
_atom_site_type_symbol
_atom_site_label
_atom_site_fract_x
_atom_site_fract_y
_atom_site_fract_z
Si Si1 0.570563 0.104001 0.281550
Si Si2 0.430123 0.291646 0.009437
Si Si3 0.926499 0.706560 0.680507
Si Si4 0.572017 0.898193 0.066807
Si Si5 0.072749 0.399736 0.117549
Si Si6 0.569201 0.603909 0.898032
O O1 0.750000 0.092973 0.287654
O O2 0.529979 0.181077 0.233679
O O3 0.500453 0.143274 0.339930
O O4 0.500000 0.000000 0.265886
O O5 0.250000 0.291662 0.015344
O O6 0.489396 0.183044 0.022919
O O7 0.493273 0.366231 0.056711
O O8 0.482218 0.322933 0.947371
O O9 0.750000 0.694196 0.696154
O O10 0.971198 0.634438 0.629828
O O11 0.963477 0.817052 0.663525
O O12 0.750000 0.909476 0.061072
O O13 0.500000 0.000000 0.050834
O O14 0.250000 0.416858 0.112759
O O15 0.000000 0.500000 0.137537
O O16 0.500000 0.500000 0.912897
O O17 0.750000 0.595670 0.892997
#
# Coordination Sequence:
#
# PCOD8191403 Si02
#       6
#     8   8   8   8   8   8
#     4  11  21  32  47  68  94 121 153 191 230 272
#     4   8  16  30  47  67  93 124 151 180 223 273
#     4   9  18  32  48  67  94 125 154 186 227 272
#     4   9  17  30  47  68  93 120 151 185 224 269
#     4   9  17  30  48  70  96 123 151 186 227 271
#     4  10  18  30  48  68  92 121 152 184 224 271
#
# _framework density 16.630709
#
# number of rings (size 3 to 8) (size 9 to 14) (size 15 to 20)
#    0.000    2.667    0.000    6.000    0.000    2.667 
#    0.000    5.000    0.000    1.000    0.000    2.333 
#    0.000    0.000    0.000    0.000    0.000    0.000 
#
# Total GULP energy -297534.830236 kJ/mol
# GULP energy per Si atom -12397.284593 kJ/mol
# Density = 1.659286 g / cm^3
# Si number density = 16.630709 Si / 1000 Ang^3
#
#
#
# Elastic Constant Matrix: (Units=GPa)
#
#
# Indices 1 2 3 4 5 6 
#
# 1 65.2470 38.6719 49.2231 0.0000 0.0000 0.0000
# 2 38.6719 122.9660 69.9397 0.0000 0.0000 0.0000
# 3 49.2231 69.9397 124.4460 0.0000 0.0000 0.0000
# 4 0.0000 0.0000 0.0000 24.1033 0.0000 0.0000
# 5 0.0000 0.0000 0.0000 0.0000 20.4448 0.0000
# 6 0.0000 0.0000 0.0000 0.0000 0.0000 28.8914
#
#
#
# Elastic Compliance Matrix: (Units=1/GPa)
#
#
# Indices 1 2 3 4 5 6 
#
# 1 0.022559 -0.002968 -0.007255 0.000000 0.000000 0.000000
# 2 -0.002968 0.012344 -0.005763 0.000000 0.000000 0.000000
# 3 -0.007255 -0.005763 0.014144 0.000000 0.000000 0.000000
# 4 0.000000 0.000000 0.000000 0.041488 0.000000 0.000000
# 5 0.000000 0.000000 0.000000 0.000000 0.048912 0.000000
# 6 0.000000 0.000000 0.000000 0.000000 0.000000 0.034612
#
#
# Mechanical properties :
#
#
# Convention : Reuss Voigt Hill
#
# Bulk Modulus (GPa) = 58.56775 69.81426 64.19100
# Shear Modulus (GPa) = 23.61577 25.00951 24.31264
#
# Velocity S-wave (km/s) = 3.77239 3.88211 3.82764
# Velocity P-wave (km/s) = 7.36666 7.88446 7.62995
#
# Compressibility (1/GPa) = 0.01707424
#
# Stress axis : x y z
#
# Youngs Moduli (GPa) = 44.32891 81.01218 70.70106
#
# Poissons Ratio (x) = 0.24047 0.51291
# Poissons Ratio (y) = 0.13158 0.40747
# Poissons Ratio (z) = 0.32159 0.46689
#
# Static dielectric constant tensor:
#      x y z
#    x 2.948160 0.000000 0.000000 
#    y 0.000000 3.614100 0.000000 
#    z 0.000000 0.000000 3.189960 
# 
# 
# High freq. dielectric constant tensor:
#      x y z
#    x 1.630190 0.000000 0.000000 
#    y 0.000000 1.631990 0.000000 
#    z 0.000000 0.000000 1.634140 
# 
# From -- ./inp_files/22911.got.cif
#   From: 2010.03.12/outbox.cif.g09.slc.cpg/sg46_12_cif.got.tgz:22911.got - 2010.04.14 02:56:35.
