data_PCOD8191718
_publ_section_title
;
Structure prediction by ZEFSAII (Michael W. Deem and Ramdas Pophale) SiO2 
 PCOD8191718
Probable space group: I M A 2
;
_chemical_formula_sum "Si O2"
_cell_formula_units_Z 48
_cell_length_a 8.952179
_cell_length_b 13.587061
_cell_length_c 23.717532
_cell_angle_alpha 90.000000
_cell_angle_beta 90.000000
_cell_angle_gamma 90.000000
_cell_volume 2884.853595
_symmetry_space_group_name_H-M "I M A 2"
_symmetry_group_IT_number 46
_symmetry_cell_setting 'orthorhombic'
loop_
_space_group_symop_operation_xyz
x,y,z
-x,-y,z
1/2-x,y,z
1/2+x,-y,z
1/2+x,1/2+y,1/2+z
1/2-x,1/2-y,1/2+z
-x,1/2+y,1/2+z
x,1/2-y,1/2+z
loop_
_atom_site_type_symbol
_atom_site_label
_atom_site_fract_x
_atom_site_fract_y
_atom_site_fract_z
Si Si1 0.423849 0.599697 0.940220
Si Si2 0.076853 0.399885 0.730021
Si Si3 0.574486 0.599539 0.401126
Si Si4 0.422836 0.295908 0.840609
Si Si5 0.427258 0.104087 0.103300
Si Si6 0.425645 0.796621 0.003546
O O1 0.500000 0.500000 0.962064
O O2 0.250000 0.580298 0.934473
O O3 0.483467 0.629669 0.878873
O O4 0.460202 0.684985 0.985234
O O5 0.250000 0.423812 0.729885
O O6 0.036662 0.314649 0.775044
O O7 0.027690 0.366951 0.667352
O O8 0.000000 0.500000 0.749412
O O9 0.500000 0.500000 0.378063
O O10 0.750000 0.584716 0.410181
O O11 0.538328 0.683007 0.354748
O O12 0.500611 0.627194 0.460503
O O13 0.250000 0.317822 0.853263
O O14 0.250000 0.098832 0.094292
O O15 0.500000 0.000000 0.086830
O O16 0.499198 0.188159 0.064341
O O17 0.250000 0.818094 0.005824
#
# Coordination Sequence:
#
# PCOD8191718 Si02
#       6
#     8   8   8   8   8   8
#     4  10  20  32  48  70  95 122 152 188 228 272
#     4   9  18  31  47  69  94 121 152 186 226 271
#     4  10  19  31  48  69  94 123 154 189 229 273
#     4   9  18  32  49  69  94 123 154 188 227 271
#     4  10  19  31  48  69  94 123 154 189 229 272
#     4  10  20  33  48  68  94 122 154 190 228 271
#
# _framework density 16.638625999999999
#
# number of rings (size 3 to 8) (size 9 to 14) (size 15 to 20)
#    0.000    2.333    0.000    3.000    0.000    5.333 
#    0.000    0.000    0.000    1.000    0.000    4.667 
#    0.000    0.000    0.000    0.000    0.000    0.000 
#
# Total GULP energy -297632.896345 kJ/mol
# GULP energy per Si atom -12401.370681 kJ/mol
# Density = 1.660076 g / cm^3
# Si number density = 16.638626 Si / 1000 Ang^3
#
#
#
# Elastic Constant Matrix: (Units=GPa)
#
#
# Indices 1 2 3 4 5 6 
#
# 1 82.6551 53.5769 48.7097 0.0000 0.0000 0.0000
# 2 53.5769 111.9399 63.7838 0.0000 0.0000 0.0000
# 3 48.7097 63.7838 117.3205 0.0000 0.0000 0.0000
# 4 0.0000 0.0000 0.0000 23.6446 0.0000 0.0000
# 5 0.0000 0.0000 0.0000 0.0000 22.3845 0.0000
# 6 0.0000 0.0000 0.0000 0.0000 0.0000 30.2711
#
#
#
# Elastic Compliance Matrix: (Units=1/GPa)
#
#
# Indices 1 2 3 4 5 6 
#
# 1 0.018893 -0.006625 -0.004242 0.000000 0.000000 0.000000
# 2 -0.006625 0.015266 -0.005549 0.000000 0.000000 0.000000
# 3 -0.004242 -0.005549 0.013302 0.000000 0.000000 0.000000
# 4 0.000000 0.000000 0.000000 0.042293 0.000000 0.000000
# 5 0.000000 0.000000 0.000000 0.000000 0.044674 0.000000
# 6 0.000000 0.000000 0.000000 0.000000 0.000000 0.033035
#
#
# Mechanical properties :
#
#
# Convention : Reuss Voigt Hill
#
# Bulk Modulus (GPa) = 68.36227 71.56183 69.96205
# Shear Modulus (GPa) = 24.36984 24.98304 24.67644
#
# Velocity S-wave (km/s) = 3.83123 3.87913 3.85526
# Velocity P-wave (km/s) = 7.79402 7.94773 7.87125
#
# Compressibility (1/GPa) = 0.01462795
#
# Stress axis : x y z
#
# Youngs Moduli (GPa) = 52.92980 65.50351 75.17811
#
# Poissons Ratio (x) = 0.43399 0.31890
# Poissons Ratio (y) = 0.35069 0.41717
# Poissons Ratio (z) = 0.22453 0.36348
#
# Static dielectric constant tensor:
#      x y z
#    x 3.229580 0.000000 0.000000 
#    y 0.000000 3.129080 0.000000 
#    z 0.000000 0.000000 3.201660 
# 
# 
# High freq. dielectric constant tensor:
#      x y z
#    x 1.655240 0.000000 0.000000 
#    y 0.000000 1.629150 0.000000 
#    z 0.000000 0.000000 1.631070 
# 
# From -- ./inp_files/20907.got.cif
#   From: 2010.03.12/outbox.cif.g09.slc.cpg/sg46_11_cif.got.tgz:20907.got - 2010.04.14 02:56:35.
