data_PCOD8191316
_publ_section_title
;
Structure prediction by ZEFSAII (Michael W. Deem and Ramdas Pophale) SiO2 
 PCOD8191316
Probable space group: I M A 2
;
_chemical_formula_sum "Si O2"
_cell_formula_units_Z 56
_cell_length_a 8.480568
_cell_length_b 18.560383
_cell_length_c 20.950228
_cell_angle_alpha 90.000000
_cell_angle_beta 90.000000
_cell_angle_gamma 90.000000
_cell_volume 3297.620151
_symmetry_space_group_name_H-M "I M A 2"
_symmetry_group_IT_number 46
_symmetry_cell_setting 'orthorhombic'
loop_
_space_group_symop_operation_xyz
x,y,z
-x,-y,z
1/2-x,y,z
1/2+x,-y,z
1/2+x,1/2+y,1/2+z
1/2-x,1/2-y,1/2+z
-x,1/2+y,1/2+z
x,1/2-y,1/2+z
loop_
_atom_site_type_symbol
_atom_site_label
_atom_site_fract_x
_atom_site_fract_y
_atom_site_fract_z
Si Si1 0.061705 0.146198 0.531200
Si Si2 0.430828 0.648227 0.781442
Si Si3 0.438319 0.422227 0.654788
Si Si4 0.430890 0.784392 0.706389
Si Si5 0.430005 0.213748 0.087904
Si Si6 0.063705 0.421746 0.164547
Si Si7 0.065838 0.421871 0.902211
O O1 0.250000 0.149091 0.528997
O O2 0.995975 0.229805 0.536275
O O3 0.008105 0.100152 0.592885
O O4 0.990499 0.109600 0.467745
O O5 0.250000 0.626633 0.792834
O O6 0.492721 0.599946 0.723105
O O7 0.449347 0.734120 0.768943
O O8 0.528671 0.631873 0.844733
O O9 0.500000 0.500000 0.634352
O O10 0.250000 0.420860 0.659185
O O11 0.502323 0.366395 0.599420
O O12 0.250000 0.779772 0.681938
O O13 0.554491 0.754217 0.655224
O O14 0.483335 0.867382 0.716420
O O15 0.250000 0.202536 0.069770
O O16 0.250000 0.419673 0.172278
O O17 0.000000 0.500000 0.181061
O O18 0.250000 0.428602 0.911542
O O19 0.000000 0.500000 0.886228
#
# Coordination Sequence:
#
# PCOD8191316 Si02
#       7
#     8   8   8   8   8   8   8
#     4   8  16  30  46  64  87 117 150 183 216 256
#     4  10  20  33  46  62  88 119 152 186 219 258
#     4  10  18  28  45  67  91 117 145 180 222 266
#     4   9  17  29  45  64  86 113 145 183 224 264
#     4   8  15  29  46  63  85 114 146 180 220 265
#     4  10  18  29  46  68  94 119 146 180 220 264
#     4  11  21  32  46  64  89 119 152 184 215 255
#
# _framework density 16.981943999999999
#
# number of rings (size 3 to 8) (size 9 to 14) (size 15 to 20)
#    0.000    2.571    0.000    3.857    0.000    2.286 
#    0.000    6.429    0.000    0.000    0.000    1.000 
#    0.000    4.571    0.000    0.000    0.000    0.000 
#
# Total GULP energy -346868.973042 kJ/mol
# GULP energy per Si atom -12388.177609 kJ/mol
# Density = 1.694329 g / cm^3
# Si number density = 16.981944 Si / 1000 Ang^3
#
#
#
# Elastic Constant Matrix: (Units=GPa)
#
#
# Indices 1 2 3 4 5 6 
#
# 1 37.6494 22.5088 14.5999 0.0000 0.0000 0.0000
# 2 22.5088 151.6383 44.3985 0.0000 0.0000 0.0000
# 3 14.5999 44.3985 55.4222 0.0000 0.0000 0.0000
# 4 0.0000 0.0000 0.0000 23.1114 0.0000 0.0000
# 5 0.0000 0.0000 0.0000 0.0000 12.1116 0.0000
# 6 0.0000 0.0000 0.0000 0.0000 0.0000 23.4042
#
#
#
# Elastic Compliance Matrix: (Units=1/GPa)
#
#
# Indices 1 2 3 4 5 6 
#
# 1 0.030491 -0.002841 -0.005757 0.000000 0.000000 0.000000
# 2 -0.002841 0.008880 -0.006365 0.000000 0.000000 0.000000
# 3 -0.005757 -0.006365 0.024659 0.000000 0.000000 0.000000
# 4 0.000000 0.000000 0.000000 0.043269 0.000000 0.000000
# 5 0.000000 0.000000 0.000000 0.000000 0.082566 0.000000
# 6 0.000000 0.000000 0.000000 0.000000 0.000000 0.042727
#
#
# Mechanical properties :
#
#
# Convention : Reuss Voigt Hill
#
# Bulk Modulus (GPa) = 29.32119 45.30269 37.31194
# Shear Modulus (GPa) = 18.25573 22.60561 20.43067
#
# Velocity S-wave (km/s) = 3.28229 3.65246 3.47231
# Velocity P-wave (km/s) = 5.62745 6.67249 6.17213
#
# Compressibility (1/GPa) = 0.03410502
#
# Stress axis : x y z
#
# Youngs Moduli (GPa) = 32.79603 112.61210 40.55280
#
# Poissons Ratio (x) = 0.31988 0.23346
# Poissons Ratio (y) = 0.09316 0.25814
# Poissons Ratio (z) = 0.18880 0.71683
#
# Static dielectric constant tensor:
#      x y z
#    x 3.112890 0.000000 0.000000 
#    y 0.000000 3.652350 0.000000 
#    z 0.000000 0.000000 2.993200 
# 
# 
# High freq. dielectric constant tensor:
#      x y z
#    x 1.652520 0.000000 0.000000 
#    y 0.000000 1.669060 0.000000 
#    z 0.000000 0.000000 1.604330 
# 
# From -- ./inp_files/21217.got.cif
#   From: 2010.03.12/outbox.cif.g09.slc.cpg/sg46_11_cif.got.tgz:21217.got - 2010.04.14 02:56:35.
