data_PCOD8191146
_publ_section_title
;
Structure prediction by ZEFSAII (Michael W. Deem and Ramdas Pophale) SiO2 
 PCOD8191146
Probable space group: I M A 2
;
_chemical_formula_sum "Si O2"
_cell_formula_units_Z 44
_cell_length_a 22.291735
_cell_length_b 23.314555
_cell_length_c 4.878585
_cell_angle_alpha 90.000000
_cell_angle_beta 90.000000
_cell_angle_gamma 90.000000
_cell_volume 2535.507376
_symmetry_space_group_name_H-M "I M A 2"
_symmetry_group_IT_number 46
_symmetry_cell_setting 'orthorhombic'
loop_
_space_group_symop_operation_xyz
x,y,z
-x,-y,z
1/2-x,y,z
1/2+x,-y,z
1/2+x,1/2+y,1/2+z
1/2-x,1/2-y,1/2+z
-x,1/2+y,1/2+z
x,1/2-y,1/2+z
loop_
_atom_site_type_symbol
_atom_site_label
_atom_site_fract_x
_atom_site_fract_y
_atom_site_fract_z
Si Si1 0.750000 0.710523 0.168430
Si Si2 0.062520 0.532629 0.311870
Si Si3 0.097886 0.075411 0.067758
Si Si4 0.869263 0.643026 0.043045
Si Si5 0.531448 0.403197 0.792741
Si Si6 0.482989 0.212002 0.462338
O O1 0.750000 0.733575 0.477321
O O2 0.807409 0.671307 0.125499
O O3 0.111800 0.486678 0.425754
O O4 0.065544 0.589321 0.504001
O O5 0.000000 0.500000 0.350699
O O6 0.067551 0.554778 0.002020
O O7 0.145025 0.095272 0.304357
O O8 0.036668 0.075798 0.246113
O O9 0.097348 0.119248 0.813354
O O10 0.914983 0.689752 0.915666
O O11 0.531398 0.337903 0.897548
O O12 0.493602 0.266929 0.270452
#
# Coordination Sequence:
#
# PCOD8191146 Si02
#       6
#     4   8   8   8   8   8
#     4  12  24  38  52  66  86 120 162 212 254 286
#     4  10  16  27  43  62  83 103 128 169 222 270
#     4  10  19  31  47  65  85 107 136 185 237 280
#     4  11  21  34  47  64  83 111 154 197 242 281
#     4  10  18  27  41  62  83 107 137 170 214 265
#     4  11  19  29  41  57  82 113 145 182 217 254
#
# _framework density 17.353527
#
# number of rings (size 3 to 8) (size 9 to 14) (size 15 to 20)
#    0.000    1.455    0.000   12.545    0.000    0.000 
#    0.000    0.000    0.000    0.000    0.000    0.000 
#    0.000    0.000    0.000    0.000    0.000    0.000 
#
# Total GULP energy -272564.421089 kJ/mol
# GULP energy per Si atom -12389.291868 kJ/mol
# Density = 1.731403 g / cm^3
# Si number density = 17.353527 Si / 1000 Ang^3
#
#
#
# Elastic Constant Matrix: (Units=GPa)
#
#
# Indices 1 2 3 4 5 6 
#
# 1 16.3966 20.8620 10.3801 0.0000 0.0000 0.0000
# 2 20.8620 72.1444 22.9370 0.0000 0.0000 0.0000
# 3 10.3801 22.9370 98.8387 0.0000 0.0000 0.0000
# 4 0.0000 0.0000 0.0000 45.8492 0.0000 0.0000
# 5 0.0000 0.0000 0.0000 0.0000 9.9601 0.0000
# 6 0.0000 0.0000 0.0000 0.0000 0.0000 18.7045
#
#
#
# Elastic Compliance Matrix: (Units=1/GPa)
#
#
# Indices 1 2 3 4 5 6 
#
# 1 0.097938 -0.027046 -0.004009 0.000000 0.000000 0.000000
# 2 -0.027046 0.022434 -0.002366 0.000000 0.000000 0.000000
# 3 -0.004009 -0.002366 0.011088 0.000000 0.000000 0.000000
# 4 0.000000 0.000000 0.000000 0.021811 0.000000 0.000000
# 5 0.000000 0.000000 0.000000 0.000000 0.100400 0.000000
# 6 0.000000 0.000000 0.000000 0.000000 0.000000 0.053463
#
#
# Mechanical properties :
#
#
# Convention : Reuss Voigt Hill
#
# Bulk Modulus (GPa) = 15.47561 32.85975 24.16768
# Shear Modulus (GPa) = 12.64174 23.78280 18.21227
#
# Velocity S-wave (km/s) = 2.70197 3.70603 3.24309
# Velocity P-wave (km/s) = 4.32104 6.10651 5.28965
#
# Compressibility (1/GPa) = 0.06461781
#
# Stress axis : x y z
#
# Youngs Moduli (GPa) = 10.21054 44.57489 90.19129
#
# Poissons Ratio (x) = 1.20558 0.36158
# Poissons Ratio (y) = 0.27616 0.21337
# Poissons Ratio (z) = 0.04093 0.10545
#
# Static dielectric constant tensor:
#      x y z
#    x 2.662330 0.000000 0.000000 
#    y 0.000000 3.604250 0.000000 
#    z 0.000000 0.000000 3.613080 
# 
# 
# High freq. dielectric constant tensor:
#      x y z
#    x 1.568320 0.000000 0.000000 
#    y 0.000000 1.675720 0.000000 
#    z 0.000000 0.000000 1.707060 
# 
# From -- ./inp_files/2030.got.cif
#   From: 2010.03.12/outbox.cif.g09.slc.cpg/sg46_2_cif.got.tgz:2030.got - 2010.04.14 02:56:35.
