data_PCOD8191501
_publ_section_title
;
Structure prediction by ZEFSAII (Michael W. Deem and Ramdas Pophale) SiO2 
 PCOD8191501
Probable space group: I M A 2
;
_chemical_formula_sum "Si O2"
_cell_formula_units_Z 64
_cell_length_a 9.026462
_cell_length_b 24.829027
_cell_length_c 15.093572
_cell_angle_alpha 90.000000
_cell_angle_beta 90.000000
_cell_angle_gamma 90.000000
_cell_volume 3382.745225
_symmetry_space_group_name_H-M "I M A 2"
_symmetry_group_IT_number 46
_symmetry_cell_setting 'orthorhombic'
loop_
_space_group_symop_operation_xyz
x,y,z
-x,-y,z
1/2-x,y,z
1/2+x,-y,z
1/2+x,1/2+y,1/2+z
1/2-x,1/2-y,1/2+z
-x,1/2+y,1/2+z
x,1/2-y,1/2+z
loop_
_atom_site_type_symbol
_atom_site_label
_atom_site_fract_x
_atom_site_fract_y
_atom_site_fract_z
Si Si1 0.424086 0.722655 0.527990
Si Si2 0.418493 0.366509 0.246102
Si Si3 0.425607 0.604901 0.563566
Si Si4 0.417086 0.262383 0.350489
Si Si5 0.574374 0.056430 0.879200
Si Si6 0.925603 0.444209 0.746379
Si Si7 0.079508 0.357879 0.864090
Si Si8 0.421755 0.170642 0.560896
O O1 0.250000 0.728432 0.535316
O O2 0.479714 0.666681 0.571680
O O3 0.467984 0.720334 0.425321
O O4 0.495059 0.773170 0.577636
O O5 0.250000 0.385819 0.264426
O O6 0.436479 0.303249 0.269395
O O7 0.530727 0.402466 0.301661
O O8 0.458150 0.370333 0.141505
O O9 0.250000 0.603424 0.559624
O O10 0.487564 0.577681 0.473649
O O11 0.484528 0.572568 0.648868
O O12 0.250000 0.265045 0.389937
O O13 0.447795 0.200910 0.320221
O O14 0.750000 0.049990 0.879813
O O15 0.500000 0.000000 0.857037
O O16 0.750000 0.450432 0.747954
O O17 0.000000 0.500000 0.773858
O O18 0.971765 0.399675 0.817354
O O19 0.250000 0.376178 0.852962
O O20 0.032841 0.356363 0.967817
O O21 0.250000 0.185419 0.559821
#
# Coordination Sequence:
#
# PCOD8191501 Si02
#       8
#     8   8   8   8   8   8   8   8
#     4  10  18  32  53  81 116 151 186 223 273 332
#     4  10  20  36  58  85 115 151 191 232 280 335
#     4   9  20  36  54  81 116 149 183 227 279 336
#     4   9  18  33  54  82 115 147 184 225 274 334
#     4  11  22  39  59  82 115 152 191 235 283 336
#     4  11  23  40  59  81 109 145 191 238 284 336
#     4   9  19  37  57  82 113 146 184 233 284 332
#     4   9  20  37  57  82 117 152 187 232 279 334
#
# _framework density 18.919543999999998
#
# number of rings (size 3 to 8) (size 9 to 14) (size 15 to 20)
#    0.000    2.250    1.250    2.250    1.750    2.500 
#    0.000    4.375    0.000    0.000    0.000    0.000 
#    0.000    0.000    0.000    0.000    0.000    0.000 
#
# Total GULP energy -396775.562684 kJ/mol
# GULP energy per Si atom -12399.236334 kJ/mol
# Density = 1.887648 g / cm^3
# Si number density = 18.919544 Si / 1000 Ang^3
#
#
#
# Elastic Constant Matrix: (Units=GPa)
#
#
# Indices 1 2 3 4 5 6 
#
# 1 64.7514 46.6112 34.6031 0.0000 0.0000 0.0000
# 2 46.6112 123.1577 58.0194 0.0000 0.0000 0.0000
# 3 34.6031 58.0194 104.4018 0.0001 0.0000 0.0000
# 4 0.0000 0.0000 0.0001 25.2737 0.0000 0.0000
# 5 0.0000 0.0000 0.0000 0.0000 26.4216 0.0000
# 6 0.0000 0.0000 0.0000 0.0000 0.0000 30.4388
#
#
#
# Elastic Compliance Matrix: (Units=1/GPa)
#
#
# Indices 1 2 3 4 5 6 
#
# 1 0.022204 -0.006687 -0.003643 0.000000 0.000000 0.000000
# 2 -0.006687 0.013013 -0.005015 0.000000 0.000000 0.000000
# 3 -0.003643 -0.005015 0.013573 0.000000 0.000000 0.000000
# 4 0.000000 0.000000 0.000000 0.039567 0.000000 0.000000
# 5 0.000000 0.000000 0.000000 0.000000 0.037848 0.000000
# 6 0.000000 0.000000 0.000000 0.000000 0.000000 0.032853
#
#
# Mechanical properties :
#
#
# Convention : Reuss Voigt Hill
#
# Bulk Modulus (GPa) = 55.25153 63.41981 59.33567
# Shear Modulus (GPa) = 25.53842 26.63196 26.08519
#
# Velocity S-wave (km/s) = 3.67801 3.75593 3.71717
# Velocity P-wave (km/s) = 6.87778 7.23898 7.06069
#
# Compressibility (1/GPa) = 0.01809905
#
# Stress axis : x y z
#
# Youngs Moduli (GPa) = 45.03605 76.84371 73.67509
#
# Poissons Ratio (x) = 0.51389 0.26840
# Poissons Ratio (y) = 0.30117 0.36952
# Poissons Ratio (z) = 0.16407 0.38541
#
# Static dielectric constant tensor:
#      x y z
#    x 3.299880 0.000000 0.000000 
#    y 0.000000 3.421240 0.000000 
#    z 0.000000 0.000000 3.546930 
# 
# 
# High freq. dielectric constant tensor:
#      x y z
#    x 1.724150 0.000000 0.000000 
#    y 0.000000 1.730990 0.000000 
#    z 0.000000 0.000000 1.731640 
# 
# From -- ./inp_files/14492.got.cif
#   From: 2010.03.12/outbox.cif.g09.slc.cpg/sg46_8_cif.got.tgz:14492.got - 2010.04.14 02:56:35.
