data_PCOD8191203
_publ_section_title
;
Structure prediction by ZEFSAII (Michael W. Deem and Ramdas Pophale) SiO2 
 PCOD8191203
Probable space group: I M A 2
;
_chemical_formula_sum "Si O2"
_cell_formula_units_Z 56
_cell_length_a 24.454751
_cell_length_b 15.240793
_cell_length_c 9.442471
_cell_angle_alpha 90.000000
_cell_angle_beta 90.000000
_cell_angle_gamma 90.000000
_cell_volume 3519.301458
_symmetry_space_group_name_H-M "I M A 2"
_symmetry_group_IT_number 46
_symmetry_cell_setting 'orthorhombic'
loop_
_space_group_symop_operation_xyz
x,y,z
-x,-y,z
1/2-x,y,z
1/2+x,-y,z
1/2+x,1/2+y,1/2+z
1/2-x,1/2-y,1/2+z
-x,1/2+y,1/2+z
x,1/2-y,1/2+z
loop_
_atom_site_type_symbol
_atom_site_label
_atom_site_fract_x
_atom_site_fract_y
_atom_site_fract_z
Si Si1 0.966048 0.235681 0.911190
Si Si2 0.002565 0.355391 0.669100
Si Si3 0.110644 0.607177 0.985000
Si Si4 0.086414 0.504064 0.725280
Si Si5 0.810310 0.198701 0.282562
Si Si6 0.187571 0.945285 0.057794
Si Si7 0.872227 0.374784 0.294386
O O1 0.931159 0.311203 0.989111
O O2 0.929888 0.152590 0.861398
O O3 0.999462 0.278867 0.784572
O O4 0.009513 0.193847 0.019841
O O5 0.055338 0.413532 0.701301
O O6 0.946929 0.412944 0.662067
O O7 0.089873 0.523246 0.894085
O O8 0.165635 0.639364 0.907850
O O9 0.120273 0.573608 0.145422
O O10 0.145574 0.494526 0.648774
O O11 0.750000 0.223611 0.332130
O O12 0.811116 0.149246 0.132232
O O13 0.843013 0.285530 0.251298
O O14 0.250000 0.984336 0.053838
O O15 0.164073 0.934461 0.899047
#
# Coordination Sequence:
#
# PCOD8191203 Si02
#       7
#     8   8   8   8   8   8   8
#     4  10  17  29  47  71  88 126 156 201 239 279
#     4  10  18  32  53  69  97 125 163 197 248 290
#     4   9  18  28  43  63  95 127 161 198 230 271
#     4   9  19  34  48  67  95 135 160 193 240 296
#     4   9  17  26  38  60  91 130 169 193 220 266
#     4  10  19  30  44  66  96 131 166 194 233 287
#     4  11  17  25  41  65  95 124 159 197 231 266
#
# _framework density 15.91225
#
# number of rings (size 3 to 8) (size 9 to 14) (size 15 to 20)
#    0.000    2.286    2.857    3.000    0.000    2.286 
#    0.000    1.429    3.143    0.000    0.000    1.000 
#    0.000    0.000    0.000    0.000    0.000    0.000 
#
# Total GULP energy -347061.471652 kJ/mol
# GULP energy per Si atom -12395.052559 kJ/mol
# Density = 1.587603 g / cm^3
# Si number density = 15.912250 Si / 1000 Ang^3
#
#
#
# Elastic Constant Matrix: (Units=GPa)
#
#
# Indices 1 2 3 4 5 6 
#
# 1 84.7260 33.9513 47.7140 0.0000 0.0000 0.0000
# 2 33.9513 37.4306 35.9639 0.0000 0.0000 0.0000
# 3 47.7140 35.9639 126.0374 0.0000 0.0000 0.0000
# 4 0.0000 0.0000 0.0000 9.1166 0.0000 0.0000
# 5 0.0000 0.0000 0.0000 0.0000 19.2209 0.0000
# 6 0.0000 0.0000 0.0000 0.0000 0.0000 17.7624
#
#
#
# Elastic Compliance Matrix: (Units=1/GPa)
#
#
# Indices 1 2 3 4 5 6 
#
# 1 0.019440 -0.014551 -0.003207 0.000000 0.000000 0.000000
# 2 -0.014551 0.047699 -0.008102 0.000000 0.000000 0.000000
# 3 -0.003207 -0.008102 0.011460 0.000000 0.000000 0.000000
# 4 0.000000 0.000000 0.000000 0.109690 0.000000 0.000000
# 5 0.000000 0.000000 0.000000 0.000000 0.052027 0.000000
# 6 0.000000 0.000000 0.000000 0.000000 0.000000 0.056299
#
#
# Mechanical properties :
#
#
# Convention : Reuss Voigt Hill
#
# Bulk Modulus (GPa) = 37.20472 53.71692 45.46082
# Shear Modulus (GPa) = 13.99401 17.92429 15.95915
#
# Velocity S-wave (km/s) = 2.96877 3.35990 3.17037
# Velocity P-wave (km/s) = 5.93156 6.99167 6.48332
#
# Compressibility (1/GPa) = 0.02687831
#
# Stress axis : x y z
#
# Youngs Moduli (GPa) = 51.44045 20.96464 87.25883
#
# Poissons Ratio (x) = 0.30506 0.27986
# Poissons Ratio (y) = 0.74853 0.70697
# Poissons Ratio (z) = 0.16498 0.16985
#
# Static dielectric constant tensor:
#      x y z
#    x 3.016870 0.000000 0.000000 
#    y 0.000000 2.550930 0.000000 
#    z 0.000000 0.000000 3.092000 
# 
# 
# High freq. dielectric constant tensor:
#      x y z
#    x 1.596090 0.000000 0.000000 
#    y 0.000000 1.549980 0.000000 
#    z 0.000000 0.000000 1.625480 
# 
# From -- ./inp_files/7990.got.cif
#   From: 2010.03.12/outbox.cif.g09.slc.cpg/sg46_4_cif.got.tgz:7990.got - 2010.04.14 02:56:35.
