data_PCOD8191508
_publ_section_title
;
Structure prediction by ZEFSAII (Michael W. Deem and Ramdas Pophale) SiO2 
 PCOD8191508
Probable space group: I M A 2
;
_chemical_formula_sum "Si O2"
_cell_formula_units_Z 64
_cell_length_a 15.784641
_cell_length_b 9.212116
_cell_length_c 21.925267
_cell_angle_alpha 90.000000
_cell_angle_beta 90.000000
_cell_angle_gamma 90.000000
_cell_volume 3188.151845
_symmetry_space_group_name_H-M "I M A 2"
_symmetry_group_IT_number 46
_symmetry_cell_setting 'orthorhombic'
loop_
_space_group_symop_operation_xyz
x,y,z
-x,-y,z
1/2-x,y,z
1/2+x,-y,z
1/2+x,1/2+y,1/2+z
1/2-x,1/2-y,1/2+z
-x,1/2+y,1/2+z
x,1/2-y,1/2+z
loop_
_atom_site_type_symbol
_atom_site_label
_atom_site_fract_x
_atom_site_fract_y
_atom_site_fract_z
Si Si1 0.652326 0.422272 0.677610
Si Si2 0.345067 0.136745 0.286169
Si Si3 0.154058 0.803305 0.773468
Si Si4 0.090501 0.426961 0.326977
Si Si5 0.914592 0.424291 0.545239
Si Si6 0.345942 0.353063 0.459093
Si Si7 0.922539 0.088458 0.358049
Si Si8 0.008543 0.657232 0.989228
O O1 0.750000 0.426644 0.658526
O O2 0.629890 0.551750 0.724305
O O3 0.629188 0.266273 0.708146
O O4 0.598624 0.441939 0.616933
O O5 0.250000 0.200366 0.281797
O O6 0.411952 0.267098 0.296981
O O7 0.345464 0.023284 0.343455
O O8 0.250000 0.756196 0.787359
O O9 0.093238 0.741837 0.826298
O O10 0.142916 0.976155 0.777835
O O11 0.136167 0.416597 0.392142
O O12 0.000000 0.500000 0.336411
O O13 0.844498 0.509748 0.505737
O O14 0.926723 0.254997 0.528443
O O15 0.000000 0.500000 0.524545
O O16 0.250000 0.287231 0.460674
O O17 0.416172 0.230492 0.476962
O O18 0.940720 0.121695 0.427693
O O19 0.000000 0.000000 0.327043
O O20 0.000000 0.500000 0.022734
#
# Coordination Sequence:
#
# PCOD8191508 Si02
#       8
#     8   8   8   8   8   8   8   8
#     4   9  20  39  58  79 108 145 192 236 275 330
#     4  10  21  37  58  82 113 154 194 232 281 343
#     4  10  20  34  53  79 112 143 179 229 277 325
#     4  12  22  34  54  85 118 145 182 233 289 340
#     4  10  21  38  61  83 109 149 195 236 280 338
#     4  11  22  38  60  85 116 154 194 234 284 347
#     4  10  18  32  54  79 110 145 179 223 276 334
#     4  10  21  38  58  84 118 149 184 239 293 341
#
# _framework density 20.074327
#
# number of rings (size 3 to 8) (size 9 to 14) (size 15 to 20)
#    0.000    1.750    0.000    7.500    0.000    3.000 
#    0.000    8.750    0.000    1.500    0.000    0.000 
#    0.000    0.000    0.000    0.000    0.000    0.000 
#
# Total GULP energy -396509.760848 kJ/mol
# GULP energy per Si atom -12390.930026 kJ/mol
# Density = 2.002864 g / cm^3
# Si number density = 20.074327 Si / 1000 Ang^3
#
#
#
# Elastic Constant Matrix: (Units=GPa)
#
#
# Indices 1 2 3 4 5 6 
#
# 1 73.2871 30.5248 31.7721 0.0000 0.0000 0.0000
# 2 30.5248 137.3856 53.7548 0.0000 0.0000 0.0000
# 3 31.7721 53.7548 105.2247 0.0000 0.0000 0.0000
# 4 0.0000 0.0000 0.0000 22.3582 0.0000 0.0000
# 5 0.0000 0.0000 0.0000 0.0000 23.4573 0.0000
# 6 0.0000 0.0000 0.0000 0.0000 0.0000 33.7241
#
#
#
# Elastic Compliance Matrix: (Units=1/GPa)
#
#
# Indices 1 2 3 4 5 6 
#
# 1 0.016172 -0.002103 -0.003809 0.000000 0.000000 0.000000
# 2 -0.002103 0.009371 -0.004152 0.000000 0.000000 0.000000
# 3 -0.003809 -0.004152 0.012775 0.000000 0.000000 0.000000
# 4 0.000000 0.000000 0.000000 0.044726 0.000000 0.000000
# 5 0.000000 0.000000 0.000000 0.000000 0.042631 0.000000
# 6 0.000000 0.000000 0.000000 0.000000 0.000000 0.029652
#
#
# Mechanical properties :
#
#
# Convention : Reuss Voigt Hill
#
# Bulk Modulus (GPa) = 54.97600 60.88898 57.93249
# Shear Modulus (GPa) = 27.54554 29.23095 28.38825
#
# Velocity S-wave (km/s) = 3.70831 3.82007 3.76461
# Velocity P-wave (km/s) = 6.76617 7.06080 6.91506
#
# Compressibility (1/GPa) = 0.01818976
#
# Stress axis : x y z
#
# Youngs Moduli (GPa) = 61.83502 106.71677 78.28005
#
# Poissons Ratio (x) = 0.22441 0.29815
# Poissons Ratio (y) = 0.13003 0.32503
# Poissons Ratio (z) = 0.23552 0.44310
#
# Static dielectric constant tensor:
#      x y z
#    x 3.719830 0.000000 0.000000 
#    y 0.000000 4.157330 0.000000 
#    z 0.000000 0.000000 3.337660 
# 
# 
# High freq. dielectric constant tensor:
#      x y z
#    x 1.787560 0.000000 0.000000 
#    y 0.000000 1.793060 0.000000 
#    z 0.000000 0.000000 1.755330 
# 
# From -- ./inp_files/23714.got.cif
#   From: 2010.03.12/outbox.cif.g09.slc.cpg/sg46_12_cif.got.tgz:23714.got - 2010.04.14 02:56:35.
