data_PCOD8191188
_publ_section_title
;
Structure prediction by ZEFSAII (Michael W. Deem and Ramdas Pophale) SiO2 
 PCOD8191188
Probable space group: I M A 2
;
_chemical_formula_sum "Si O2"
_cell_formula_units_Z 48
_cell_length_a 23.773450
_cell_length_b 15.570039
_cell_length_c 8.030004
_cell_angle_alpha 90.000000
_cell_angle_beta 90.000000
_cell_angle_gamma 90.000000
_cell_volume 2972.334436
_symmetry_space_group_name_H-M "I M A 2"
_symmetry_group_IT_number 46
_symmetry_cell_setting 'orthorhombic'
loop_
_space_group_symop_operation_xyz
x,y,z
-x,-y,z
1/2-x,y,z
1/2+x,-y,z
1/2+x,1/2+y,1/2+z
1/2-x,1/2-y,1/2+z
-x,1/2+y,1/2+z
x,1/2-y,1/2+z
loop_
_atom_site_type_symbol
_atom_site_label
_atom_site_fract_x
_atom_site_fract_y
_atom_site_fract_z
Si Si1 0.813921 0.806378 0.356060
Si Si2 0.986340 0.714099 0.948319
Si Si3 0.916529 0.534111 0.352894
Si Si4 0.976596 0.370071 0.255143
Si Si5 0.813349 0.625971 0.222843
Si Si6 0.081702 0.152828 0.151990
O O1 0.750000 0.829370 0.303349
O O2 0.821745 0.703164 0.354931
O O3 0.828175 0.840915 0.538631
O O4 0.854515 0.846221 0.217223
O O5 0.025983 0.786971 0.871099
O O6 0.960587 0.650667 0.809330
O O7 0.029220 0.659648 0.063504
O O8 0.934439 0.761393 0.045750
O O9 0.928758 0.433235 0.326511
O O10 0.854912 0.550353 0.277958
O O11 0.923465 0.565042 0.544900
O O12 0.961894 0.587312 0.249366
O O13 0.750000 0.589641 0.228933
#
# Coordination Sequence:
#
# PCOD8191188 Si02
#       6
#     8   8   8   8   8   8
#     4  10  18  27  41  62  89 125 161 179 202 258
#     4   9  17  31  48  62  85 119 150 180 222 269
#     4  10  19  30  44  67  95 116 145 184 224 264
#     4   9  18  32  47  66  90 116 147 184 223 270
#     4  10  19  29  42  62  90 124 156 184 216 257
#     4  10  17  27  45  66  91 120 149 183 219 257
#
# _framework density 16.148923
#
# number of rings (size 3 to 8) (size 9 to 14) (size 15 to 20)
#    0.000    2.333    0.000    6.000    0.000    2.000 
#    0.000   18.333    0.000    0.000    0.000    1.167 
#    0.000    0.000    0.000    0.000    0.000    0.000 
#
# Total GULP energy -297464.462514 kJ/mol
# GULP energy per Si atom -12394.352605 kJ/mol
# Density = 1.611217 g / cm^3
# Si number density = 16.148923 Si / 1000 Ang^3
#
#
#
# Elastic Constant Matrix: (Units=GPa)
#
#
# Indices 1 2 3 4 5 6 
#
# 1 84.2006 50.5842 49.6576 0.0000 0.0000 0.0000
# 2 50.5842 80.8457 57.9990 0.0000 0.0000 0.0000
# 3 49.6576 57.9990 113.8424 0.0000 0.0000 0.0000
# 4 0.0000 0.0000 0.0000 18.4818 0.0000 0.0000
# 5 0.0000 0.0000 0.0000 0.0000 20.4464 0.0000
# 6 0.0000 0.0000 0.0000 0.0000 0.0000 20.4954
#
#
#
# Elastic Compliance Matrix: (Units=1/GPa)
#
#
# Indices 1 2 3 4 5 6 
#
# 1 0.019969 -0.009843 -0.003696 0.000000 0.000000 0.000000
# 2 -0.009843 0.024346 -0.008110 0.000000 0.000000 0.000000
# 3 -0.003696 -0.008110 0.014528 0.000000 0.000000 0.000000
# 4 0.000000 0.000000 0.000000 0.054107 0.000000 0.000000
# 5 0.000000 0.000000 0.000000 0.000000 0.048908 0.000000
# 6 0.000000 0.000000 0.000000 0.000000 0.000000 0.048791
#
#
# Mechanical properties :
#
#
# Convention : Reuss Voigt Hill
#
# Bulk Modulus (GPa) = 64.32735 66.15226 65.23981
# Shear Modulus (GPa) = 19.29529 19.92790 19.61160
#
# Velocity S-wave (km/s) = 3.46039 3.51666 3.48864
# Velocity P-wave (km/s) = 7.47570 7.58564 7.53087
#
# Compressibility (1/GPa) = 0.01554549
#
# Stress axis : x y z
#
# Youngs Moduli (GPa) = 50.07662 41.07413 68.83289
#
# Poissons Ratio (x) = 0.40430 0.25439
# Poissons Ratio (y) = 0.49292 0.55824
# Poissons Ratio (z) = 0.18507 0.33311
#
# Static dielectric constant tensor:
#      x y z
#    x 2.913090 0.000000 0.000000 
#    y 0.000000 2.810760 0.000000 
#    z 0.000000 0.000000 3.240060 
# 
# 
# High freq. dielectric constant tensor:
#      x y z
#    x 1.597420 0.000000 0.000000 
#    y 0.000000 1.574240 0.000000 
#    z 0.000000 0.000000 1.639510 
# 
# From -- ./inp_files/7306.got.cif
#   From: 2010.03.12/outbox.cif.g09.slc.cpg/sg46_4_cif.got.tgz:7306.got - 2010.04.14 02:56:35.
