data_PCOD8191036
_publ_section_title
;
Structure prediction by ZEFSAII (Michael W. Deem and Ramdas Pophale) SiO2 
 PCOD8191036
Probable space group: I B A 2
;
_chemical_formula_sum "Si O2"
_cell_formula_units_Z 64
_cell_length_a 8.756371
_cell_length_b 13.476229
_cell_length_c 25.106699
_cell_angle_alpha 90.000000
_cell_angle_beta 90.000000
_cell_angle_gamma 90.000000
_cell_volume 2962.662307
_symmetry_space_group_name_H-M "I B A 2"
_symmetry_group_IT_number 45
_symmetry_cell_setting 'orthorhombic'
loop_
_space_group_symop_operation_xyz
x,y,z
-x,-y,z
-x,y,1/2+z
x,-y,1/2+z
1/2+x,1/2+y,1/2+z
1/2-x,1/2-y,1/2+z
1/2-x,1/2+y,z
1/2+x,1/2-y,z
loop_
_atom_site_type_symbol
_atom_site_label
_atom_site_fract_x
_atom_site_fract_y
_atom_site_fract_z
Si Si1 0.331795 0.661351 0.094370
Si Si2 0.339312 0.662624 0.220138
Si Si3 0.625573 0.187394 0.871286
Si Si4 0.179656 0.481590 0.518832
Si Si5 0.677739 0.020434 0.795817
Si Si6 0.151643 0.825124 0.275381
Si Si7 0.152682 0.687449 0.942767
Si Si8 0.644626 0.323108 0.537917
O O1 0.329036 0.660237 0.157305
O O2 0.225222 0.571798 0.073953
O O3 0.503125 0.643586 0.073853
O O4 0.268338 0.766645 0.074213
O O5 0.233335 0.575102 0.242447
O O6 0.280859 0.768730 0.241451
O O7 0.513673 0.643707 0.237125
O O8 0.709464 0.089715 0.847724
O O9 0.580972 0.257881 0.822087
O O10 0.723525 0.245629 0.913984
O O11 0.472144 0.152411 0.900271
O O12 0.226116 0.411240 0.468835
O O13 0.272360 0.582641 0.511812
O O14 0.000000 0.500000 0.518901
O O15 0.500000 0.000000 0.788886
O O16 0.771889 0.919888 0.803406
O O17 0.081132 0.753251 0.990540
#
# Coordination Sequence:
#
# PCOD8191036 Si02
#       8
#     8   8   8   8   8   8   8   8
#     4  11  24  42  66  94 127 169 211 260 320 376
#     4  11  24  42  66  94 127 169 211 260 320 376
#     4  11  23  41  64  91 125 167 211 258 317 377
#     4  11  24  42  64  94 130 166 212 262 311 376
#     4  11  24  42  64  94 130 166 212 262 311 376
#     4  11  23  42  64  94 130 163 212 266 313 378
#     4  11  23  41  64  91 125 167 211 258 317 377
#     4  11  23  42  64  94 130 163 212 266 313 378
#
# _framework density 21.602191999999999
#
# number of rings (size 3 to 8) (size 9 to 14) (size 15 to 20)
#    0.000    1.000    0.000    9.000    0.000    7.000 
#    0.000    1.250    0.000    0.000    0.000    0.000 
#    0.000    0.000    0.000    0.000    0.000    0.000 
#
# Total GULP energy -396965.826897 kJ/mol
# GULP energy per Si atom -12405.182091 kJ/mol
# Density = 2.155302 g / cm^3
# Si number density = 21.602192 Si / 1000 Ang^3
#
#
#
# Elastic Constant Matrix: (Units=GPa)
#
#
# Indices 1 2 3 4 5 6 
#
# 1 106.5320 38.1228 30.9457 0.0000 0.0000 0.0000
# 2 38.1228 114.5256 44.7926 0.0000 0.0000 0.0000
# 3 30.9457 44.7926 131.9170 0.0000 0.0000 0.0000
# 4 0.0000 0.0000 0.0000 25.2929 0.0000 0.0000
# 5 0.0000 0.0000 0.0000 0.0000 33.9638 0.0000
# 6 0.0000 0.0000 0.0000 0.0000 0.0000 40.6278
#
#
#
# Elastic Compliance Matrix: (Units=1/GPa)
#
#
# Indices 1 2 3 4 5 6 
#
# 1 0.010918 -0.003036 -0.001530 0.000000 0.000000 0.000000
# 2 -0.003036 0.010913 -0.002993 0.000000 0.000000 0.000000
# 3 -0.001530 -0.002993 0.008956 0.000000 0.000000 0.000000
# 4 0.000000 0.000000 0.000000 0.039537 0.000000 0.000000
# 5 0.000000 0.000000 0.000000 0.000000 0.029443 0.000000
# 6 0.000000 0.000000 0.000000 0.000000 0.000000 0.024614
#
#
# Mechanical properties :
#
#
# Convention : Reuss Voigt Hill
#
# Bulk Modulus (GPa) = 63.82546 64.52187 64.17367
# Shear Modulus (GPa) = 34.54909 35.91780 35.23345
#
# Velocity S-wave (km/s) = 4.00350 4.08204 4.04296
# Velocity P-wave (km/s) = 7.14008 7.22152 7.18092
#
# Compressibility (1/GPa) = 0.01566773
#
# Stress axis : x y z
#
# Youngs Moduli (GPa) = 91.59419 91.63440 111.65795
#
# Poissons Ratio (x) = 0.27817 0.17088
# Poissons Ratio (y) = 0.27805 0.33423
# Poissons Ratio (z) = 0.14017 0.27430
#
# Static dielectric constant tensor:
#      x y z
#    x 4.076020 0.000000 0.000000 
#    y 0.000000 4.180340 0.000000 
#    z 0.000000 0.000000 3.950380 
# 
# 
# High freq. dielectric constant tensor:
#      x y z
#    x 1.850620 0.000000 0.000000 
#    y 0.000000 1.859450 0.000000 
#    z 0.000000 0.000000 1.851930 
# 
# From -- ./inp_files/9598.got.cif
#   From: 2010.03.12/outbox.cif.g09.slc.cpg/sg45_5_cif.got.tgz:9598.got - 2010.04.14 02:50:11.
