data_PCOD8191539
_publ_section_title
;
Structure prediction by ZEFSAII (Michael W. Deem and Ramdas Pophale) SiO2 
 PCOD8191539
Probable space group: I M A 2
;
_chemical_formula_sum "Si O2"
_cell_formula_units_Z 64
_cell_length_a 8.878013
_cell_length_b 20.756735
_cell_length_c 19.457070
_cell_angle_alpha 90.000000
_cell_angle_beta 90.000000
_cell_angle_gamma 90.000000
_cell_volume 3585.520903
_symmetry_space_group_name_H-M "I M A 2"
_symmetry_group_IT_number 46
_symmetry_cell_setting 'orthorhombic'
loop_
_space_group_symop_operation_xyz
x,y,z
-x,-y,z
1/2-x,y,z
1/2+x,-y,z
1/2+x,1/2+y,1/2+z
1/2-x,1/2-y,1/2+z
-x,1/2+y,1/2+z
x,1/2-y,1/2+z
loop_
_atom_site_type_symbol
_atom_site_label
_atom_site_fract_x
_atom_site_fract_y
_atom_site_fract_z
Si Si1 0.573064 0.727544 0.608480
Si Si2 0.074658 0.127465 0.459204
Si Si3 0.572659 0.264504 0.468397
Si Si4 0.922275 0.876282 0.614764
Si Si5 0.928034 0.065086 0.333711
Si Si6 0.427795 0.687249 0.742966
Si Si7 0.072404 0.566254 0.241158
Si Si8 0.927187 0.311570 0.323262
O O1 0.750000 0.717524 0.603193
O O2 0.501939 0.705113 0.536152
O O3 0.529964 0.801740 0.622234
O O4 0.505668 0.683726 0.668648
O O5 0.250000 0.137491 0.442176
O O6 0.053763 0.101103 0.536505
O O7 0.991278 0.194891 0.449803
O O8 0.000067 0.076125 0.408564
O O9 0.750000 0.257921 0.479615
O O10 0.532884 0.310725 0.404054
O O11 0.750000 0.885972 0.637965
O O12 0.028214 0.919581 0.662390
O O13 0.750000 0.058018 0.341318
O O14 0.973268 0.122960 0.283293
O O15 0.000000 0.000000 0.302896
O O16 0.250000 0.692071 0.732573
O O17 0.493222 0.748529 0.784864
O O18 0.250000 0.559961 0.246794
O O19 0.007154 0.623420 0.289404
O O20 0.000000 0.500000 0.267056
O O21 0.750000 0.309818 0.312223
#
# Coordination Sequence:
#
# PCOD8191539 Si02
#       8
#     8   8   8   8   8   8   8   8
#     4  10  20  33  52  84 115 139 175 225 275 322
#     4  10  20  34  52  78 112 145 182 224 268 320
#     4  10  18  33  56  81 109 142 180 224 271 323
#     4   9  19  34  50  74 108 143 179 216 257 314
#     4  11  23  38  56  79 110 145 185 226 272 330
#     4  10  19  36  58  81 106 141 185 224 268 324
#     4  11  22  36  54  76 106 141 178 221 266 317
#     4   9  18  34  56  81 105 136 181 224 264 316
#
# _framework density 17.849567
#
# number of rings (size 3 to 8) (size 9 to 14) (size 15 to 20)
#    0.000    2.000    2.500    2.625    0.000    4.000 
#    0.000    2.500    0.000    0.750    0.000    1.750 
#    0.000    0.000    0.000    0.000    0.000    0.000 
#
# Total GULP energy -396866.280051 kJ/mol
# GULP energy per Si atom -12402.071252 kJ/mol
# Density = 1.780894 g / cm^3
# Si number density = 17.849567 Si / 1000 Ang^3
#
#
#
# Elastic Constant Matrix: (Units=GPa)
#
#
# Indices 1 2 3 4 5 6 
#
# 1 73.7070 44.1462 47.0643 0.0000 0.0000 0.0000
# 2 44.1462 115.3869 69.4567 0.0000 0.0000 0.0000
# 3 47.0643 69.4567 121.8513 0.0000 0.0000 0.0000
# 4 0.0000 0.0000 0.0000 23.8528 0.0000 0.0000
# 5 0.0000 0.0000 0.0000 0.0000 24.8421 0.0000
# 6 0.0000 0.0000 0.0000 0.0000 0.0000 27.0795
#
#
#
# Elastic Compliance Matrix: (Units=1/GPa)
#
#
# Indices 1 2 3 4 5 6 
#
# 1 0.019391 -0.004431 -0.004964 0.000000 0.000000 0.000000
# 2 -0.004431 0.014206 -0.006386 0.000000 0.000000 0.000000
# 3 -0.004964 -0.006386 0.013764 0.000000 0.000000 0.000000
# 4 0.000000 0.000000 0.000000 0.041924 0.000000 0.000000
# 5 0.000000 0.000000 0.000000 0.000000 0.040254 0.000000
# 6 0.000000 0.000000 0.000000 0.000000 0.000000 0.036928
#
#
# Mechanical properties :
#
#
# Convention : Reuss Voigt Hill
#
# Bulk Modulus (GPa) = 63.29504 70.25326 66.77415
# Shear Modulus (GPa) = 24.59483 25.17340 24.88412
#
# Velocity S-wave (km/s) = 3.71603 3.75948 3.73782
# Velocity P-wave (km/s) = 7.34500 7.63472 7.49126
#
# Compressibility (1/GPa) = 0.01579903
#
# Stress axis : x y z
#
# Youngs Moduli (GPa) = 51.57142 70.39408 72.65228
#
# Poissons Ratio (x) = 0.31189 0.36064
# Poissons Ratio (y) = 0.22850 0.46397
# Poissons Ratio (z) = 0.25600 0.44955
#
# Static dielectric constant tensor:
#      x y z
#    x 3.232890 0.000000 0.000000 
#    y 0.000000 3.193220 0.000000 
#    z 0.000000 0.000000 3.402560 
# 
# 
# High freq. dielectric constant tensor:
#      x y z
#    x 1.691030 0.000000 0.000000 
#    y 0.000000 1.666130 0.000000 
#    z 0.000000 0.000000 1.693450 
# 
# From -- ./inp_files/21305.got.cif
#   From: 2010.03.12/outbox.cif.g09.slc.cpg/sg46_11_cif.got.tgz:21305.got - 2010.04.14 02:56:35.
