data_PCOD8191567
_publ_section_title
;
Structure prediction by ZEFSAII (Michael W. Deem and Ramdas Pophale) SiO2 
 PCOD8191567
Probable space group: I M A 2
;
_chemical_formula_sum "Si O2"
_cell_formula_units_Z 64
_cell_length_a 8.754730
_cell_length_b 24.811077
_cell_length_c 15.148902
_cell_angle_alpha 90.000000
_cell_angle_beta 90.000000
_cell_angle_gamma 90.000000
_cell_volume 3290.557843
_symmetry_space_group_name_H-M "I M A 2"
_symmetry_group_IT_number 46
_symmetry_cell_setting 'orthorhombic'
loop_
_space_group_symop_operation_xyz
x,y,z
-x,-y,z
1/2-x,y,z
1/2+x,-y,z
1/2+x,1/2+y,1/2+z
1/2-x,1/2-y,1/2+z
-x,1/2+y,1/2+z
x,1/2-y,1/2+z
loop_
_atom_site_type_symbol
_atom_site_label
_atom_site_fract_x
_atom_site_fract_y
_atom_site_fract_z
Si Si1 0.069069 0.395031 0.685150
Si Si2 0.570568 0.645953 0.010218
Si Si3 0.928667 0.723648 0.721636
Si Si4 0.929274 0.556357 0.504406
Si Si5 0.074898 0.857697 0.882765
Si Si6 0.569160 0.942528 0.368309
Si Si7 0.572911 0.236005 0.404800
Si Si8 0.071742 0.833815 0.683602
O O1 0.250000 0.399315 0.689387
O O2 0.022527 0.332457 0.676124
O O3 0.002773 0.425881 0.599685
O O4 0.002026 0.421762 0.774490
O O5 0.750000 0.656197 0.003965
O O6 0.520943 0.631845 0.110454
O O7 0.517755 0.598376 0.945211
O O8 0.480095 0.701005 0.988011
O O9 0.750000 0.736064 0.709805
O O10 0.966176 0.717272 0.824680
O O11 0.025597 0.771068 0.677541
O O12 0.750000 0.549809 0.510986
O O13 0.000000 0.500000 0.475116
O O14 0.966353 0.600221 0.430520
O O15 0.250000 0.875607 0.894585
O O16 0.046871 0.798998 0.925398
O O17 0.029351 0.856903 0.779623
O O18 0.750000 0.947355 0.364822
O O19 0.500000 0.000000 0.392159
O O20 0.750000 0.225893 0.380764
O O21 0.250000 0.838891 0.664567
#
# Coordination Sequence:
#
# PCOD8191567 Si02
#       8
#     8   8   8   8   8   8   8   8
#     4   9  19  36  56  84 119 154 191 235 284 345
#     4  11  22  37  59  86 119 159 200 243 292 353
#     4  10  18  34  57  84 120 158 195 234 285 350
#     4  11  23  39  61  86 115 152 199 247 295 349
#     4   9  21  41  60  82 116 153 192 244 299 351
#     4  10  21  39  59  83 117 155 197 241 289 347
#     4  10  20  35  56  86 121 155 193 239 292 347
#     4  10  22  39  58  85 121 155 194 246 301 355
#
# _framework density 19.449590000000001
#
# number of rings (size 3 to 8) (size 9 to 14) (size 15 to 20)
#    0.000    2.000    1.250    3.000    1.750    4.000 
#    0.000    3.125    0.000    1.500    0.000    0.000 
#    0.000    0.000    0.000    0.000    0.000    0.000 
#
# Total GULP energy -396871.619287 kJ/mol
# GULP energy per Si atom -12402.238103 kJ/mol
# Density = 1.940532 g / cm^3
# Si number density = 19.449590 Si / 1000 Ang^3
#
#
#
# Elastic Constant Matrix: (Units=GPa)
#
#
# Indices 1 2 3 4 5 6 
#
# 1 52.3370 40.8509 31.0397 0.0000 0.0000 0.0000
# 2 40.8509 117.2564 67.3215 0.0000 0.0000 0.0000
# 3 31.0397 67.3215 116.9173 0.0003 0.0000 0.0000
# 4 0.0000 0.0000 0.0003 26.5997 0.0000 0.0000
# 5 0.0000 0.0000 0.0000 0.0000 30.4910 0.0000
# 6 0.0000 0.0000 0.0000 0.0000 0.0000 31.3468
#
#
#
# Elastic Compliance Matrix: (Units=1/GPa)
#
#
# Indices 1 2 3 4 5 6 
#
# 1 0.026760 -0.007834 -0.002594 0.000000 0.000000 0.000000
# 2 -0.007834 0.015033 -0.006577 0.000000 0.000000 0.000000
# 3 -0.002594 -0.006577 0.013028 0.000000 0.000000 0.000000
# 4 0.000000 0.000000 0.000000 0.037594 0.000000 0.000000
# 5 0.000000 0.000000 0.000000 0.000000 0.032797 0.000000
# 6 0.000000 0.000000 0.000000 0.000000 0.000000 0.031901
#
#
# Mechanical properties :
#
#
# Convention : Reuss Voigt Hill
#
# Bulk Modulus (GPa) = 48.04522 62.77056 55.40789
# Shear Modulus (GPa) = 25.24498 27.50740 26.37619
#
# Velocity S-wave (km/s) = 3.60664 3.76479 3.68656
# Velocity P-wave (km/s) = 6.48844 7.15833 6.83160
#
# Compressibility (1/GPa) = 0.02081372
#
# Stress axis : x y z
#
# Youngs Moduli (GPa) = 37.36974 66.51872 76.75530
#
# Poissons Ratio (x) = 0.52109 0.19907
# Poissons Ratio (y) = 0.29274 0.50479
# Poissons Ratio (z) = 0.09692 0.43746
#
# Static dielectric constant tensor:
#      x y z
#    x 3.365890 0.000000 0.000000 
#    y 0.000000 3.462090 0.000000 
#    z 0.000000 0.000000 3.652380 
# 
# 
# High freq. dielectric constant tensor:
#      x y z
#    x 1.749730 0.000000 0.000000 
#    y 0.000000 1.748610 0.000000 
#    z 0.000000 0.000000 1.760200 
# 
# From -- ./inp_files/14431.got.cif
#   From: 2010.03.12/outbox.cif.g09.slc.cpg/sg46_8_cif.got.tgz:14431.got - 2010.04.14 02:56:35.
