data_PCOD8191536
_publ_section_title
;
Structure prediction by ZEFSAII (Michael W. Deem and Ramdas Pophale) SiO2 
 PCOD8191536
Probable space group: I M A 2
;
_chemical_formula_sum "Si O2"
_cell_formula_units_Z 64
_cell_length_a 15.537463
_cell_length_b 9.366165
_cell_length_c 22.091091
_cell_angle_alpha 90.000000
_cell_angle_beta 90.000000
_cell_angle_gamma 90.000000
_cell_volume 3214.837876
_symmetry_space_group_name_H-M "I M A 2"
_symmetry_group_IT_number 46
_symmetry_cell_setting 'orthorhombic'
loop_
_space_group_symop_operation_xyz
x,y,z
-x,-y,z
1/2-x,y,z
1/2+x,-y,z
1/2+x,1/2+y,1/2+z
1/2-x,1/2-y,1/2+z
-x,1/2+y,1/2+z
x,1/2-y,1/2+z
loop_
_atom_site_type_symbol
_atom_site_label
_atom_site_fract_x
_atom_site_fract_y
_atom_site_fract_z
Si Si1 0.969233 0.650641 0.005590
Si Si2 0.351757 0.398143 0.309412
Si Si3 0.149371 0.375823 0.446238
Si Si4 0.851240 0.835528 0.218483
Si Si5 0.418881 0.906735 0.043385
Si Si6 0.150168 0.632229 0.673317
Si Si7 0.411290 0.926348 0.705581
Si Si8 0.845680 0.872814 0.615105
O O1 0.917322 0.605448 0.064974
O O2 0.000000 0.500000 0.975808
O O3 0.051513 0.750502 0.020355
O O4 0.903405 0.734306 0.962739
O O5 0.250000 0.398612 0.304985
O O6 0.381893 0.411372 0.378412
O O7 0.389524 0.255349 0.275349
O O8 0.388274 0.537041 0.274999
O O9 0.250000 0.339073 0.448838
O O10 0.130163 0.510534 0.489364
O O11 0.750000 0.836684 0.226534
O O12 0.874803 0.762921 0.154644
O O13 0.884003 0.997692 0.212796
O O14 0.357413 0.891651 0.101199
O O15 0.500000 0.000000 0.063844
O O16 0.250000 0.665092 0.687467
O O17 0.087602 0.756853 0.696852
O O18 0.500000 0.000000 0.686315
O O19 0.340598 0.990113 0.659335
O O20 0.750000 0.850268 0.586979
#
# Coordination Sequence:
#
# PCOD8191536 Si02
#       8
#     8   8   8   8   8   8   8   8
#     4  11  22  36  55  82 116 146 181 236 294 338
#     4   9  19  39  60  76 101 144 193 230 268 332
#     4  10  21  40  62  79 104 150 200 235 274 337
#     4   8  16  30  52  80 105 132 172 223 267 310
#     4  10  21  35  56  84 117 149 183 226 277 337
#     4  11  20  33  55  84 115 142 178 226 275 324
#     4  11  22  34  52  81 116 149 181 224 283 337
#     4  10  18  33  55  78 110 152 191 218 262 337
#
# _framework density 19.907692000000001
#
# number of rings (size 3 to 8) (size 9 to 14) (size 15 to 20)
#    0.000    2.000    0.000    6.000    0.000    3.500 
#    0.000    4.375    0.000    3.000    0.000    0.000 
#    0.000    0.000    0.000    0.000    0.000    0.000 
#
# Total GULP energy -396677.656772 kJ/mol
# GULP energy per Si atom -12396.176774 kJ/mol
# Density = 1.986238 g / cm^3
# Si number density = 19.907692 Si / 1000 Ang^3
#
#
#
# Elastic Constant Matrix: (Units=GPa)
#
#
# Indices 1 2 3 4 5 6 
#
# 1 53.0685 22.5493 26.4344 0.0000 0.0000 0.0000
# 2 22.5493 149.2920 52.7722 0.0000 0.0000 0.0000
# 3 26.4344 52.7722 124.6577 0.0000 0.0000 0.0000
# 4 0.0000 0.0000 0.0000 14.7442 0.0000 0.0000
# 5 0.0000 0.0000 0.0000 0.0000 21.4632 0.0000
# 6 0.0000 0.0000 0.0000 0.0000 0.0000 25.9696
#
#
#
# Elastic Compliance Matrix: (Units=1/GPa)
#
#
# Indices 1 2 3 4 5 6 
#
# 1 0.021530 -0.001926 -0.003750 0.000000 0.000000 0.000000
# 2 -0.001926 0.008049 -0.002999 0.000000 0.000000 0.000000
# 3 -0.003750 -0.002999 0.010087 0.000000 0.000000 0.000000
# 4 0.000000 0.000000 0.000000 0.067823 0.000000 0.000000
# 5 0.000000 0.000000 0.000000 0.000000 0.046591 0.000000
# 6 0.000000 0.000000 0.000000 0.000000 0.000000 0.038507
#
#
# Mechanical properties :
#
#
# Convention : Reuss Voigt Hill
#
# Bulk Modulus (GPa) = 44.81248 58.94778 51.88013
# Shear Modulus (GPa) = 23.00149 27.45287 25.22718
#
# Velocity S-wave (km/s) = 3.40282 3.71753 3.56365
# Velocity P-wave (km/s) = 6.16424 6.93553 6.56123
#
# Compressibility (1/GPa) = 0.02231521
#
# Stress axis : x y z
#
# Youngs Moduli (GPa) = 46.44659 124.23329 99.13918
#
# Poissons Ratio (x) = 0.23932 0.37178
# Poissons Ratio (y) = 0.08947 0.29733
# Poissons Ratio (z) = 0.17418 0.37259
#
# Static dielectric constant tensor:
#      x y z
#    x 3.544770 0.000000 0.000000 
#    y 0.000000 3.969240 0.000000 
#    z 0.000000 0.000000 3.649260 
# 
# 
# High freq. dielectric constant tensor:
#      x y z
#    x 1.775460 0.000000 0.000000 
#    y 0.000000 1.777320 0.000000 
#    z 0.000000 0.000000 1.755630 
# 
# From -- ./inp_files/22216.got.cif
#   From: 2010.03.12/outbox.cif.g09.slc.cpg/sg46_12_cif.got.tgz:22216.got - 2010.04.14 02:56:35.
