data_PCOD8191054
_publ_section_title
;
Structure prediction by ZEFSAII (Michael W. Deem and Ramdas Pophale) SiO2 
 PCOD8191054
Probable space group: I B A 2
;
_chemical_formula_sum "Si O2"
_cell_formula_units_Z 44
_cell_length_a 8.150169
_cell_length_b 16.367516
_cell_length_c 13.868627
_cell_angle_alpha 90.000000
_cell_angle_beta 90.000000
_cell_angle_gamma 90.000000
_cell_volume 1850.047403
_symmetry_space_group_name_H-M "I B A 2"
_symmetry_group_IT_number 45
_symmetry_cell_setting 'orthorhombic'
loop_
_space_group_symop_operation_xyz
x,y,z
-x,-y,z
-x,y,1/2+z
x,-y,1/2+z
1/2+x,1/2+y,1/2+z
1/2-x,1/2-y,1/2+z
1/2-x,1/2+y,z
1/2+x,1/2-y,z
loop_
_atom_site_type_symbol
_atom_site_label
_atom_site_fract_x
_atom_site_fract_y
_atom_site_fract_z
Si Si1 0.500000 0.000000 0.326190
Si Si2 0.197999 0.236211 0.734414
Si Si3 0.664344 0.851981 0.416023
Si Si4 0.451095 0.251776 0.593115
Si Si5 0.346221 0.555532 0.786124
Si Si6 0.487749 0.412804 0.482655
O O1 0.469169 0.079396 0.391928
O O2 0.666722 0.014727 0.262946
O O3 0.159973 0.283883 0.832289
O O4 0.388281 0.243249 0.705765
O O5 0.139575 0.142672 0.735696
O O6 0.136652 0.268692 0.626969
O O7 0.610728 0.813709 0.517029
O O8 0.844854 0.888958 0.426557
O O9 0.429005 0.343165 0.553897
O O10 0.500000 0.500000 0.751311
O O11 0.351663 0.570794 0.900952
O O12 0.500000 0.500000 0.539575
#
# Coordination Sequence:
#
# PCOD8191054 Si02
#       6
#     4   8   8   8   8   8
#     4  12  26  44  82 108 144 210 246 310 396 434
#     4  12  27  47  76 112 147 201 253 305 385 455
#     4  12  26  49  74 106 156 194 251 320 370 456
#     4  12  27  45  74 112 144 199 252 302 379 453
#     4  11  24  48  77 110 152 202 252 313 383 450
#     4  11  23  49  74 104 151 205 245 313 384 445
#
# _framework density 23.783175
#
# number of rings (size 3 to 8) (size 9 to 14) (size 15 to 20)
#    0.000    0.364    7.273    2.182    5.091    0.727 
#    0.000    3.636    0.000    0.000    0.000    0.000 
#    0.000    0.000    0.000    0.000    0.000    0.000 
#
# Total GULP energy -272560.431534 kJ/mol
# GULP energy per Si atom -12389.110524 kJ/mol
# Density = 2.372904 g / cm^3
# Si number density = 23.783175 Si / 1000 Ang^3
#
#
#
# Elastic Constant Matrix: (Units=GPa)
#
#
# Indices 1 2 3 4 5 6 
#
# 1 110.7323 63.2101 30.5004 0.0000 0.0000 0.0000
# 2 63.2101 151.3036 32.8298 0.0000 0.0000 0.0000
# 3 30.5004 32.8298 83.9354 0.0001 0.0000 0.0000
# 4 0.0000 0.0000 0.0001 21.6948 0.0000 0.0000
# 5 0.0000 0.0000 0.0000 0.0000 27.8255 0.0000
# 6 0.0000 0.0000 0.0000 0.0000 0.0000 43.6020
#
#
#
# Elastic Compliance Matrix: (Units=1/GPa)
#
#
# Indices 1 2 3 4 5 6 
#
# 1 0.012398 -0.004592 -0.002709 0.000000 0.000000 0.000000
# 2 -0.004592 0.008923 -0.001821 0.000000 0.000000 0.000000
# 3 -0.002709 -0.001821 0.013611 0.000000 0.000000 0.000000
# 4 0.000000 0.000000 0.000000 0.046094 0.000000 0.000000
# 5 0.000000 0.000000 0.000000 0.000000 0.035938 0.000000
# 6 0.000000 0.000000 0.000000 0.000000 0.000000 0.022935
#
#
# Mechanical properties :
#
#
# Convention : Reuss Voigt Hill
#
# Bulk Modulus (GPa) = 59.92727 66.56132 63.24430
# Shear Modulus (GPa) = 30.54259 33.25319 31.89789
#
# Velocity S-wave (km/s) = 3.58748 3.74328 3.66621
# Velocity P-wave (km/s) = 6.51245 6.83596 6.67617
#
# Compressibility (1/GPa) = 0.01668689
#
# Stress axis : x y z
#
# Youngs Moduli (GPa) = 80.65709 112.07341 73.47089
#
# Poissons Ratio (x) = 0.51461 0.19905
# Poissons Ratio (y) = 0.37036 0.13382
# Poissons Ratio (z) = 0.21852 0.20413
#
# Static dielectric constant tensor:
#      x y z
#    x 4.509820 0.000000 0.000000 
#    y 0.000000 4.450070 0.000000 
#    z 0.000000 0.000000 3.913040 
# 
# 
# High freq. dielectric constant tensor:
#      x y z
#    x 1.967640 0.000000 0.000000 
#    y 0.000000 1.954080 0.000000 
#    z 0.000000 0.000000 1.926750 
# 
# From -- ./inp_files/5570.got.cif
#   From: 2010.03.12/outbox.cif.g09.slc.cpg/sg45_3_cif.got.tgz:5570.got - 2010.04.14 02:50:11.
