data_PCOD8191485
_publ_section_title
;
Structure prediction by ZEFSAII (Michael W. Deem and Ramdas Pophale) SiO2 
 PCOD8191485
Probable space group: I M A 2
;
_chemical_formula_sum "Si O2"
_cell_formula_units_Z 64
_cell_length_a 14.902538
_cell_length_b 27.249915
_cell_length_c 9.222728
_cell_angle_alpha 90.000000
_cell_angle_beta 90.000000
_cell_angle_gamma 90.000000
_cell_volume 3745.284302
_symmetry_space_group_name_H-M "I M A 2"
_symmetry_group_IT_number 46
_symmetry_cell_setting 'orthorhombic'
loop_
_space_group_symop_operation_xyz
x,y,z
-x,-y,z
1/2-x,y,z
1/2+x,-y,z
1/2+x,1/2+y,1/2+z
1/2-x,1/2-y,1/2+z
-x,1/2+y,1/2+z
x,1/2-y,1/2+z
loop_
_atom_site_type_symbol
_atom_site_label
_atom_site_fract_x
_atom_site_fract_y
_atom_site_fract_z
Si Si1 0.948032 0.045876 0.394280
Si Si2 0.150207 0.022983 0.954877
Si Si3 0.147275 0.303277 0.458657
Si Si4 0.147862 0.574829 0.616984
Si Si5 0.053542 0.108415 0.607628
Si Si6 0.151356 0.012001 0.637128
Si Si7 0.351088 0.207383 0.622190
Si Si8 0.514920 0.608604 0.433211
O O1 0.880815 0.073327 0.285702
O O2 0.003891 0.090614 0.462632
O O3 0.909498 0.020531 0.536983
O O4 0.000000 0.000000 0.315963
O O5 0.250000 0.048051 0.955971
O O6 0.136459 0.994600 0.802184
O O7 0.071128 0.061155 0.982552
O O8 0.144476 0.982000 0.076104
O O9 0.250000 0.319006 0.500319
O O10 0.112714 0.257668 0.553632
O O11 0.144435 0.286637 0.293405
O O12 0.075981 0.346280 0.486708
O O13 0.250000 0.595665 0.602859
O O14 0.080134 0.607681 0.519127
O O15 0.134414 0.070495 0.635446
O O16 0.089520 0.162000 0.568097
O O17 0.996867 0.110467 0.759349
O O18 0.250000 0.002466 0.579281
O O19 0.250000 0.197898 0.568077
#
# Coordination Sequence:
#
# PCOD8191485 Si02
#       8
#     8   8   8   8   8   8   8   8
#     4  10  19  30  44  65  94 126 160 197 236 277
#     4   9  17  29  48  71  96 126 159 191 229 277
#     4   9  18  31  50  75 102 128 152 183 229 281
#     4  11  22  33  45  65  93 127 162 201 243 277
#     4   9  18  30  48  70  93 125 160 191 229 274
#     4   9  16  28  46  68  94 126 159 191 226 272
#     4   9  17  31  49  74 104 127 150 183 225 283
#     4  10  18  32  50  70  95 125 160 197 229 275
#
# _framework density 17.088155
#
# number of rings (size 3 to 8) (size 9 to 14) (size 15 to 20)
#    0.000    2.500    0.000    3.000    0.000    6.000 
#    0.000    0.625    0.000    6.000    0.000    8.750 
#    0.000    0.000    0.000    0.000    0.000    0.000 
#
# Total GULP energy -396545.378677 kJ/mol
# GULP energy per Si atom -12392.043084 kJ/mol
# Density = 1.704926 g / cm^3
# Si number density = 17.088155 Si / 1000 Ang^3
#
#
#
# Elastic Constant Matrix: (Units=GPa)
#
#
# Indices 1 2 3 4 5 6 
#
# 1 99.2060 39.6068 39.0569 0.0010 0.0002 0.0005
# 2 39.6068 75.8488 31.1228 0.0009 -0.0008 0.0002
# 3 39.0569 31.1228 64.6208 -0.0129 0.0028 0.0027
# 4 0.0010 0.0009 -0.0129 20.1813 -0.0008 0.0014
# 5 0.0002 -0.0008 0.0028 -0.0008 13.6699 0.0003
# 6 0.0005 0.0002 0.0027 0.0014 0.0003 23.6670
#
#
#
# Elastic Compliance Matrix: (Units=1/GPa)
#
#
# Indices 1 2 3 4 5 6 
#
# 1 0.014600 -0.004989 -0.006421 -0.000005 0.000001 0.000000
# 2 -0.004989 0.018136 -0.005719 -0.000004 0.000002 0.000001
# 3 -0.006421 -0.005719 0.022111 0.000015 -0.000005 -0.000002
# 4 -0.000005 -0.000004 0.000015 0.049551 0.000003 -0.000003
# 5 0.000001 0.000002 -0.000005 0.000003 0.073153 -0.000001
# 6 0.000000 0.000001 -0.000002 -0.000003 -0.000001 0.042253
#
#
# Mechanical properties :
#
#
# Convention : Reuss Voigt Hill
#
# Bulk Modulus (GPa) = 48.57420 51.02762 49.80091
# Shear Modulus (GPa) = 19.16256 20.16292 19.66274
#
# Velocity S-wave (km/s) = 3.35236 3.43875 3.39583
# Velocity P-wave (km/s) = 6.59331 6.75965 6.67700
#
# Compressibility (1/GPa) = 0.02058706
#
# Stress axis : x y z
#
# Youngs Moduli (GPa) = 68.49379 55.13871 45.22716
#
# Poissons Ratio (x) = 0.27508 0.29042
# Poissons Ratio (y) = 0.34171 0.25867
# Poissons Ratio (z) = 0.43983 0.31536
#
# Static dielectric constant tensor:
#      x y z
#    x 3.297630 -0.000010 0.000000 
#    y -0.000010 3.024190 -0.000010 
#    z 0.000000 -0.000010 3.141990 
# 
# 
# High freq. dielectric constant tensor:
#      x y z
#    x 1.648880 0.000000 0.000000 
#    y 0.000000 1.632170 0.000000 
#    z 0.000000 0.000000 1.663230 
# 
# From -- ./inp_files/6080.got.cif
#   From: 2010.03.12/outbox.cif.g09.slc.cpg/sg46_4_cif.got.tgz:6080.got - 2010.04.14 02:56:35.
