data_PCOD8191433
_publ_section_title
;
Structure prediction by ZEFSAII (Michael W. Deem and Ramdas Pophale) SiO2 
 PCOD8191433
Probable space group: I M A 2
;
_chemical_formula_sum "Si O2"
_cell_formula_units_Z 48
_cell_length_a 15.668765
_cell_length_b 20.442981
_cell_length_c 8.054179
_cell_angle_alpha 90.000000
_cell_angle_beta 90.000000
_cell_angle_gamma 90.000000
_cell_volume 2579.884536
_symmetry_space_group_name_H-M "I M A 2"
_symmetry_group_IT_number 46
_symmetry_cell_setting 'orthorhombic'
loop_
_space_group_symop_operation_xyz
x,y,z
-x,-y,z
1/2-x,y,z
1/2+x,-y,z
1/2+x,1/2+y,1/2+z
1/2-x,1/2-y,1/2+z
-x,1/2+y,1/2+z
x,1/2-y,1/2+z
loop_
_atom_site_type_symbol
_atom_site_label
_atom_site_fract_x
_atom_site_fract_y
_atom_site_fract_z
Si Si1 0.908960 0.727720 0.519030
Si Si2 0.489954 0.820788 0.725636
Si Si3 0.652974 0.285279 0.463147
Si Si4 0.846973 0.348196 0.817855
Si Si5 0.844771 0.653337 0.825137
Si Si6 0.499749 0.576453 0.951755
O O1 0.854931 0.683260 0.642178
O O2 0.852979 0.789622 0.461853
O O3 0.995580 0.757531 0.604112
O O4 0.935191 0.683177 0.363439
O O5 0.399854 0.820077 0.817937
O O6 0.498767 0.889093 0.630672
O O7 0.750000 0.298427 0.410472
O O8 0.633124 0.314275 0.642745
O O9 0.636825 0.206444 0.461203
O O10 0.750000 0.375663 0.824599
O O11 0.914851 0.405701 0.846685
O O12 0.750000 0.622669 0.839840
O O13 0.915542 0.597371 0.851372
O O14 0.500000 0.500000 0.982850
#
# Coordination Sequence:
#
# PCOD8191433 Si02
#       6
#     8   8   8   8   8   8
#     4   9  18  32  55  83 107 130 162 214 275 319
#     4  10  18  32  52  77 110 140 169 211 260 313
#     4  10  18  30  54  87 111 130 161 212 274 321
#     4  10  20  34  56  83 110 135 167 213 264 316
#     4  10  19  34  57  83 108 134 167 214 266 317
#     4  11  24  38  52  71 102 149 189 214 248 298
#
# _framework density 18.605484000000001
#
# number of rings (size 3 to 8) (size 9 to 14) (size 15 to 20)
#    0.000    2.000    0.000    6.500    0.000    2.667 
#    0.000    4.167    0.000    0.000    0.000    0.000 
#    0.000    0.000    0.000    0.000    0.000    0.000 
#
# Total GULP energy -297595.135858 kJ/mol
# GULP energy per Si atom -12399.797327 kJ/mol
# Density = 1.856314 g / cm^3
# Si number density = 18.605484 Si / 1000 Ang^3
#
#
#
# Elastic Constant Matrix: (Units=GPa)
#
#
# Indices 1 2 3 4 5 6 
#
# 1 130.5137 52.7398 29.4298 0.0000 0.0000 0.0000
# 2 52.7398 108.0990 43.5319 0.0000 0.0000 0.0000
# 3 29.4298 43.5319 83.5649 0.0000 0.0000 0.0000
# 4 0.0000 0.0000 0.0000 17.9452 0.0000 0.0000
# 5 0.0000 0.0000 0.0000 0.0000 22.4426 0.0000
# 6 0.0000 0.0000 0.0000 0.0000 0.0000 14.4342
#
#
#
# Elastic Compliance Matrix: (Units=1/GPa)
#
#
# Indices 1 2 3 4 5 6 
#
# 1 0.009637 -0.004220 -0.001195 0.000000 0.000000 0.000000
# 2 -0.004220 0.013555 -0.005575 0.000000 0.000000 0.000000
# 3 -0.001195 -0.005575 0.015292 0.000000 0.000000 0.000000
# 4 0.000000 0.000000 0.000000 0.055725 0.000000 0.000000
# 5 0.000000 0.000000 0.000000 0.000000 0.044558 0.000000
# 6 0.000000 0.000000 0.000000 0.000000 0.000000 0.069280
#
#
# Mechanical properties :
#
#
# Convention : Reuss Voigt Hill
#
# Bulk Modulus (GPa) = 60.59703 63.73117 62.16410
# Shear Modulus (GPa) = 21.22883 24.06283 22.64583
#
# Velocity S-wave (km/s) = 3.38153 3.60018 3.49257
# Velocity P-wave (km/s) = 6.92001 7.18401 7.05324
#
# Compressibility (1/GPa) = 0.01650246
#
# Stress axis : x y z
#
# Youngs Moduli (GPa) = 103.76669 73.77436 65.39412
#
# Poissons Ratio (x) = 0.31135 0.07817
# Poissons Ratio (y) = 0.43793 0.36456
# Poissons Ratio (z) = 0.12405 0.41128
#
# Static dielectric constant tensor:
#      x y z
#    x 3.544260 0.000000 0.000000 
#    y 0.000000 2.888800 0.000000 
#    z 0.000000 0.000000 3.585770 
# 
# 
# High freq. dielectric constant tensor:
#      x y z
#    x 1.740530 0.000000 0.000000 
#    y 0.000000 1.662390 0.000000 
#    z 0.000000 0.000000 1.736390 
# 
# From -- ./inp_files/5815.got.cif
#   From: 2010.03.12/outbox.cif.g09.slc.cpg/sg46_3_cif.got.tgz:5815.got - 2010.04.14 02:56:35.
