data_PCOD8191317
_publ_section_title
;
Structure prediction by ZEFSAII (Michael W. Deem and Ramdas Pophale) SiO2 
 PCOD8191317
Probable space group: I M A 2
;
_chemical_formula_sum "Si O2"
_cell_formula_units_Z 56
_cell_length_a 8.819723
_cell_length_b 13.597618
_cell_length_c 29.243287
_cell_angle_alpha 90.000000
_cell_angle_beta 90.000000
_cell_angle_gamma 90.000000
_cell_volume 3507.066237
_symmetry_space_group_name_H-M "I M A 2"
_symmetry_group_IT_number 46
_symmetry_cell_setting 'orthorhombic'
loop_
_space_group_symop_operation_xyz
x,y,z
-x,-y,z
1/2-x,y,z
1/2+x,-y,z
1/2+x,1/2+y,1/2+z
1/2-x,1/2-y,1/2+z
-x,1/2+y,1/2+z
x,1/2-y,1/2+z
loop_
_atom_site_type_symbol
_atom_site_label
_atom_site_fract_x
_atom_site_fract_y
_atom_site_fract_z
Si Si1 0.928572 0.392638 0.316930
Si Si2 0.070035 0.103704 0.178268
Si Si3 0.070973 0.717621 0.225792
Si Si4 0.427665 0.798797 0.091466
Si Si5 0.426944 0.106933 0.007008
Si Si6 0.574121 0.894348 0.906073
Si Si7 0.075336 0.600674 0.138874
O O1 0.750000 0.405187 0.319942
O O2 0.975147 0.321855 0.275420
O O3 0.000000 0.500000 0.309610
O O4 0.991289 0.340200 0.363499
O O5 0.250000 0.097225 0.177182
O O6 0.017134 0.181361 0.216593
O O7 0.010492 0.132352 0.128100
O O8 0.000000 0.000000 0.192816
O O9 0.250000 0.737771 0.220610
O O10 0.017330 0.637052 0.188485
O O11 0.250000 0.822656 0.093947
O O12 0.492303 0.818635 0.041322
O O13 0.460706 0.684524 0.101629
O O14 0.250000 0.096999 0.018592
O O15 0.500000 0.000000 0.011728
O O16 0.450458 0.153867 0.956112
O O17 0.750000 0.904017 0.894107
O O18 0.500000 0.000000 0.909051
O O19 0.250000 0.577116 0.141988
O O20 0.000000 0.500000 0.123132
#
# Coordination Sequence:
#
# PCOD8191317 Si02
#       7
#     8   8   8   8   8   8   8
#     4  10  18  28  45  67  94 124 153 186 223 265
#     4  11  21  33  49  67  90 120 151 186 224 265
#     4   9  19  33  46  66  93 120 152 186 220 261
#     4  10  20  33  47  66  92 120 151 186 223 267
#     4  10  19  30  45  66  91 121 153 187 225 267
#     4   9  17  28  42  62  90 119 150 185 223 268
#     4   9  18  31  46  64  89 118 147 182 220 257
#
# _framework density 15.967763
#
# number of rings (size 3 to 8) (size 9 to 14) (size 15 to 20)
#    0.000    2.286    0.000    5.571    0.000    5.714 
#    0.000    0.000    0.000    0.000    0.000    1.000 
#    0.000    4.571    0.000    0.000    0.000    0.000 
#
# Total GULP energy -347106.605898 kJ/mol
# GULP energy per Si atom -12396.664496 kJ/mol
# Density = 1.593142 g / cm^3
# Si number density = 15.967763 Si / 1000 Ang^3
#
#
#
# Elastic Constant Matrix: (Units=GPa)
#
#
# Indices 1 2 3 4 5 6 
#
# 1 100.6039 50.6363 57.9071 0.0000 0.0000 0.0000
# 2 50.6363 93.4269 53.9064 0.0000 0.0000 0.0000
# 3 57.9071 53.9064 136.1081 0.0000 0.0000 0.0000
# 4 0.0000 0.0000 0.0000 21.5438 0.0000 0.0000
# 5 0.0000 0.0000 0.0000 0.0000 27.5817 0.0000
# 6 0.0000 0.0000 0.0000 0.0000 0.0000 26.4155
#
#
#
# Elastic Compliance Matrix: (Units=1/GPa)
#
#
# Indices 1 2 3 4 5 6 
#
# 1 0.015309 -0.005884 -0.004183 0.000000 0.000000 0.000000
# 2 -0.005884 0.016135 -0.003887 0.000000 0.000000 0.000000
# 3 -0.004183 -0.003887 0.010666 0.000000 0.000000 0.000000
# 4 0.000000 0.000000 0.000000 0.046417 0.000000 0.000000
# 5 0.000000 0.000000 0.000000 0.000000 0.036256 0.000000
# 6 0.000000 0.000000 0.000000 0.000000 0.000000 0.037856
#
#
# Mechanical properties :
#
#
# Convention : Reuss Voigt Hill
#
# Bulk Modulus (GPa) = 70.40868 72.78205 71.59537
# Shear Modulus (GPa) = 25.60390 26.28747 25.94568
#
# Velocity S-wave (km/s) = 4.00868 4.06184 4.03535
# Velocity P-wave (km/s) = 8.10037 8.22664 8.16375
#
# Compressibility (1/GPa) = 0.01420279
#
# Stress axis : x y z
#
# Youngs Moduli (GPa) = 65.32057 61.97530 93.75324
#
# Poissons Ratio (x) = 0.36465 0.39216
# Poissons Ratio (y) = 0.38434 0.36444
# Poissons Ratio (z) = 0.27323 0.24091
#
# Static dielectric constant tensor:
#      x y z
#    x 3.141050 0.000000 0.000000 
#    y 0.000000 2.676820 0.000000 
#    z 0.000000 0.000000 3.479930 
# 
# 
# High freq. dielectric constant tensor:
#      x y z
#    x 1.629600 0.000000 0.000000 
#    y 0.000000 1.578320 0.000000 
#    z 0.000000 0.000000 1.615890 
# 
# From -- ./inp_files/25247.got.cif
#   From: 2010.03.12/outbox.cif.g09.slc.cpg/sg46_13_cif.got.tgz:25247.got - 2010.04.14 02:56:35.
