data_PCOD8191590
_publ_section_title
;
Structure prediction by ZEFSAII (Michael W. Deem and Ramdas Pophale) SiO2 
 PCOD8191590
Probable space group: I M A 2
;
_chemical_formula_sum "Si O2"
_cell_formula_units_Z 60
_cell_length_a 13.307576
_cell_length_b 12.342009
_cell_length_c 18.923638
_cell_angle_alpha 90.000000
_cell_angle_beta 90.000000
_cell_angle_gamma 90.000000
_cell_volume 3108.060368
_symmetry_space_group_name_H-M "I M A 2"
_symmetry_group_IT_number 46
_symmetry_cell_setting 'orthorhombic'
loop_
_space_group_symop_operation_xyz
x,y,z
-x,-y,z
1/2-x,y,z
1/2+x,-y,z
1/2+x,1/2+y,1/2+z
1/2-x,1/2-y,1/2+z
-x,1/2+y,1/2+z
x,1/2-y,1/2+z
loop_
_atom_site_type_symbol
_atom_site_label
_atom_site_fract_x
_atom_site_fract_y
_atom_site_fract_z
Si Si1 0.141408 0.054456 0.824560
Si Si2 0.054925 0.832686 0.843858
Si Si3 0.500000 0.500000 0.735138
Si Si4 0.053134 0.853489 0.437361
Si Si5 0.033396 0.735394 0.690563
Si Si6 0.365417 0.447618 0.863926
Si Si7 0.365470 0.883710 0.586398
Si Si8 0.362917 0.395614 0.163134
O O1 0.250000 0.099081 0.848690
O O2 0.126566 0.059870 0.741395
O O3 0.055978 0.122698 0.862889
O O4 0.135361 0.927665 0.840927
O O5 0.090207 0.762269 0.910177
O O6 0.050263 0.762344 0.772623
O O7 0.471056 0.603664 0.685640
O O8 0.406350 0.461354 0.783897
O O9 0.059603 0.858944 0.521606
O O10 0.938282 0.868830 0.409252
O O11 0.130351 0.938275 0.403414
O O12 0.123293 0.788254 0.644869
O O13 0.933758 0.790602 0.656228
O O14 0.250000 0.404805 0.861863
O O15 0.250000 0.883583 0.561578
O O16 0.396099 0.002741 0.614955
O O17 0.250000 0.358171 0.144918
#
# Coordination Sequence:
#
# PCOD8191590 Si02
#       8
#     8   8   4   8   8   8   8   8
#     4   9  18  31  54  87 115 145 191 239 285 345
#     4  10  18  35  56  81 118 152 190 243 295 340
#     4  10  22  40  56  88 124 156 200 248 298 352
#     4  10  22  39  55  85 119 151 192 240 298 351
#     4  11  20  37  58  82 120 158 198 241 292 356
#     4  10  21  37  59  84 115 151 189 239 296 356
#     4  11  23  38  59  88 120 156 194 245 306 360
#     4   9  19  33  56  86 114 147 188 242 300 347
#
# _framework density 19.304645000000001
#
# number of rings (size 3 to 8) (size 9 to 14) (size 15 to 20)
#    0.000    2.133    4.000    0.800    3.733    2.667 
#    0.000    1.333    0.000    0.000    0.000    0.000 
#    0.000    0.000    0.000    0.000    0.000    0.000 
#
# Total GULP energy -371803.835634 kJ/mol
# GULP energy per Si atom -12393.461188 kJ/mol
# Density = 1.926071 g / cm^3
# Si number density = 19.304645 Si / 1000 Ang^3
#
#
#
# Elastic Constant Matrix: (Units=GPa)
#
#
# Indices 1 2 3 4 5 6 
#
# 1 80.7516 3.5462 24.7353 0.0000 0.0000 0.0000
# 2 3.5462 103.4721 36.5191 0.0000 0.0000 0.0000
# 3 24.7353 36.5191 51.6712 0.0000 0.0000 0.0000
# 4 0.0000 0.0000 0.0000 24.0639 0.0000 0.0000
# 5 0.0000 0.0000 0.0000 0.0000 16.4209 0.0000
# 6 0.0000 0.0000 0.0000 0.0000 0.0000 12.6457
#
#
#
# Elastic Compliance Matrix: (Units=1/GPa)
#
#
# Indices 1 2 3 4 5 6 
#
# 1 0.015058 0.002702 -0.009118 0.000000 0.000000 0.000000
# 2 0.002702 0.013361 -0.010737 0.000000 0.000000 0.000000
# 3 -0.009118 -0.010737 0.031306 0.000000 0.000000 0.000000
# 4 0.000000 0.000000 0.000000 0.041556 0.000000 0.000000
# 5 0.000000 0.000000 0.000000 0.000000 0.060898 0.000000
# 6 0.000000 0.000000 0.000000 0.000000 0.000000 0.079078
#
#
# Mechanical properties :
#
#
# Convention : Reuss Voigt Hill
#
# Bulk Modulus (GPa) = 39.33892 40.61069 39.97481
# Shear Modulus (GPa) = 17.60338 22.03238 19.81788
#
# Velocity S-wave (km/s) = 3.02300 3.38198 3.20751
# Velocity P-wave (km/s) = 5.71024 6.02767 5.87110
#
# Compressibility (1/GPa) = 0.02542012
#
# Stress axis : x y z
#
# Youngs Moduli (GPa) = 66.41000 74.84361 31.94250
#
# Poissons Ratio (x) = -0.20223 0.29125
# Poissons Ratio (y) = -0.17944 0.34296
# Poissons Ratio (z) = 0.60553 0.80357
#
# Static dielectric constant tensor:
#      x y z
#    x 3.722640 0.000000 0.000000 
#    y 0.000000 3.571450 0.000000 
#    z 0.000000 0.000000 3.243300 
# 
# 
# High freq. dielectric constant tensor:
#      x y z
#    x 1.752210 0.000000 0.000000 
#    y 0.000000 1.742800 0.000000 
#    z 0.000000 0.000000 1.718230 
# 
# From -- ./inp_files/19605.got.cif
#   From: 2010.03.12/outbox.cif.g09.slc.cpg/sg46_10_cif.got.tgz:19605.got - 2010.04.14 02:56:35.
