data_PCOD8191555
_publ_section_title
;
Structure prediction by ZEFSAII (Michael W. Deem and Ramdas Pophale) SiO2 
 PCOD8191555
Probable space group: I M A 2
;
_chemical_formula_sum "Si O2"
_cell_formula_units_Z 48
_cell_length_a 16.782332
_cell_length_b 10.227198
_cell_length_c 14.238212
_cell_angle_alpha 90.000000
_cell_angle_beta 90.000000
_cell_angle_gamma 90.000000
_cell_volume 2443.793062
_symmetry_space_group_name_H-M "I M A 2"
_symmetry_group_IT_number 46
_symmetry_cell_setting 'orthorhombic'
loop_
_space_group_symop_operation_xyz
x,y,z
-x,-y,z
1/2-x,y,z
1/2+x,-y,z
1/2+x,1/2+y,1/2+z
1/2-x,1/2-y,1/2+z
-x,1/2+y,1/2+z
x,1/2-y,1/2+z
loop_
_atom_site_type_symbol
_atom_site_label
_atom_site_fract_x
_atom_site_fract_y
_atom_site_fract_z
Si Si1 0.592899 0.024150 0.259590
Si Si2 0.655656 0.730640 0.259590
Si Si3 0.155297 0.879433 0.454320
Si Si4 0.844703 0.120568 0.064860
Si Si5 0.155158 0.127868 0.952361
Si Si6 0.655158 0.627868 0.066819
O O1 0.617065 0.108991 0.351017
O O2 0.617064 0.108991 0.168163
O O3 0.500000 0.000000 0.259590
O O4 0.634642 0.883377 0.259590
O O5 0.750000 0.727517 0.259590
O O6 0.621663 0.649565 0.347702
O O7 0.621663 0.649565 0.171478
O O8 0.250000 0.883635 0.441435
O O9 0.127874 0.750000 0.509590
O O10 0.122552 0.996395 0.519734
O O11 0.750000 0.116365 0.077746
O O12 0.877448 0.003606 0.999446
O O13 0.250000 0.125015 0.952919
O O14 0.121750 0.250000 0.009590
O O15 0.750000 0.625016 0.066260
#
# Coordination Sequence:
#
# PCOD8191555 Si02
#       6
#     8   8   8   8   8   8
#     4  12  24  39  56  86 120 162 199 231 305 367
#     4  10  18  33  60  87 112 144 197 249 283 341
#     4  10  21  39  63  89 118 153 199 251 297 349
#     4  10  21  39  63  89 118 153 199 251 297 349
#     4   9  16  29  56  89 110 138 190 243 292 335
#     4   9  16  29  56  89 110 138 190 243 292 335
#
# _framework density 19.641597000000001
#
# number of rings (size 3 to 8) (size 9 to 14) (size 15 to 20)
#    0.000    2.000    3.333    1.500    0.000    1.333 
#    6.000    5.000    0.000    2.000    0.000    0.000 
#    0.000    0.000    0.000    0.000    0.000    0.000 
#
# Total GULP energy -297486.378308 kJ/mol
# GULP energy per Si atom -12395.265763 kJ/mol
# Density = 1.959689 g / cm^3
# Si number density = 19.641597 Si / 1000 Ang^3
#
#
#
# Elastic Constant Matrix: (Units=GPa)
#
#
# Indices 1 2 3 4 5 6 
#
# 1 33.5748 19.2328 34.3477 0.0000 0.0000 0.0000
# 2 19.2328 169.8620 105.4721 0.0000 0.0000 0.0000
# 3 34.3477 105.4721 227.1773 0.0000 0.0000 0.0000
# 4 0.0000 0.0000 0.0000 43.5456 0.0000 0.0000
# 5 0.0000 0.0000 0.0000 0.0000 11.7475 0.0000
# 6 0.0000 0.0000 0.0000 0.0000 0.0000 9.1112
#
#
#
# Elastic Compliance Matrix: (Units=1/GPa)
#
#
# Indices 1 2 3 4 5 6 
#
# 1 0.035345 -0.000961 -0.004898 0.000000 0.000000 0.000000
# 2 -0.000961 0.008298 -0.003707 0.000000 0.000000 0.000000
# 3 -0.004898 -0.003707 0.006864 0.000000 0.000000 0.000000
# 4 0.000000 0.000000 0.000000 0.022964 0.000000 0.000000
# 5 0.000000 0.000000 0.000000 0.000000 0.085125 0.000000
# 6 0.000000 0.000000 0.000000 0.000000 0.000000 0.109754
#
#
# Mechanical properties :
#
#
# Convention : Reuss Voigt Hill
#
# Bulk Modulus (GPa) = 31.87263 83.19103 57.53183
# Shear Modulus (GPa) = 16.78190 30.98497 23.88344
#
# Velocity S-wave (km/s) = 2.92619 3.97611 3.49085
# Velocity P-wave (km/s) = 5.26110 7.97030 6.75296
#
# Compressibility (1/GPa) = 0.03137488
#
# Stress axis : x y z
#
# Youngs Moduli (GPa) = 28.29235 120.51373 145.69766
#
# Poissons Ratio (x) = 0.11578 0.71362
# Poissons Ratio (y) = 0.02718 0.54013
# Poissons Ratio (z) = 0.13857 0.44677
#
# Static dielectric constant tensor:
#      x y z
#    x 3.075620 0.000000 0.000000 
#    y 0.000000 3.465570 0.000000 
#    z 0.000000 0.000000 4.118280 
# 
# 
# High freq. dielectric constant tensor:
#      x y z
#    x 1.715400 0.000000 0.000000 
#    y 0.000000 1.766960 0.000000 
#    z 0.000000 0.000000 1.788210 
# 
# From -- ./inp_files/16516.got.cif
#   From: 2010.03.12/outbox.cif.g09.slc.cpg/sg46_9_cif.got.tgz:16516.got - 2010.04.14 02:56:35.
