data_PCOD8191006
_publ_section_title
;
Structure prediction by ZEFSAII (Michael W. Deem and Ramdas Pophale) SiO2 
 PCOD8191006
Probable space group: I B A 2
;
_chemical_formula_sum "Si O2"
_cell_formula_units_Z 64
_cell_length_a 12.975651
_cell_length_b 27.986492
_cell_length_c 9.011234
_cell_angle_alpha 90.000000
_cell_angle_beta 90.000000
_cell_angle_gamma 90.000000
_cell_volume 3272.366124
_symmetry_space_group_name_H-M "I B A 2"
_symmetry_group_IT_number 45
_symmetry_cell_setting 'orthorhombic'
loop_
_space_group_symop_operation_xyz
x,y,z
-x,-y,z
-x,y,1/2+z
x,-y,1/2+z
1/2+x,1/2+y,1/2+z
1/2-x,1/2-y,1/2+z
1/2-x,1/2+y,z
1/2+x,1/2-y,z
loop_
_atom_site_type_symbol
_atom_site_label
_atom_site_fract_x
_atom_site_fract_y
_atom_site_fract_z
Si Si1 0.611159 0.812439 0.897830
Si Si2 0.886755 0.047936 0.534311
Si Si3 0.309936 0.361595 0.380046
Si Si4 0.139004 0.862938 0.050373
Si Si5 0.390011 0.454321 0.888664
Si Si6 0.714214 0.712159 0.842678
Si Si7 0.061220 0.807891 0.590753
Si Si8 0.565207 0.785076 0.198704
O O1 0.689540 0.853064 0.849225
O O2 0.660524 0.760784 0.882418
O O3 0.506229 0.814805 0.807755
O O4 0.588256 0.822227 0.069454
O O5 0.822137 0.095373 0.496783
O O6 0.894189 0.042106 0.711277
O O7 0.997301 0.051059 0.458123
O O8 0.833921 0.000834 0.460377
O O9 0.348429 0.377119 0.220358
O O10 0.365635 0.312292 0.442703
O O11 0.017518 0.850264 0.051951
O O12 0.168590 0.906765 0.942868
O O13 0.213093 0.819536 0.993698
O O14 0.640162 0.683669 0.726757
O O15 0.827729 0.725644 0.783454
O O16 0.994095 0.760141 0.620942
#
# Coordination Sequence:
#
# PCOD8191006 Si02
#       8
#     8   8   8   8   8   8   8   8
#     4  11  26  39  62  82 121 162 212 264 312 363
#     4  11  22  39  59  88 128 159 204 245 311 379
#     4  12  24  38  61  89 123 163 209 253 311 379
#     4  12  23  35  61  91 124 165 206 252 308 375
#     4  11  22  37  61  90 125 168 195 251 307 382
#     4  11  24  40  59  86 122 167 215 260 309 367
#     4  11  22  39  56  84 119 166 211 258 306 363
#     4  11  25  41  58  82 118 164 213 265 307 356
#
# _framework density 19.557715000000002
#
# number of rings (size 3 to 8) (size 9 to 14) (size 15 to 20)
#    0.000    0.750    3.750    5.250    5.250    0.000 
#    0.000    0.000    0.000    0.000    0.000    0.875 
#    0.000    0.000    0.000    0.000    0.000    0.000 
#
# Total GULP energy -396449.076054 kJ/mol
# GULP energy per Si atom -12389.033627 kJ/mol
# Density = 1.951320 g / cm^3
# Si number density = 19.557715 Si / 1000 Ang^3
#
#
#
# Elastic Constant Matrix: (Units=GPa)
#
#
# Indices 1 2 3 4 5 6 
#
# 1 85.5026 20.4149 30.2673 0.0006 -0.0010 0.0001
# 2 20.4149 69.9807 30.3675 -0.0021 0.0051 0.0002
# 3 30.2673 30.3675 145.7217 -0.0062 0.0122 0.0038
# 4 0.0006 -0.0021 -0.0062 31.8879 0.0044 0.0016
# 5 -0.0010 0.0051 0.0122 0.0044 19.3284 -0.0038
# 6 0.0001 0.0002 0.0038 0.0016 -0.0038 17.1107
#
#
#
# Elastic Compliance Matrix: (Units=1/GPa)
#
#
# Indices 1 2 3 4 5 6 
#
# 1 0.013142 -0.002913 -0.002123 -0.000001 0.000003 0.000000
# 2 -0.002913 0.016356 -0.002803 0.000001 -0.000003 0.000000
# 3 -0.002123 -0.002803 0.007888 0.000001 -0.000004 -0.000002
# 4 -0.000001 0.000001 0.000001 0.031360 -0.000007 -0.000003
# 5 0.000003 -0.000003 -0.000004 -0.000007 0.051737 0.000011
# 6 0.000000 0.000000 -0.000002 -0.000003 0.000011 0.058443
#
#
# Mechanical properties :
#
#
# Convention : Reuss Voigt Hill
#
# Bulk Modulus (GPa) = 46.06625 51.47828 48.77227
# Shear Modulus (GPa) = 24.77208 28.34242 26.55725
#
# Velocity S-wave (km/s) = 3.56281 3.81092 3.68896
# Velocity P-wave (km/s) = 6.36632 6.76332 6.56782
#
# Compressibility (1/GPa) = 0.02170787
#
# Stress axis : x y z
#
# Youngs Moduli (GPa) = 76.08922 61.13993 126.78236
#
# Poissons Ratio (x) = 0.17809 0.26913
# Poissons Ratio (y) = 0.22163 0.35543
# Poissons Ratio (z) = 0.16152 0.17140
#
# Static dielectric constant tensor:
#      x y z
#    x 3.577010 0.000000 -0.000020 
#    y 0.000000 3.814520 -0.000010 
#    z -0.000020 -0.000010 3.928160 
# 
# 
# High freq. dielectric constant tensor:
#      x y z
#    x 1.731600 0.000000 0.000000 
#    y 0.000000 1.738170 0.000000 
#    z 0.000000 0.000000 1.789080 
# 
# From -- ./inp_files/1508.got.cif
#   From: 2010.03.12/outbox.cif.g09.slc.cpg/sg45_1_cif.got.tgz:1508.got - 2010.04.14 02:50:11.
