data_PCOD8191678
_publ_section_title
;
Structure prediction by ZEFSAII (Michael W. Deem and Ramdas Pophale) SiO2 
 PCOD8191678
Probable space group: I M A 2
;
_chemical_formula_sum "Si O2"
_cell_formula_units_Z 56
_cell_length_a 8.813980
_cell_length_b 18.333414
_cell_length_c 20.802950
_cell_angle_alpha 90.000000
_cell_angle_beta 90.000000
_cell_angle_gamma 90.000000
_cell_volume 3361.555854
_symmetry_space_group_name_H-M "I M A 2"
_symmetry_group_IT_number 46
_symmetry_cell_setting 'orthorhombic'
loop_
_space_group_symop_operation_xyz
x,y,z
-x,-y,z
1/2-x,y,z
1/2+x,-y,z
1/2+x,1/2+y,1/2+z
1/2-x,1/2-y,1/2+z
-x,1/2+y,1/2+z
x,1/2-y,1/2+z
loop_
_atom_site_type_symbol
_atom_site_label
_atom_site_fract_x
_atom_site_fract_y
_atom_site_fract_z
Si Si1 0.078482 0.221962 0.890490
Si Si2 0.928513 0.420715 0.089497
Si Si3 0.428582 0.575633 0.838643
Si Si4 0.577179 0.217961 0.271593
Si Si5 0.427578 0.154532 0.710451
Si Si6 0.577720 0.574614 0.340590
Si Si7 0.075729 0.357737 0.965262
O O1 0.250000 0.233250 0.861429
O O2 0.053579 0.134476 0.897992
O O3 0.063661 0.269393 0.955578
O O4 0.951032 0.250288 0.842389
O O5 0.750000 0.429625 0.090995
O O6 0.000000 0.500000 0.090029
O O7 0.980929 0.375502 0.150673
O O8 0.975936 0.377302 0.026192
O O9 0.500000 0.500000 0.815193
O O10 0.250000 0.568784 0.853793
O O11 0.457043 0.631536 0.779036
O O12 0.514931 0.600215 0.903016
O O13 0.750000 0.232197 0.251307
O O14 0.470280 0.259906 0.220550
O O15 0.250000 0.147724 0.696746
O O16 0.480615 0.108856 0.773209
O O17 0.500000 0.500000 0.360638
O O18 0.750000 0.553297 0.331150
O O19 0.250000 0.381198 0.976842
#
# Coordination Sequence:
#
# PCOD8191678 Si02
#       7
#     8   8   8   8   8   8   8
#     4   8  16  30  46  64  89 121 155 190 229 277
#     4  12  24  36  49  68  95 125 159 194 229 272
#     4  10  19  30  46  70  98 125 155 192 235 280
#     4   9  17  29  46  68  92 119 153 193 234 275
#     4  10  20  34  49  66  92 126 161 192 228 275
#     4   9  17  28  44  68  94 119 148 184 225 269
#     4  10  19  33  50  66  90 125 161 195 233 276
#
# _framework density 16.658953
#
# number of rings (size 3 to 8) (size 9 to 14) (size 15 to 20)
#    0.000    2.286    0.000    4.714    0.000    6.286 
#    0.000    0.000    0.000    0.000    0.000    1.000 
#    0.000    4.571    0.000    0.000    0.000    0.000 
#
# Total GULP energy -346993.708660 kJ/mol
# GULP energy per Si atom -12392.632452 kJ/mol
# Density = 1.662104 g / cm^3
# Si number density = 16.658953 Si / 1000 Ang^3
#
#
#
# Elastic Constant Matrix: (Units=GPa)
#
#
# Indices 1 2 3 4 5 6 
#
# 1 93.5852 51.1967 34.1697 0.0000 0.0000 0.0000
# 2 51.1967 136.9700 49.5598 0.0000 0.0000 0.0000
# 3 34.1697 49.5598 61.9920 0.0000 0.0000 0.0000
# 4 0.0000 0.0000 0.0000 21.9341 0.0000 0.0000
# 5 0.0000 0.0000 0.0000 0.0000 23.0726 0.0000
# 6 0.0000 0.0000 0.0000 0.0000 0.0000 17.9875
#
#
#
# Elastic Compliance Matrix: (Units=1/GPa)
#
#
# Indices 1 2 3 4 5 6 
#
# 1 0.014515 -0.003561 -0.005154 0.000000 0.000000 0.000000
# 2 -0.003561 0.011146 -0.006948 0.000000 0.000000 0.000000
# 3 -0.005154 -0.006948 0.024527 0.000000 0.000000 0.000000
# 4 0.000000 0.000000 0.000000 0.045591 0.000000 0.000000
# 5 0.000000 0.000000 0.000000 0.000000 0.043341 0.000000
# 6 0.000000 0.000000 0.000000 0.000000 0.000000 0.055594
#
#
# Mechanical properties :
#
#
# Convention : Reuss Voigt Hill
#
# Bulk Modulus (GPa) = 53.01617 62.48883 57.75250
# Shear Modulus (GPa) = 21.52139 23.10690 22.31414
#
# Velocity S-wave (km/s) = 3.59817 3.72836 3.66385
# Velocity P-wave (km/s) = 7.01113 7.49175 7.25542
#
# Compressibility (1/GPa) = 0.01886217
#
# Stress axis : x y z
#
# Youngs Moduli (GPa) = 68.89340 89.72079 40.77200
#
# Poissons Ratio (x) = 0.31945 0.21015
# Poissons Ratio (y) = 0.24530 0.28328
# Poissons Ratio (z) = 0.35509 0.62337
#
# Static dielectric constant tensor:
#      x y z
#    x 3.246810 0.000000 0.000000 
#    y 0.000000 3.469260 0.000000 
#    z 0.000000 0.000000 2.866010 
# 
# 
# High freq. dielectric constant tensor:
#      x y z
#    x 1.657300 0.000000 0.000000 
#    y 0.000000 1.649980 0.000000 
#    z 0.000000 0.000000 1.593060 
# 
# From -- ./inp_files/21210.got.cif
#   From: 2010.03.12/outbox.cif.g09.slc.cpg/sg46_11_cif.got.tgz:21210.got - 2010.04.14 02:56:35.
