data_PCOD8191851
_publ_section_title
;
Structure prediction by ZEFSAII (Michael W. Deem and Ramdas Pophale) SiO2 
 PCOD8191851
Probable space group: I M A 2
;
_chemical_formula_sum "Si O2"
_cell_formula_units_Z 40
_cell_length_a 9.202395
_cell_length_b 25.335081
_cell_length_c 9.547029
_cell_angle_alpha 90.000000
_cell_angle_beta 90.000000
_cell_angle_gamma 90.000000
_cell_volume 2225.827018
_symmetry_space_group_name_H-M "I M A 2"
_symmetry_group_IT_number 46
_symmetry_cell_setting 'orthorhombic'
loop_
_space_group_symop_operation_xyz
x,y,z
-x,-y,z
1/2-x,y,z
1/2+x,-y,z
1/2+x,1/2+y,1/2+z
1/2-x,1/2-y,1/2+z
-x,1/2+y,1/2+z
x,1/2-y,1/2+z
loop_
_atom_site_type_symbol
_atom_site_label
_atom_site_fract_x
_atom_site_fract_y
_atom_site_fract_z
Si Si1 0.418723 0.357368 0.107760
Si Si2 0.582194 0.216148 0.809098
Si Si3 0.917115 0.371969 0.531128
Si Si4 0.418987 0.445937 0.332997
Si Si5 0.919964 0.336157 0.838359
O O1 0.250000 0.345587 0.088603
O O2 0.490334 0.306721 0.180806
O O3 0.447331 0.409387 0.198856
O O4 0.491517 0.367090 0.957228
O O5 0.750000 0.215186 0.762150
O O6 0.529760 0.275351 0.837737
O O7 0.555032 0.182767 0.949744
O O8 0.750000 0.389344 0.514432
O O9 0.959740 0.363332 0.691762
O O10 0.017222 0.418472 0.471702
O O11 0.500000 0.500000 0.302048
O O12 0.250000 0.456716 0.358562
O O13 0.750000 0.340672 0.871062
#
# Coordination Sequence:
#
# PCOD8191851 Si02
#       5
#     8   8   8   8   8
#     4  10  21  34  50  77 108 136 169 210 256 303
#     4   9  17  32  53  75 103 141 180 210 239 288
#     4   9  18  32  52  78 105 135 172 211 251 294
#     4  10  21  38  58  76  96 127 169 214 260 310
#     4  10  19  32  52  78 108 141 174 207 245 295
#
# _framework density 17.970846999999999
#
# number of rings (size 3 to 8) (size 9 to 14) (size 15 to 20)
#    0.000    2.400    0.000    2.400    0.000    7.200 
#    0.000    5.000    0.000    2.400    0.000    0.000 
#    0.000    0.000    0.000    0.000    0.000    0.000 
#
# Total GULP energy -248087.373319 kJ/mol
# GULP energy per Si atom -12404.368666 kJ/mol
# Density = 1.792994 g / cm^3
# Si number density = 17.970847 Si / 1000 Ang^3
#
#
#
# Elastic Constant Matrix: (Units=GPa)
#
#
# Indices 1 2 3 4 5 6 
#
# 1 98.3903 57.2178 69.4061 0.0006 0.0015 0.0004
# 2 57.2178 92.1659 44.4486 0.0007 0.0011 0.0009
# 3 69.4061 44.4486 139.3588 0.0027 0.0051 -0.0012
# 4 0.0006 0.0007 0.0027 11.3050 -0.0001 -0.0008
# 5 0.0015 0.0011 0.0051 -0.0001 30.7697 0.0008
# 6 0.0004 0.0009 -0.0012 -0.0008 0.0008 25.9837
#
#
#
# Elastic Compliance Matrix: (Units=1/GPa)
#
#
# Indices 1 2 3 4 5 6 
#
# 1 0.020814 -0.009363 -0.007380 0.000001 0.000001 0.000000
# 2 -0.009363 0.017034 -0.000770 0.000000 0.000000 -0.000001
# 3 -0.007380 -0.000770 0.011097 -0.000002 -0.000001 0.000001
# 4 0.000001 0.000000 -0.000002 0.088456 0.000000 0.000003
# 5 0.000001 0.000000 -0.000001 0.000000 0.032500 -0.000001
# 6 0.000000 -0.000001 0.000001 0.000003 -0.000001 0.038486
#
#
# Mechanical properties :
#
#
# Convention : Reuss Voigt Hill
#
# Bulk Modulus (GPa) = 71.84142 74.67331 73.25736
# Shear Modulus (GPa) = 20.15707 24.20120 22.17914
#
# Velocity S-wave (km/s) = 3.35274 3.67371 3.51689
# Velocity P-wave (km/s) = 7.41966 7.72254 7.57261
#
# Compressibility (1/GPa) = 0.01391955
#
# Stress axis : x y z
#
# Youngs Moduli (GPa) = 48.04356 58.70684 90.11515
#
# Poissons Ratio (x) = 0.54965 0.66507
# Poissons Ratio (y) = 0.44982 0.06939
# Poissons Ratio (z) = 0.35457 0.04520
#
# Static dielectric constant tensor:
#      x y z
#    x 3.323220 0.000000 0.000000 
#    y 0.000000 3.173510 0.000000 
#    z 0.000000 0.000000 3.342860 
# 
# 
# High freq. dielectric constant tensor:
#      x y z
#    x 1.695840 0.000000 0.000000 
#    y 0.000000 1.680770 0.000000 
#    z 0.000000 0.000000 1.699920 
# 
# From -- ./inp_files/3510.got.cif
#   From: 2010.03.12/outbox.cif.g09.slc.cpg/sg46_2_cif.got.tgz:3510.got - 2010.04.14 02:56:35.
