data_PCOD8191331
_publ_section_title
;
Structure prediction by ZEFSAII (Michael W. Deem and Ramdas Pophale) SiO2 
 PCOD8191331
Probable space group: I M A 2
;
_chemical_formula_sum "Si O2"
_cell_formula_units_Z 56
_cell_length_a 8.658726
_cell_length_b 13.724635
_cell_length_c 29.635688
_cell_angle_alpha 90.000000
_cell_angle_beta 90.000000
_cell_angle_gamma 90.000000
_cell_volume 3521.841561
_symmetry_space_group_name_H-M "I M A 2"
_symmetry_group_IT_number 46
_symmetry_cell_setting 'orthorhombic'
loop_
_space_group_symop_operation_xyz
x,y,z
-x,-y,z
1/2-x,y,z
1/2+x,-y,z
1/2+x,1/2+y,1/2+z
1/2-x,1/2-y,1/2+z
-x,1/2+y,1/2+z
x,1/2-y,1/2+z
loop_
_atom_site_type_symbol
_atom_site_label
_atom_site_fract_x
_atom_site_fract_y
_atom_site_fract_z
Si Si1 0.433305 0.602745 0.767760
Si Si2 0.066952 0.608456 0.600463
Si Si3 0.429615 0.895219 0.002425
Si Si4 0.566815 0.107492 0.905510
Si Si5 0.932962 0.395504 0.228054
Si Si6 0.932496 0.291205 0.317538
Si Si7 0.432621 0.209819 0.184544
O O1 0.500000 0.500000 0.783911
O O2 0.250000 0.598166 0.764313
O O3 0.490116 0.682964 0.804298
O O4 0.497884 0.630387 0.718745
O O5 0.250000 0.605235 0.609594
O O6 0.028158 0.654628 0.550409
O O7 0.000000 0.500000 0.605475
O O8 0.982786 0.680540 0.634493
O O9 0.250000 0.911538 0.000317
O O10 0.500000 0.000000 0.003009
O O11 0.480561 0.845055 0.954645
O O12 0.750000 0.100230 0.900279
O O13 0.497472 0.175933 0.865774
O O14 0.500000 0.000000 0.899793
O O15 0.750000 0.395588 0.222952
O O16 0.985101 0.367027 0.278801
O O17 0.000000 0.500000 0.215266
O O18 0.001765 0.317236 0.193431
O O19 0.750000 0.289568 0.320053
O O20 0.250000 0.210195 0.189221
#
# Coordination Sequence:
#
# PCOD8191331 Si02
#       7
#     8   8   8   8   8   8   8
#     4  10  19  32  46  63  87 116 146 182 220 259
#     4  10  18  29  43  63  89 117 146 180 218 262
#     4   8  15  25  40  60  85 113 142 173 211 255
#     4   9  15  26  42  63  88 115 143 173 208 252
#     4  10  19  32  47  66  91 119 147 180 215 253
#     4   8  16  28  44  64  88 115 145 176 211 252
#     4  11  21  32  46  65  86 115 149 182 218 259
#
# _framework density 15.900772
#
# number of rings (size 3 to 8) (size 9 to 14) (size 15 to 20)
#    0.000    2.571    0.000    4.286    0.000    0.571 
#    0.000    3.571    0.000    0.000    0.000    1.000 
#    0.000    2.286    0.000    0.000    0.000    0.000 
#
# Total GULP energy -346913.913921 kJ/mol
# GULP energy per Si atom -12389.782640 kJ/mol
# Density = 1.586458 g / cm^3
# Si number density = 15.900772 Si / 1000 Ang^3
#
#
#
# Elastic Constant Matrix: (Units=GPa)
#
#
# Indices 1 2 3 4 5 6 
#
# 1 64.2553 31.1841 35.2808 0.0000 0.0000 0.0000
# 2 31.1841 98.5083 60.3636 -0.0001 0.0000 0.0000
# 3 35.2808 60.3636 145.3301 0.0000 0.0000 0.0000
# 4 0.0000 -0.0001 0.0000 19.7115 0.0000 0.0000
# 5 0.0000 0.0000 0.0000 0.0000 -19.0887 0.0000
# 6 0.0000 0.0000 0.0000 0.0000 0.0000 23.5981
#
#
#
# Elastic Compliance Matrix: (Units=1/GPa)
#
#
# Indices 1 2 3 4 5 6 
#
# 1 0.019242 -0.004331 -0.002872 0.000000 0.000000 0.000000
# 2 -0.004331 0.014592 -0.005009 0.000000 0.000000 0.000000
# 3 -0.002872 -0.005009 0.009659 0.000000 0.000000 0.000000
# 4 0.000000 0.000000 0.000000 0.050732 0.000000 0.000000
# 5 0.000000 0.000000 0.000000 0.000000 -0.052387 0.000000
# 6 0.000000 0.000000 0.000000 0.000000 0.000000 0.042376
#
#
# Mechanical properties :
#
#
# Convention : Reuss Voigt Hill
#
# Bulk Modulus (GPa) = 52.44623 62.41673 57.43148
# Shear Modulus (GPa) = 43.47982 16.92853 30.20418
#
# Velocity S-wave (km/s) = 5.23487 3.26642 4.36310
# Velocity P-wave (km/s) = 8.34227 7.31882 7.84725
#
# Compressibility (1/GPa) = 0.01906715
#
# Stress axis : x y z
#
# Youngs Moduli (GPa) = 51.96958 68.52953 103.53171
#
# Poissons Ratio (x) = 0.29682 0.29737
# Poissons Ratio (y) = 0.22509 0.51864
# Poissons Ratio (z) = 0.14927 0.34330
#
# Static dielectric constant tensor:
#      x y z
#    x 4.031140 0.000000 0.000000 
#    y 0.000000 2.874940 0.000000 
#    z 0.000000 0.000000 3.665780 
# 
# 
# High freq. dielectric constant tensor:
#      x y z
#    x 1.613520 0.000000 0.000000 
#    y 0.000000 1.577180 0.000000 
#    z 0.000000 0.000000 1.617350 
# 
# From -- ./inp_files/25231.got.cif
#   From: 2010.03.12/outbox.cif.g09.slc.cpg/sg46_13_cif.got.tgz:25231.got - 2010.04.14 02:56:35.
