data_PCOD8191209
_publ_section_title
;
Structure prediction by ZEFSAII (Michael W. Deem and Ramdas Pophale) SiO2 
 PCOD8191209
Probable space group: I M A 2
;
_chemical_formula_sum "Si O2"
_cell_formula_units_Z 64
_cell_length_a 19.160695
_cell_length_b 9.683107
_cell_length_c 19.584904
_cell_angle_alpha 90.000000
_cell_angle_beta 90.000000
_cell_angle_gamma 90.000000
_cell_volume 3633.686336
_symmetry_space_group_name_H-M "I M A 2"
_symmetry_group_IT_number 46
_symmetry_cell_setting 'orthorhombic'
loop_
_space_group_symop_operation_xyz
x,y,z
-x,-y,z
1/2-x,y,z
1/2+x,-y,z
1/2+x,1/2+y,1/2+z
1/2-x,1/2-y,1/2+z
-x,1/2+y,1/2+z
x,1/2-y,1/2+z
loop_
_atom_site_type_symbol
_atom_site_label
_atom_site_fract_x
_atom_site_fract_y
_atom_site_fract_z
Si Si1 0.090240 0.614770 0.456690
Si Si2 0.078740 0.466913 0.683131
Si Si3 0.168615 0.523309 0.072829
Si Si4 0.436217 0.312292 0.436593
Si Si5 0.586828 0.219120 0.106441
Si Si6 0.424762 0.062567 0.340124
Si Si7 0.670385 0.123754 0.423127
Si Si8 0.070634 0.224122 0.590293
O O1 0.106449 0.457071 0.434039
O O2 0.084413 0.625024 0.538393
O O3 0.149971 0.715497 0.429094
O O4 0.017496 0.661011 0.423358
O O5 0.112666 0.616814 0.667456
O O6 0.086447 0.414013 0.759965
O O7 0.106802 0.348027 0.632665
O O8 0.000000 0.500000 0.661778
O O9 0.250000 0.490662 0.087827
O O10 0.147343 0.667611 0.106922
O O11 0.117788 0.409537 0.105830
O O12 0.154469 0.538974 0.992109
O O13 0.410361 0.207905 0.377821
O O14 0.424033 0.244463 0.509703
O O15 0.510278 0.292191 0.114727
O O16 0.500000 0.000000 0.358183
O O17 0.369801 0.948123 0.361974
O O18 0.750000 0.118738 0.402849
#
# Coordination Sequence:
#
# PCOD8191209 Si02
#       8
#     8   8   8   8   8   8   8   8
#     4   9  17  30  52  80 101 134 179 224 263 309
#     4   9  19  34  54  80 111 136 174 222 266 314
#     4  10  20  32  51  80 108 133 178 228 262 306
#     4  10  17  29  56  82 103 132 180 224 263 314
#     4   9  17  32  54  76 102 140 176 216 266 317
#     4  11  20  34  55  82 108 142 179 221 266 318
#     4  10  20  34  50  77 113 143 176 220 271 319
#     4  10  17  32  54  80 106 137 172 222 270 309
#
# _framework density 17.612967999999999
#
# number of rings (size 3 to 8) (size 9 to 14) (size 15 to 20)
#    0.000    2.250    3.750    0.375    0.000    0.000 
#    0.000    4.375    2.750    0.000    0.000    0.000 
#    0.000    0.000    0.000    0.000    0.000    0.000 
#
# Total GULP energy -396639.761585 kJ/mol
# GULP energy per Si atom -12394.992550 kJ/mol
# Density = 1.757288 g / cm^3
# Si number density = 17.612968 Si / 1000 Ang^3
#
#
#
# Elastic Constant Matrix: (Units=GPa)
#
#
# Indices 1 2 3 4 5 6 
#
# 1 66.8980 42.7821 25.9911 0.0000 0.0000 0.0000
# 2 42.7821 114.6375 53.3836 0.0000 0.0000 0.0000
# 3 25.9911 53.3836 72.3979 0.0000 0.0000 0.0000
# 4 0.0000 0.0000 0.0000 28.1666 0.0000 0.0000
# 5 0.0000 0.0000 0.0000 0.0000 9.0203 0.0000
# 6 0.0000 0.0000 0.0000 0.0000 0.0000 18.3482
#
#
#
# Elastic Compliance Matrix: (Units=1/GPa)
#
#
# Indices 1 2 3 4 5 6 
#
# 1 0.019937 -0.006255 -0.002545 0.000000 0.000000 0.000000
# 2 -0.006255 0.015247 -0.008997 0.000000 0.000000 0.000000
# 3 -0.002545 -0.008997 0.021360 0.000000 0.000000 0.000000
# 4 0.000000 0.000000 0.000000 0.035503 0.000000 0.000000
# 5 0.000000 0.000000 0.000000 0.000000 0.110861 0.000000
# 6 0.000000 0.000000 0.000000 0.000000 0.000000 0.054501
#
#
# Mechanical properties :
#
#
# Convention : Reuss Voigt Hill
#
# Bulk Modulus (GPa) = 47.73294 55.36078 51.54686
# Shear Modulus (GPa) = 16.66729 19.89213 18.27971
#
# Velocity S-wave (km/s) = 3.07955 3.36430 3.22507
# Velocity P-wave (km/s) = 6.30910 6.82579 6.57252
#
# Compressibility (1/GPa) = 0.02094990
#
# Stress axis : x y z
#
# Youngs Moduli (GPa) = 50.15725 65.58528 46.81547
#
# Poissons Ratio (x) = 0.41025 0.11915
# Poissons Ratio (y) = 0.31375 0.42121
# Poissons Ratio (z) = 0.12766 0.59008
#
# Static dielectric constant tensor:
#      x y z
#    x 3.012780 0.000000 0.000000 
#    y 0.000000 3.385950 0.000000 
#    z 0.000000 0.000000 3.001530 
# 
# 
# High freq. dielectric constant tensor:
#      x y z
#    x 1.652090 0.000000 0.000000 
#    y 0.000000 1.692670 0.000000 
#    z 0.000000 0.000000 1.654680 
# 
# From -- ./inp_files/20244.got.cif
#   From: 2010.03.12/outbox.cif.g09.slc.cpg/sg46_11_cif.got.tgz:20244.got - 2010.04.14 02:56:35.
