data_PCOD8191313
_publ_section_title
;
Structure prediction by ZEFSAII (Michael W. Deem and Ramdas Pophale) SiO2 
 PCOD8191313
Probable space group: I M A 2
;
_chemical_formula_sum "Si O2"
_cell_formula_units_Z 56
_cell_length_a 8.828164
_cell_length_b 13.617956
_cell_length_c 29.229435
_cell_angle_alpha 90.000000
_cell_angle_beta 90.000000
_cell_angle_gamma 90.000000
_cell_volume 3514.007950
_symmetry_space_group_name_H-M "I M A 2"
_symmetry_group_IT_number 46
_symmetry_cell_setting 'orthorhombic'
loop_
_space_group_symop_operation_xyz
x,y,z
-x,-y,z
1/2-x,y,z
1/2+x,-y,z
1/2+x,1/2+y,1/2+z
1/2-x,1/2-y,1/2+z
-x,1/2+y,1/2+z
x,1/2-y,1/2+z
loop_
_atom_site_type_symbol
_atom_site_label
_atom_site_fract_x
_atom_site_fract_y
_atom_site_fract_z
Si Si1 0.426826 0.606884 0.364270
Si Si2 0.572237 0.606753 0.554096
Si Si3 0.929202 0.716410 0.282468
Si Si4 0.427486 0.299547 0.648735
Si Si5 0.574437 0.898477 0.693733
Si Si6 0.929705 0.103348 0.233596
Si Si7 0.425197 0.605335 0.465549
O O1 0.500000 0.500000 0.359485
O O2 0.250000 0.597399 0.351914
O O3 0.509635 0.682566 0.331248
O O4 0.448765 0.652814 0.415377
O O5 0.500000 0.500000 0.561505
O O6 0.750000 0.593824 0.549046
O O7 0.529835 0.675580 0.596780
O O8 0.506708 0.660433 0.508156
O O9 0.750000 0.733052 0.284076
O O10 0.973633 0.634449 0.244788
O O11 0.008765 0.818074 0.269861
O O12 0.250000 0.315691 0.659361
O O13 0.473596 0.186545 0.658023
O O14 0.519998 0.370758 0.682082
O O15 0.750000 0.918124 0.691537
O O16 0.500000 0.000000 0.679189
O O17 0.750000 0.098582 0.236070
O O18 0.000000 0.000000 0.248133
O O19 0.500000 0.500000 0.463187
O O20 0.250000 0.595007 0.477604
#
# Coordination Sequence:
#
# PCOD8191313 Si02
#       7
#     8   8   8   8   8   8   8
#     4  10  19  30  45  67  94 124 154 187 227 272
#     4  10  18  28  44  64  89 119 150 185 225 269
#     4  10  20  33  48  67  92 121 153 189 226 268
#     4   9  19  33  46  65  92 121 153 188 226 269
#     4   9  18  31  45  63  89 117 147 183 221 260
#     4  11  21  33  49  68  92 121 153 188 225 269
#     4   9  17  28  42  62  90 119 149 184 223 269
#
# _framework density 15.936218999999999
#
# number of rings (size 3 to 8) (size 9 to 14) (size 15 to 20)
#    0.000    2.286    0.000    5.571    0.000    8.000 
#    0.000    0.000    0.000    0.000    0.000    1.000 
#    0.000    4.571    0.000    0.000    0.000    0.000 
#
# Total GULP energy -347103.369651 kJ/mol
# GULP energy per Si atom -12396.548916 kJ/mol
# Density = 1.589995 g / cm^3
# Si number density = 15.936219 Si / 1000 Ang^3
#
#
#
# Elastic Constant Matrix: (Units=GPa)
#
#
# Indices 1 2 3 4 5 6 
#
# 1 96.0130 43.9258 54.9796 0.0000 0.0000 0.0000
# 2 43.9258 89.5136 50.8852 0.0000 0.0000 0.0000
# 3 54.9796 50.8852 132.6592 0.0000 0.0000 0.0000
# 4 0.0000 0.0000 0.0000 22.1513 0.0000 0.0000
# 5 0.0000 0.0000 0.0000 0.0000 25.6095 0.0000
# 6 0.0000 0.0000 0.0000 0.0000 0.0000 25.7448
#
#
#
# Elastic Compliance Matrix: (Units=1/GPa)
#
#
# Indices 1 2 3 4 5 6 
#
# 1 0.015203 -0.004960 -0.004398 0.000000 0.000000 0.000000
# 2 -0.004960 0.015905 -0.004045 0.000000 0.000000 0.000000
# 3 -0.004398 -0.004045 0.010913 0.000000 0.000000 0.000000
# 4 0.000000 0.000000 0.000000 0.045144 0.000000 0.000000
# 5 0.000000 0.000000 0.000000 0.000000 0.039048 0.000000
# 6 0.000000 0.000000 0.000000 0.000000 0.000000 0.038843
#
#
# Mechanical properties :
#
#
# Convention : Reuss Voigt Hill
#
# Bulk Modulus (GPa) = 65.73042 68.64078 67.18560
# Shear Modulus (GPa) = 25.38926 25.92746 25.65836
#
# Velocity S-wave (km/s) = 3.99580 4.03792 4.01692
# Velocity P-wave (km/s) = 7.91353 8.05639 7.98528
#
# Compressibility (1/GPa) = 0.01521366
#
# Stress axis : x y z
#
# Youngs Moduli (GPa) = 65.77624 62.87324 91.63787
#
# Poissons Ratio (x) = 0.31186 0.40304
# Poissons Ratio (y) = 0.32626 0.37068
# Poissons Ratio (z) = 0.28930 0.25433
#
# Static dielectric constant tensor:
#      x y z
#    x 3.140910 0.000000 0.000000 
#    y 0.000000 2.820940 0.000000 
#    z 0.000000 0.000000 3.492010 
# 
# 
# High freq. dielectric constant tensor:
#      x y z
#    x 1.628720 0.000000 0.000000 
#    y 0.000000 1.578010 0.000000 
#    z 0.000000 0.000000 1.614430 
# 
# From -- ./inp_files/25243.got.cif
#   From: 2010.03.12/outbox.cif.g09.slc.cpg/sg46_13_cif.got.tgz:25243.got - 2010.04.14 02:56:35.
