data_PCOD8191175
_publ_section_title
;
Structure prediction by ZEFSAII (Michael W. Deem and Ramdas Pophale) SiO2 
 PCOD8191175
Probable space group: I M A 2
;
_chemical_formula_sum "Si O2"
_cell_formula_units_Z 48
_cell_length_a 8.701406
_cell_length_b 9.142694
_cell_length_c 31.175441
_cell_angle_alpha 90.000000
_cell_angle_beta 90.000000
_cell_angle_gamma 90.000000
_cell_volume 2480.140150
_symmetry_space_group_name_H-M "I M A 2"
_symmetry_group_IT_number 46
_symmetry_cell_setting 'orthorhombic'
loop_
_space_group_symop_operation_xyz
x,y,z
-x,-y,z
1/2-x,y,z
1/2+x,-y,z
1/2+x,1/2+y,1/2+z
1/2-x,1/2-y,1/2+z
-x,1/2+y,1/2+z
x,1/2-y,1/2+z
loop_
_atom_site_type_symbol
_atom_site_label
_atom_site_fract_x
_atom_site_fract_y
_atom_site_fract_z
Si Si1 0.068543 0.337305 0.587120
Si Si2 0.427110 0.842212 0.003866
Si Si3 0.930591 0.158716 0.756860
Si Si4 0.931684 0.659277 0.833699
Si Si5 0.428908 0.660818 0.408792
Si Si6 0.929699 0.341567 0.672945
O O1 0.250000 0.338091 0.588735
O O2 0.000000 0.500000 0.585766
O O3 0.011317 0.255900 0.543230
O O4 0.003396 0.264246 0.630647
O O5 0.250000 0.856784 0.016252
O O6 0.500000 0.000000 0.999643
O O7 0.449575 0.771402 0.956836
O O8 0.750000 0.151815 0.766131
O O9 0.969415 0.241982 0.713200
O O10 0.013223 0.236984 0.795908
O O11 0.000000 0.000000 0.752012
O O12 0.750000 0.647916 0.833366
O O13 0.000000 0.500000 0.826390
O O14 0.986471 0.724381 0.878705
O O15 0.500000 0.500000 0.403438
O O16 0.250000 0.649178 0.396587
O O17 0.750000 0.359801 0.665336
O O18 0.000000 0.500000 0.681766
#
# Coordination Sequence:
#
# PCOD8191175 Si02
#       6
#     8   8   8   8   8   8
#     4  10  17  26  45  73 107 143 180 223 268 316
#     4   9  16  27  46  73 107 143 180 223 267 314
#     4  11  24  41  61  84 111 144 182 225 274 328
#     4  12  25  41  61  83 111 144 181 226 274 329
#     4  10  20  35  56  83 114 148 186 228 275 325
#     4  10  20  34  54  80 110 144 182 225 272 322
#
# _framework density 19.353745
#
# number of rings (size 3 to 8) (size 9 to 14) (size 15 to 20)
#    0.000    1.667    0.000    8.000    0.000    6.000 
#    0.000    0.000    0.000    1.000    0.000    4.667 
#    0.000    0.000    0.000    0.000    0.000    0.000 
#
# Total GULP energy -297517.049718 kJ/mol
# GULP energy per Si atom -12396.543738 kJ/mol
# Density = 1.930970 g / cm^3
# Si number density = 19.353745 Si / 1000 Ang^3
#
#
#
# Elastic Constant Matrix: (Units=GPa)
#
#
# Indices 1 2 3 4 5 6 
#
# 1 158.6306 43.1694 89.1973 0.0000 0.0000 0.0000
# 2 43.1694 73.6563 46.9395 0.0000 0.0000 0.0000
# 3 89.1973 46.9395 164.1338 0.0000 0.0000 0.0000
# 4 0.0000 0.0000 0.0000 23.7442 0.0000 0.0000
# 5 0.0000 0.0000 0.0000 0.0000 32.8148 0.0000
# 6 0.0000 0.0000 0.0000 0.0000 0.0000 25.9003
#
#
#
# Elastic Compliance Matrix: (Units=1/GPa)
#
#
# Indices 1 2 3 4 5 6 
#
# 1 0.009526 -0.002793 -0.004378 0.000000 0.000000 0.000000
# 2 -0.002793 0.017421 -0.003464 0.000000 0.000000 0.000000
# 3 -0.004378 -0.003464 0.009462 0.000000 0.000000 0.000000
# 4 0.000000 0.000000 0.000000 0.042116 0.000000 0.000000
# 5 0.000000 0.000000 0.000000 0.000000 0.030474 0.000000
# 6 0.000000 0.000000 0.000000 0.000000 0.000000 0.038610
#
#
# Mechanical properties :
#
#
# Convention : Reuss Voigt Hill
#
# Bulk Modulus (GPa) = 66.05491 83.89258 74.97374
# Shear Modulus (GPa) = 28.74793 30.96616 29.85705
#
# Velocity S-wave (km/s) = 3.85826 4.00435 3.93198
# Velocity P-wave (km/s) = 7.35205 8.05114 7.70952
#
# Compressibility (1/GPa) = 0.01513892
#
# Stress axis : x y z
#
# Youngs Moduli (GPa) = 104.97888 57.40102 105.68043
#
# Poissons Ratio (x) = 0.16032 0.46266
# Poissons Ratio (y) = 0.29321 0.36612
# Poissons Ratio (z) = 0.45959 0.19886
#
# Static dielectric constant tensor:
#      x y z
#    x 3.759680 0.000000 0.000000 
#    y 0.000000 3.142610 0.000000 
#    z 0.000000 0.000000 4.643780 
# 
# 
# High freq. dielectric constant tensor:
#      x y z
#    x 1.776380 0.000000 0.000000 
#    y 0.000000 1.700720 0.000000 
#    z 0.000000 0.000000 1.787780 
# 
# From -- ./inp_files/25018.got.cif
#   From: 2010.03.12/outbox.cif.g09.slc.cpg/sg46_13_cif.got.tgz:25018.got - 2010.04.14 02:56:35.
