data_PCOD8191566
_publ_section_title
;
Structure prediction by ZEFSAII (Michael W. Deem and Ramdas Pophale) SiO2 
 PCOD8191566
Probable space group: I M A 2
;
_chemical_formula_sum "Si O2"
_cell_formula_units_Z 64
_cell_length_a 8.641945
_cell_length_b 20.758455
_cell_length_c 19.710564
_cell_angle_alpha 90.000000
_cell_angle_beta 90.000000
_cell_angle_gamma 90.000000
_cell_volume 3535.945612
_symmetry_space_group_name_H-M "I M A 2"
_symmetry_group_IT_number 46
_symmetry_cell_setting 'orthorhombic'
loop_
_space_group_symop_operation_xyz
x,y,z
-x,-y,z
1/2-x,y,z
1/2+x,-y,z
1/2+x,1/2+y,1/2+z
1/2-x,1/2-y,1/2+z
-x,1/2+y,1/2+z
x,1/2-y,1/2+z
loop_
_atom_site_type_symbol
_atom_site_label
_atom_site_fract_x
_atom_site_fract_y
_atom_site_fract_z
Si Si1 0.432034 0.765329 0.507730
Si Si2 0.069682 0.759036 0.359527
Si Si3 0.566539 0.380590 0.505503
Si Si4 0.567956 0.933534 0.140491
Si Si5 0.566501 0.066574 0.729905
Si Si6 0.933953 0.187187 0.646392
Si Si7 0.432062 0.379559 0.362520
Si Si8 0.430184 0.816990 0.219835
O O1 0.250000 0.765377 0.515777
O O2 0.479343 0.790168 0.432395
O O3 0.490788 0.692452 0.518215
O O4 0.498559 0.809785 0.568589
O O5 0.250000 0.738413 0.360770
O O6 0.038742 0.810916 0.300633
O O7 0.974274 0.694388 0.346758
O O8 0.750000 0.385882 0.501687
O O9 0.504470 0.423724 0.566367
O O10 0.495398 0.404319 0.434658
O O11 0.750000 0.938580 0.133640
O O12 0.526308 0.876836 0.192456
O O13 0.500000 0.000000 0.170351
O O14 0.750000 0.065287 0.728277
O O15 0.498328 0.124016 0.682808
O O16 0.508942 0.075295 0.806386
O O17 0.500000 0.000000 0.700348
O O18 0.750000 0.183944 0.649230
O O19 0.989583 0.251420 0.685036
O O20 0.250000 0.388492 0.360211
O O21 0.250000 0.828801 0.203488
#
# Coordination Sequence:
#
# PCOD8191566 Si02
#       8
#     8   8   8   8   8   8   8   8
#     4   8  14  27  52  82 105 135 176 221 264 316
#     4   9  17  31  54  81 110 144 186 225 271 325
#     4  10  19  35  57  79 108 145 183 221 266 325
#     4  12  25  39  55  80 111 146 184 226 276 330
#     4  11  22  37  54  76 107 146 187 229 276 332
#     4   9  16  30  55  81 106 138 183 227 271 320
#     4  11  21  33  51  79 113 146 183 225 270 323
#     4  10  18  34  57  82 108 143 185 230 274 324
#
# _framework density 18.099826
#
# number of rings (size 3 to 8) (size 9 to 14) (size 15 to 20)
#    0.000    2.000    2.500    3.750    0.000    1.000 
#    0.000    2.500    0.000    0.750    0.000    1.750 
#    0.000    0.000    0.000    0.000    0.000    0.000 
#
# Total GULP energy -396737.280512 kJ/mol
# GULP energy per Si atom -12398.040016 kJ/mol
# Density = 1.805863 g / cm^3
# Si number density = 18.099826 Si / 1000 Ang^3
#
#
#
# Elastic Constant Matrix: (Units=GPa)
#
#
# Indices 1 2 3 4 5 6 
#
# 1 61.3689 24.1435 21.6046 0.0000 0.0000 0.0000
# 2 24.1435 108.3138 59.2984 0.0000 0.0000 0.0000
# 3 21.6046 59.2984 122.9896 0.0000 0.0000 0.0000
# 4 0.0000 0.0000 0.0000 24.7669 0.0000 0.0000
# 5 0.0000 0.0000 0.0000 0.0000 19.4204 0.0000
# 6 0.0000 0.0000 0.0000 0.0000 0.0000 25.2268
#
#
#
# Elastic Compliance Matrix: (Units=1/GPa)
#
#
# Indices 1 2 3 4 5 6 
#
# 1 0.018113 -0.003119 -0.001678 0.000000 0.000000 0.000000
# 2 -0.003119 0.013080 -0.005759 0.000000 0.000000 0.000000
# 3 -0.001678 -0.005759 0.011202 0.000000 0.000000 0.000000
# 4 0.000000 0.000000 0.000000 0.040376 0.000000 0.000000
# 5 0.000000 0.000000 0.000000 0.000000 0.051492 0.000000
# 6 0.000000 0.000000 0.000000 0.000000 0.000000 0.039640
#
#
# Mechanical properties :
#
#
# Convention : Reuss Voigt Hill
#
# Bulk Modulus (GPa) = 46.98352 55.86279 51.42316
# Shear Modulus (GPa) = 24.73904 26.39121 25.56513
#
# Velocity S-wave (km/s) = 3.70105 3.82264 3.76234
# Velocity P-wave (km/s) = 6.65418 7.10029 6.88085
#
# Compressibility (1/GPa) = 0.02128406
#
# Stress axis : x y z
#
# Youngs Moduli (GPa) = 55.21026 76.45074 89.26925
#
# Poissons Ratio (x) = 0.23842 0.14980
# Poissons Ratio (y) = 0.17218 0.51408
# Poissons Ratio (z) = 0.09265 0.44026
#
# Static dielectric constant tensor:
#      x y z
#    x 3.111380 0.000000 0.000000 
#    y 0.000000 3.257610 0.000000 
#    z 0.000000 0.000000 3.734180 
# 
# 
# High freq. dielectric constant tensor:
#      x y z
#    x 1.681960 0.000000 0.000000 
#    y 0.000000 1.676030 0.000000 
#    z 0.000000 0.000000 1.710530 
# 
# From -- ./inp_files/21308.got.cif
#   From: 2010.03.12/outbox.cif.g09.slc.cpg/sg46_11_cif.got.tgz:21308.got - 2010.04.14 02:56:35.
