data_PCOD8191855
_publ_section_title
;
Structure prediction by ZEFSAII (Michael W. Deem and Ramdas Pophale) SiO2 
 PCOD8191855
Probable space group: I M A 2
;
_chemical_formula_sum "Si O2"
_cell_formula_units_Z 64
_cell_length_a 8.905019
_cell_length_b 16.084015
_cell_length_c 22.431140
_cell_angle_alpha 90.000000
_cell_angle_beta 90.000000
_cell_angle_gamma 90.000000
_cell_volume 3212.777620
_symmetry_space_group_name_H-M "I M A 2"
_symmetry_group_IT_number 46
_symmetry_cell_setting 'orthorhombic'
loop_
_space_group_symop_operation_xyz
x,y,z
-x,-y,z
1/2-x,y,z
1/2+x,-y,z
1/2+x,1/2+y,1/2+z
1/2-x,1/2-y,1/2+z
-x,1/2+y,1/2+z
x,1/2-y,1/2+z
loop_
_atom_site_type_symbol
_atom_site_label
_atom_site_fract_x
_atom_site_fract_y
_atom_site_fract_z
Si Si1 0.922305 0.420729 0.921700
Si Si2 0.928781 0.231342 0.096372
Si Si3 0.571260 0.586574 0.517218
Si Si4 0.087044 0.199306 0.344351
Si Si5 0.927380 0.414775 0.055750
Si Si6 0.416394 0.113578 0.881133
Si Si7 0.926521 0.418675 0.263078
Si Si8 0.925379 0.744763 0.215805
O O1 0.750000 0.439011 0.925926
O O2 0.000000 0.500000 0.892089
O O3 0.952681 0.344562 0.878417
O O4 0.985240 0.404583 0.987899
O O5 0.750000 0.221523 0.092791
O O6 0.978440 0.327828 0.085952
O O7 0.991544 0.208451 0.161715
O O8 0.001540 0.166876 0.049910
O O9 0.500000 0.500000 0.541754
O O10 0.750000 0.586076 0.527275
O O11 0.528036 0.593194 0.447544
O O12 0.250000 0.156086 0.354696
O O13 0.095153 0.289072 0.372757
O O14 0.050600 0.199012 0.274216
O O15 0.750000 0.424926 0.061336
O O16 0.000000 0.500000 0.083113
O O17 0.250000 0.075054 0.869021
O O18 0.536258 0.079245 0.833774
O O19 0.750000 0.416695 0.252853
O O20 0.000000 0.500000 0.233426
O O21 0.999245 0.343580 0.227464
O O22 0.750000 0.731996 0.201787
#
# Coordination Sequence:
#
# PCOD8191855 Si02
#       8
#     8   8   8   8   8   8   8   8
#     4  10  19  32  52  79 110 141 175 217 269 327
#     4  11  23  40  60  84 115 151 195 243 289 340
#     4  11  23  39  60  86 116 153 195 240 292 346
#     4   9  18  34  55  79 108 140 176 221 272 329
#     4   9  20  36  56  85 118 150 184 225 274 333
#     4   9  19  35  56  84 116 148 182 224 280 343
#     4  11  21  34  55  83 115 149 184 225 277 335
#     4  10  22  40  58  78 107 144 188 233 279 335
#
# _framework density 19.920456000000001
#
# number of rings (size 3 to 8) (size 9 to 14) (size 15 to 20)
#    0.000    2.000    0.000    4.500    0.000    6.500 
#    0.000    1.875    0.000    3.000    0.000    0.000 
#    0.000    0.000    0.000    0.000    0.000    0.000 
#
# Total GULP energy -396676.802956 kJ/mol
# GULP energy per Si atom -12396.150092 kJ/mol
# Density = 1.987512 g / cm^3
# Si number density = 19.920456 Si / 1000 Ang^3
#
#
#
# Elastic Constant Matrix: (Units=GPa)
#
#
# Indices 1 2 3 4 5 6 
#
# 1 88.9726 29.9283 31.7858 0.0000 0.0000 0.0000
# 2 29.9283 71.0030 27.8618 0.0000 0.0000 0.0000
# 3 31.7858 27.8618 75.7162 0.0000 0.0000 0.0000
# 4 0.0000 0.0000 0.0000 8.4134 0.0000 0.0000
# 5 0.0000 0.0000 0.0000 0.0000 9.6556 0.0000
# 6 0.0000 0.0000 0.0000 0.0000 0.0000 37.1146
#
#
#
# Elastic Compliance Matrix: (Units=1/GPa)
#
#
# Indices 1 2 3 4 5 6 
#
# 1 0.014254 -0.004278 -0.004410 0.000000 0.000000 0.000000
# 2 -0.004278 0.017745 -0.004734 0.000000 0.000000 0.000000
# 3 -0.004410 -0.004734 0.016800 0.000000 0.000000 0.000000
# 4 0.000000 0.000000 0.000000 0.118857 0.000000 0.000000
# 5 0.000000 0.000000 0.000000 0.000000 0.103567 0.000000
# 6 0.000000 0.000000 0.000000 0.000000 0.000000 0.026944
#
#
# Mechanical properties :
#
#
# Convention : Reuss Voigt Hill
#
# Bulk Modulus (GPa) = 45.54500 46.09374 45.81937
# Shear Modulus (GPa) = 15.04541 20.77779 17.91160
#
# Velocity S-wave (km/s) = 2.75121 3.23311 3.00185
# Velocity P-wave (km/s) = 5.74502 6.09315 5.92164
#
# Compressibility (1/GPa) = 0.02195631
#
# Stress axis : x y z
#
# Youngs Moduli (GPa) = 70.15727 56.35536 59.52266
#
# Poissons Ratio (x) = 0.24107 0.26247
# Poissons Ratio (y) = 0.30011 0.28177
# Poissons Ratio (z) = 0.30937 0.26677
#
# Static dielectric constant tensor:
#      x y z
#    x 3.977170 0.000000 0.000000 
#    y 0.000000 3.687690 0.000000 
#    z 0.000000 0.000000 3.612990 
# 
# 
# High freq. dielectric constant tensor:
#      x y z
#    x 1.782840 0.000000 0.000000 
#    y 0.000000 1.772370 0.000000 
#    z 0.000000 0.000000 1.771000 
# 
# From -- ./inp_files/23212.got.cif
#   From: 2010.03.12/outbox.cif.g09.slc.cpg/sg46_12_cif.got.tgz:23212.got - 2010.04.14 02:56:35.
