data_PCOD8191732
_publ_section_title
;
Structure prediction by ZEFSAII (Michael W. Deem and Ramdas Pophale) SiO2 
 PCOD8191732
Probable space group: I M A 2
;
_chemical_formula_sum "Si O2"
_cell_formula_units_Z 56
_cell_length_a 8.980578
_cell_length_b 15.348152
_cell_length_c 19.429907
_cell_angle_alpha 90.000000
_cell_angle_beta 90.000000
_cell_angle_gamma 90.000000
_cell_volume 2678.126598
_symmetry_space_group_name_H-M "I M A 2"
_symmetry_group_IT_number 46
_symmetry_cell_setting 'orthorhombic'
loop_
_space_group_symop_operation_xyz
x,y,z
-x,-y,z
1/2-x,y,z
1/2+x,-y,z
1/2+x,1/2+y,1/2+z
1/2-x,1/2-y,1/2+z
-x,1/2+y,1/2+z
x,1/2-y,1/2+z
loop_
_atom_site_type_symbol
_atom_site_label
_atom_site_fract_x
_atom_site_fract_y
_atom_site_fract_z
Si Si1 0.579972 0.686232 0.039140
Si Si2 0.084216 0.082130 0.204407
Si Si3 0.074875 0.754125 0.251945
Si Si4 0.576696 0.229131 0.406018
Si Si5 0.071033 0.405572 0.178217
Si Si6 0.579380 0.419789 0.426395
Si Si7 0.087322 0.113474 0.052822
O O1 0.750000 0.663662 0.024896
O O2 0.521167 0.624371 0.101081
O O3 0.553997 0.784222 0.064864
O O4 0.498879 0.669668 0.965137
O O5 0.250000 0.092892 0.237140
O O6 0.097927 0.062178 0.123894
O O7 0.989152 0.170206 0.204788
O O8 0.000000 0.000000 0.239873
O O9 0.250000 0.738838 0.240276
O O10 0.044311 0.797078 0.327584
O O11 0.992368 0.663000 0.234909
O O12 0.750000 0.229940 0.424203
O O13 0.510421 0.327289 0.405854
O O14 0.250000 0.408547 0.184894
O O15 0.000000 0.500000 0.193095
O O16 0.500000 0.500000 0.386590
O O17 0.750000 0.424872 0.407412
O O18 0.545423 0.428620 0.507980
O O19 0.250000 0.104109 0.015280
#
# Coordination Sequence:
#
# PCOD8191732 Si02
#       7
#     8   8   8   8   8   8   8
#     4   9  18  36  60  86 116 152 197 247 301 360
#     4  11  22  37  57  85 118 152 193 242 296 359
#     4  11  23  41  62  88 123 164 207 256 312 372
#     4   9  21  38  57  82 114 153 201 250 305 368
#     4  11  23  41  64  95 128 165 214 266 318 379
#     4  10  19  31  48  75 109 144 183 229 280 343
#     4   9  17  32  53  79 111 143 179 227 279 338
#
# _framework density 20.910138
#
# number of rings (size 3 to 8) (size 9 to 14) (size 15 to 20)
#    0.000    2.000    1.429    2.143    0.000    5.714 
#    0.000    2.143    0.000    1.714    0.000    0.000 
#    0.000    0.000    0.000    0.000    0.000    0.000 
#
# Total GULP energy -346904.641746 kJ/mol
# GULP energy per Si atom -12389.451491 kJ/mol
# Density = 2.086255 g / cm^3
# Si number density = 20.910138 Si / 1000 Ang^3
#
#
#
# Elastic Constant Matrix: (Units=GPa)
#
#
# Indices 1 2 3 4 5 6 
#
# 1 94.2894 32.0167 30.3096 0.0000 0.0000 0.0000
# 2 32.0167 87.7482 2.3425 0.0000 0.0000 0.0000
# 3 30.3096 2.3425 66.6229 0.0000 0.0000 0.0000
# 4 0.0000 0.0000 0.0000 15.5800 0.0000 0.0000
# 5 0.0000 0.0000 0.0000 0.0000 26.7150 0.0000
# 6 0.0000 0.0000 0.0000 0.0000 0.0000 32.8064
#
#
#
# Elastic Compliance Matrix: (Units=1/GPa)
#
#
# Indices 1 2 3 4 5 6 
#
# 1 0.014373 -0.005075 -0.006361 0.000000 0.000000 0.000000
# 2 -0.005075 0.013199 0.001845 0.000000 0.000000 0.000000
# 3 -0.006361 0.001845 0.017839 0.000000 0.000000 0.000000
# 4 0.000000 0.000000 0.000000 0.064185 0.000000 0.000000
# 5 0.000000 0.000000 0.000000 0.000000 0.037432 0.000000
# 6 0.000000 0.000000 0.000000 0.000000 0.000000 0.030482
#
#
# Mechanical properties :
#
#
# Convention : Reuss Voigt Hill
#
# Bulk Modulus (GPa) = 38.12522 41.99978 40.06250
# Shear Modulus (GPa) = 24.33873 27.28640 25.81257
#
# Velocity S-wave (km/s) = 3.41540 3.61631 3.51729
# Velocity P-wave (km/s) = 5.81599 6.12914 5.97462
#
# Compressibility (1/GPa) = 0.02622936
#
# Stress axis : x y z
#
# Youngs Moduli (GPa) = 69.57286 75.76575 56.05780
#
# Poissons Ratio (x) = 0.38448 0.35656
# Poissons Ratio (y) = 0.35306 -0.10340
# Poissons Ratio (z) = 0.44253 -0.13976
#
# Static dielectric constant tensor:
#      x y z
#    x 3.823750 0.000000 0.000000 
#    y 0.000000 3.741050 0.000000 
#    z 0.000000 0.000000 3.676850 
# 
# 
# High freq. dielectric constant tensor:
#      x y z
#    x 1.819080 0.000000 0.000000 
#    y 0.000000 1.810430 0.000000 
#    z 0.000000 0.000000 1.801270 
# 
# From -- ./inp_files/21044.got.cif
#   From: 2010.03.12/outbox.cif.g09.slc.cpg/sg46_11_cif.got.tgz:21044.got - 2010.04.14 02:56:35.
