data_PCOD8191977
_publ_section_title
;
Structure prediction by ZEFSAII (Michael W. Deem and Ramdas Pophale) SiO2 
 PCOD8191977
Probable space group: I M A 2
;
_chemical_formula_sum "Si O2"
_cell_formula_units_Z 64
_cell_length_a 8.624399
_cell_length_b 20.767268
_cell_length_c 19.533801
_cell_angle_alpha 90.000000
_cell_angle_beta 90.000000
_cell_angle_gamma 90.000000
_cell_volume 3498.605440
_symmetry_space_group_name_H-M "I M A 2"
_symmetry_group_IT_number 46
_symmetry_cell_setting 'orthorhombic'
loop_
_space_group_symop_operation_xyz
x,y,z
-x,-y,z
1/2-x,y,z
1/2+x,-y,z
1/2+x,1/2+y,1/2+z
1/2-x,1/2-y,1/2+z
-x,1/2+y,1/2+z
x,1/2-y,1/2+z
loop_
_atom_site_type_symbol
_atom_site_label
_atom_site_fract_x
_atom_site_fract_y
_atom_site_fract_z
Si Si1 0.568208 0.192458 0.851180
Si Si2 0.068126 0.735016 0.630996
Si Si3 0.432597 0.309231 0.766487
Si Si4 0.567150 0.566639 0.850772
Si Si5 0.566623 0.769814 0.988138
Si Si6 0.067700 0.124120 0.487849
Si Si7 0.932817 0.625474 0.138695
Si Si8 0.932295 0.433993 0.268576
O O1 0.750000 0.205654 0.843249
O O2 0.475460 0.249108 0.814162
O O3 0.518727 0.187894 0.930541
O O4 0.520852 0.124478 0.817902
O O5 0.250000 0.733094 0.618244
O O6 0.022425 0.690495 0.694765
O O7 0.982651 0.707118 0.563826
O O8 0.017023 0.806915 0.650877
O O9 0.250000 0.307167 0.753175
O O10 0.485814 0.374958 0.802771
O O11 0.500000 0.500000 0.822141
O O12 0.750000 0.561142 0.852294
O O13 0.498741 0.579516 0.927580
O O14 0.750000 0.776803 0.979662
O O15 0.505646 0.696783 0.979476
O O16 0.250000 0.127723 0.478296
O O17 0.023467 0.097749 0.563236
O O18 0.750000 0.637705 0.144740
O O19 0.990940 0.574774 0.194066
O O20 0.750000 0.439713 0.259461
O O21 0.000000 0.500000 0.300225
#
# Coordination Sequence:
#
# PCOD8191977 Si02
#       8
#     8   8   8   8   8   8   8   8
#     4  11  22  36  57  86 115 143 185 240 287 330
#     4  11  21  34  54  85 118 144 183 235 285 332
#     4  11  21  36  59  82 110 151 193 231 279 340
#     4  10  21  37  54  78 111 148 190 232 278 332
#     4  10  19  35  58  83 112 147 187 227 279 340
#     4   8  16  32  51  76 108 145 186 225 263 323
#     4  10  19  33  55  79 111 152 192 229 275 332
#     4  11  24  39  55  79 114 151 192 236 285 339
#
# _framework density 18.293002999999999
#
# number of rings (size 3 to 8) (size 9 to 14) (size 15 to 20)
#    0.000    1.750    2.500    3.750    0.000    3.000 
#    0.000    2.500    0.000    0.750    0.000    5.250 
#    0.000    0.000    0.000    0.000    0.000    0.000 
#
# Total GULP energy -396828.340660 kJ/mol
# GULP energy per Si atom -12400.885646 kJ/mol
# Density = 1.825137 g / cm^3
# Si number density = 18.293003 Si / 1000 Ang^3
#
#
#
# Elastic Constant Matrix: (Units=GPa)
#
#
# Indices 1 2 3 4 5 6 
#
# 1 52.6374 28.0956 16.2351 0.0000 0.0000 0.0000
# 2 28.0956 109.4549 53.6318 0.0000 0.0000 0.0000
# 3 16.2351 53.6318 108.8385 0.0000 0.0000 0.0000
# 4 0.0000 0.0000 0.0000 -4.1141 0.0000 0.0000
# 5 0.0000 0.0000 0.0000 0.0000 27.4249 0.0000
# 6 0.0000 0.0000 0.0000 0.0000 0.0000 26.2528
#
#
#
# Elastic Compliance Matrix: (Units=1/GPa)
#
#
# Indices 1 2 3 4 5 6 
#
# 1 0.022050 -0.005337 -0.000659 0.000000 0.000000 0.000000
# 2 -0.005337 0.013336 -0.005775 0.000000 0.000000 0.000000
# 3 -0.000659 -0.005775 0.012132 0.000000 0.000000 0.000000
# 4 0.000000 0.000000 0.000000 -0.243066 0.000000 0.000000
# 5 0.000000 0.000000 0.000000 0.000000 0.036463 0.000000
# 6 0.000000 0.000000 0.000000 0.000000 0.000000 0.038091
#
#
# Mechanical properties :
#
#
# Convention : Reuss Voigt Hill
#
# Bulk Modulus (GPa) = 41.71031 51.87286 46.79159
# Shear Modulus (GPa) = -55.89146 21.44395 -17.22375
#
# Velocity S-wave (km/s) = -5.53352 3.42753 -3.07180
# Velocity P-wave (km/s) = 4.23977 6.63944 3.61293
#
# Compressibility (1/GPa) = 0.02397489
#
# Stress axis : x y z
#
# Youngs Moduli (GPa) = 45.35180 74.98515 82.42535
#
# Poissons Ratio (x) = 0.40018 0.05434
# Poissons Ratio (y) = 0.24204 0.47604
# Poissons Ratio (z) = 0.02990 0.43307
#
# Static dielectric constant tensor:
#      x y z
#    x 3.278450 0.000000 0.000000 
#    y 0.000000 3.307060 0.000000 
#    z 0.000000 0.000000 3.666850 
# 
# 
# High freq. dielectric constant tensor:
#      x y z
#    x 1.710130 0.000000 0.000000 
#    y 0.000000 1.680980 0.000000 
#    z 0.000000 0.000000 1.716940 
# 
# From -- ./inp_files/18585.got.cif
#   From: 2010.03.12/outbox.cif.g09.slc.cpg/sg46_10_cif.got.tgz:18585.got - 2010.04.14 02:56:35.
