data_PCOD8191840
_publ_section_title
;
Structure prediction by ZEFSAII (Michael W. Deem and Ramdas Pophale) SiO2 
 PCOD8191840
Probable space group: I M A 2
;
_chemical_formula_sum "Si O2"
_cell_formula_units_Z 64
_cell_length_a 13.172176
_cell_length_b 30.585514
_cell_length_c 9.839138
_cell_angle_alpha 90.000000
_cell_angle_beta 90.000000
_cell_angle_gamma 90.000000
_cell_volume 3963.970010
_symmetry_space_group_name_H-M "I M A 2"
_symmetry_group_IT_number 46
_symmetry_cell_setting 'orthorhombic'
loop_
_space_group_symop_operation_xyz
x,y,z
-x,-y,z
1/2-x,y,z
1/2+x,-y,z
1/2+x,1/2+y,1/2+z
1/2-x,1/2-y,1/2+z
-x,1/2+y,1/2+z
x,1/2-y,1/2+z
loop_
_atom_site_type_symbol
_atom_site_label
_atom_site_fract_x
_atom_site_fract_y
_atom_site_fract_z
Si Si1 0.435575 0.063946 0.109380
Si Si2 0.629380 0.888783 0.364118
Si Si3 0.866526 0.623391 0.378710
Si Si4 0.444023 0.429645 0.134646
Si Si5 0.129278 0.217139 0.971434
Si Si6 0.637033 0.021772 0.693552
Si Si7 0.634959 0.472084 0.511174
Si Si8 0.629292 0.707275 0.775992
O O1 0.423522 0.075862 0.266778
O O2 0.555247 0.062956 0.070682
O O3 0.381780 0.017748 0.086554
O O4 0.376373 0.100713 0.024955
O O5 0.750000 0.893354 0.357615
O O6 0.589070 0.898164 0.514036
O O7 0.592901 0.840420 0.322830
O O8 0.750000 0.621462 0.329749
O O9 0.936209 0.598466 0.271517
O O10 0.904794 0.673048 0.394294
O O11 0.373093 0.472412 0.139143
O O12 0.560564 0.445240 0.118510
O O13 0.250000 0.218427 0.979500
O O14 0.085914 0.218206 0.125541
O O15 0.085926 0.257745 0.884687
O O16 0.750000 0.038690 0.663235
O O17 0.612101 0.020634 0.852967
O O18 0.750000 0.455486 0.536066
O O19 0.750000 0.709698 0.774151
#
# Coordination Sequence:
#
# PCOD8191840 Si02
#       8
#     8   8   8   8   8   8   8   8
#     4  11  19  33  49  71  95 129 166 203 241 286
#     4  11  22  33  47  70 105 134 161 202 240 284
#     4  11  18  29  49  69  94 129 168 198 232 287
#     4  11  21  33  48  74  95 132 173 199 238 290
#     4   9  18  29  44  66  95 129 160 194 238 288
#     4  10  19  34  51  70  99 127 162 213 251 280
#     4  10  19  32  52  73  95 125 167 213 249 282
#     4   9  18  31  44  65  96 129 159 192 239 287
#
# _framework density 16.145430000000001
#
# number of rings (size 3 to 8) (size 9 to 14) (size 15 to 20)
#    0.000    1.750    3.750    3.000    1.750    2.000 
#    0.000    1.875    0.000    0.000    0.000    0.000 
#    0.000    6.000    0.000    0.000    0.000    0.000 
#
# Total GULP energy -396832.225718 kJ/mol
# GULP energy per Si atom -12401.007054 kJ/mol
# Density = 1.610868 g / cm^3
# Si number density = 16.145430 Si / 1000 Ang^3
#
#
#
# Elastic Constant Matrix: (Units=GPa)
#
#
# Indices 1 2 3 4 5 6 
#
# 1 72.1394 25.3063 21.0884 -0.0020 0.0001 0.0002
# 2 25.3063 91.5835 38.7053 -0.0011 -0.0003 -0.0002
# 3 21.0884 38.7053 74.8550 0.0088 -0.0031 -0.0014
# 4 -0.0020 -0.0011 0.0088 19.4123 -0.0009 -0.0004
# 5 0.0001 -0.0003 -0.0031 -0.0009 20.5582 0.0002
# 6 0.0002 -0.0002 -0.0014 -0.0004 0.0002 14.1994
#
#
#
# Elastic Compliance Matrix: (Units=1/GPa)
#
#
# Indices 1 2 3 4 5 6 
#
# 1 0.015798 -0.003179 -0.002807 0.000003 -0.000001 -0.000001
# 2 -0.003179 0.014612 -0.006660 0.000004 -0.000001 0.000000
# 3 -0.002807 -0.006660 0.017594 -0.000009 0.000003 0.000002
# 4 0.000003 0.000004 -0.000009 0.051514 0.000002 0.000001
# 5 -0.000001 -0.000001 0.000003 0.000002 0.048642 -0.000001
# 6 -0.000001 0.000000 0.000002 0.000001 -0.000001 0.070425
#
#
# Mechanical properties :
#
#
# Convention : Reuss Voigt Hill
#
# Bulk Modulus (GPa) = 44.02968 45.41976 44.72472
# Shear Modulus (GPa) = 19.88491 21.06584 20.47538
#
# Velocity S-wave (km/s) = 3.51324 3.61606 3.56502
# Velocity P-wave (km/s) = 6.61718 6.75479 6.68634
#
# Compressibility (1/GPa) = 0.02271195
#
# Stress axis : x y z
#
# Youngs Moduli (GPa) = 63.30014 68.43680 56.83910
#
# Poissons Ratio (x) = 0.21756 0.15954
# Poissons Ratio (y) = 0.20123 0.37854
# Poissons Ratio (z) = 0.17767 0.45578
#
# Static dielectric constant tensor:
#      x y z
#    x 2.842090 0.000000 0.000000 
#    y 0.000000 3.075440 0.000000 
#    z 0.000000 0.000000 3.081370 
# 
# 
# High freq. dielectric constant tensor:
#      x y z
#    x 1.581040 0.000000 0.000000 
#    y 0.000000 1.614620 0.000000 
#    z 0.000000 0.000000 1.626190 
# 
# From -- ./inp_files/6205.got.cif
#   From: 2010.03.12/outbox.cif.g09.slc.cpg/sg46_4_cif.got.tgz:6205.got - 2010.04.14 02:56:35.
