data_PCOD8191094
_publ_section_title
;
Structure prediction by ZEFSAII (Michael W. Deem and Ramdas Pophale) SiO2 
 PCOD8191094
Probable space group: I B A 2
;
_chemical_formula_sum "Si O2"
_cell_formula_units_Z 64
_cell_length_a 28.207858
_cell_length_b 9.046965
_cell_length_c 10.770549
_cell_angle_alpha 90.000000
_cell_angle_beta 90.000000
_cell_angle_gamma 90.000000
_cell_volume 2748.595681
_symmetry_space_group_name_H-M "I B A 2"
_symmetry_group_IT_number 45
_symmetry_cell_setting 'orthorhombic'
loop_
_space_group_symop_operation_xyz
x,y,z
-x,-y,z
-x,y,1/2+z
x,-y,1/2+z
1/2+x,1/2+y,1/2+z
1/2-x,1/2-y,1/2+z
1/2-x,1/2+y,z
1/2+x,1/2-y,z
loop_
_atom_site_type_symbol
_atom_site_label
_atom_site_fract_x
_atom_site_fract_y
_atom_site_fract_z
Si Si1 0.920088 0.693177 0.155170
Si Si2 0.896163 0.998297 0.056488
Si Si3 0.469495 0.135861 0.430153
Si Si4 0.217375 0.429878 0.946254
Si Si5 0.809684 0.898882 0.941850
Si Si6 0.835571 0.515425 0.689897
Si Si7 0.889564 0.219711 0.260406
Si Si8 0.534159 0.372253 0.367028
O O1 0.869766 0.626634 0.194954
O O2 0.951148 0.746792 0.269370
O O3 0.913292 0.831707 0.064660
O O4 0.947356 0.580790 0.062049
O O5 0.913240 0.092069 0.175757
O O6 0.919208 0.061132 0.930415
O O7 0.838710 0.985385 0.050023
O O8 0.428464 0.184422 0.333658
O O9 0.502657 0.277008 0.462597
O O10 0.500000 0.000000 0.373692
O O11 0.216264 0.254836 0.975940
O O12 0.269483 0.483367 0.905124
O O13 0.185614 0.473901 0.828547
O O14 0.201392 0.506076 0.075865
O O15 0.849638 0.863843 0.840028
O O16 0.864512 0.665784 0.666323
O O17 0.500000 0.500000 0.310592
#
# Coordination Sequence:
#
# PCOD8191094 Si02
#       8
#     8   8   8   8   8   8   8   8
#     4  12  25  46  73 100 149 195 243 309 380 447
#     4  12  25  46  74 101 152 193 243 309 377 443
#     4  12  27  48  71 108 150 195 254 316 376 449
#     4  11  27  46  77 110 149 187 253 302 372 460
#     4  11  25  49  70 112 149 190 240 313 372 453
#     4  11  26  49  74 110 150 194 249 312 377 461
#     4  11  26  48  74 108 149 195 249 309 388 445
#     4  12  27  44  70 107 141 195 255 304 366 454
#
# _framework density 23.284617999999998
#
# number of rings (size 3 to 8) (size 9 to 14) (size 15 to 20)
#    0.000    0.500    3.750    3.000   10.500    2.500 
#    0.000    0.000    0.000    0.000    0.000    0.000 
#    0.000    0.000    0.000    0.000    0.000    0.000 
#
# Total GULP energy -396554.656205 kJ/mol
# GULP energy per Si atom -12392.333006 kJ/mol
# Density = 2.323162 g / cm^3
# Si number density = 23.284618 Si / 1000 Ang^3
#
#
#
# Elastic Constant Matrix: (Units=GPa)
#
#
# Indices 1 2 3 4 5 6 
#
# 1 141.4316 59.6558 42.0473 0.0000 0.0000 0.0000
# 2 59.6558 89.9029 32.4718 0.0000 0.0000 0.0000
# 3 42.0473 32.4718 107.3167 0.0000 0.0000 0.0000
# 4 0.0000 0.0000 0.0000 27.8969 0.0000 0.0000
# 5 0.0000 0.0000 0.0000 0.0000 24.8616 0.0000
# 6 0.0000 0.0000 0.0000 0.0000 0.0000 51.1624
#
#
#
# Elastic Compliance Matrix: (Units=1/GPa)
#
#
# Indices 1 2 3 4 5 6 
#
# 1 0.010262 -0.006014 -0.002201 0.000000 0.000000 0.000000
# 2 -0.006014 0.016013 -0.002489 0.000000 0.000000 0.000000
# 3 -0.002201 -0.002489 0.010934 0.000000 0.000000 0.000000
# 4 0.000000 0.000000 0.000000 0.035846 0.000000 0.000000
# 5 0.000000 0.000000 0.000000 0.000000 0.040223 0.000000
# 6 0.000000 0.000000 0.000000 0.000000 0.000000 0.019546
#
#
# Mechanical properties :
#
#
# Convention : Reuss Voigt Hill
#
# Bulk Modulus (GPa) = 63.28939 67.44456 65.36698
# Shear Modulus (GPa) = 31.34853 34.41593 32.88223
#
# Velocity S-wave (km/s) = 3.67320 3.84872 3.76198
# Velocity P-wave (km/s) = 6.72530 6.98415 6.85595
#
# Compressibility (1/GPa) = 0.01580044
#
# Stress axis : x y z
#
# Youngs Moduli (GPa) = 97.44991 62.44984 91.46188
#
# Poissons Ratio (x) = 0.37559 0.20129
# Poissons Ratio (y) = 0.58610 0.22762
# Poissons Ratio (z) = 0.21447 0.15542
#
# Static dielectric constant tensor:
#      x y z
#    x 4.404660 0.000000 0.000000 
#    y 0.000000 4.413400 0.000000 
#    z 0.000000 0.000000 3.976120 
# 
# 
# High freq. dielectric constant tensor:
#      x y z
#    x 1.930480 0.000000 0.000000 
#    y 0.000000 1.933280 0.000000 
#    z 0.000000 0.000000 1.912560 
# 
# From -- ./inp_files/4948.got.cif
#   From: 2010.03.12/outbox.cif.g09.slc.cpg/sg45_3_cif.got.tgz:4948.got - 2010.04.14 02:50:11.
