data_PCOD8191930
_publ_section_title
;
Structure prediction by ZEFSAII (Michael W. Deem and Ramdas Pophale) SiO2 
 PCOD8191930
Probable space group: I M A 2
;
_chemical_formula_sum "Si O2"
_cell_formula_units_Z 64
_cell_length_a 8.609323
_cell_length_b 29.804736
_cell_length_c 14.615687
_cell_angle_alpha 90.000000
_cell_angle_beta 90.000000
_cell_angle_gamma 90.000000
_cell_volume 3750.364810
_symmetry_space_group_name_H-M "I M A 2"
_symmetry_group_IT_number 46
_symmetry_cell_setting 'orthorhombic'
loop_
_space_group_symop_operation_xyz
x,y,z
-x,-y,z
1/2-x,y,z
1/2+x,-y,z
1/2+x,1/2+y,1/2+z
1/2-x,1/2-y,1/2+z
-x,1/2+y,1/2+z
x,1/2-y,1/2+z
loop_
_atom_site_type_symbol
_atom_site_label
_atom_site_fract_x
_atom_site_fract_y
_atom_site_fract_z
Si Si1 0.075111 0.277861 0.070340
Si Si2 0.929748 0.362652 0.407932
Si Si3 0.930696 0.454051 0.499390
Si Si4 0.924107 0.674343 0.583054
Si Si5 0.935802 0.803874 0.762519
Si Si6 0.065550 0.215532 0.368966
Si Si7 0.066571 0.452187 0.697044
Si Si8 0.570014 0.135719 0.254356
O O1 0.250000 0.294831 0.057591
O O2 0.072074 0.226686 0.102530
O O3 0.001799 0.304231 0.157165
O O4 0.991716 0.285072 0.972089
O O5 0.750000 0.350608 0.419346
O O6 0.958493 0.415547 0.424029
O O7 0.029037 0.333637 0.478868
O O8 0.991108 0.348286 0.308289
O O9 0.750000 0.460465 0.522923
O O10 0.000000 0.500000 0.458168
O O11 0.017869 0.441108 0.592848
O O12 0.750000 0.655679 0.601368
O O13 0.045337 0.650008 0.649194
O O14 0.750000 0.805788 0.765435
O O15 0.997628 0.759079 0.814608
O O16 0.250000 0.219047 0.373382
O O17 0.018913 0.169488 0.320766
O O18 0.250000 0.452870 0.704969
O O19 0.000000 0.500000 0.728529
O O20 0.997967 0.414446 0.765245
O O21 0.750000 0.135983 0.279089
#
# Coordination Sequence:
#
# PCOD8191930 Si02
#       8
#     8   8   8   8   8   8   8   8
#     4   9  18  33  51  73  99 131 177 223 251 294
#     4  11  22  33  47  74 107 136 170 212 258 306
#     4  10  20  33  49  72 103 134 168 211 255 306
#     4  11  19  32  52  72  98 138 178 213 252 298
#     4  10  19  33  53  74  99 136 179 213 252 307
#     4  10  19  34  53  73  99 135 178 216 253 301
#     4  11  21  34  53  75 102 136 170 208 254 306
#     4  12  23  34  48  75 107 138 174 213 256 309
#
# _framework density 17.065004999999999
#
# number of rings (size 3 to 8) (size 9 to 14) (size 15 to 20)
#    0.000    1.500    3.750    4.125    0.000    2.000 
#    0.000    0.625    0.000    0.000    0.000    0.875 
#    0.000    2.000    0.000    0.000    0.000    0.000 
#
# Total GULP energy -396747.022738 kJ/mol
# GULP energy per Si atom -12398.344461 kJ/mol
# Density = 1.702616 g / cm^3
# Si number density = 17.065005 Si / 1000 Ang^3
#
#
#
# Elastic Constant Matrix: (Units=GPa)
#
#
# Indices 1 2 3 4 5 6 
#
# 1 50.6939 14.7446 12.5395 0.0000 0.0000 0.0000
# 2 14.7446 83.8477 34.1377 0.0000 0.0000 0.0000
# 3 12.5395 34.1377 81.0945 -0.0001 0.0000 -0.0002
# 4 0.0000 0.0000 -0.0001 26.1607 0.0000 -0.0001
# 5 0.0000 0.0000 0.0000 0.0000 18.6210 0.0000
# 6 0.0000 0.0000 -0.0002 -0.0001 0.0000 24.9272
#
#
#
# Elastic Compliance Matrix: (Units=1/GPa)
#
#
# Indices 1 2 3 4 5 6 
#
# 1 0.021068 -0.002870 -0.002049 0.000000 0.000000 0.000000
# 2 -0.002870 0.014784 -0.005780 0.000000 0.000000 0.000000
# 3 -0.002049 -0.005780 0.015081 0.000000 0.000000 0.000000
# 4 0.000000 0.000000 0.000000 0.038225 0.000000 0.000000
# 5 0.000000 0.000000 0.000000 0.000000 0.053703 0.000000
# 6 0.000000 0.000000 0.000000 0.000000 0.000000 0.040117
#
#
# Mechanical properties :
#
#
# Convention : Reuss Voigt Hill
#
# Bulk Modulus (GPa) = 33.85877 37.60886 35.73382
# Shear Modulus (GPa) = 23.34023 24.22275 23.78149
#
# Velocity S-wave (km/s) = 3.70229 3.77163 3.73712
# Velocity P-wave (km/s) = 6.17738 6.40729 6.29339
#
# Compressibility (1/GPa) = 0.02953444
#
# Stress axis : x y z
#
# Youngs Moduli (GPa) = 47.46518 67.63921 66.30751
#
# Poissons Ratio (x) = 0.19415 0.13589
# Poissons Ratio (y) = 0.13625 0.38324
# Poissons Ratio (z) = 0.09727 0.39094
#
# Static dielectric constant tensor:
#      x y z
#    x 3.095490 0.000000 0.000000 
#    y 0.000000 3.284380 0.000000 
#    z 0.000000 0.000000 3.166020 
# 
# 
# High freq. dielectric constant tensor:
#      x y z
#    x 1.654360 0.000000 0.000000 
#    y 0.000000 1.651500 0.000000 
#    z 0.000000 0.000000 1.632920 
# 
# From -- ./inp_files/14720.got.cif
#   From: 2010.03.12/outbox.cif.g09.slc.cpg/sg46_8_cif.got.tgz:14720.got - 2010.04.14 02:56:35.
