data_PCOD8191478
_publ_section_title
;
Structure prediction by ZEFSAII (Michael W. Deem and Ramdas Pophale) SiO2 
 PCOD8191478
Probable space group: I M A 2
;
_chemical_formula_sum "Si O2"
_cell_formula_units_Z 64
_cell_length_a 8.890580
_cell_length_b 24.838822
_cell_length_c 15.059963
_cell_angle_alpha 90.000000
_cell_angle_beta 90.000000
_cell_angle_gamma 90.000000
_cell_volume 3325.714733
_symmetry_space_group_name_H-M "I M A 2"
_symmetry_group_IT_number 46
_symmetry_cell_setting 'orthorhombic'
loop_
_space_group_symop_operation_xyz
x,y,z
-x,-y,z
1/2-x,y,z
1/2+x,-y,z
1/2+x,1/2+y,1/2+z
1/2-x,1/2-y,1/2+z
-x,1/2+y,1/2+z
x,1/2-y,1/2+z
loop_
_atom_site_type_symbol
_atom_site_label
_atom_site_fract_x
_atom_site_fract_y
_atom_site_fract_z
Si Si1 0.419770 0.733968 0.242690
Si Si2 0.420604 0.782094 0.536912
Si Si3 0.071339 0.943968 0.350579
Si Si4 0.929718 0.148493 0.219035
Si Si5 0.924478 0.610613 0.011515
Si Si6 0.427425 0.836553 0.024640
Si Si7 0.571636 0.130039 0.836492
Si Si8 0.574878 0.556591 0.196193
O O1 0.250000 0.739611 0.276332
O O2 0.426998 0.713682 0.142469
O O3 0.494220 0.793433 0.252746
O O4 0.495839 0.687397 0.302368
O O5 0.250000 0.790825 0.502637
O O6 0.522791 0.828413 0.493856
O O7 0.487645 0.724230 0.507420
O O8 0.250000 0.948621 0.349317
O O9 0.010445 0.898797 0.281964
O O10 0.017055 0.929808 0.449267
O O11 0.000000 0.000000 0.319494
O O12 0.750000 0.150238 0.219690
O O13 0.988694 0.138803 0.117538
O O14 0.750000 0.604750 0.988002
O O15 0.958359 0.595458 0.113302
O O16 0.250000 0.829614 0.034620
O O17 0.469133 0.874577 0.941354
O O18 0.750000 0.126546 0.819716
O O19 0.493359 0.081217 0.785996
O O20 0.500000 0.500000 0.175375
O O21 0.750000 0.547625 0.211511
#
# Coordination Sequence:
#
# PCOD8191478 Si02
#       8
#     8   8   8   8   8   8   8   8
#     4   8  14  26  49  82 112 139 177 220 261 313
#     4   9  16  30  53  81 113 147 183 220 263 318
#     4  11  23  38  59  80 107 143 187 235 278 326
#     4   8  16  32  53  81 112 143 183 229 271 316
#     4  11  23  37  54  80 113 145 181 224 275 334
#     4   8  16  30  54  85 115 146 184 226 266 320
#     4  10  18  31  56  86 114 144 183 227 269 320
#     4  11  24  40  57  77 108 147 186 228 276 330
#
# _framework density 19.243984000000001
#
# number of rings (size 3 to 8) (size 9 to 14) (size 15 to 20)
#    0.000    2.500    1.250    3.000    1.750    2.500 
#    0.000    1.250    0.000    9.000    0.000    0.000 
#    0.000    0.000    0.000    0.000    0.000    0.000 
#
# Total GULP energy -396660.224910 kJ/mol
# GULP energy per Si atom -12395.632028 kJ/mol
# Density = 1.920018 g / cm^3
# Si number density = 19.243984 Si / 1000 Ang^3
#
#
#
# Elastic Constant Matrix: (Units=GPa)
#
#
# Indices 1 2 3 4 5 6 
#
# 1 54.9532 34.1345 28.8109 0.0001 -0.0001 0.0000
# 2 34.1345 90.9923 27.0585 0.0000 0.0000 0.0000
# 3 28.8109 27.0585 71.5281 0.0004 0.0001 0.0001
# 4 0.0001 0.0000 0.0004 30.8587 0.0000 0.0000
# 5 -0.0001 0.0000 0.0001 0.0000 15.2500 0.0000
# 6 0.0000 0.0000 0.0001 0.0000 0.0000 26.8695
#
#
#
# Elastic Compliance Matrix: (Units=1/GPa)
#
#
# Indices 1 2 3 4 5 6 
#
# 1 0.027276 -0.007848 -0.008018 0.000000 0.000000 0.000000
# 2 -0.007848 0.014641 -0.002378 0.000000 0.000000 0.000000
# 3 -0.008018 -0.002378 0.018109 0.000000 0.000000 0.000000
# 4 0.000000 0.000000 0.000000 0.032406 0.000000 0.000000
# 5 0.000000 0.000000 0.000000 0.000000 0.065574 0.000000
# 6 0.000000 0.000000 0.000000 0.000000 0.000000 0.037217
#
#
# Mechanical properties :
#
#
# Convention : Reuss Voigt Hill
#
# Bulk Modulus (GPa) = 42.48097 44.16460 43.32279
# Shear Modulus (GPa) = 20.87204 23.09361 21.98282
#
# Velocity S-wave (km/s) = 3.29690 3.46792 3.38349
# Velocity P-wave (km/s) = 6.05108 6.24780 6.15023
#
# Compressibility (1/GPa) = 0.02353995
#
# Stress axis : x y z
#
# Youngs Moduli (GPa) = 36.66293 68.30153 55.22017
#
# Poissons Ratio (x) = 0.53602 0.44273
# Poissons Ratio (y) = 0.28772 0.13129
# Poissons Ratio (z) = 0.29395 0.16239
#
# Static dielectric constant tensor:
#      x y z
#    x 3.090460 0.000000 0.000000 
#    y 0.000000 3.558670 0.000000 
#    z 0.000000 0.000000 3.615440 
# 
# 
# High freq. dielectric constant tensor:
#      x y z
#    x 1.701910 0.000000 0.000000 
#    y 0.000000 1.745810 0.000000 
#    z 0.000000 0.000000 1.751830 
# 
# From -- ./inp_files/14526.got.cif
#   From: 2010.03.12/outbox.cif.g09.slc.cpg/sg46_8_cif.got.tgz:14526.got - 2010.04.14 02:56:35.
