data_PCOD8191333
_publ_section_title
;
Structure prediction by ZEFSAII (Michael W. Deem and Ramdas Pophale) SiO2 
 PCOD8191333
Probable space group: I M A 2
;
_chemical_formula_sum "Si O2"
_cell_formula_units_Z 64
_cell_length_a 9.204870
_cell_length_b 19.696017
_cell_length_c 22.601359
_cell_angle_alpha 90.000000
_cell_angle_beta 90.000000
_cell_angle_gamma 90.000000
_cell_volume 4097.610023
_symmetry_space_group_name_H-M "I M A 2"
_symmetry_group_IT_number 46
_symmetry_cell_setting 'orthorhombic'
loop_
_space_group_symop_operation_xyz
x,y,z
-x,-y,z
1/2-x,y,z
1/2+x,-y,z
1/2+x,1/2+y,1/2+z
1/2-x,1/2-y,1/2+z
-x,1/2+y,1/2+z
x,1/2-y,1/2+z
loop_
_atom_site_type_symbol
_atom_site_label
_atom_site_fract_x
_atom_site_fract_y
_atom_site_fract_z
Si Si1 0.912438 0.223177 0.646520
Si Si2 0.411015 0.152606 0.555574
Si Si3 0.909250 0.144077 0.066651
Si Si4 0.421154 0.198173 0.374513
Si Si5 0.424595 0.930053 0.180232
Si Si6 0.578359 0.930454 0.444528
Si Si7 0.422621 0.304962 0.738922
Si Si8 0.089844 0.213739 0.976835
O O1 0.750000 0.204309 0.668508
O O2 0.904423 0.286490 0.602941
O O3 0.980136 0.158969 0.611319
O O4 0.016004 0.241534 0.701714
O O5 0.250000 0.135395 0.579653
O O6 0.464509 0.093859 0.510821
O O7 0.404059 0.223119 0.520931
O O8 0.750000 0.124142 0.044307
O O9 0.966876 0.086447 0.111911
O O10 0.004338 0.151622 0.007464
O O11 0.250000 0.197874 0.386407
O O12 0.479191 0.125132 0.397038
O O13 0.460638 0.211036 0.306824
O O14 0.483985 0.259900 0.415353
O O15 0.250000 0.931951 0.188867
O O16 0.493192 0.873525 0.222684
O O17 0.500000 0.000000 0.198487
O O18 0.750000 0.941126 0.439253
O O19 0.500000 0.000000 0.428930
O O20 0.250000 0.313439 0.728157
O O21 0.250000 0.184718 0.964785
#
# Coordination Sequence:
#
# PCOD8191333 Si02
#       8
#     8   8   8   8   8   8   8   8
#     4   9  16  26  40  59  81 101 129 170 210 246
#     4   8  14  25  41  58  76 101 132 166 206 249
#     4   8  15  26  39  57  79  99 123 163 209 246
#     4   8  16  29  42  58  81 110 142 173 200 235
#     4  10  20  32  43  58  82 110 143 177 206 239
#     4   9  17  29  42  58  82 110 142 175 205 240
#     4  10  18  29  44  59  81 113 144 171 203 240
#     4   8  13  24  42  59  75  98 130 165 201 241
#
# _framework density 15.618862
#
# number of rings (size 3 to 8) (size 9 to 14) (size 15 to 20)
#    0.000    3.250    0.000    3.375    0.000    4.500 
#    0.000    5.625    0.000    0.000    0.000    0.000 
#    0.000    1.000    0.000    8.500    0.000    6.625 
#
# Total GULP energy -396508.232483 kJ/mol
# GULP energy per Si atom -12390.882265 kJ/mol
# Density = 1.558331 g / cm^3
# Si number density = 15.618862 Si / 1000 Ang^3
#
#
#
# Elastic Constant Matrix: (Units=GPa)
#
#
# Indices 1 2 3 4 5 6 
#
# 1 70.6870 13.5154 44.4164 0.0000 0.0000 0.0000
# 2 13.5154 8.6385 24.8348 0.0000 0.0000 0.0000
# 3 44.4164 24.8348 99.1225 0.0000 0.0000 0.0000
# 4 0.0000 0.0000 0.0000 16.2711 0.0000 0.0000
# 5 0.0000 0.0000 0.0000 0.0000 16.8313 0.0000
# 6 0.0000 0.0000 0.0000 0.0000 0.0000 20.0265
#
#
#
# Elastic Compliance Matrix: (Units=1/GPa)
#
#
# Indices 1 2 3 4 5 6 
#
# 1 0.020650 -0.020400 -0.004142 0.000000 0.000000 0.000000
# 2 -0.020400 0.434016 -0.099600 0.000000 0.000000 0.000000
# 3 -0.004142 -0.099600 0.036899 0.000000 0.000000 0.000000
# 4 0.000000 0.000000 0.000000 0.061459 0.000000 0.000000
# 5 0.000000 0.000000 0.000000 0.000000 0.059413 0.000000
# 6 0.000000 0.000000 0.000000 0.000000 0.000000 0.049934
#
#
# Mechanical properties :
#
#
# Convention : Reuss Voigt Hill
#
# Bulk Modulus (GPa) = 4.11048 38.22014 21.16531
# Shear Modulus (GPa) = 5.04160 17.00454 11.02307
#
# Velocity S-wave (km/s) = 1.79858 3.30315 2.65948
# Velocity P-wave (km/s) = 2.63641 6.25071 4.79698
#
# Compressibility (1/GPa) = 0.24328059
#
# Stress axis : x y z
#
# Youngs Moduli (GPa) = 48.42605 2.30406 27.10101
#
# Poissons Ratio (x) = 0.04700 0.11225
# Poissons Ratio (y) = 0.98791 2.69926
# Poissons Ratio (z) = 0.20058 0.22948
#
# Static dielectric constant tensor:
#      x y z
#    x 3.101580 0.000000 0.000000 
#    y 0.000000 2.734360 0.000000 
#    z 0.000000 0.000000 3.022100 
# 
# 
# High freq. dielectric constant tensor:
#      x y z
#    x 1.597710 0.000000 0.000000 
#    y 0.000000 1.554800 0.000000 
#    z 0.000000 0.000000 1.585770 
# 
# From -- ./inp_files/21504.got.cif
#   From: 2010.03.12/outbox.cif.g09.slc.cpg/sg46_11_cif.got.tgz:21504.got - 2010.04.14 02:56:35.
