data_PCOD8191028
_publ_section_title
;
Structure prediction by ZEFSAII (Michael W. Deem and Ramdas Pophale) SiO2 
 PCOD8191028
Probable space group: I B A 2
;
_chemical_formula_sum "Si O2"
_cell_formula_units_Z 48
_cell_length_a 11.113276
_cell_length_b 16.372424
_cell_length_c 11.758579
_cell_angle_alpha 90.000000
_cell_angle_beta 90.000000
_cell_angle_gamma 90.000000
_cell_volume 2139.488344
_symmetry_space_group_name_H-M "I B A 2"
_symmetry_group_IT_number 45
_symmetry_cell_setting 'orthorhombic'
loop_
_space_group_symop_operation_xyz
x,y,z
-x,-y,z
-x,y,1/2+z
x,-y,1/2+z
1/2+x,1/2+y,1/2+z
1/2-x,1/2-y,1/2+z
1/2-x,1/2+y,z
1/2+x,1/2-y,z
loop_
_atom_site_type_symbol
_atom_site_label
_atom_site_fract_x
_atom_site_fract_y
_atom_site_fract_z
Si Si1 0.733366 0.421087 0.740790
Si Si2 0.043834 0.158887 0.594365
Si Si3 0.687255 0.288558 0.390442
Si Si4 0.190518 0.397079 0.705294
Si Si5 0.545522 0.811522 0.730300
Si Si6 0.697145 0.638599 0.478737
O O1 0.600643 0.396833 0.694187
O O2 0.776429 0.508595 0.699625
O O3 0.829114 0.354302 0.693863
O O4 0.725995 0.425271 0.878140
O O5 0.148943 0.162451 0.501204
O O6 0.002266 0.247817 0.636914
O O7 0.929305 0.115377 0.537020
O O8 0.719391 0.349098 0.288012
O O9 0.572083 0.235334 0.348573
O O10 0.799284 0.228917 0.420938
O O11 0.201413 0.364086 0.576478
O O12 0.054677 0.381685 0.748488
#
# Coordination Sequence:
#
# PCOD8191028 Si02
#       6
#     8   8   8   8   8   8
#     4  11  28  45  69 109 148 186 239 300 372 414
#     4  12  22  45  73 101 139 187 241 290 351 435
#     4  11  23  43  73 103 133 186 250 287 349 429
#     4  12  25  47  70 107 147 182 240 307 362 416
#     4  11  22  47  71 102 138 190 244 292 349 428
#     4  11  25  45  69 101 140 189 241 285 360 434
#
# _framework density 22.435271
#
# number of rings (size 3 to 8) (size 9 to 14) (size 15 to 20)
#    0.000    0.667    3.333    5.500    2.333    0.667 
#    0.000    1.667    0.000    0.000    0.000    0.000 
#    0.000    0.000    0.000    0.000    0.000    0.000 
#
# Total GULP energy -297625.759254 kJ/mol
# GULP energy per Si atom -12401.073302 kJ/mol
# Density = 2.238421 g / cm^3
# Si number density = 22.435271 Si / 1000 Ang^3
#
#
#
# Elastic Constant Matrix: (Units=GPa)
#
#
# Indices 1 2 3 4 5 6 
#
# 1 122.4776 26.4836 35.7720 0.0000 0.0000 0.0000
# 2 26.4836 88.8197 29.1349 0.0001 0.0000 0.0000
# 3 35.7720 29.1349 126.5936 0.0006 0.0001 0.0001
# 4 0.0000 0.0001 0.0006 25.6663 0.0001 0.0001
# 5 0.0000 0.0000 0.0001 0.0001 35.8824 0.0000
# 6 0.0000 0.0000 0.0001 0.0001 0.0000 28.2498
#
#
#
# Elastic Compliance Matrix: (Units=1/GPa)
#
#
# Indices 1 2 3 4 5 6 
#
# 1 0.009233 -0.002052 -0.002137 0.000000 0.000000 0.000000
# 2 -0.002052 0.012634 -0.002328 0.000000 0.000000 0.000000
# 3 -0.002137 -0.002328 0.009039 0.000000 0.000000 0.000000
# 4 0.000000 0.000000 0.000000 0.038962 0.000000 0.000000
# 5 0.000000 0.000000 0.000000 0.000000 0.027869 0.000000
# 6 0.000000 0.000000 0.000000 0.000000 0.000000 0.035398
#
#
# Mechanical properties :
#
#
# Convention : Reuss Voigt Hill
#
# Bulk Modulus (GPa) = 55.95177 57.85246 56.90211
# Shear Modulus (GPa) = 32.86772 34.39304 33.63038
#
# Velocity S-wave (km/s) = 3.83169 3.91959 3.87589
# Velocity P-wave (km/s) = 6.67601 6.80637 6.74150
#
# Compressibility (1/GPa) = 0.01787254
#
# Stress axis : x y z
#
# Youngs Moduli (GPa) = 108.31292 79.15017 110.63431
#
# Poissons Ratio (x) = 0.16242 0.23638
# Poissons Ratio (y) = 0.22226 0.25754
# Poissons Ratio (z) = 0.23142 0.18425
#
# Static dielectric constant tensor:
#      x y z
#    x 4.071910 0.000000 0.000000 
#    y 0.000000 3.774650 0.000000 
#    z 0.000000 0.000000 4.138970 
# 
# 
# High freq. dielectric constant tensor:
#      x y z
#    x 1.886650 0.000000 0.000000 
#    y 0.000000 1.864430 0.000000 
#    z 0.000000 0.000000 1.894140 
# 
# From -- ./inp_files/3678.got.cif
#   From: 2010.03.12/outbox.cif.g09.slc.cpg/sg45_2_cif.got.tgz:3678.got - 2010.04.14 02:50:11.
