data_PCOD8191908
_publ_section_title
;
Structure prediction by ZEFSAII (Michael W. Deem and Ramdas Pophale) SiO2 
 PCOD8191908
Probable space group: I M A 2
;
_chemical_formula_sum "Si O2"
_cell_formula_units_Z 64
_cell_length_a 8.972513
_cell_length_b 23.206481
_cell_length_c 18.903032
_cell_angle_alpha 90.000000
_cell_angle_beta 90.000000
_cell_angle_gamma 90.000000
_cell_volume 3935.997876
_symmetry_space_group_name_H-M "I M A 2"
_symmetry_group_IT_number 46
_symmetry_cell_setting 'orthorhombic'
loop_
_space_group_symop_operation_xyz
x,y,z
-x,-y,z
1/2-x,y,z
1/2+x,-y,z
1/2+x,1/2+y,1/2+z
1/2-x,1/2-y,1/2+z
-x,1/2+y,1/2+z
x,1/2-y,1/2+z
loop_
_atom_site_type_symbol
_atom_site_label
_atom_site_fract_x
_atom_site_fract_y
_atom_site_fract_z
Si Si1 0.577214 0.622549 0.657780
Si Si2 0.425134 0.280496 0.015646
Si Si3 0.426662 0.656269 0.894359
Si Si4 0.924783 0.561536 0.805158
Si Si5 0.574713 0.244024 0.152617
Si Si6 0.075903 0.332295 0.427977
Si Si7 0.576536 0.231203 0.810382
Si Si8 0.924727 0.559872 0.515856
O O1 0.750000 0.641562 0.651542
O O2 0.540793 0.591617 0.730857
O O3 0.474826 0.678050 0.650677
O O4 0.534367 0.578426 0.595524
O O5 0.250000 0.293110 0.015352
O O6 0.487172 0.281800 0.095173
O O7 0.509459 0.330136 0.972042
O O8 0.464442 0.218346 0.982791
O O9 0.250000 0.648360 0.897653
O O10 0.502120 0.597830 0.868112
O O11 0.476325 0.707279 0.841197
O O12 0.750000 0.555321 0.818948
O O13 0.000000 0.500000 0.804570
O O14 0.750000 0.246534 0.137645
O O15 0.533671 0.271888 0.228206
O O16 0.250000 0.335280 0.415133
O O17 0.015772 0.391775 0.461127
O O18 0.001894 0.321019 0.351848
O O19 0.750000 0.223986 0.823155
O O20 0.750000 0.552048 0.507417
O O21 0.000000 0.500000 0.496218
#
# Coordination Sequence:
#
# PCOD8191908 Si02
#       8
#     8   8   8   8   8   8   8   8
#     4  10  20  34  48  67 100 137 174 208 242 289
#     4  10  19  33  51  72  99 130 165 206 250 301
#     4  10  19  34  51  72 100 130 167 211 252 299
#     4  11  22  34  51  72  99 138 177 213 253 296
#     4  11  20  31  49  75 102 132 165 203 251 300
#     4   9  18  32  49  68  95 127 164 204 244 289
#     4   9  19  32  48  71  99 126 162 204 248 297
#     4  10  20  34  48  69  97 131 171 208 243 286
#
# _framework density 16.260172000000001
#
# number of rings (size 3 to 8) (size 9 to 14) (size 15 to 20)
#    0.000    2.000    2.500    1.875    0.000    3.500 
#    0.000    0.000    0.000    0.000    0.000    0.875 
#    0.000    4.000    0.000    0.000    0.000    0.000 
#
# Total GULP energy -396890.536513 kJ/mol
# GULP energy per Si atom -12402.829266 kJ/mol
# Density = 1.622316 g / cm^3
# Si number density = 16.260172 Si / 1000 Ang^3
#
#
#
# Elastic Constant Matrix: (Units=GPa)
#
#
# Indices 1 2 3 4 5 6 
#
# 1 61.6232 29.6250 44.1506 0.0000 0.0000 0.0000
# 2 29.6250 43.8169 37.8068 0.0001 0.0000 0.0000
# 3 44.1506 37.8068 103.5203 0.0001 0.0000 0.0000
# 4 0.0000 0.0001 0.0001 22.6099 0.0000 0.0000
# 5 0.0000 0.0000 0.0000 0.0000 29.1918 0.0000
# 6 0.0000 0.0000 0.0000 0.0000 0.0000 29.6393
#
#
#
# Elastic Compliance Matrix: (Units=1/GPa)
#
#
# Indices 1 2 3 4 5 6 
#
# 1 0.027233 -0.012252 -0.007140 0.000000 0.000000 0.000000
# 2 -0.012252 0.038835 -0.008958 0.000000 0.000000 0.000000
# 3 -0.007140 -0.008958 0.015977 0.000000 0.000000 0.000000
# 4 0.000000 0.000000 0.000000 0.044228 0.000000 0.000000
# 5 0.000000 0.000000 0.000000 0.000000 0.034256 0.000000
# 6 0.000000 0.000000 0.000000 0.000000 0.000000 0.033739
#
#
# Mechanical properties :
#
#
# Convention : Reuss Voigt Hill
#
# Bulk Modulus (GPa) = 39.45503 48.01393 43.73448
# Shear Modulus (GPa) = 19.27404 22.78005 21.02705
#
# Velocity S-wave (km/s) = 3.44663 3.74702 3.59996
# Velocity P-wave (km/s) = 6.33692 6.95074 6.65092
#
# Compressibility (1/GPa) = 0.02534531
#
# Stress axis : x y z
#
# Youngs Moduli (GPa) = 36.71960 25.75019 62.59132
#
# Poissons Ratio (x) = 0.31549 0.44692
# Poissons Ratio (y) = 0.44988 0.56067
# Poissons Ratio (z) = 0.26219 0.23066
#
# Static dielectric constant tensor:
#      x y z
#    x 3.086060 0.000000 0.000000 
#    y 0.000000 2.950490 0.000000 
#    z 0.000000 0.000000 3.248030 
# 
# 
# High freq. dielectric constant tensor:
#      x y z
#    x 1.633920 0.000000 0.000000 
#    y 0.000000 1.598930 0.000000 
#    z 0.000000 0.000000 1.623420 
# 
# From -- ./inp_files/14440.got.cif
#   From: 2010.03.12/outbox.cif.g09.slc.cpg/sg46_8_cif.got.tgz:14440.got - 2010.04.14 02:56:35.
