data_PCOD8191825
_publ_section_title
;
Structure prediction by ZEFSAII (Michael W. Deem and Ramdas Pophale) SiO2 
 PCOD8191825
Probable space group: I M A 2
;
_chemical_formula_sum "Si O2"
_cell_formula_units_Z 64
_cell_length_a 9.427064
_cell_length_b 16.194626
_cell_length_c 22.222672
_cell_angle_alpha 90.000000
_cell_angle_beta 90.000000
_cell_angle_gamma 90.000000
_cell_volume 3392.685906
_symmetry_space_group_name_H-M "I M A 2"
_symmetry_group_IT_number 46
_symmetry_cell_setting 'orthorhombic'
loop_
_space_group_symop_operation_xyz
x,y,z
-x,-y,z
1/2-x,y,z
1/2+x,-y,z
1/2+x,1/2+y,1/2+z
1/2-x,1/2-y,1/2+z
-x,1/2+y,1/2+z
x,1/2-y,1/2+z
loop_
_atom_site_type_symbol
_atom_site_label
_atom_site_fract_x
_atom_site_fract_y
_atom_site_fract_z
Si Si1 0.903826 0.432075 0.274420
Si Si2 0.595677 0.270523 0.346065
Si Si3 0.583376 0.578076 0.934697
Si Si4 0.587386 0.273546 0.975926
Si Si5 0.585158 0.231823 0.105394
Si Si6 0.419522 0.082924 0.170104
Si Si7 0.416738 0.917984 0.639680
Si Si8 0.412116 0.133964 0.302675
O O1 0.750000 0.471286 0.264629
O O2 0.899664 0.361295 0.322324
O O3 0.960975 0.405344 0.209204
O O4 0.000000 0.500000 0.305397
O O5 0.750000 0.227732 0.341511
O O6 0.550601 0.277755 0.415773
O O7 0.493838 0.220089 0.302388
O O8 0.500000 0.500000 0.959763
O O9 0.750000 0.568977 0.945390
O O10 0.523313 0.651429 0.975541
O O11 0.544926 0.585919 0.863585
O O12 0.750000 0.306858 0.975837
O O13 0.564743 0.215039 0.033999
O O14 0.750000 0.219958 0.125741
O O15 0.486834 0.165948 0.140731
O O16 0.538962 0.328542 0.112322
O O17 0.250000 0.078880 0.155808
O O18 0.447144 0.084147 0.242017
O O19 0.500000 0.000000 0.146100
O O20 0.250000 0.933292 0.628762
O O21 0.500000 0.000000 0.614160
O O22 0.250000 0.159006 0.304829
#
# Coordination Sequence:
#
# PCOD8191825 Si02
#       8
#     8   8   8   8   8   8   8   8
#     4   9  17  29  46  70  97 124 157 198 247 302
#     4   9  17  31  52  75 100 132 168 207 256 313
#     4  10  19  32  51  76 107 138 169 208 257 314
#     4   9  19  35  53  73  99 133 173 215 258 308
#     4  10  21  38  57  77 106 143 181 223 269 315
#     4  11  23  38  57  81 108 140 181 227 275 326
#     4   9  18  32  51  76 105 136 169 207 254 309
#     4   9  19  33  51  78 107 134 167 211 263 319
#
# _framework density 18.86411
#
# number of rings (size 3 to 8) (size 9 to 14) (size 15 to 20)
#    0.000    2.500    0.000    1.875    0.000    4.500 
#    0.000    4.375    0.000    1.500    0.000    0.000 
#    0.000    0.000    0.000    0.000    0.000    0.000 
#
# Total GULP energy -396465.525422 kJ/mol
# GULP energy per Si atom -12389.547669 kJ/mol
# Density = 1.882117 g / cm^3
# Si number density = 18.864110 Si / 1000 Ang^3
#
#
#
# Elastic Constant Matrix: (Units=GPa)
#
#
# Indices 1 2 3 4 5 6 
#
# 1 82.3137 52.7520 30.5808 0.0000 0.0000 0.0000
# 2 52.7520 90.4443 25.7297 0.0000 0.0000 0.0000
# 3 30.5808 25.7297 57.2736 0.0000 0.0000 0.0000
# 4 0.0000 0.0000 0.0000 10.9550 0.0000 0.0000
# 5 0.0000 0.0000 0.0000 0.0000 22.9701 0.0000
# 6 0.0000 0.0000 0.0000 0.0000 0.0000 36.5617
#
#
#
# Elastic Compliance Matrix: (Units=1/GPa)
#
#
# Indices 1 2 3 4 5 6 
#
# 1 0.021418 -0.010592 -0.006677 0.000000 0.000000 0.000000
# 2 -0.010592 0.017915 -0.002393 0.000000 0.000000 0.000000
# 3 -0.006677 -0.002393 0.022100 0.000000 0.000000 0.000000
# 4 0.000000 0.000000 0.000000 0.091282 0.000000 0.000000
# 5 0.000000 0.000000 0.000000 0.000000 0.043535 0.000000
# 6 0.000000 0.000000 0.000000 0.000000 0.000000 0.027351
#
#
# Mechanical properties :
#
#
# Convention : Reuss Voigt Hill
#
# Bulk Modulus (GPa) = 45.23112 49.79517 47.51314
# Shear Modulus (GPa) = 18.49830 22.16197 20.33014
#
# Velocity S-wave (km/s) = 3.13486 3.43129 3.28642
# Velocity P-wave (km/s) = 6.09365 6.49249 6.29623
#
# Compressibility (1/GPa) = 0.02210867
#
# Stress axis : x y z
#
# Youngs Moduli (GPa) = 46.69051 55.81856 45.24859
#
# Poissons Ratio (x) = 0.59125 0.30214
# Poissons Ratio (y) = 0.49456 0.10826
# Poissons Ratio (z) = 0.31176 0.13355
#
# Static dielectric constant tensor:
#      x y z
#    x 3.358320 0.000000 0.000000 
#    y 0.000000 3.317630 0.000000 
#    z 0.000000 0.000000 3.491860 
# 
# 
# High freq. dielectric constant tensor:
#      x y z
#    x 1.734460 0.000000 0.000000 
#    y 0.000000 1.715880 0.000000 
#    z 0.000000 0.000000 1.730100 
# 
# From -- ./inp_files/21352.got.cif
#   From: 2010.03.12/outbox.cif.g09.slc.cpg/sg46_11_cif.got.tgz:21352.got - 2010.04.14 02:56:35.
