data_PCOD8191864
_publ_section_title
;
Structure prediction by ZEFSAII (Michael W. Deem and Ramdas Pophale) SiO2 
 PCOD8191864
Probable space group: I M A 2
;
_chemical_formula_sum "Si O2"
_cell_formula_units_Z 64
_cell_length_a 14.550377
_cell_length_b 13.450243
_cell_length_c 18.340838
_cell_angle_alpha 90.000000
_cell_angle_beta 90.000000
_cell_angle_gamma 90.000000
_cell_volume 3589.413993
_symmetry_space_group_name_H-M "I M A 2"
_symmetry_group_IT_number 46
_symmetry_cell_setting 'orthorhombic'
loop_
_space_group_symop_operation_xyz
x,y,z
-x,-y,z
1/2-x,y,z
1/2+x,-y,z
1/2+x,1/2+y,1/2+z
1/2-x,1/2-y,1/2+z
-x,1/2+y,1/2+z
x,1/2-y,1/2+z
loop_
_atom_site_type_symbol
_atom_site_label
_atom_site_fract_x
_atom_site_fract_y
_atom_site_fract_z
Si Si1 0.474861 0.228789 0.657080
Si Si2 0.349988 0.897143 0.678874
Si Si3 0.026850 0.352344 0.520651
Si Si4 0.647725 0.691392 0.946750
Si Si5 0.146488 0.538593 0.476692
Si Si6 0.646506 0.756606 0.792345
Si Si7 0.105880 0.482026 0.322316
Si Si8 0.405494 0.048551 0.563848
O O1 0.575896 0.190277 0.678390
O O2 0.481356 0.324093 0.605341
O O3 0.424172 0.269065 0.728679
O O4 0.418253 0.139058 0.620701
O O5 0.250000 0.846822 0.685713
O O6 0.366156 0.970014 0.746475
O O7 0.348990 0.963380 0.605475
O O8 0.066607 0.259750 0.476567
O O9 0.097138 0.443136 0.512282
O O10 0.922534 0.370334 0.493096
O O11 0.750000 0.737674 0.959426
O O12 0.632335 0.679443 0.859707
O O13 0.644062 0.586258 0.990025
O O14 0.250000 0.554388 0.509323
O O15 0.160053 0.529143 0.389892
O O16 0.750000 0.748708 0.761508
O O17 0.627934 0.866176 0.822781
O O18 0.000000 0.500000 0.338816
O O19 0.500000 0.000000 0.538382
#
# Coordination Sequence:
#
# PCOD8191864 Si02
#       8
#     8   8   8   8   8   8   8   8
#     4  10  21  34  49  74 106 134 173 211 259 307
#     4  11  20  31  51  78 108 141 169 205 255 310
#     4  10  21  35  51  76 106 138 173 216 263 310
#     4  10  19  32  53  79 107 140 177 215 262 312
#     4  11  21  35  56  78 104 138 174 214 263 318
#     4  11  20  31  50  77 105 132 166 213 258 303
#     4  12  18  32  51  79 112 136 164 204 259 319
#     4   9  18  33  50  75 106 139 176 214 258 307
#
# _framework density 17.830209
#
# number of rings (size 3 to 8) (size 9 to 14) (size 15 to 20)
#    0.000    1.500    5.000    2.250    0.000    3.000 
#    0.000    0.000    2.750    0.000    0.000    0.000 
#    0.000    0.000    0.000    0.000    0.000    0.000 
#
# Total GULP energy -396671.729884 kJ/mol
# GULP energy per Si atom -12395.991559 kJ/mol
# Density = 1.778963 g / cm^3
# Si number density = 17.830209 Si / 1000 Ang^3
#
#
#
# Elastic Constant Matrix: (Units=GPa)
#
#
# Indices 1 2 3 4 5 6 
#
# 1 130.0360 25.5016 48.0782 0.0000 0.0000 0.0000
# 2 25.5016 40.2235 41.2075 0.0000 0.0000 0.0000
# 3 48.0782 41.2075 123.2971 0.0000 0.0000 0.0000
# 4 0.0000 0.0000 0.0000 28.9583 0.0000 0.0000
# 5 0.0000 0.0000 0.0000 0.0000 54.5584 0.0000
# 6 0.0000 0.0000 0.0000 0.0000 0.0000 13.1812
#
#
#
# Elastic Compliance Matrix: (Units=1/GPa)
#
#
# Indices 1 2 3 4 5 6 
#
# 1 0.009266 -0.003304 -0.002509 0.000000 0.000000 0.000000
# 2 -0.003304 0.038984 -0.011740 0.000000 0.000000 0.000000
# 3 -0.002509 -0.011740 0.013012 0.000000 0.000000 0.000000
# 4 0.000000 0.000000 0.000000 0.034532 0.000000 0.000000
# 5 0.000000 0.000000 0.000000 0.000000 0.018329 0.000000
# 6 0.000000 0.000000 0.000000 0.000000 0.000000 0.075866
#
#
# Mechanical properties :
#
#
# Convention : Reuss Voigt Hill
#
# Bulk Modulus (GPa) = 38.23359 58.12570 48.17964
# Shear Modulus (GPa) = 21.38453 31.25754 26.32104
#
# Velocity S-wave (km/s) = 3.46691 4.19151 3.84631
# Velocity P-wave (km/s) = 6.12500 7.48968 6.84145
#
# Compressibility (1/GPa) = 0.02615501
#
# Stress axis : x y z
#
# Youngs Moduli (GPa) = 107.92435 25.65182 76.84931
#
# Poissons Ratio (x) = 0.08476 0.19279
# Poissons Ratio (y) = 0.35663 0.90223
# Poissons Ratio (z) = 0.27075 0.30116
#
# Static dielectric constant tensor:
#      x y z
#    x 3.489110 0.000000 0.000000 
#    y 0.000000 3.090510 0.000000 
#    z 0.000000 0.000000 3.444130 
# 
# 
# High freq. dielectric constant tensor:
#      x y z
#    x 1.703580 0.000000 0.000000 
#    y 0.000000 1.645710 0.000000 
#    z 0.000000 0.000000 1.690480 
# 
# From -- ./inp_files/19723.got.cif
#   From: 2010.03.12/outbox.cif.g09.slc.cpg/sg46_10_cif.got.tgz:19723.got - 2010.04.14 02:56:35.
