data_PCOD8191667
_publ_section_title
;
Structure prediction by ZEFSAII (Michael W. Deem and Ramdas Pophale) SiO2 
 PCOD8191667
Probable space group: I M A 2
;
_chemical_formula_sum "Si O2"
_cell_formula_units_Z 64
_cell_length_a 9.107692
_cell_length_b 26.412230
_cell_length_c 18.235244
_cell_angle_alpha 90.000000
_cell_angle_beta 90.000000
_cell_angle_gamma 90.000000
_cell_volume 4386.569198
_symmetry_space_group_name_H-M "I M A 2"
_symmetry_group_IT_number 46
_symmetry_cell_setting 'orthorhombic'
loop_
_space_group_symop_operation_xyz
x,y,z
-x,-y,z
1/2-x,y,z
1/2+x,-y,z
1/2+x,1/2+y,1/2+z
1/2-x,1/2-y,1/2+z
-x,1/2+y,1/2+z
x,1/2-y,1/2+z
loop_
_atom_site_type_symbol
_atom_site_label
_atom_site_fract_x
_atom_site_fract_y
_atom_site_fract_z
Si Si1 0.581642 0.244084 0.132760
Si Si2 0.918229 0.755982 0.983688
Si Si3 0.419608 0.297529 0.841666
Si Si4 0.076211 0.448798 0.482458
Si Si5 0.079002 0.351269 0.389822
Si Si6 0.579011 0.351188 0.726760
Si Si7 0.923736 0.051193 0.134207
Si Si8 0.919670 0.297817 0.274600
O O1 0.750000 0.235625 0.112554
O O2 0.522403 0.192479 0.170947
O O3 0.560926 0.292872 0.186529
O O4 0.500102 0.256337 0.058163
O O5 0.750000 0.764607 0.004126
O O6 0.938190 0.707215 0.929803
O O7 0.977808 0.807521 0.945436
O O8 0.250000 0.296052 0.819437
O O9 0.493820 0.347155 0.804975
O O10 0.501310 0.250076 0.808284
O O11 0.250000 0.456786 0.494823
O O12 0.044074 0.405911 0.422873
O O13 0.000000 0.500000 0.453184
O O14 0.000051 0.432466 0.558350
O O15 0.250000 0.343235 0.374245
O O16 0.994902 0.347224 0.311345
O O17 0.750000 0.343154 0.742640
O O18 0.544478 0.405880 0.693764
O O19 0.750000 0.043128 0.121716
O O20 0.000000 0.000000 0.163514
O O21 0.750000 0.297179 0.296494
#
# Coordination Sequence:
#
# PCOD8191667 Si02
#       8
#     8   8   8   8   8   8   8   8
#     4   9  17  27  39  58  81 105 134 165 197 235
#     4   9  17  27  39  58  81 105 134 165 197 235
#     4   9  17  28  41  58  80 105 135 168 201 239
#     4  10  19  30  43  60  83 109 140 175 208 243
#     4   9  18  30  42  58  80 107 140 172 202 239
#     4   9  18  30  42  58  80 107 140 172 202 239
#     4  10  19  30  43  60  83 109 140 175 208 243
#     4   9  17  28  41  58  80 105 135 168 201 239
#
# _framework density 14.589988999999999
#
# number of rings (size 3 to 8) (size 9 to 14) (size 15 to 20)
#    0.000    2.750    0.000    4.500    0.000    7.000 
#    0.000    0.000    0.000    0.000    0.000    0.000 
#    0.000    1.000    0.000   11.000    0.000    8.000 
#
# Total GULP energy -396565.663364 kJ/mol
# GULP energy per Si atom -12392.676980 kJ/mol
# Density = 1.455678 g / cm^3
# Si number density = 14.589989 Si / 1000 Ang^3
#
#
#
# Elastic Constant Matrix: (Units=GPa)
#
#
# Indices 1 2 3 4 5 6 
#
# 1 80.3207 42.3772 52.7091 0.0000 0.0000 0.0000
# 2 42.3772 76.3230 49.9807 0.0000 0.0000 0.0000
# 3 52.7091 49.9807 92.0822 -0.0001 0.0000 0.0000
# 4 0.0000 0.0000 -0.0001 26.3577 0.0000 0.0000
# 5 0.0000 0.0000 0.0000 0.0000 29.0669 0.0000
# 6 0.0000 0.0000 0.0000 0.0000 0.0000 21.9732
#
#
#
# Elastic Compliance Matrix: (Units=1/GPa)
#
#
# Indices 1 2 3 4 5 6 
#
# 1 0.021600 -0.006045 -0.009083 0.000000 0.000000 0.000000
# 2 -0.006045 0.022019 -0.008492 0.000000 0.000000 0.000000
# 3 -0.009083 -0.008492 0.020668 0.000000 0.000000 0.000000
# 4 0.000000 0.000000 0.000000 0.037940 0.000000 0.000000
# 5 0.000000 0.000000 0.000000 0.000000 0.034403 0.000000
# 6 0.000000 0.000000 0.000000 0.000000 0.000000 0.045510
#
#
# Mechanical properties :
#
#
# Convention : Reuss Voigt Hill
#
# Bulk Modulus (GPa) = 58.65629 59.87333 59.26481
# Shear Modulus (GPa) = 21.27095 22.39014 21.83055
#
# Velocity S-wave (km/s) = 3.82241 3.92168 3.87236
# Velocity P-wave (km/s) = 7.73120 7.85063 7.79114
#
# Compressibility (1/GPa) = 0.01704847
#
# Stress axis : x y z
#
# Youngs Moduli (GPa) = 46.29631 45.41463 48.38362
#
# Poissons Ratio (x) = 0.27453 0.43947
# Poissons Ratio (y) = 0.27986 0.41085
# Poissons Ratio (z) = 0.42051 0.38564
#
# Static dielectric constant tensor:
#      x y z
#    x 3.049030 0.000000 0.000000 
#    y 0.000000 3.504780 0.000000 
#    z 0.000000 0.000000 3.416180 
# 
# 
# High freq. dielectric constant tensor:
#      x y z
#    x 1.571710 0.000000 0.000000 
#    y 0.000000 1.525600 0.000000 
#    z 0.000000 0.000000 1.544320 
# 
# From -- ./inp_files/18666.got.cif
#   From: 2010.03.12/outbox.cif.g09.slc.cpg/sg46_10_cif.got.tgz:18666.got - 2010.04.14 02:56:35.
