data_PCOD8191283
_publ_section_title
;
Structure prediction by ZEFSAII (Michael W. Deem and Ramdas Pophale) SiO2 
 PCOD8191283
Probable space group: I M A 2
;
_chemical_formula_sum "Si O2"
_cell_formula_units_Z 48
_cell_length_a 22.819193
_cell_length_b 13.017846
_cell_length_c 9.477191
_cell_angle_alpha 90.000000
_cell_angle_beta 90.000000
_cell_angle_gamma 90.000000
_cell_volume 2815.263466
_symmetry_space_group_name_H-M "I M A 2"
_symmetry_group_IT_number 46
_symmetry_cell_setting 'orthorhombic'
loop_
_space_group_symop_operation_xyz
x,y,z
-x,-y,z
1/2-x,y,z
1/2+x,-y,z
1/2+x,1/2+y,1/2+z
1/2-x,1/2-y,1/2+z
-x,1/2+y,1/2+z
x,1/2-y,1/2+z
loop_
_atom_site_type_symbol
_atom_site_label
_atom_site_fract_x
_atom_site_fract_y
_atom_site_fract_z
Si Si1 0.250000 0.694237 0.001441
Si Si2 0.550261 0.911150 0.944490
Si Si3 0.559646 0.189221 0.965017
Si Si4 0.873416 0.101893 0.460473
Si Si5 0.750000 0.116846 0.811448
Si Si6 0.064873 0.975771 0.200349
Si Si7 0.126567 0.963612 0.768633
O O1 0.250000 0.689976 0.172025
O O2 0.307185 0.639492 0.938447
O O3 0.250000 0.812335 0.950970
O O4 0.511473 0.807450 0.931812
O O5 0.500000 0.000000 0.942255
O O6 0.597478 0.928648 0.820473
O O7 0.582971 0.929791 0.095109
O O8 0.581389 0.304570 0.973662
O O9 0.593826 0.133286 0.837967
O O10 0.569698 0.132512 0.115045
O O11 0.890119 0.029248 0.329810
O O12 0.879590 0.035257 0.601114
O O13 0.805668 0.041845 0.813448
O O14 0.000000 0.000000 0.260126
#
# Coordination Sequence:
#
# PCOD8191283 Si02
#       7
#     4   8   8   8   4   8   8
#     4  10  22  26  38  62  92 111 144 169 198 249
#     4   7  15  30  41  53  77 112 143 173 206 241
#     4   9  16  28  42  57  78 112 142 173 206 246
#     4  11  18  27  42  64  86 113 142 174 202 241
#     4  10  18  28  36  58  84 117 140 171 200 245
#     4   8  17  29  41  56  79 110 144 174 206 242
#     4   9  17  26  39  56  82 111 141 168 203 241
#
# _framework density 17.049914000000001
#
# number of rings (size 3 to 8) (size 9 to 14) (size 15 to 20)
#    0.000    3.667    1.667    1.000    2.333    2.000 
#    0.000    0.000    0.000    0.000    0.000    0.000 
#    0.000    1.333    0.000   66.750    0.000   32.417 
#
# Total GULP energy -297317.868718 kJ/mol
# GULP energy per Si atom -12388.244530 kJ/mol
# Density = 1.701111 g / cm^3
# Si number density = 17.049914 Si / 1000 Ang^3
#
#
#
# Elastic Constant Matrix: (Units=GPa)
#
#
# Indices 1 2 3 4 5 6 
#
# 1 113.9279 37.6119 56.8596 0.0000 0.0000 0.0000
# 2 37.6119 23.9136 13.4353 0.0000 0.0000 0.0000
# 3 56.8596 13.4353 85.2866 0.0000 0.0000 0.0000
# 4 0.0000 0.0000 0.0000 10.6723 0.0000 0.0000
# 5 0.0000 0.0000 0.0000 0.0000 29.4849 0.0000
# 6 0.0000 0.0000 0.0000 0.0000 0.0000 18.1297
#
#
#
# Elastic Compliance Matrix: (Units=1/GPa)
#
#
# Indices 1 2 3 4 5 6 
#
# 1 0.026075 -0.034279 -0.011984 0.000000 0.000000 0.000000
# 2 -0.034279 0.090941 0.008527 0.000000 0.000000 0.000000
# 3 -0.011984 0.008527 0.018372 0.000000 0.000000 0.000000
# 4 0.000000 0.000000 0.000000 0.093700 0.000000 0.000000
# 5 0.000000 0.000000 0.000000 0.000000 0.033916 0.000000
# 6 0.000000 0.000000 0.000000 0.000000 0.000000 0.055158
#
#
# Mechanical properties :
#
#
# Convention : Reuss Voigt Hill
#
# Bulk Modulus (GPa) = 16.68984 48.77131 32.73057
# Shear Modulus (GPa) = 12.08878 19.33880 15.71379
#
# Velocity S-wave (km/s) = 2.66564 3.37151 3.03914
# Velocity P-wave (km/s) = 4.39138 6.61991 5.61727
#
# Compressibility (1/GPa) = 0.05991670
#
# Stress axis : x y z
#
# Youngs Moduli (GPa) = 38.35031 10.99608 54.43199
#
# Poissons Ratio (x) = 0.37694 0.65232
# Poissons Ratio (y) = 1.31461 -0.46416
# Poissons Ratio (z) = 0.45960 -0.09377
#
# Static dielectric constant tensor:
#      x y z
#    x 3.427460 0.000000 0.000000 
#    y 0.000000 2.786550 0.000000 
#    z 0.000000 0.000000 3.289930 
# 
# 
# High freq. dielectric constant tensor:
#      x y z
#    x 1.655020 0.000000 0.000000 
#    y 0.000000 1.590040 0.000000 
#    z 0.000000 0.000000 1.666020 
# 
# From -- ./inp_files/7325.got.cif
#   From: 2010.03.12/outbox.cif.g09.slc.cpg/sg46_4_cif.got.tgz:7325.got - 2010.04.14 02:56:35.
