data_PCOD8191815
_publ_section_title
;
Structure prediction by ZEFSAII (Michael W. Deem and Ramdas Pophale) SiO2 
 PCOD8191815
Probable space group: I M A 2
;
_chemical_formula_sum "Si O2"
_cell_formula_units_Z 64
_cell_length_a 27.250135
_cell_length_b 5.075130
_cell_length_c 26.753905
_cell_angle_alpha 90.000000
_cell_angle_beta 90.000000
_cell_angle_gamma 90.000000
_cell_volume 3700.010956
_symmetry_space_group_name_H-M "I M A 2"
_symmetry_group_IT_number 46
_symmetry_cell_setting 'orthorhombic'
loop_
_space_group_symop_operation_xyz
x,y,z
-x,-y,z
1/2-x,y,z
1/2+x,-y,z
1/2+x,1/2+y,1/2+z
1/2-x,1/2-y,1/2+z
-x,1/2+y,1/2+z
x,1/2-y,1/2+z
loop_
_atom_site_type_symbol
_atom_site_label
_atom_site_fract_x
_atom_site_fract_y
_atom_site_fract_z
Si Si1 0.848277 0.951747 0.722920
Si Si2 0.191970 0.500840 0.893742
Si Si3 0.554446 0.468879 0.172362
Si Si4 0.191934 0.969353 0.506292
Si Si5 0.692679 0.047949 0.171619
Si Si6 0.054575 0.031208 0.105922
Si Si7 0.345889 0.469033 0.560708
Si Si8 0.808324 0.499736 0.332127
O O1 0.833486 0.655096 0.708976
O O2 0.835583 0.009844 0.779749
O O3 0.906727 0.984714 0.716440
O O4 0.820103 0.154085 0.686720
O O5 0.250000 0.507756 0.897018
O O6 0.173573 0.249757 0.863312
O O7 0.172986 0.753972 0.864180
O O8 0.171505 0.495484 0.950094
O O9 0.500000 0.500000 0.195411
O O10 0.562295 0.676867 0.127690
O O11 0.562226 0.177032 0.150563
O O12 0.250000 0.012860 0.509627
O O13 0.178813 0.675520 0.523438
O O14 0.165174 0.176462 0.541801
O O15 0.750000 0.002026 0.176629
O O16 0.676210 0.998649 0.115483
O O17 0.095204 0.988516 0.062890
O O18 0.000000 0.000000 0.082519
O O19 0.750000 0.499255 0.322825
#
# Coordination Sequence:
#
# PCOD8191815 Si02
#       8
#     8   8   8   8   8   8   8   8
#     4  12  21  35  51  77 105 141 174 208 254 306
#     4   9  19  35  51  71  97 131 174 221 253 286
#     4  10  19  35  54  73 100 136 175 217 252 290
#     4  11  22  35  53  76 106 139 176 213 253 305
#     4  12  23  33  47  73 114 146 169 196 246 312
#     4  10  20  36  54  73 100 135 175 219 252 290
#     4  12  21  35  52  77 104 142 174 207 255 306
#     4  10  19  32  51  72 100 134 172 211 254 301
#
# _framework density 17.297246999999999
#
# number of rings (size 3 to 8) (size 9 to 14) (size 15 to 20)
#    0.000    1.250    2.500    5.250    0.000    3.000 
#    0.000    0.000    0.000    0.000    0.000    5.250 
#    0.000    0.000    0.000    0.000    0.000    0.000 
#
# Total GULP energy -396922.615392 kJ/mol
# GULP energy per Si atom -12403.831731 kJ/mol
# Density = 1.725788 g / cm^3
# Si number density = 17.297247 Si / 1000 Ang^3
#
#
#
# Elastic Constant Matrix: (Units=GPa)
#
#
# Indices 1 2 3 4 5 6 
#
# 1 108.1640 15.2091 32.9263 0.0000 0.0000 0.0000
# 2 15.2091 90.1858 23.1807 0.0000 0.0000 0.0000
# 3 32.9263 23.1807 102.5633 0.0000 0.0000 0.0000
# 4 0.0000 0.0000 0.0000 29.1681 0.0000 0.0000
# 5 0.0000 0.0000 0.0000 0.0000 5.6957 0.0000
# 6 0.0000 0.0000 0.0000 0.0000 0.0000 22.1095
#
#
#
# Elastic Compliance Matrix: (Units=1/GPa)
#
#
# Indices 1 2 3 4 5 6 
#
# 1 0.010322 -0.000944 -0.003100 0.000000 0.000000 0.000000
# 2 -0.000944 0.011858 -0.002377 0.000000 0.000000 0.000000
# 3 -0.003100 -0.002377 0.011283 0.000000 0.000000 0.000000
# 4 0.000000 0.000000 0.000000 0.034284 0.000000 0.000000
# 5 0.000000 0.000000 0.000000 0.000000 0.175571 0.000000
# 6 0.000000 0.000000 0.000000 0.000000 0.000000 0.045229
#
#
# Mechanical properties :
#
#
# Convention : Reuss Voigt Hill
#
# Bulk Modulus (GPa) = 48.49611 49.28281 48.88946
# Shear Modulus (GPa) = 16.21990 26.70113 21.46052
#
# Velocity S-wave (km/s) = 3.06554 3.93321 3.52616
# Velocity P-wave (km/s) = 6.37399 7.01288 6.70105
#
# Compressibility (1/GPa) = 0.02062021
#
# Stress axis : x y z
#
# Youngs Moduli (GPa) = 96.88333 84.32850 88.63159
#
# Poissons Ratio (x) = 0.07959 0.27479
# Poissons Ratio (y) = 0.09144 0.21069
# Poissons Ratio (z) = 0.30037 0.20046
#
# Static dielectric constant tensor:
#      x y z
#    x 3.312780 0.000000 0.000000 
#    y 0.000000 3.711200 0.000000 
#    z 0.000000 0.000000 3.172230 
# 
# 
# High freq. dielectric constant tensor:
#      x y z
#    x 1.649890 0.000000 0.000000 
#    y 0.000000 1.693820 0.000000 
#    z 0.000000 0.000000 1.648940 
# 
# From -- ./inp_files/22619.got.cif
#   From: 2010.03.12/outbox.cif.g09.slc.cpg/sg46_12_cif.got.tgz:22619.got - 2010.04.14 02:56:35.
