data_PCOD8191890
_publ_section_title
;
Structure prediction by ZEFSAII (Michael W. Deem and Ramdas Pophale) SiO2 
 PCOD8191890
Probable space group: I M A 2
;
_chemical_formula_sum "Si O2"
_cell_formula_units_Z 64
_cell_length_a 9.305325
_cell_length_b 32.738918
_cell_length_c 11.513830
_cell_angle_alpha 90.000000
_cell_angle_beta 90.000000
_cell_angle_gamma 90.000000
_cell_volume 3507.645388
_symmetry_space_group_name_H-M "I M A 2"
_symmetry_group_IT_number 46
_symmetry_cell_setting 'orthorhombic'
loop_
_space_group_symop_operation_xyz
x,y,z
-x,-y,z
1/2-x,y,z
1/2+x,-y,z
1/2+x,1/2+y,1/2+z
1/2-x,1/2-y,1/2+z
-x,1/2+y,1/2+z
x,1/2-y,1/2+z
loop_
_atom_site_type_symbol
_atom_site_label
_atom_site_fract_x
_atom_site_fract_y
_atom_site_fract_z
Si Si1 0.592950 0.900780 0.421070
Si Si2 0.920026 0.124150 0.881059
Si Si3 0.582382 0.725602 0.013051
Si Si4 0.082726 0.959789 0.270329
Si Si5 0.582718 0.644234 0.146898
Si Si6 0.407042 0.182368 0.285938
Si Si7 0.419650 0.807968 0.065512
Si Si8 0.581835 0.041095 0.003954
O O1 0.750000 0.922831 0.412406
O O2 0.467312 0.925205 0.358689
O O3 0.553024 0.892328 0.555256
O O4 0.607942 0.857584 0.361430
O O5 0.750000 0.124801 0.865922
O O6 0.991651 0.133551 0.759267
O O7 0.970109 0.159063 0.970697
O O8 0.969861 0.079625 0.927558
O O9 0.750000 0.734539 0.033071
O O10 0.533153 0.687766 0.094157
O O11 0.489558 0.764360 0.046132
O O12 0.550722 0.717880 0.876821
O O13 0.250000 0.967123 0.287453
O O14 0.045531 0.947914 0.137699
O O15 0.000000 0.000000 0.308016
O O16 0.750000 0.645926 0.180101
O O17 0.250000 0.192073 0.229340
O O18 0.528932 0.176156 0.190412
O O19 0.250000 0.803267 0.066812
O O20 0.750000 0.032627 0.988193
O O21 0.500000 0.000000 0.964032
#
# Coordination Sequence:
#
# PCOD8191890 Si02
#       8
#     8   8   8   8   8   8   8   8
#     4   9  18  35  56  78 105 136 176 224 270 320
#     4  10  22  38  54  79 114 147 181 226 277 330
#     4   9  20  38  56  76 104 140 182 227 274 321
#     4  10  19  32  54  83 113 143 176 219 273 328
#     4   9  20  38  58  78 104 142 186 229 270 322
#     4   9  19  36  56  76 101 136 177 221 269 322
#     4  11  23  35  52  80 112 141 177 226 275 328
#     4   9  19  36  56  80 112 145 179 224 274 325
#
# _framework density 18.245857000000001
#
# number of rings (size 3 to 8) (size 9 to 14) (size 15 to 20)
#    0.000    2.500    0.000    3.000    1.750    5.000 
#    0.000    3.125    0.000    1.500    0.000    0.000 
#    0.000    0.000    0.000    0.000    0.000    0.000 
#
# Total GULP energy -396733.603426 kJ/mol
# GULP energy per Si atom -12397.925107 kJ/mol
# Density = 1.820433 g / cm^3
# Si number density = 18.245857 Si / 1000 Ang^3
#
#
#
# Elastic Constant Matrix: (Units=GPa)
#
#
# Indices 1 2 3 4 5 6 
#
# 1 62.9760 39.4092 47.1177 -0.0006 -0.0002 -0.0003
# 2 39.4092 89.4574 48.4682 -0.0026 -0.0003 -0.0008
# 3 47.1177 48.4682 114.6017 -0.0031 0.0000 -0.0003
# 4 -0.0006 -0.0026 -0.0031 16.9899 -0.0003 -0.0005
# 5 -0.0002 -0.0003 0.0000 -0.0003 37.7644 0.0003
# 6 -0.0003 -0.0008 -0.0003 -0.0005 0.0003 29.9297
#
#
#
# Elastic Compliance Matrix: (Units=1/GPa)
#
#
# Indices 1 2 3 4 5 6 
#
# 1 0.026247 -0.007415 -0.007655 -0.000002 0.000000 0.000000
# 2 -0.007415 0.016596 -0.003970 0.000002 0.000000 0.000000
# 3 -0.007655 -0.003970 0.013552 0.000002 0.000000 0.000000
# 4 -0.000002 0.000002 0.000002 0.058858 0.000000 0.000001
# 5 0.000000 0.000000 0.000000 0.000000 0.026480 0.000000
# 6 0.000000 0.000000 0.000000 0.000001 0.000000 0.033412
#
#
# Mechanical properties :
#
#
# Convention : Reuss Voigt Hill
#
# Bulk Modulus (GPa) = 54.60217 59.66947 57.13582
# Shear Modulus (GPa) = 22.79658 25.73948 24.26803
#
# Velocity S-wave (km/s) = 3.53854 3.76001 3.65095
# Velocity P-wave (km/s) = 6.83270 7.18500 7.01106
#
# Compressibility (1/GPa) = 0.01831429
#
# Stress axis : x y z
#
# Youngs Moduli (GPa) = 38.10000 60.25457 73.78767
#
# Poissons Ratio (x) = 0.44679 0.56485
# Poissons Ratio (y) = 0.28251 0.29296
# Poissons Ratio (z) = 0.29166 0.23923
#
# Static dielectric constant tensor:
#      x y z
#    x 3.165010 0.000000 0.000000 
#    y 0.000000 3.498540 0.000000 
#    z 0.000000 0.000000 3.423340 
# 
# 
# High freq. dielectric constant tensor:
#      x y z
#    x 1.704520 0.000000 0.000000 
#    y 0.000000 1.706520 0.000000 
#    z 0.000000 0.000000 1.705900 
# 
# From -- ./inp_files/9740.got.cif
#   From: 2010.03.12/outbox.cif.g09.slc.cpg/sg46_5_cif.got.tgz:9740.got - 2010.04.14 02:56:35.
