data_PCOD8191994
_publ_section_title
;
Structure prediction by ZEFSAII (Michael W. Deem and Ramdas Pophale) SiO2 
 PCOD8191994
Probable space group: I M A 2
;
_chemical_formula_sum "Si O2"
_cell_formula_units_Z 64
_cell_length_a 14.040928
_cell_length_b 25.824441
_cell_length_c 8.123808
_cell_angle_alpha 90.000000
_cell_angle_beta 90.000000
_cell_angle_gamma 90.000000
_cell_volume 2945.685605
_symmetry_space_group_name_H-M "I M A 2"
_symmetry_group_IT_number 46
_symmetry_cell_setting 'orthorhombic'
loop_
_space_group_symop_operation_xyz
x,y,z
-x,-y,z
1/2-x,y,z
1/2+x,-y,z
1/2+x,1/2+y,1/2+z
1/2-x,1/2-y,1/2+z
-x,1/2+y,1/2+z
x,1/2-y,1/2+z
loop_
_atom_site_type_symbol
_atom_site_label
_atom_site_fract_x
_atom_site_fract_y
_atom_site_fract_z
Si Si1 0.142307 0.580590 0.700190
Si Si2 0.358270 0.906596 0.829734
Si Si3 0.535396 0.235734 0.612272
Si Si4 0.477563 0.173347 0.886545
Si Si5 0.364245 0.025068 0.325992
Si Si6 0.862605 0.921082 0.995204
Si Si7 0.138776 0.688370 0.827303
Si Si8 0.362500 0.012823 0.690353
O O1 0.250000 0.583955 0.763654
O O2 0.138041 0.566682 0.508468
O O3 0.092726 0.532554 0.793878
O O4 0.096256 0.636753 0.738025
O O5 0.250000 0.888242 0.789620
O O6 0.425571 0.856805 0.836691
O O7 0.392077 0.951859 0.702705
O O8 0.454785 0.205903 0.720392
O O9 0.487172 0.284404 0.527698
O O10 0.619280 0.259513 0.725244
O O11 0.582794 0.192628 0.497599
O O12 0.394098 0.136730 0.950165
O O13 0.250000 0.024243 0.313637
O O14 0.402262 0.062917 0.178234
O O15 0.396220 0.038054 0.514669
O O16 0.750000 0.923670 0.996817
O O17 0.905967 0.956214 0.846684
O O18 0.250000 0.683943 0.860143
O O19 0.250000 0.016404 0.703278
#
# Coordination Sequence:
#
# PCOD8191994 Si02
#       8
#     8   8   8   8   8   8   8   8
#     4   9  16  29  51  81 119 161 195 227 282 353
#     4  10  19  34  58  87 126 168 194 227 292 365
#     4  10  23  39  53  78 118 158 202 271 312 344
#     4  11  24  42  61  84 118 158 208 260 315 365
#     4   9  17  33  59  90 121 154 193 242 302 366
#     4  10  21  42  67  90 118 157 200 257 320 370
#     4  10  19  33  55  83 115 163 212 245 292 361
#     4   9  18  34  59  93 127 156 192 240 295 368
#
# _framework density 21.726689
#
# number of rings (size 3 to 8) (size 9 to 14) (size 15 to 20)
#    0.000    2.250    2.500    0.375    1.750    3.000 
#    4.500    0.625    2.750    0.000    0.000    0.000 
#    0.000    0.000    0.000    0.000    0.000    0.000 
#
# Total GULP energy -396441.693557 kJ/mol
# GULP energy per Si atom -12388.802924 kJ/mol
# Density = 2.167724 g / cm^3
# Si number density = 21.726689 Si / 1000 Ang^3
#
#
#
# Elastic Constant Matrix: (Units=GPa)
#
#
# Indices 1 2 3 4 5 6 
#
# 1 12.7390 11.1356 23.2140 -0.0079 0.0012 0.0008
# 2 11.1356 115.4336 67.3613 -0.0136 0.0067 0.0019
# 3 23.2140 67.3613 160.5219 -0.0280 0.0115 0.0058
# 4 -0.0079 -0.0136 -0.0280 35.8254 0.0168 0.0057
# 5 0.0012 0.0067 0.0115 0.0168 14.8134 -0.0038
# 6 0.0008 0.0019 0.0058 0.0057 -0.0038 27.9845
#
#
#
# Elastic Compliance Matrix: (Units=1/GPa)
#
#
# Indices 1 2 3 4 5 6 
#
# 1 0.106842 -0.001709 -0.014734 0.000011 0.000003 0.000000
# 2 -0.001709 0.011500 -0.004579 0.000000 -0.000002 0.000000
# 3 -0.014734 -0.004579 0.010282 0.000003 -0.000005 -0.000001
# 4 0.000011 0.000000 0.000003 0.027913 -0.000032 -0.000006
# 5 0.000003 -0.000002 -0.000005 -0.000032 0.067507 0.000009
# 6 0.000000 0.000000 -0.000001 -0.000006 0.000009 0.035734
#
#
# Mechanical properties :
#
#
# Convention : Reuss Voigt Hill
#
# Bulk Modulus (GPa) = 11.54990 54.67961 33.11476
# Shear Modulus (GPa) = 15.12033 28.19024 21.65528
#
# Velocity S-wave (km/s) = 2.64092 3.60598 3.16050
# Velocity P-wave (km/s) = 3.82450 6.52374 5.34724
#
# Compressibility (1/GPa) = 0.08658085
#
# Stress axis : x y z
#
# Youngs Moduli (GPa) = 9.35960 86.95902 97.25913
#
# Poissons Ratio (x) = 0.14860 1.43302
# Poissons Ratio (y) = 0.01599 0.44531
# Poissons Ratio (z) = 0.13790 0.39815
#
# Static dielectric constant tensor:
#      x y z
#    x 3.424390 0.000000 0.000000 
#    y 0.000000 3.962810 -0.000030 
#    z 0.000000 -0.000030 4.335670 
# 
# 
# High freq. dielectric constant tensor:
#      x y z
#    x 1.809880 0.000000 0.000000 
#    y 0.000000 1.850070 0.000000 
#    z 0.000000 0.000000 1.869810 
# 
# From -- ./inp_files/6116.got.cif
#   From: 2010.03.12/outbox.cif.g09.slc.cpg/sg46_4_cif.got.tgz:6116.got - 2010.04.14 02:56:35.
