data_PCOD8191124
_publ_section_title
;
Structure prediction by ZEFSAII (Michael W. Deem and Ramdas Pophale) SiO2 
 PCOD8191124
Probable space group: I B A 2
;
_chemical_formula_sum "Si O2"
_cell_formula_units_Z 40
_cell_length_a 13.184078
_cell_length_b 9.501134
_cell_length_c 13.671118
_cell_angle_alpha 90.000000
_cell_angle_beta 90.000000
_cell_angle_gamma 90.000000
_cell_volume 1712.494711
_symmetry_space_group_name_H-M "I B A 2"
_symmetry_group_IT_number 45
_symmetry_cell_setting 'orthorhombic'
loop_
_space_group_symop_operation_xyz
x,y,z
-x,-y,z
-x,y,1/2+z
x,-y,1/2+z
1/2+x,1/2+y,1/2+z
1/2-x,1/2-y,1/2+z
1/2-x,1/2+y,z
1/2+x,1/2-y,z
loop_
_atom_site_type_symbol
_atom_site_label
_atom_site_fract_x
_atom_site_fract_y
_atom_site_fract_z
Si Si1 0.839524 0.000973 0.464890
Si Si2 0.843065 0.087552 0.175965
Si Si3 0.500000 0.500000 0.817465
Si Si4 0.500000 0.000000 0.564635
Si Si5 0.164708 0.611098 0.213124
Si Si6 0.862659 0.331621 0.429989
O O1 0.835081 0.167435 0.441415
O O2 0.917489 0.924806 0.389090
O O3 0.880505 0.977342 0.574106
O O4 0.730169 0.930226 0.461839
O O5 0.794620 0.242250 0.166975
O O6 0.940993 0.107699 0.246743
O O7 0.761953 0.987325 0.228808
O O8 0.409938 0.951031 0.633410
O O9 0.540521 0.872465 0.496516
O O10 0.110946 0.633774 0.317496
#
# Coordination Sequence:
#
# PCOD8191124 Si02
#       6
#     8   8   4   4   8   8
#     4  12  27  48  77 106 150 191 245 302 365 434
#     4  12  27  48  77 106 150 191 245 302 365 434
#     4  12  26  44  76 110 140 192 238 304 356 434
#     4  12  30  44  78 108 144 192 244 300 372 428
#     4  12  26  51  74 108 146 195 239 306 362 435
#     4  12  26  51  74 108 146 195 239 306 362 435
#
# _framework density 23.357735000000002
#
# number of rings (size 3 to 8) (size 9 to 14) (size 15 to 20)
#    0.000    0.000    6.000    2.400    5.600    0.000 
#    7.200    0.000    0.000    0.000    0.000    0.000 
#    0.000    0.000    0.000    0.000    0.000    0.000 
#
# Total GULP energy -247952.973087 kJ/mol
# GULP energy per Si atom -12397.648654 kJ/mol
# Density = 2.330457 g / cm^3
# Si number density = 23.357735 Si / 1000 Ang^3
#
#
#
# Elastic Constant Matrix: (Units=GPa)
#
#
# Indices 1 2 3 4 5 6 
#
# 1 96.2967 39.7591 40.1151 0.0000 0.0000 0.0000
# 2 39.7591 148.6186 38.2681 0.0000 0.0000 0.0000
# 3 40.1151 38.2681 172.2222 0.0000 0.0000 0.0000
# 4 0.0000 0.0000 0.0000 31.1072 0.0000 0.0000
# 5 0.0000 0.0000 0.0000 0.0000 55.2052 0.0000
# 6 0.0000 0.0000 0.0000 0.0000 0.0000 22.0906
#
#
#
# Elastic Compliance Matrix: (Units=1/GPa)
#
#
# Indices 1 2 3 4 5 6 
#
# 1 0.012475 -0.002746 -0.002295 0.000000 0.000000 0.000000
# 2 -0.002746 0.007742 -0.001081 0.000000 0.000000 0.000000
# 3 -0.002295 -0.001081 0.006581 0.000000 0.000000 0.000000
# 4 0.000000 0.000000 0.000000 0.032147 0.000000 0.000000
# 5 0.000000 0.000000 0.000000 0.000000 0.018114 0.000000
# 6 0.000000 0.000000 0.000000 0.000000 0.000000 0.045268
#
#
# Mechanical properties :
#
#
# Convention : Reuss Voigt Hill
#
# Bulk Modulus (GPa) = 68.71420 72.60245 70.65832
# Shear Modulus (GPa) = 35.86229 41.61360 38.73794
#
# Velocity S-wave (km/s) = 3.92260 4.22545 4.07684
# Velocity P-wave (km/s) = 7.07091 7.41325 7.24410
#
# Compressibility (1/GPa) = 0.01455303
#
# Stress axis : x y z
#
# Youngs Moduli (GPa) = 80.16238 129.17332 151.94745
#
# Poissons Ratio (x) = 0.35474 0.34879
# Poissons Ratio (y) = 0.22014 0.16418
# Poissons Ratio (z) = 0.18401 0.13957
#
# Static dielectric constant tensor:
#      x y z
#    x 4.208140 0.000000 0.000000 
#    y 0.000000 4.195670 0.000000 
#    z 0.000000 0.000000 4.714180 
# 
# 
# High freq. dielectric constant tensor:
#      x y z
#    x 1.917880 0.000000 0.000000 
#    y 0.000000 1.914710 0.000000 
#    z 0.000000 0.000000 1.961020 
# 
# From -- ./inp_files/5490.got.cif
#   From: 2010.03.12/outbox.cif.g09.slc.cpg/sg45_3_cif.got.tgz:5490.got - 2010.04.14 02:50:11.
