data_PCOD8191247
_publ_section_title
;
Structure prediction by ZEFSAII (Michael W. Deem and Ramdas Pophale) SiO2 
 PCOD8191247
Probable space group: I M A 2
;
_chemical_formula_sum "Si O2"
_cell_formula_units_Z 48
_cell_length_a 21.804450
_cell_length_b 9.888777
_cell_length_c 10.185682
_cell_angle_alpha 90.000000
_cell_angle_beta 90.000000
_cell_angle_gamma 90.000000
_cell_volume 2196.230068
_symmetry_space_group_name_H-M "I M A 2"
_symmetry_group_IT_number 46
_symmetry_cell_setting 'orthorhombic'
loop_
_space_group_symop_operation_xyz
x,y,z
-x,-y,z
1/2-x,y,z
1/2+x,-y,z
1/2+x,1/2+y,1/2+z
1/2-x,1/2-y,1/2+z
-x,1/2+y,1/2+z
x,1/2-y,1/2+z
loop_
_atom_site_type_symbol
_atom_site_label
_atom_site_fract_x
_atom_site_fract_y
_atom_site_fract_z
Si Si1 0.750000 0.582739 0.455140
Si Si2 0.986470 0.787474 0.284123
Si Si3 0.872411 0.433483 0.534095
Si Si4 0.750000 0.716962 0.734534
Si Si5 0.500000 0.000000 0.059480
Si Si6 0.133163 0.061598 0.313147
Si Si7 0.910154 0.357995 0.992733
Si Si8 0.500000 0.000000 0.688990
O O1 0.811308 0.492099 0.466960
O O2 0.750000 0.697861 0.574479
O O3 0.750000 0.635127 0.303664
O O4 0.999177 0.860531 0.144391
O O5 0.924518 0.844082 0.347452
O O6 0.976152 0.626604 0.273926
O O7 0.041260 0.820176 0.381326
O O8 0.878152 0.477247 0.683177
O O9 0.870838 0.271427 0.536052
O O10 0.937508 0.488097 0.470907
O O11 0.692211 0.650822 0.801604
O O12 0.140926 0.958415 0.433342
O O13 0.943206 0.437239 0.109320
#
# Coordination Sequence:
#
# PCOD8191247 Si02
#       8
#     4   8   8   4   4   8   8   4
#     4  10  24  47  66  98 132 183 222 286 334 420
#     4  11  21  38  59  94 128 161 215 273 330 394
#     4  10  22  38  65  89 130 169 220 270 343 394
#     4  10  24  43  68  88 126 177 228 264 342 394
#     4  10  17  39  62  86 128 172 207 277 340 396
#     4  10  21  42  61  86 132 171 208 277 338 390
#     4  12  20  37  62  90 129 168 209 269 335 402
#     4  12  23  35  60  96 126 164 215 263 332 404
#
# _framework density 21.855634999999999
#
# number of rings (size 3 to 8) (size 9 to 14) (size 15 to 20)
#    0.000    1.333    6.667    0.000    0.000    8.000 
#    0.000    1.667    0.000    1.000    0.000    0.000 
#    0.000    0.000    0.000    0.000    0.000    0.000 
#
# Total GULP energy -297376.500602 kJ/mol
# GULP energy per Si atom -12390.687525 kJ/mol
# Density = 2.180589 g / cm^3
# Si number density = 21.855635 Si / 1000 Ang^3
#
#
#
# Elastic Constant Matrix: (Units=GPa)
#
#
# Indices 1 2 3 4 5 6 
#
# 1 108.3252 20.8010 -1.6992 0.0000 0.0000 0.0000
# 2 20.8010 127.4421 12.3466 0.0000 0.0000 0.0000
# 3 -1.6992 12.3466 22.0892 0.0000 0.0000 0.0000
# 4 0.0000 0.0000 0.0000 39.9111 0.0000 0.0000
# 5 0.0000 0.0000 0.0000 0.0000 17.2665 0.0000
# 6 0.0000 0.0000 0.0000 0.0000 0.0000 30.7676
#
#
#
# Elastic Compliance Matrix: (Units=1/GPa)
#
#
# Indices 1 2 3 4 5 6 
#
# 1 0.009591 -0.001731 0.001705 0.000000 0.000000 0.000000
# 2 -0.001731 0.008608 -0.004945 0.000000 0.000000 0.000000
# 3 0.001705 -0.004945 0.048166 0.000000 0.000000 0.000000
# 4 0.000000 0.000000 0.000000 0.025056 0.000000 0.000000
# 5 0.000000 0.000000 0.000000 0.000000 0.057915 0.000000
# 6 0.000000 0.000000 0.000000 0.000000 0.000000 0.032502
#
#
# Mechanical properties :
#
#
# Convention : Reuss Voigt Hill
#
# Bulk Modulus (GPa) = 17.72285 35.63925 26.68105
# Shear Modulus (GPa) = 23.74329 32.68293 28.21311
#
# Velocity S-wave (km/s) = 3.29959 3.87124 3.59679
# Velocity P-wave (km/s) = 4.75847 6.02694 5.42987
#
# Compressibility (1/GPa) = 0.05642433
#
# Stress axis : x y z
#
# Youngs Moduli (GPa) = 104.26978 116.16849 20.76159
#
# Poissons Ratio (x) = 0.20103 -0.03540
# Poissons Ratio (y) = 0.18044 0.10266
# Poissons Ratio (z) = -0.17778 0.57441
#
# Static dielectric constant tensor:
#      x y z
#    x 4.346780 0.000000 0.000000 
#    y 0.000000 4.283590 0.000000 
#    z 0.000000 0.000000 3.892240 
# 
# 
# High freq. dielectric constant tensor:
#      x y z
#    x 1.853160 0.000000 0.000000 
#    y 0.000000 1.870290 0.000000 
#    z 0.000000 0.000000 1.846240 
# 
# From -- ./inp_files/12759.got.cif
#   From: 2010.03.12/outbox.cif.g09.slc.cpg/sg46_7_cif.got.tgz:12759.got - 2010.04.14 02:56:35.
