data_PCOD8191854
_publ_section_title
;
Structure prediction by ZEFSAII (Michael W. Deem and Ramdas Pophale) SiO2 
 PCOD8191854
Probable space group: I M A 2
;
_chemical_formula_sum "Si O2"
_cell_formula_units_Z 64
_cell_length_a 8.807671
_cell_length_b 16.402820
_cell_length_c 22.431490
_cell_angle_alpha 90.000000
_cell_angle_beta 90.000000
_cell_angle_gamma 90.000000
_cell_volume 3240.691762
_symmetry_space_group_name_H-M "I M A 2"
_symmetry_group_IT_number 46
_symmetry_cell_setting 'orthorhombic'
loop_
_space_group_symop_operation_xyz
x,y,z
-x,-y,z
1/2-x,y,z
1/2+x,-y,z
1/2+x,1/2+y,1/2+z
1/2-x,1/2-y,1/2+z
-x,1/2+y,1/2+z
x,1/2-y,1/2+z
loop_
_atom_site_type_symbol
_atom_site_label
_atom_site_fract_x
_atom_site_fract_y
_atom_site_fract_z
Si Si1 0.569751 0.414217 0.532300
Si Si2 0.427223 0.415990 0.988247
Si Si3 0.429185 0.919689 0.896619
Si Si4 0.929550 0.759493 0.565646
Si Si5 0.930359 0.244131 0.185936
Si Si6 0.572969 0.284314 0.313705
Si Si7 0.076716 0.080284 0.225429
Si Si8 0.079424 0.129531 0.356202
O O1 0.500000 0.500000 0.558197
O O2 0.750000 0.416949 0.541720
O O3 0.517910 0.406891 0.464017
O O4 0.506560 0.329765 0.559231
O O5 0.500000 0.500000 0.014122
O O6 0.250000 0.423162 0.000480
O O7 0.466974 0.414478 0.917704
O O8 0.485892 0.331831 0.020441
O O9 0.250000 0.922300 0.892674
O O10 0.504719 0.851204 0.855284
O O11 0.500000 0.000000 0.869133
O O12 0.750000 0.748607 0.560426
O O13 0.980828 0.787129 0.631725
O O14 0.750000 0.248662 0.175687
O O15 0.985973 0.290622 0.245846
O O16 0.977959 0.150894 0.195797
O O17 0.750000 0.297619 0.312763
O O18 0.540620 0.199729 0.345486
O O19 0.250000 0.089043 0.203581
O O20 0.070621 0.072989 0.297631
O O21 0.000000 0.000000 0.198705
O O22 0.250000 0.165165 0.362820
#
# Coordination Sequence:
#
# PCOD8191854 Si02
#       8
#     8   8   8   8   8   8   8   8
#     4  10  20  35  57  85 115 146 179 217 267 327
#     4  10  22  38  57  82 111 144 183 227 273 323
#     4   9  18  32  51  78 108 135 167 209 259 316
#     4  11  23  39  57  79 109 144 186 233 275 317
#     4  10  21  37  55  74 100 137 180 221 263 313
#     4   9  18  33  53  77 104 135 172 214 260 314
#     4  10  19  32  52  79 110 139 169 208 257 315
#     4   9  18  32  52  80 110 138 169 209 261 319
#
# _framework density 19.748871000000001
#
# number of rings (size 3 to 8) (size 9 to 14) (size 15 to 20)
#    0.000    2.250    0.000    2.625    0.000    4.000 
#    0.000    3.125    0.000    3.000    0.000    0.000 
#    0.000    0.000    0.000    0.000    0.000    0.000 
#
# Total GULP energy -396503.155872 kJ/mol
# GULP energy per Si atom -12390.723621 kJ/mol
# Density = 1.970392 g / cm^3
# Si number density = 19.748871 Si / 1000 Ang^3
#
#
#
# Elastic Constant Matrix: (Units=GPa)
#
#
# Indices 1 2 3 4 5 6 
#
# 1 35.6256 21.7710 21.2713 0.0000 0.0000 0.0000
# 2 21.7710 79.3003 29.7068 0.0000 0.0000 0.0000
# 3 21.2713 29.7068 74.5399 0.0000 0.0000 0.0000
# 4 0.0000 0.0000 0.0000 14.1050 0.0000 0.0000
# 5 0.0000 0.0000 0.0000 0.0000 26.6193 0.0000
# 6 0.0000 0.0000 0.0000 0.0000 0.0000 31.0282
#
#
#
# Elastic Compliance Matrix: (Units=1/GPa)
#
#
# Indices 1 2 3 4 5 6 
#
# 1 0.037125 -0.007316 -0.007679 0.000000 0.000000 0.000000
# 2 -0.007316 0.016265 -0.004394 0.000000 0.000000 0.000000
# 3 -0.007679 -0.004394 0.017358 0.000000 0.000000 0.000000
# 4 0.000000 0.000000 0.000000 0.070897 0.000000 0.000000
# 5 0.000000 0.000000 0.000000 0.000000 0.037567 0.000000
# 6 0.000000 0.000000 0.000000 0.000000 0.000000 0.032229
#
#
# Mechanical properties :
#
#
# Convention : Reuss Voigt Hill
#
# Bulk Modulus (GPa) = 31.27890 37.21823 34.24856
# Shear Modulus (GPa) = 19.16623 22.13161 20.64892
#
# Velocity S-wave (km/s) = 3.11866 3.35125 3.23704
# Velocity P-wave (km/s) = 5.37036 5.81903 5.59919
#
# Compressibility (1/GPa) = 0.03197044
#
# Stress axis : x y z
#
# Youngs Moduli (GPa) = 26.93586 61.48174 57.60946
#
# Poissons Ratio (x) = 0.44979 0.44237
# Poissons Ratio (y) = 0.19706 0.25316
# Poissons Ratio (z) = 0.20683 0.27018
#
# Static dielectric constant tensor:
#      x y z
#    x 3.482470 0.000000 0.000000 
#    y 0.000000 3.689430 0.000000 
#    z 0.000000 0.000000 3.908980 
# 
# 
# High freq. dielectric constant tensor:
#      x y z
#    x 1.765930 0.000000 0.000000 
#    y 0.000000 1.759710 0.000000 
#    z 0.000000 0.000000 1.772740 
# 
# From -- ./inp_files/23173.got.cif
#   From: 2010.03.12/outbox.cif.g09.slc.cpg/sg46_12_cif.got.tgz:23173.got - 2010.04.14 02:56:35.
