data_PCOD8191436
_publ_section_title
;
Structure prediction by ZEFSAII (Michael W. Deem and Ramdas Pophale) SiO2 
 PCOD8191436
Probable space group: I M A 2
;
_chemical_formula_sum "Si O2"
_cell_formula_units_Z 64
_cell_length_a 8.728758
_cell_length_b 30.348593
_cell_length_c 14.505978
_cell_angle_alpha 90.000000
_cell_angle_beta 90.000000
_cell_angle_gamma 90.000000
_cell_volume 3842.713702
_symmetry_space_group_name_H-M "I M A 2"
_symmetry_group_IT_number 46
_symmetry_cell_setting 'orthorhombic'
loop_
_space_group_symop_operation_xyz
x,y,z
-x,-y,z
1/2-x,y,z
1/2+x,-y,z
1/2+x,1/2+y,1/2+z
1/2-x,1/2-y,1/2+z
-x,1/2+y,1/2+z
x,1/2-y,1/2+z
loop_
_atom_site_type_symbol
_atom_site_label
_atom_site_fract_x
_atom_site_fract_y
_atom_site_fract_z
Si Si1 0.568841 0.798595 0.757470
Si Si2 0.067578 0.454607 0.025387
Si Si3 0.428846 0.717241 0.646228
Si Si4 0.928615 0.224493 0.938766
Si Si5 0.427137 0.543893 0.825321
Si Si6 0.424923 0.862122 0.273337
Si Si7 0.572162 0.685088 0.931773
Si Si8 0.069013 0.134342 0.609254
O O1 0.750000 0.794801 0.757732
O O2 0.509058 0.754172 0.708475
O O3 0.508988 0.805818 0.861523
O O4 0.512840 0.842740 0.703625
O O5 0.250000 0.456829 0.022785
O O6 0.007618 0.415337 0.092964
O O7 0.000000 0.500000 0.065746
O O8 0.007840 0.445816 0.922486
O O9 0.250000 0.728815 0.645099
O O10 0.494658 0.716634 0.541715
O O11 0.460868 0.667946 0.684380
O O12 0.750000 0.214675 0.935133
O O13 0.965724 0.273834 0.907160
O O14 0.500000 0.500000 0.779468
O O15 0.250000 0.534586 0.845676
O O16 0.448557 0.585411 0.755464
O O17 0.250000 0.853663 0.306089
O O18 0.544785 0.850710 0.353098
O O19 0.750000 0.699000 0.934743
O O20 0.511760 0.665940 0.027724
O O21 0.250000 0.132329 0.604772
#
# Coordination Sequence:
#
# PCOD8191436 Si02
#       8
#     8   8   8   8   8   8   8   8
#     4  11  21  34  51  72  96 128 168 204 242 287
#     4  10  18  31  47  68  97 127 158 196 240 288
#     4  10  21  35  50  69  97 130 163 202 244 287
#     4  11  22  35  48  69 100 132 165 205 247 286
#     4  10  19  30  46  69  97 127 159 196 239 291
#     4  10  20  33  48  70  97 129 166 201 243 286
#     4  11  19  30  48  70  97 132 167 200 237 283
#     4   9  19  32  47  69  99 129 162 200 242 284
#
# _framework density 16.654896000000001
#
# number of rings (size 3 to 8) (size 9 to 14) (size 15 to 20)
#    0.000    1.750    3.750    2.625    0.000    1.000 
#    0.000    2.500    0.000    0.000    0.000    0.875 
#    0.000    6.000    0.000    0.000    0.000    0.000 
#
# Total GULP energy -396630.109400 kJ/mol
# GULP energy per Si atom -12394.690919 kJ/mol
# Density = 1.661699 g / cm^3
# Si number density = 16.654896 Si / 1000 Ang^3
#
#
#
# Elastic Constant Matrix: (Units=GPa)
#
#
# Indices 1 2 3 4 5 6 
#
# 1 55.2216 27.9077 25.6079 0.0000 0.0000 0.0000
# 2 27.9077 111.7944 33.8360 0.0002 -0.0001 0.0000
# 3 25.6079 33.8360 84.7493 -0.0003 -0.0001 -0.0002
# 4 0.0000 0.0002 -0.0003 22.3772 -0.0001 -0.0002
# 5 0.0000 -0.0001 -0.0001 -0.0001 20.6403 -0.0002
# 6 0.0000 0.0000 -0.0002 -0.0002 -0.0002 19.3656
#
#
#
# Elastic Compliance Matrix: (Units=1/GPa)
#
#
# Indices 1 2 3 4 5 6 
#
# 1 0.022572 -0.004061 -0.005199 0.000000 0.000000 0.000000
# 2 -0.004061 0.010905 -0.003127 0.000000 0.000000 0.000000
# 3 -0.005199 -0.003127 0.014619 0.000000 0.000000 0.000000
# 4 0.000000 0.000000 0.000000 0.044688 0.000000 0.000001
# 5 0.000000 0.000000 0.000000 0.000000 0.048449 0.000000
# 6 0.000000 0.000000 0.000000 0.000001 0.000000 0.051638
#
#
# Mechanical properties :
#
#
# Convention : Reuss Voigt Hill
#
# Bulk Modulus (GPa) = 42.87753 47.38540 45.13146
# Shear Modulus (GPa) = 22.18090 23.43756 22.80923
#
# Velocity S-wave (km/s) = 3.65334 3.75540 3.70472
# Velocity P-wave (km/s) = 6.60276 6.87874 6.74216
#
# Compressibility (1/GPa) = 0.02332224
#
# Stress axis : x y z
#
# Youngs Moduli (GPa) = 44.30218 91.69971 68.40516
#
# Poissons Ratio (x) = 0.37242 0.35564
# Poissons Ratio (y) = 0.17992 0.21388
# Poissons Ratio (z) = 0.23033 0.28672
#
# Static dielectric constant tensor:
#      x y z
#    x 3.089360 0.000000 0.000000 
#    y 0.000000 3.445470 0.000000 
#    z 0.000000 0.000000 3.181180 
# 
# 
# High freq. dielectric constant tensor:
#      x y z
#    x 1.643030 0.000000 0.000000 
#    y 0.000000 1.636670 0.000000 
#    z 0.000000 0.000000 1.612530 
# 
# From -- ./inp_files/14753.got.cif
#   From: 2010.03.12/outbox.cif.g09.slc.cpg/sg46_8_cif.got.tgz:14753.got - 2010.04.14 02:56:35.
