data_PCOD8191362
_publ_section_title
;
Structure prediction by ZEFSAII (Michael W. Deem and Ramdas Pophale) SiO2 
 PCOD8191362
Probable space group: I M A 2
;
_chemical_formula_sum "Si O2"
_cell_formula_units_Z 64
_cell_length_a 8.628496
_cell_length_b 14.563679
_cell_length_c 27.839307
_cell_angle_alpha 90.000000
_cell_angle_beta 90.000000
_cell_angle_gamma 90.000000
_cell_volume 3498.360980
_symmetry_space_group_name_H-M "I M A 2"
_symmetry_group_IT_number 46
_symmetry_cell_setting 'orthorhombic'
loop_
_space_group_symop_operation_xyz
x,y,z
-x,-y,z
1/2-x,y,z
1/2+x,-y,z
1/2+x,1/2+y,1/2+z
1/2-x,1/2-y,1/2+z
-x,1/2+y,1/2+z
x,1/2-y,1/2+z
loop_
_atom_site_type_symbol
_atom_site_label
_atom_site_fract_x
_atom_site_fract_y
_atom_site_fract_z
Si Si1 0.566410 0.285954 0.013590
Si Si2 0.927767 0.830797 0.420725
Si Si3 0.568446 0.595577 0.204359
Si Si4 0.067810 0.093177 0.980963
Si Si5 0.929881 0.350860 0.386662
Si Si6 0.566001 0.598266 0.095842
Si Si7 0.933655 0.789641 0.793510
Si Si8 0.575185 0.908107 0.322701
O O1 0.750000 0.290814 0.009947
O O2 0.509643 0.320458 0.065156
O O3 0.489156 0.355517 0.973989
O O4 0.510754 0.181565 0.005664
O O5 0.750000 0.794370 0.423937
O O6 0.937893 0.911401 0.381198
O O7 0.044681 0.753551 0.402389
O O8 0.500000 0.500000 0.222855
O O9 0.750000 0.583389 0.205111
O O10 0.512531 0.618875 0.150537
O O11 0.517360 0.676743 0.240522
O O12 0.250000 0.098092 0.989330
O O13 0.026689 0.087580 0.924151
O O14 0.000000 0.000000 0.004978
O O15 0.750000 0.377821 0.389496
O O16 0.992185 0.360236 0.332166
O O17 0.500000 0.500000 0.079099
O O18 0.750000 0.598613 0.089702
O O19 0.750000 0.790610 0.802092
O O20 0.998770 0.685739 0.801107
O O21 0.750000 0.911114 0.305212
O O22 0.500000 0.000000 0.301327
#
# Coordination Sequence:
#
# PCOD8191362 Si02
#       8
#     8   8   8   8   8   8   8   8
#     4  11  21  34  53  78 105 136 171 211 255 308
#     4   9  17  31  47  66  95 132 168 206 247 291
#     4   9  19  35  56  77 100 127 162 206 257 311
#     4  11  21  35  53  75 105 141 177 215 254 300
#     4  10  18  29  46  71  99 131 169 208 247 293
#     4  10  20  36  56  79 102 130 165 209 262 315
#     4   9  18  34  51  71 100 136 170 207 256 309
#     4   9  18  30  47  69  98 133 169 204 244 289
#
# _framework density 18.294281000000002
#
# number of rings (size 3 to 8) (size 9 to 14) (size 15 to 20)
#    0.000    2.250    0.000    6.375    0.000    4.500 
#    0.000    2.500    0.000    0.750    0.000    1.750 
#    0.000    0.000    0.000    0.000    0.000    0.000 
#
# Total GULP energy -396578.779711 kJ/mol
# GULP energy per Si atom -12393.086866 kJ/mol
# Density = 1.825264 g / cm^3
# Si number density = 18.294281 Si / 1000 Ang^3
#
#
#
# Elastic Constant Matrix: (Units=GPa)
#
#
# Indices 1 2 3 4 5 6 
#
# 1 82.2748 32.8762 32.1932 0.0000 0.0000 0.0000
# 2 32.8762 100.6399 55.4964 0.0000 0.0000 0.0000
# 3 32.1932 55.4964 103.5300 0.0000 0.0000 0.0000
# 4 0.0000 0.0000 0.0000 26.4947 0.0000 0.0000
# 5 0.0000 0.0000 0.0000 0.0000 22.0501 0.0000
# 6 0.0000 0.0000 0.0000 0.0000 0.0000 28.5520
#
#
#
# Elastic Compliance Matrix: (Units=1/GPa)
#
#
# Indices 1 2 3 4 5 6 
#
# 1 0.014530 -0.003201 -0.002802 0.000000 0.000000 0.000000
# 2 -0.003201 0.014811 -0.006944 0.000000 0.000000 0.000000
# 3 -0.002802 -0.006944 0.014253 0.000000 0.000000 0.000000
# 4 0.000000 0.000000 0.000000 0.037743 0.000000 0.000000
# 5 0.000000 0.000000 0.000000 0.000000 0.045351 0.000000
# 6 0.000000 0.000000 0.000000 0.000000 0.000000 0.035024
#
#
# Mechanical properties :
#
#
# Convention : Reuss Voigt Hill
#
# Bulk Modulus (GPa) = 56.50024 58.61962 57.55993
# Shear Modulus (GPa) = 25.83880 26.47795 26.15838
#
# Velocity S-wave (km/s) = 3.76227 3.80851 3.78546
# Velocity P-wave (km/s) = 7.05861 7.17299 7.11603
#
# Compressibility (1/GPa) = 0.01769904
#
# Stress axis : x y z
#
# Youngs Moduli (GPa) = 68.82280 67.51552 70.16227
#
# Poissons Ratio (x) = 0.21614 0.19660
# Poissons Ratio (y) = 0.22033 0.48721
# Poissons Ratio (z) = 0.19285 0.46883
#
# Static dielectric constant tensor:
#      x y z
#    x 3.356490 0.000000 0.000000 
#    y 0.000000 3.125160 0.000000 
#    z 0.000000 0.000000 3.572870 
# 
# 
# High freq. dielectric constant tensor:
#      x y z
#    x 1.714790 0.000000 0.000000 
#    y 0.000000 1.694610 0.000000 
#    z 0.000000 0.000000 1.689630 
# 
# From -- ./inp_files/25310.got.cif
#   From: 2010.03.12/outbox.cif.g09.slc.cpg/sg46_13_cif.got.tgz:25310.got - 2010.04.14 02:56:35.
