data_PCOD8191515
_publ_section_title
;
Structure prediction by ZEFSAII (Michael W. Deem and Ramdas Pophale) SiO2 
 PCOD8191515
Probable space group: I M A 2
;
_chemical_formula_sum "Si O2"
_cell_formula_units_Z 52
_cell_length_a 14.238869
_cell_length_b 28.197565
_cell_length_c 7.482167
_cell_angle_alpha 90.000000
_cell_angle_beta 90.000000
_cell_angle_gamma 90.000000
_cell_volume 3004.100781
_symmetry_space_group_name_H-M "I M A 2"
_symmetry_group_IT_number 46
_symmetry_cell_setting 'orthorhombic'
loop_
_space_group_symop_operation_xyz
x,y,z
-x,-y,z
1/2-x,y,z
1/2+x,-y,z
1/2+x,1/2+y,1/2+z
1/2-x,1/2-y,1/2+z
-x,1/2+y,1/2+z
x,1/2-y,1/2+z
loop_
_atom_site_type_symbol
_atom_site_label
_atom_site_fract_x
_atom_site_fract_y
_atom_site_fract_z
Si Si1 0.250000 0.023035 0.731330
Si Si2 0.455955 0.448520 0.268140
Si Si3 0.145907 0.691322 0.010473
Si Si4 0.645141 0.206311 0.096301
Si Si5 0.562137 0.403110 0.956300
Si Si6 0.250000 0.943932 0.019925
Si Si7 0.559992 0.388007 0.550956
Si Si8 0.250000 0.538813 0.908920
O O1 0.156727 0.052345 0.775777
O O2 0.250000 0.009333 0.522379
O O3 0.250000 0.974955 0.843871
O O4 0.500000 0.500000 0.313701
O O5 0.485302 0.410717 0.417596
O O6 0.487264 0.432874 0.070097
O O7 0.250000 0.684704 0.095241
O O8 0.155551 0.690835 0.798658
O O9 0.078547 0.647202 0.058394
O O10 0.101238 0.740886 0.079029
O O11 0.750000 0.206565 0.007053
O O12 0.575055 0.168016 0.005452
O O13 0.524078 0.396568 0.754241
O O14 0.660034 0.430311 0.957445
O O15 0.160448 0.910832 0.018947
O O16 0.250000 0.975920 0.200069
#
# Coordination Sequence:
#
# PCOD8191515 Si02
#       8
#     4   8   8   8   8   4   8   4
#     4  12  24  40  48  82 106 130 194 232 260 316
#     4  12  24  36  56  78 104 144 184 224 271 316
#     4   9  17  29  46  76 111 142 172 210 256 314
#     4   9  17  29  46  76 111 142 172 210 256 314
#     4  10  20  35  53  77 111 147 179 211 262 322
#     4  10  18  32  55  75 108 148 171 216 263 310
#     4  10  20  35  53  77 111 147 179 211 262 322
#     4  10  18  32  55  75 108 148 171 216 263 310
#
# _framework density 17.309671999999999
#
# number of rings (size 3 to 8) (size 9 to 14) (size 15 to 20)
#    0.000    1.846    4.615    0.000    2.154    1.846 
#    0.000    0.000    0.000    0.000    0.000    1.077 
#    0.000    0.000    0.000    0.000    0.000    0.000 
#
# Total GULP energy -322321.163886 kJ/mol
# GULP energy per Si atom -12396.967842 kJ/mol
# Density = 1.727027 g / cm^3
# Si number density = 17.309672 Si / 1000 Ang^3
#
#
#
# Elastic Constant Matrix: (Units=GPa)
#
#
# Indices 1 2 3 4 5 6 
#
# 1 84.6331 22.9568 13.3545 0.0101 -0.0024 0.0050
# 2 22.9568 65.4344 -0.3662 0.0247 -0.0063 0.0112
# 3 13.3545 -0.3662 35.0138 0.0218 -0.0063 0.0423
# 4 0.0101 0.0247 0.0218 29.6089 0.0011 0.0012
# 5 -0.0024 -0.0063 -0.0063 0.0011 21.1672 -0.0009
# 6 0.0050 0.0112 0.0423 0.0012 -0.0009 16.1625
#
#
#
# Elastic Compliance Matrix: (Units=1/GPa)
#
#
# Indices 1 2 3 4 5 6 
#
# 1 0.014008 -0.004945 -0.005395 0.000003 -0.000001 0.000013
# 2 -0.004945 0.017029 0.002064 -0.000014 0.000005 -0.000016
# 3 -0.005395 0.002064 0.030639 -0.000022 0.000009 -0.000080
# 4 0.000003 -0.000014 -0.000022 0.033774 -0.000002 -0.000002
# 5 -0.000001 0.000005 0.000009 -0.000002 0.047243 0.000003
# 6 0.000013 -0.000016 -0.000080 -0.000002 0.000003 0.061872
#
#
# Mechanical properties :
#
#
# Convention : Reuss Voigt Hill
#
# Bulk Modulus (GPa) = 22.16020 28.55239 25.35630
# Shear Modulus (GPa) = 21.17234 23.33015 22.25124
#
# Velocity S-wave (km/s) = 3.50115 3.67524 3.58925
# Velocity P-wave (km/s) = 5.40130 5.87713 5.64423
#
# Compressibility (1/GPa) = 0.04512595
#
# Stress axis : x y z
#
# Youngs Moduli (GPa) = 71.38673 58.72387 32.63776
#
# Poissons Ratio (x) = 0.29038 0.17607
# Poissons Ratio (y) = 0.35299 -0.06737
# Poissons Ratio (z) = 0.38510 -0.12121
#
# Static dielectric constant tensor:
#      x y z
#    x 2.799670 -0.000040 -0.000010 
#    y -0.000040 3.401960 0.000040 
#    z -0.000010 0.000040 3.386170 
# 
# 
# High freq. dielectric constant tensor:
#      x y z
#    x 1.615290 0.000000 0.000000 
#    y 0.000000 1.666380 0.000000 
#    z 0.000000 0.000000 1.680150 
# 
# From -- ./inp_files/4967.got.cif
#   From: 2010.03.12/outbox.cif.g09.slc.cpg/sg46_3_cif.got.tgz:4967.got - 2010.04.14 02:56:35.
