data_PCOD8191993
_publ_section_title
;
Structure prediction by ZEFSAII (Michael W. Deem and Ramdas Pophale) SiO2 
 PCOD8191993
Probable space group: I M A 2
;
_chemical_formula_sum "Si O2"
_cell_formula_units_Z 64
_cell_length_a 8.932619
_cell_length_b 25.002825
_cell_length_c 15.041578
_cell_angle_alpha 90.000000
_cell_angle_beta 90.000000
_cell_angle_gamma 90.000000
_cell_volume 3359.396705
_symmetry_space_group_name_H-M "I M A 2"
_symmetry_group_IT_number 46
_symmetry_cell_setting 'orthorhombic'
loop_
_space_group_symop_operation_xyz
x,y,z
-x,-y,z
1/2-x,y,z
1/2+x,-y,z
1/2+x,1/2+y,1/2+z
1/2-x,1/2-y,1/2+z
-x,1/2+y,1/2+z
x,1/2-y,1/2+z
loop_
_atom_site_type_symbol
_atom_site_label
_atom_site_fract_x
_atom_site_fract_y
_atom_site_fract_z
Si Si1 0.427966 0.101217 0.746210
Si Si2 0.073168 0.847937 0.448803
Si Si3 0.571662 0.444868 0.071933
Si Si4 0.576850 0.779412 0.775901
Si Si5 0.578195 0.144558 0.065646
Si Si6 0.922052 0.326226 0.754220
Si Si7 0.072492 0.556540 0.424377
Si Si8 0.575750 0.759608 0.977072
O O1 0.250000 0.091564 0.747773
O O2 0.503372 0.068318 0.667720
O O3 0.468123 0.163733 0.733442
O O4 0.497027 0.081104 0.837795
O O5 0.250000 0.842969 0.453089
O O6 0.020350 0.900813 0.500188
O O7 0.012372 0.850679 0.346348
O O8 0.004367 0.796517 0.497834
O O9 0.500000 0.500000 0.038083
O O10 0.750000 0.449650 0.079814
O O11 0.750000 0.767984 0.762458
O O12 0.492120 0.731073 0.728090
O O13 0.533510 0.780628 0.879443
O O14 0.750000 0.159467 0.045575
O O15 0.553427 0.133233 0.171371
O O16 0.530946 0.093021 0.009257
O O17 0.477584 0.195492 0.044478
O O18 0.750000 0.314449 0.771061
O O19 0.250000 0.551322 0.409877
O O20 0.000000 0.500000 0.446313
O O21 0.750000 0.749902 0.990201
#
# Coordination Sequence:
#
# PCOD8191993 Si02
#       8
#     8   8   8   8   8   8   8   8
#     4  11  22  38  58  83 117 151 188 232 283 342
#     4   9  20  39  60  82 111 148 189 233 283 337
#     4  11  24  41  60  83 111 147 194 240 287 340
#     4   9  19  34  52  81 116 149 183 222 274 332
#     4  10  21  36  56  84 115 150 190 230 278 335
#     4   9  19  36  58  82 113 150 187 230 275 332
#     4  11  23  39  59  82 114 153 194 236 282 337
#     4  10  19  33  55  83 115 148 183 227 276 331
#
# _framework density 19.051038999999999
#
# number of rings (size 3 to 8) (size 9 to 14) (size 15 to 20)
#    0.000    2.000    1.250    1.875    1.750    3.500 
#    0.000    0.625    0.000    0.000    0.000    0.000 
#    0.000    0.000    0.000    0.000    0.000    0.000 
#
# Total GULP energy -396799.356997 kJ/mol
# GULP energy per Si atom -12399.979906 kJ/mol
# Density = 1.900768 g / cm^3
# Si number density = 19.051039 Si / 1000 Ang^3
#
#
#
# Elastic Constant Matrix: (Units=GPa)
#
#
# Indices 1 2 3 4 5 6 
#
# 1 53.5056 42.1934 27.9964 -0.0002 0.0001 0.0000
# 2 42.1934 120.5731 53.1398 0.0000 0.0001 0.0000
# 3 27.9964 53.1398 86.7314 -0.0008 0.0002 0.0000
# 4 -0.0002 0.0000 -0.0008 31.7824 0.0000 0.0000
# 5 0.0001 0.0001 0.0002 0.0000 16.5416 -0.0001
# 6 0.0000 0.0000 0.0000 0.0000 -0.0001 32.9702
#
#
#
# Elastic Compliance Matrix: (Units=1/GPa)
#
#
# Indices 1 2 3 4 5 6 
#
# 1 0.026778 -0.007618 -0.003976 0.000000 0.000000 0.000000
# 2 -0.007618 0.013529 -0.005830 0.000000 0.000000 0.000000
# 3 -0.003976 -0.005830 0.016385 0.000000 0.000000 0.000000
# 4 0.000000 0.000000 0.000000 0.031464 0.000000 0.000000
# 5 0.000000 0.000000 0.000000 0.000000 0.060454 0.000000
# 6 0.000000 0.000000 0.000000 0.000000 0.000000 0.030330
#
#
# Mechanical properties :
#
#
# Convention : Reuss Voigt Hill
#
# Bulk Modulus (GPa) = 45.78041 56.38549 51.08295
# Shear Modulus (GPa) = 22.61726 25.42419 24.02072
#
# Velocity S-wave (km/s) = 3.44930 3.65709 3.55471
# Velocity P-wave (km/s) = 6.32030 6.89157 6.61210
#
# Compressibility (1/GPa) = 0.02184340
#
# Stress axis : x y z
#
# Youngs Moduli (GPa) = 37.34461 73.91459 61.03009
#
# Poissons Ratio (x) = 0.56310 0.24266
# Poissons Ratio (y) = 0.28450 0.35581
# Poissons Ratio (z) = 0.14848 0.43093
#
# Static dielectric constant tensor:
#      x y z
#    x 3.488650 0.000000 0.000000 
#    y 0.000000 3.607860 0.000000 
#    z 0.000000 0.000000 3.635500 
# 
# 
# High freq. dielectric constant tensor:
#      x y z
#    x 1.742860 0.000000 0.000000 
#    y 0.000000 1.733430 0.000000 
#    z 0.000000 0.000000 1.744320 
# 
# From -- ./inp_files/14424.got.cif
#   From: 2010.03.12/outbox.cif.g09.slc.cpg/sg46_8_cif.got.tgz:14424.got - 2010.04.14 02:56:35.
