data_PCOD8191487
_publ_section_title
;
Structure prediction by ZEFSAII (Michael W. Deem and Ramdas Pophale) SiO2 
 PCOD8191487
Probable space group: I M A 2
;
_chemical_formula_sum "Si O2"
_cell_formula_units_Z 56
_cell_length_a 23.451746
_cell_length_b 5.020322
_cell_length_c 25.300298
_cell_angle_alpha 90.000000
_cell_angle_beta 90.000000
_cell_angle_gamma 90.000000
_cell_volume 2978.738590
_symmetry_space_group_name_H-M "I M A 2"
_symmetry_group_IT_number 46
_symmetry_cell_setting 'orthorhombic'
loop_
_space_group_symop_operation_xyz
x,y,z
-x,-y,z
1/2-x,y,z
1/2+x,-y,z
1/2+x,1/2+y,1/2+z
1/2-x,1/2-y,1/2+z
-x,1/2+y,1/2+z
x,1/2-y,1/2+z
loop_
_atom_site_type_symbol
_atom_site_label
_atom_site_fract_x
_atom_site_fract_y
_atom_site_fract_z
Si Si1 0.687087 0.392926 0.602760
Si Si2 0.184546 0.560495 0.822059
Si Si3 0.461953 0.245710 0.569958
Si Si4 0.145413 0.133175 0.999406
Si Si5 0.817353 0.353249 0.938710
Si Si6 0.631433 0.608059 0.146030
Si Si7 0.816692 0.576859 0.254932
O O1 0.750000 0.304495 0.619003
O O2 0.686352 0.512200 0.544180
O O3 0.668040 0.622376 0.642921
O O4 0.649482 0.127045 0.606019
O O5 0.250000 0.478933 0.827439
O O6 0.158958 0.558798 0.881207
O O7 0.157919 0.339197 0.783330
O O8 0.175416 0.847299 0.797378
O O9 0.500000 0.500000 0.581593
O O10 0.417074 0.317140 0.523832
O O11 0.432446 0.175257 0.626482
O O12 0.500000 0.000000 0.549989
O O13 0.171272 0.410557 0.979811
O O14 0.146194 0.910611 0.953472
O O15 0.750000 0.282862 0.937138
O O16 0.641133 0.510640 0.205894
O O17 0.750000 0.599947 0.236898
#
# Coordination Sequence:
#
# PCOD8191487 Si02
#       7
#     8   8   8   8   8   8   8
#     4  11  20  32  48  78 115 142 166 208 258 325
#     4   9  19  31  49  75 111 148 177 205 245 299
#     4  11  23  41  57  76 103 134 181 237 274 317
#     4  11  22  34  54  79 104 143 183 214 266 320
#     4  11  20  34  53  82 117 148 176 210 252 316
#     4  11  22  34  54  79 104 143 182 213 267 321
#     4  10  18  32  50  77 111 144 175 209 249 310
#
# _framework density 18.799904000000002
#
# number of rings (size 3 to 8) (size 9 to 14) (size 15 to 20)
#    0.000    1.429    0.000    8.571    0.000    3.429 
#    0.000    0.000    0.000    0.000    0.000   20.000 
#    0.000    0.000    0.000    0.000    0.000    0.000 
#
# Total GULP energy -347139.848487 kJ/mol
# GULP energy per Si atom -12397.851732 kJ/mol
# Density = 1.875711 g / cm^3
# Si number density = 18.799904 Si / 1000 Ang^3
#
#
#
# Elastic Constant Matrix: (Units=GPa)
#
#
# Indices 1 2 3 4 5 6 
#
# 1 79.2974 42.5543 39.2001 0.0000 0.0000 0.0000
# 2 42.5543 114.2494 17.5876 0.0000 0.0000 0.0000
# 3 39.2001 17.5876 90.2181 0.0000 0.0000 0.0000
# 4 0.0000 0.0000 0.0000 33.1201 0.0000 0.0000
# 5 0.0000 0.0000 0.0000 0.0000 -25.6615 0.0000
# 6 0.0000 0.0000 0.0000 0.0000 0.0000 34.2135
#
#
#
# Elastic Compliance Matrix: (Units=1/GPa)
#
#
# Indices 1 2 3 4 5 6 
#
# 1 0.019506 -0.006145 -0.007277 0.000000 0.000000 0.000000
# 2 -0.006145 0.010959 0.000534 0.000000 0.000000 0.000000
# 3 -0.007277 0.000534 0.014142 0.000000 0.000000 0.000000
# 4 0.000000 0.000000 0.000000 0.030193 0.000000 0.000000
# 5 0.000000 0.000000 0.000000 0.000000 -0.038969 0.000000
# 6 0.000000 0.000000 0.000000 0.000000 0.000000 0.029228
#
#
# Mechanical properties :
#
#
# Convention : Reuss Voigt Hill
#
# Bulk Modulus (GPa) = 53.10723 53.60545 53.35634
# Shear Modulus (GPa) = 51.48534 20.62927 36.05731
#
# Velocity S-wave (km/s) = 5.23884 3.31616 4.38419
# Velocity P-wave (km/s) = 8.05629 6.57557 7.35330
#
# Compressibility (1/GPa) = 0.01882983
#
# Stress axis : x y z
#
# Youngs Moduli (GPa) = 51.26619 91.24510 70.70965
#
# Poissons Ratio (x) = 0.56071 0.51459
# Poissons Ratio (y) = 0.31503 -0.03773
# Poissons Ratio (z) = 0.37309 -0.04868
#
# Static dielectric constant tensor:
#      x y z
#    x 3.244680 0.000000 0.000000 
#    y 0.000000 3.754030 0.000000 
#    z 0.000000 0.000000 3.508080 
# 
# 
# High freq. dielectric constant tensor:
#      x y z
#    x 1.680440 0.000000 0.000000 
#    y 0.000000 1.759020 0.000000 
#    z 0.000000 0.000000 1.729010 
# 
# From -- ./inp_files/22537.got.cif
#   From: 2010.03.12/outbox.cif.g09.slc.cpg/sg46_12_cif.got.tgz:22537.got - 2010.04.14 02:56:35.
