data_PCOD8191486
_publ_section_title
;
Structure prediction by ZEFSAII (Michael W. Deem and Ramdas Pophale) SiO2 
 PCOD8191486
Probable space group: I M A 2
;
_chemical_formula_sum "Si O2"
_cell_formula_units_Z 64
_cell_length_a 8.768081
_cell_length_b 19.652492
_cell_length_c 20.821191
_cell_angle_alpha 90.000000
_cell_angle_beta 90.000000
_cell_angle_gamma 90.000000
_cell_volume 3587.796067
_symmetry_space_group_name_H-M "I M A 2"
_symmetry_group_IT_number 46
_symmetry_cell_setting 'orthorhombic'
loop_
_space_group_symop_operation_xyz
x,y,z
-x,-y,z
1/2-x,y,z
1/2+x,-y,z
1/2+x,1/2+y,1/2+z
1/2-x,1/2-y,1/2+z
-x,1/2+y,1/2+z
x,1/2-y,1/2+z
loop_
_atom_site_type_symbol
_atom_site_label
_atom_site_fract_x
_atom_site_fract_y
_atom_site_fract_z
Si Si1 0.071115 0.296894 0.084960
Si Si2 0.568883 0.430149 0.745854
Si Si3 0.929781 0.430200 0.281448
Si Si4 0.069278 0.294508 0.324392
Si Si5 0.929167 0.069431 0.634719
Si Si6 0.070959 0.291508 0.942433
Si Si7 0.431098 0.430944 0.885717
Si Si8 0.429674 0.296023 0.702694
O O1 0.250000 0.311716 0.090434
O O2 0.019370 0.242513 0.137918
O O3 0.986029 0.367890 0.092980
O O4 0.026392 0.268261 0.014375
O O5 0.500000 0.500000 0.716615
O O6 0.750000 0.435894 0.749602
O O7 0.499081 0.417395 0.815717
O O8 0.519534 0.367106 0.701395
O O9 0.750000 0.433876 0.287868
O O10 0.983418 0.419637 0.208024
O O11 0.000000 0.500000 0.308971
O O12 0.992712 0.368049 0.322856
O O13 0.250000 0.303941 0.325108
O O14 0.002752 0.259217 0.388908
O O15 0.019242 0.249309 0.263374
O O16 0.750000 0.063531 0.629587
O O17 0.000000 0.000000 0.606820
O O18 0.250000 0.290155 0.931959
O O19 0.015773 0.368905 0.930793
O O20 0.500000 0.500000 0.915718
O O21 0.250000 0.437425 0.879608
O O22 0.250000 0.310627 0.704424
#
# Coordination Sequence:
#
# PCOD8191486 Si02
#       8
#     8   8   8   8   8   8   8   8
#     4  10  20  35  54  76 104 140 176 211 256 309
#     4  11  21  33  53  79 107 135 171 216 263 307
#     4  10  20  33  52  79 107 135 172 216 262 306
#     4  10  18  33  55  78 104 137 172 213 259 304
#     4  10  20  33  50  74 106 141 177 216 254 303
#     4   9  19  34  52  74 105 140 174 210 255 309
#     4  10  18  32  50  73 105 140 177 212 252 302
#     4  10  19  33  55  79 104 136 173 212 258 307
#
# _framework density 17.838248
#
# number of rings (size 3 to 8) (size 9 to 14) (size 15 to 20)
#    0.000    2.000    2.500    3.000    0.000    2.500 
#    0.000    3.125    0.000    0.750    0.000    0.000 
#    0.000    0.000    0.000    0.000    0.000    0.000 
#
# Total GULP energy -396824.797439 kJ/mol
# GULP energy per Si atom -12400.774920 kJ/mol
# Density = 1.779765 g / cm^3
# Si number density = 17.838248 Si / 1000 Ang^3
#
#
#
# Elastic Constant Matrix: (Units=GPa)
#
#
# Indices 1 2 3 4 5 6 
#
# 1 65.2038 42.1144 28.8066 0.0000 0.0000 0.0000
# 2 42.1144 141.1195 65.1503 0.0000 0.0000 0.0000
# 3 28.8066 65.1503 106.6153 0.0000 0.0000 0.0000
# 4 0.0000 0.0000 0.0000 23.6428 0.0000 0.0000
# 5 0.0000 0.0000 0.0000 0.0000 10.9377 0.0000
# 6 0.0000 0.0000 0.0000 0.0000 0.0000 34.7110
#
#
#
# Elastic Compliance Matrix: (Units=1/GPa)
#
#
# Indices 1 2 3 4 5 6 
#
# 1 0.019421 -0.004699 -0.002376 0.000000 0.000000 0.000000
# 2 -0.004699 0.011008 -0.005457 0.000000 0.000000 0.000000
# 3 -0.002376 -0.005457 0.013356 0.000000 0.000000 0.000000
# 4 0.000000 0.000000 0.000000 0.042296 0.000000 0.000000
# 5 0.000000 0.000000 0.000000 0.000000 0.091427 0.000000
# 6 0.000000 0.000000 0.000000 0.000000 0.000000 0.028809
#
#
# Mechanical properties :
#
#
# Convention : Reuss Voigt Hill
#
# Bulk Modulus (GPa) = 53.41531 65.00902 59.21217
# Shear Modulus (GPa) = 21.04178 25.64945 23.34561
#
# Velocity S-wave (km/s) = 3.43824 3.79607 3.62157
# Velocity P-wave (km/s) = 6.76544 7.46567 7.12417
#
# Compressibility (1/GPa) = 0.01872122
#
# Stress axis : x y z
#
# Youngs Moduli (GPa) = 51.48994 90.84434 74.87180
#
# Poissons Ratio (x) = 0.42687 0.17790
# Poissons Ratio (y) = 0.24195 0.40858
# Poissons Ratio (z) = 0.12234 0.49574
#
# Static dielectric constant tensor:
#      x y z
#    x 3.157490 0.000000 0.000000 
#    y 0.000000 3.482450 0.000000 
#    z 0.000000 0.000000 3.244800 
# 
# 
# High freq. dielectric constant tensor:
#      x y z
#    x 1.682640 0.000000 0.000000 
#    y 0.000000 1.697050 0.000000 
#    z 0.000000 0.000000 1.664490 
# 
# From -- ./inp_files/21441.got.cif
#   From: 2010.03.12/outbox.cif.g09.slc.cpg/sg46_11_cif.got.tgz:21441.got - 2010.04.14 02:56:35.
