data_PCOD8191867
_publ_section_title
;
Structure prediction by ZEFSAII (Michael W. Deem and Ramdas Pophale) SiO2 
 PCOD8191867
Probable space group: I M A 2
;
_chemical_formula_sum "Si O2"
_cell_formula_units_Z 56
_cell_length_a 26.067110
_cell_length_b 18.363261
_cell_length_c 5.207696
_cell_angle_alpha 90.000000
_cell_angle_beta 90.000000
_cell_angle_gamma 90.000000
_cell_volume 2492.805050
_symmetry_space_group_name_H-M "I M A 2"
_symmetry_group_IT_number 46
_symmetry_cell_setting 'orthorhombic'
loop_
_space_group_symop_operation_xyz
x,y,z
-x,-y,z
1/2-x,y,z
1/2+x,-y,z
1/2+x,1/2+y,1/2+z
1/2-x,1/2-y,1/2+z
-x,1/2+y,1/2+z
x,1/2-y,1/2+z
loop_
_atom_site_type_symbol
_atom_site_label
_atom_site_fract_x
_atom_site_fract_y
_atom_site_fract_z
Si Si1 0.941190 0.980825 0.322520
Si Si2 0.022041 0.287795 0.155641
Si Si3 0.657610 0.042788 0.183680
Si Si4 0.189528 0.790225 0.186218
Si Si5 0.809890 0.544475 0.183422
Si Si6 0.855777 0.794027 0.674178
Si Si7 0.035635 0.432556 0.324970
O O1 0.922469 0.949596 0.599441
O O2 0.904169 0.046267 0.235766
O O3 0.936501 0.917659 0.100384
O O4 0.000000 0.000000 0.389943
O O5 0.002760 0.230747 0.370929
O O6 0.082717 0.298926 0.182522
O O7 0.999143 0.366247 0.235846
O O8 0.677465 0.124611 0.184844
O O9 0.682765 0.994882 0.408752
O O10 0.667135 0.005698 0.909653
O O11 0.250000 0.779958 0.186291
O O12 0.165945 0.750238 0.436672
O O13 0.750000 0.552390 0.237138
O O14 0.833444 0.625077 0.182680
O O15 0.836579 0.752042 0.420168
O O16 0.000000 0.500000 0.404845
#
# Coordination Sequence:
#
# PCOD8191867 Si02
#       7
#     8   8   8   8   8   8   8
#     4  10  21  37  62  89 114 151 201 251 302 355
#     4  10  19  32  53  80 109 144 191 242 290 346
#     4  12  23  40  65  93 126 163 210 263 308 367
#     4  10  21  38  61  89 124 165 204 248 310 379
#     4  12  25  39  60  92 127 164 205 253 308 367
#     4  10  21  36  55  81 114 154 199 244 295 356
#     4  10  20  36  58  84 115 149 193 245 303 364
#
# _framework density 22.464653999999999
#
# number of rings (size 3 to 8) (size 9 to 14) (size 15 to 20)
#    0.000    1.429    0.000    6.429    0.000    4.000 
#    0.000    0.000    0.000   20.571    0.000    0.000 
#    0.000    0.000    0.000    0.000    0.000    0.000 
#
# Total GULP energy -346936.644104 kJ/mol
# GULP energy per Si atom -12390.594432 kJ/mol
# Density = 2.241352 g / cm^3
# Si number density = 22.464654 Si / 1000 Ang^3
#
#
#
# Elastic Constant Matrix: (Units=GPa)
#
#
# Indices 1 2 3 4 5 6 
#
# 1 45.3167 -0.6366 6.4091 0.0000 0.0000 0.0000
# 2 -0.6366 151.0604 52.8513 0.0000 0.0000 0.0000
# 3 6.4091 52.8513 185.2813 0.0000 0.0000 0.0000
# 4 0.0000 0.0000 0.0000 44.1713 0.0000 0.0000
# 5 0.0000 0.0000 0.0000 0.0000 9.1797 0.0000
# 6 0.0000 0.0000 0.0000 0.0000 0.0000 29.1123
#
#
#
# Elastic Compliance Matrix: (Units=1/GPa)
#
#
# Indices 1 2 3 4 5 6 
#
# 1 0.022197 0.000402 -0.000883 0.000000 0.000000 0.000000
# 2 0.000402 0.007361 -0.002114 0.000000 0.000000 0.000000
# 3 -0.000883 -0.002114 0.006031 0.000000 0.000000 0.000000
# 4 0.000000 0.000000 0.000000 0.022639 0.000000 0.000000
# 5 0.000000 0.000000 0.000000 0.000000 0.108936 0.000000
# 6 0.000000 0.000000 0.000000 0.000000 0.000000 0.034350
#
#
# Mechanical properties :
#
#
# Convention : Reuss Voigt Hill
#
# Bulk Modulus (GPa) = 32.89333 55.43400 44.16366
# Shear Modulus (GPa) = 23.05892 38.02829 30.54360
#
# Velocity S-wave (km/s) = 3.20731 4.11884 3.69132
# Velocity P-wave (km/s) = 5.32821 6.88109 6.15383
#
# Compressibility (1/GPa) = 0.03040130
#
# Stress axis : x y z
#
# Youngs Moduli (GPa) = 45.05028 135.84990 165.81966
#
# Poissons Ratio (x) = -0.05466 0.14635
# Poissons Ratio (y) = -0.01813 0.35049
# Poissons Ratio (z) = 0.03976 0.28714
#
# Static dielectric constant tensor:
#      x y z
#    x 3.983440 0.000000 0.000000 
#    y 0.000000 4.096690 0.000000 
#    z 0.000000 0.000000 4.793850 
# 
# 
# High freq. dielectric constant tensor:
#      x y z
#    x 1.847920 0.000000 0.000000 
#    y 0.000000 1.886910 0.000000 
#    z 0.000000 0.000000 1.926700 
# 
# From -- ./inp_files/2719.got.cif
#   From: 2010.03.12/outbox.cif.g09.slc.cpg/sg46_2_cif.got.tgz:2719.got - 2010.04.14 02:56:35.
