data_PCOD8191336
_publ_section_title
;
Structure prediction by ZEFSAII (Michael W. Deem and Ramdas Pophale) SiO2 
 PCOD8191336
Probable space group: I M A 2
;
_chemical_formula_sum "Si O2"
_cell_formula_units_Z 64
_cell_length_a 8.585768
_cell_length_b 26.712995
_cell_length_c 18.401660
_cell_angle_alpha 90.000000
_cell_angle_beta 90.000000
_cell_angle_gamma 90.000000
_cell_volume 4220.449752
_symmetry_space_group_name_H-M "I M A 2"
_symmetry_group_IT_number 46
_symmetry_cell_setting 'orthorhombic'
loop_
_space_group_symop_operation_xyz
x,y,z
-x,-y,z
1/2-x,y,z
1/2+x,-y,z
1/2+x,1/2+y,1/2+z
1/2-x,1/2-y,1/2+z
-x,1/2+y,1/2+z
x,1/2-y,1/2+z
loop_
_atom_site_type_symbol
_atom_site_label
_atom_site_fract_x
_atom_site_fract_y
_atom_site_fract_z
Si Si1 0.934354 0.853978 0.562220
Si Si2 0.067403 0.202523 0.429359
Si Si3 0.933151 0.051822 0.640392
Si Si4 0.432393 0.743216 0.136528
Si Si5 0.933379 0.801453 0.014487
Si Si6 0.065258 0.255898 0.292986
Si Si7 0.065887 0.847770 0.881977
Si Si8 0.933260 0.051845 0.803990
O O1 0.750000 0.860643 0.566825
O O2 0.992446 0.844318 0.478081
O O3 0.015993 0.903872 0.588033
O O4 0.979134 0.806961 0.612289
O O5 0.250000 0.199489 0.428028
O O6 0.017277 0.251725 0.472303
O O7 0.011272 0.209376 0.346025
O O8 0.750000 0.048655 0.640300
O O9 0.997253 0.061125 0.722075
O O10 0.000000 0.000000 0.608985
O O11 0.250000 0.735940 0.123935
O O12 0.467114 0.751778 0.220837
O O13 0.493356 0.793162 0.094533
O O14 0.750000 0.811114 0.020983
O O15 0.012979 0.845425 0.966833
O O16 0.250000 0.254795 0.277380
O O17 0.025008 0.308089 0.332068
O O18 0.250000 0.839079 0.873991
O O19 0.013923 0.902475 0.854634
O O20 0.750000 0.047195 0.802177
O O21 0.000000 0.000000 0.835966
#
# Coordination Sequence:
#
# PCOD8191336 Si02
#       8
#     8   8   8   8   8   8   8   8
#     4  10  18  30  46  63  83 112 146 179 215 259
#     4   7  14  27  42  59  80 105 138 173 206 246
#     4  10  19  31  44  62  86 114 146 181 216 251
#     4  11  20  29  42  63  88 114 144 181 217 253
#     4   9  17  30  44  60  82 112 145 175 209 256
#     4  10  18  29  44  62  85 116 147 176 210 257
#     4  10  18  29  44  64  87 112 142 180 219 255
#     4   9  19  31  43  59  83 111 143 179 214 249
#
# _framework density 15.164261
#
# number of rings (size 3 to 8) (size 9 to 14) (size 15 to 20)
#    0.000    2.500    0.000    5.250    0.000    2.500 
#    0.000    1.875    0.000    0.000    0.000    0.000 
#    0.000    1.000    0.000    7.250    0.000    3.500 
#
# Total GULP energy -396519.019404 kJ/mol
# GULP energy per Si atom -12391.219356 kJ/mol
# Density = 1.512975 g / cm^3
# Si number density = 15.164261 Si / 1000 Ang^3
#
#
#
# Elastic Constant Matrix: (Units=GPa)
#
#
# Indices 1 2 3 4 5 6 
#
# 1 45.1099 18.0850 12.1279 0.0000 0.0000 0.0000
# 2 18.0850 90.2113 53.5738 0.0000 0.0000 0.0000
# 3 12.1279 53.5738 91.2871 -0.0001 0.0000 0.0000
# 4 0.0000 0.0000 -0.0001 32.1433 0.0000 0.0000
# 5 0.0000 0.0000 0.0000 0.0000 22.8953 0.0000
# 6 0.0000 0.0000 0.0000 0.0000 0.0000 22.2075
#
#
#
# Elastic Compliance Matrix: (Units=1/GPa)
#
#
# Indices 1 2 3 4 5 6 
#
# 1 0.024124 -0.004502 -0.000563 0.000000 0.000000 0.000000
# 2 -0.004502 0.017856 -0.009881 0.000000 0.000000 0.000000
# 3 -0.000563 -0.009881 0.016828 0.000000 0.000000 0.000000
# 4 0.000000 0.000000 0.000000 0.031111 0.000000 0.000000
# 5 0.000000 0.000000 0.000000 0.000000 0.043677 0.000000
# 6 0.000000 0.000000 0.000000 0.000000 0.000000 0.045030
#
#
# Mechanical properties :
#
#
# Convention : Reuss Voigt Hill
#
# Bulk Modulus (GPa) = 34.58241 43.79795 39.19018
# Shear Modulus (GPa) = 22.91942 24.97067 23.94505
#
# Velocity S-wave (km/s) = 3.89190 4.06233 3.97803
# Velocity P-wave (km/s) = 6.56130 7.13782 6.85562
#
# Compressibility (1/GPa) = 0.02891644
#
# Stress axis : x y z
#
# Youngs Moduli (GPa) = 41.45194 56.00505 59.42481
#
# Poissons Ratio (x) = 0.25213 0.03345
# Poissons Ratio (y) = 0.18662 0.58716
# Poissons Ratio (z) = 0.02333 0.55337
#
# Static dielectric constant tensor:
#      x y z
#    x 2.904230 0.000000 0.000000 
#    y 0.000000 2.829210 0.000000 
#    z 0.000000 0.000000 3.245860 
# 
# 
# High freq. dielectric constant tensor:
#      x y z
#    x 1.589070 0.000000 0.000000 
#    y 0.000000 1.546290 0.000000 
#    z 0.000000 0.000000 1.574070 
# 
# From -- ./inp_files/18669.got.cif
#   From: 2010.03.12/outbox.cif.g09.slc.cpg/sg46_10_cif.got.tgz:18669.got - 2010.04.14 02:56:35.
