data_PCOD8191390
_publ_section_title
;
Structure prediction by ZEFSAII (Michael W. Deem and Ramdas Pophale) SiO2 
 PCOD8191390
Probable space group: I M A 2
;
_chemical_formula_sum "Si O2"
_cell_formula_units_Z 64
_cell_length_a 8.769841
_cell_length_b 26.508812
_cell_length_c 18.340334
_cell_angle_alpha 90.000000
_cell_angle_beta 90.000000
_cell_angle_gamma 90.000000
_cell_volume 4263.725384
_symmetry_space_group_name_H-M "I M A 2"
_symmetry_group_IT_number 46
_symmetry_cell_setting 'orthorhombic'
loop_
_space_group_symop_operation_xyz
x,y,z
-x,-y,z
1/2-x,y,z
1/2+x,-y,z
1/2+x,1/2+y,1/2+z
1/2-x,1/2-y,1/2+z
-x,1/2+y,1/2+z
x,1/2-y,1/2+z
loop_
_atom_site_type_symbol
_atom_site_label
_atom_site_fract_x
_atom_site_fract_y
_atom_site_fract_z
Si Si1 0.575716 0.254747 0.891020
Si Si2 0.071740 0.852643 0.482250
Si Si3 0.577855 0.210493 0.035823
Si Si4 0.424916 0.855066 0.165690
Si Si5 0.567956 0.052715 0.392976
Si Si6 0.571624 0.740654 0.740150
Si Si7 0.923716 0.801072 0.606380
Si Si8 0.069646 0.447649 0.736217
O O1 0.750000 0.259878 0.864324
O O2 0.521073 0.305742 0.931794
O O3 0.468380 0.244567 0.822501
O O4 0.557305 0.207591 0.947925
O O5 0.250000 0.856284 0.485247
O O6 0.007735 0.904354 0.448151
O O7 0.015421 0.845668 0.565803
O O8 0.750000 0.231914 0.051219
O O9 0.557810 0.157832 0.079089
O O10 0.451663 0.248364 0.065750
O O11 0.250000 0.867259 0.185640
O O12 0.476719 0.808182 0.215501
O O13 0.528729 0.903660 0.179610
O O14 0.750000 0.049668 0.388610
O O15 0.503471 0.066322 0.313696
O O16 0.500000 0.000000 0.421259
O O17 0.750000 0.727806 0.732829
O O18 0.530107 0.789933 0.690628
O O19 0.750000 0.817039 0.599941
O O20 0.250000 0.453089 0.744316
O O21 0.000000 0.500000 0.706660
#
# Coordination Sequence:
#
# PCOD8191390 Si02
#       8
#     8   8   8   8   8   8   8   8
#     4   9  16  27  42  60  81 109 141 171 202 241
#     4   9  18  30  43  58  79 108 142 172 203 243
#     4   8  16  29  43  58  79 106 137 169 203 242
#     4  10  18  30  46  61  80 110 142 173 207 244
#     4  10  19  31  45  62  84 110 140 175 209 244
#     4  10  19  28  39  61  87 111 139 171 205 244
#     4   9  17  27  40  58  81 106 136 171 205 240
#     4  11  21  32  45  62  84 110 140 174 207 242
#
# _framework density 15.010348
#
# number of rings (size 3 to 8) (size 9 to 14) (size 15 to 20)
#    0.000    2.500    0.000    4.875    0.000    6.000 
#    0.000    0.000    0.000    0.000    0.000    0.000 
#    0.000    1.000    0.000    9.000    0.000    5.750 
#
# Total GULP energy -396574.871914 kJ/mol
# GULP energy per Si atom -12392.964747 kJ/mol
# Density = 1.497618 g / cm^3
# Si number density = 15.010348 Si / 1000 Ang^3
#
#
#
# Elastic Constant Matrix: (Units=GPa)
#
#
# Indices 1 2 3 4 5 6 
#
# 1 52.8594 25.4114 30.3026 0.0000 0.0000 0.0000
# 2 25.4114 80.5680 49.5010 0.0000 0.0000 0.0000
# 3 30.3026 49.5010 94.9822 -0.0003 0.0001 0.0000
# 4 0.0000 0.0000 -0.0003 25.8768 0.0000 0.0000
# 5 0.0000 0.0000 0.0001 0.0000 21.1782 0.0000
# 6 0.0000 0.0000 0.0000 0.0000 0.0000 21.7808
#
#
#
# Elastic Compliance Matrix: (Units=1/GPa)
#
#
# Indices 1 2 3 4 5 6 
#
# 1 0.024095 -0.004232 -0.005482 0.000000 0.000000 0.000000
# 2 -0.004232 0.019001 -0.008553 0.000000 0.000000 0.000000
# 3 -0.005482 -0.008553 0.016735 0.000000 0.000000 0.000000
# 4 0.000000 0.000000 0.000000 0.038645 0.000000 0.000000
# 5 0.000000 0.000000 0.000000 0.000000 0.047218 0.000000
# 6 0.000000 0.000000 0.000000 0.000000 0.000000 0.045912
#
#
# Mechanical properties :
#
#
# Convention : Reuss Voigt Hill
#
# Bulk Modulus (GPa) = 42.92108 48.75994 45.84051
# Shear Modulus (GPa) = 21.19504 21.98012 21.58758
#
# Velocity S-wave (km/s) = 3.76177 3.83081 3.79645
# Velocity P-wave (km/s) = 6.89379 7.21952 7.05854
#
# Compressibility (1/GPa) = 0.02329857
#
# Stress axis : x y z
#
# Youngs Moduli (GPa) = 41.50250 52.62788 59.75678
#
# Poissons Ratio (x) = 0.22270 0.32757
# Poissons Ratio (y) = 0.17562 0.51108
# Poissons Ratio (z) = 0.22751 0.45011
#
# Static dielectric constant tensor:
#      x y z
#    x 2.945850 0.000000 0.000000 
#    y 0.000000 2.857010 0.000000 
#    z 0.000000 0.000000 3.019340 
# 
# 
# High freq. dielectric constant tensor:
#      x y z
#    x 1.586600 0.000000 0.000000 
#    y 0.000000 1.538960 0.000000 
#    z 0.000000 0.000000 1.563310 
# 
# From -- ./inp_files/18665.got.cif
#   From: 2010.03.12/outbox.cif.g09.slc.cpg/sg46_10_cif.got.tgz:18665.got - 2010.04.14 02:56:35.
