data_PCOD8191873
_publ_section_title
;
Structure prediction by ZEFSAII (Michael W. Deem and Ramdas Pophale) SiO2 
 PCOD8191873
Probable space group: I M A 2
;
_chemical_formula_sum "Si O2"
_cell_formula_units_Z 64
_cell_length_a 9.533654
_cell_length_b 15.003283
_cell_length_c 22.431885
_cell_angle_alpha 90.000000
_cell_angle_beta 90.000000
_cell_angle_gamma 90.000000
_cell_volume 3208.569548
_symmetry_space_group_name_H-M "I M A 2"
_symmetry_group_IT_number 46
_symmetry_cell_setting 'orthorhombic'
loop_
_space_group_symop_operation_xyz
x,y,z
-x,-y,z
1/2-x,y,z
1/2+x,-y,z
1/2+x,1/2+y,1/2+z
1/2-x,1/2-y,1/2+z
-x,1/2+y,1/2+z
x,1/2-y,1/2+z
loop_
_atom_site_type_symbol
_atom_site_label
_atom_site_fract_x
_atom_site_fract_y
_atom_site_fract_z
Si Si1 0.404699 0.586118 0.172150
Si Si2 0.088893 0.916404 0.217941
Si Si3 0.403805 0.585737 0.915171
Si Si4 0.096529 0.222644 0.012450
Si Si5 0.085965 0.585523 0.579231
Si Si6 0.034099 0.603634 0.042255
Si Si7 0.585412 0.226392 0.770745
Si Si8 0.587478 0.756276 0.377825
O O1 0.500000 0.500000 0.177408
O O2 0.250000 0.555218 0.190792
O O3 0.396834 0.628443 0.105541
O O4 0.458243 0.662893 0.216207
O O5 0.250000 0.941325 0.227778
O O6 0.057243 0.899457 0.148652
O O7 0.046973 0.827410 0.252853
O O8 0.000000 0.000000 0.242725
O O9 0.500000 0.500000 0.916448
O O10 0.250000 0.570506 0.885287
O O11 0.491830 0.655625 0.877260
O O12 0.371116 0.616889 0.983346
O O13 0.250000 0.186235 0.031459
O O14 0.971474 0.171704 0.045003
O O15 0.094818 0.327876 0.030595
O O16 0.077455 0.208246 0.941574
O O17 0.250000 0.573440 0.564676
O O18 0.000000 0.500000 0.555885
O O19 0.000000 0.500000 0.047548
O O20 0.750000 0.216874 0.786709
O O21 0.486636 0.196904 0.826360
O O22 0.750000 0.777417 0.362221
#
# Coordination Sequence:
#
# PCOD8191873 Si02
#       8
#     8   8   8   8   8   8   8   8
#     4  10  21  37  57  82 111 143 182 228 276 327
#     4   9  19  35  55  82 113 143 176 216 264 322
#     4  10  19  32  53  80 111 146 181 218 266 324
#     4  10  21  37  57  82 112 146 185 229 276 326
#     4  10  20  36  59  86 115 144 178 223 277 334
#     4   9  19  33  54  84 118 149 178 216 268 328
#     4  10  21  38  57  77 107 146 185 226 272 322
#     4  10  22  38  54  75 105 141 185 232 273 319
#
# _framework density 19.946584000000001
#
# number of rings (size 3 to 8) (size 9 to 14) (size 15 to 20)
#    0.000    2.250    0.000    2.250    0.000   11.000 
#    0.000    3.125    0.000    1.500    0.000    0.000 
#    0.000    0.000    0.000    0.000    0.000    0.000 
#
# Total GULP energy -396533.203603 kJ/mol
# GULP energy per Si atom -12391.662613 kJ/mol
# Density = 1.990118 g / cm^3
# Si number density = 19.946584 Si / 1000 Ang^3
#
#
#
# Elastic Constant Matrix: (Units=GPa)
#
#
# Indices 1 2 3 4 5 6 
#
# 1 122.1970 35.6004 36.9970 0.0000 0.0000 0.0000
# 2 35.6004 67.9730 34.6067 0.0000 0.0000 0.0000
# 3 36.9970 34.6067 92.9429 0.0000 0.0000 0.0000
# 4 0.0000 0.0000 0.0000 18.1136 0.0000 0.0000
# 5 0.0000 0.0000 0.0000 0.0000 16.8740 0.0000
# 6 0.0000 0.0000 0.0000 0.0000 0.0000 30.3122
#
#
#
# Elastic Compliance Matrix: (Units=1/GPa)
#
#
# Indices 1 2 3 4 5 6 
#
# 1 0.010119 -0.004009 -0.002535 0.000000 0.000000 0.000000
# 2 -0.004009 0.019741 -0.005755 0.000000 0.000000 0.000000
# 3 -0.002535 -0.005755 0.013911 0.000000 0.000000 0.000000
# 4 0.000000 0.000000 0.000000 0.055207 0.000000 0.000000
# 5 0.000000 0.000000 0.000000 0.000000 0.059263 0.000000
# 6 0.000000 0.000000 0.000000 0.000000 0.000000 0.032990
#
#
# Mechanical properties :
#
#
# Convention : Reuss Voigt Hill
#
# Bulk Modulus (GPa) = 52.15518 55.28013 53.71765
# Shear Modulus (GPa) = 22.50014 24.78720 23.64367
#
# Velocity S-wave (km/s) = 3.36224 3.52899 3.44663
# Velocity P-wave (km/s) = 6.42473 6.66178 6.54432
#
# Compressibility (1/GPa) = 0.01917355
#
# Stress axis : x y z
#
# Youngs Moduli (GPa) = 98.82325 50.65528 71.88442
#
# Poissons Ratio (x) = 0.20308 0.18225
# Poissons Ratio (y) = 0.39619 0.41367
# Poissons Ratio (z) = 0.25054 0.29151
#
# Static dielectric constant tensor:
#      x y z
#    x 3.591710 0.000000 0.000000 
#    y 0.000000 3.508810 0.000000 
#    z 0.000000 0.000000 3.837790 
# 
# 
# High freq. dielectric constant tensor:
#      x y z
#    x 1.779550 0.000000 0.000000 
#    y 0.000000 1.758290 0.000000 
#    z 0.000000 0.000000 1.783100 
# 
# From -- ./inp_files/23207.got.cif
#   From: 2010.03.12/outbox.cif.g09.slc.cpg/sg46_12_cif.got.tgz:23207.got - 2010.04.14 02:56:35.
