data_PCOD8191105
_publ_section_title
;
Structure prediction by ZEFSAII (Michael W. Deem and Ramdas Pophale) SiO2 
 PCOD8191105
Probable space group: I B A 2
;
_chemical_formula_sum "Si O2"
_cell_formula_units_Z 28
_cell_length_a 11.329513
_cell_length_b 8.066826
_cell_length_c 13.477355
_cell_angle_alpha 90.000000
_cell_angle_beta 90.000000
_cell_angle_gamma 90.000000
_cell_volume 1231.738736
_symmetry_space_group_name_H-M "I B A 2"
_symmetry_group_IT_number 45
_symmetry_cell_setting 'orthorhombic'
loop_
_space_group_symop_operation_xyz
x,y,z
-x,-y,z
-x,y,1/2+z
x,-y,1/2+z
1/2+x,1/2+y,1/2+z
1/2-x,1/2-y,1/2+z
1/2-x,1/2+y,z
1/2+x,1/2-y,z
loop_
_atom_site_type_symbol
_atom_site_label
_atom_site_fract_x
_atom_site_fract_y
_atom_site_fract_z
Si Si1 0.000000 0.000000 0.143220
Si Si2 0.128960 0.429439 0.421740
Si Si3 0.584360 0.841966 0.706051
Si Si4 0.284519 0.636572 0.541605
O O1 0.008549 0.170505 0.206884
O O2 0.882418 0.005184 0.076621
O O3 0.147113 0.354036 0.313018
O O4 0.224132 0.574236 0.439634
O O5 0.147556 0.303660 0.513066
O O6 0.000000 0.500000 0.435208
O O7 0.687343 0.834671 0.625807
O O8 0.500000 0.000000 0.687273
#
# Coordination Sequence:
#
# PCOD8191105 Si02
#       4
#     4   8   8   8
#     4  12  26  44  78 104 148 198 240 296 374 424
#     4  11  27  46  75 108 146 188 246 305 361 432
#     4  11  27  50  74 109 149 190 246 304 361 437
#     4  12  24  48  73 107 146 193 243 305 359 437
#
# _framework density 22.732095000000001
#
# number of rings (size 3 to 8) (size 9 to 14) (size 15 to 20)
#    0.000    0.571    2.857    4.286    4.000    3.429 
#    0.000    0.000    0.000    0.000    0.000    0.000 
#    0.000    0.000    0.000    0.000    0.000    0.000 
#
# Total GULP energy -173624.675731 kJ/mol
# GULP energy per Si atom -12401.762552 kJ/mol
# Density = 2.268036 g / cm^3
# Si number density = 22.732095 Si / 1000 Ang^3
#
#
#
# Elastic Constant Matrix: (Units=GPa)
#
#
# Indices 1 2 3 4 5 6 
#
# 1 108.5326 51.9548 66.3370 0.0000 0.0000 0.0000
# 2 51.9548 148.7004 59.9292 0.0000 0.0000 0.0000
# 3 66.3370 59.9292 154.2259 0.0000 0.0000 0.0000
# 4 0.0000 0.0000 0.0000 31.9799 0.0000 0.0000
# 5 0.0000 0.0000 0.0000 0.0000 28.3685 0.0000
# 6 0.0000 0.0000 0.0000 0.0000 0.0000 39.4591
#
#
#
# Elastic Compliance Matrix: (Units=1/GPa)
#
#
# Indices 1 2 3 4 5 6 
#
# 1 0.013416 -0.002800 -0.004683 0.000000 0.000000 0.000000
# 2 -0.002800 0.008558 -0.002121 0.000000 0.000000 0.000000
# 3 -0.004683 -0.002121 0.009322 0.000000 0.000000 0.000000
# 4 0.000000 0.000000 0.000000 0.031270 0.000000 0.000000
# 5 0.000000 0.000000 0.000000 0.000000 0.035250 0.000000
# 6 0.000000 0.000000 0.000000 0.000000 0.000000 0.025343
#
#
# Mechanical properties :
#
#
# Convention : Reuss Voigt Hill
#
# Bulk Modulus (GPa) = 82.72070 85.32233 84.02151
# Shear Modulus (GPa) = 34.15360 35.51068 34.83214
#
# Velocity S-wave (km/s) = 3.88034 3.95668 3.91869
# Velocity P-wave (km/s) = 7.51960 7.64781 7.58398
#
# Compressibility (1/GPa) = 0.01208887
#
# Stress axis : x y z
#
# Youngs Moduli (GPa) = 74.53511 116.84717 107.26951
#
# Poissons Ratio (x) = 0.32722 0.50230
# Poissons Ratio (y) = 0.20873 0.22752
# Poissons Ratio (z) = 0.34902 0.24783
#
# Static dielectric constant tensor:
#      x y z
#    x 4.160700 0.000000 0.000000 
#    y 0.000000 4.332930 0.000000 
#    z 0.000000 0.000000 4.320240 
# 
# 
# High freq. dielectric constant tensor:
#      x y z
#    x 1.908570 0.000000 0.000000 
#    y 0.000000 1.914090 0.000000 
#    z 0.000000 0.000000 1.892510 
# 
# From -- ./inp_files/5336.got.cif
#   From: 2010.03.12/outbox.cif.g09.slc.cpg/sg45_3_cif.got.tgz:5336.got - 2010.04.14 02:50:11.
