data_PCOD8191689
_publ_section_title
;
Structure prediction by ZEFSAII (Michael W. Deem and Ramdas Pophale) SiO2 
 PCOD8191689
Probable space group: I M A 2
;
_chemical_formula_sum "Si O2"
_cell_formula_units_Z 52
_cell_length_a 25.913027
_cell_length_b 21.304591
_cell_length_c 5.042565
_cell_angle_alpha 90.000000
_cell_angle_beta 90.000000
_cell_angle_gamma 90.000000
_cell_volume 2783.830917
_symmetry_space_group_name_H-M "I M A 2"
_symmetry_group_IT_number 46
_symmetry_cell_setting 'orthorhombic'
loop_
_space_group_symop_operation_xyz
x,y,z
-x,-y,z
1/2-x,y,z
1/2+x,-y,z
1/2+x,1/2+y,1/2+z
1/2-x,1/2-y,1/2+z
-x,1/2+y,1/2+z
x,1/2-y,1/2+z
loop_
_atom_site_type_symbol
_atom_site_label
_atom_site_fract_x
_atom_site_fract_y
_atom_site_fract_z
Si Si1 0.690576 0.208788 0.710180
Si Si2 0.150660 0.575640 0.297292
Si Si3 0.138921 0.207692 0.341108
Si Si4 0.558756 0.986808 0.744351
Si Si5 0.250000 0.288629 0.737196
Si Si6 0.900439 0.577361 0.745337
Si Si7 0.308589 0.510266 0.798633
O O1 0.750000 0.185941 0.733751
O O2 0.678749 0.237522 0.423895
O O3 0.652477 0.150163 0.751716
O O4 0.091761 0.551226 0.265448
O O5 0.171593 0.562041 0.590555
O O6 0.187298 0.540237 0.089137
O O7 0.130547 0.236379 0.631380
O O8 0.196446 0.176759 0.311149
O O9 0.098247 0.151872 0.296850
O O10 0.562134 0.957979 0.450832
O O11 0.500000 0.000000 0.815003
O O12 0.580389 0.935370 0.948767
O O13 0.250000 0.274116 0.423370
O O14 0.842210 0.552557 0.779392
O O15 0.250000 0.490953 0.740939
#
# Coordination Sequence:
#
# PCOD8191689 Si02
#       7
#     8   8   8   8   4   8   8
#     4  10  19  30  48  74 105 140 169 196 241 313
#     4  10  20  34  52  76 103 137 174 213 264 310
#     4  10  19  33  51  74 109 145 177 214 252 309
#     4  10  21  39  59  79 100 132 179 233 277 320
#     4   8  16  28  44  68  98 144 180 196 236 292
#     4  10  21  34  55  82 103 136 181 215 271 318
#     4  10  19  31  50  76 108 137 166 214 260 308
#
# _framework density 18.679295
#
# number of rings (size 3 to 8) (size 9 to 14) (size 15 to 20)
#    0.000    2.154    0.000    3.692    1.077    1.231 
#    0.000    0.000    0.000    5.538    0.000    0.000 
#    0.000    0.000    0.000    0.000    0.000    0.000 
#
# Total GULP energy -322410.233396 kJ/mol
# GULP energy per Si atom -12400.393592 kJ/mol
# Density = 1.863678 g / cm^3
# Si number density = 18.679295 Si / 1000 Ang^3
#
#
#
# Elastic Constant Matrix: (Units=GPa)
#
#
# Indices 1 2 3 4 5 6 
#
# 1 83.5679 36.3943 9.2894 0.0000 0.0000 0.0000
# 2 36.3943 76.4424 3.6204 0.0000 0.0000 0.0000
# 3 9.2894 3.6204 68.9985 0.0000 0.0000 0.0000
# 4 0.0000 0.0000 0.0000 15.3788 0.0000 0.0000
# 5 0.0000 0.0000 0.0000 0.0000 14.0350 0.0000
# 6 0.0000 0.0000 0.0000 0.0000 0.0000 14.5769
#
#
#
# Elastic Compliance Matrix: (Units=1/GPa)
#
#
# Indices 1 2 3 4 5 6 
#
# 1 0.015288 -0.007199 -0.001681 0.000000 0.000000 0.000000
# 2 -0.007199 0.016504 0.000103 0.000000 0.000000 0.000000
# 3 -0.001681 0.000103 0.014714 0.000000 0.000000 0.000000
# 4 0.000000 0.000000 0.000000 0.065025 0.000000 0.000000
# 5 0.000000 0.000000 0.000000 0.000000 0.071251 0.000000
# 6 0.000000 0.000000 0.000000 0.000000 0.000000 0.068602
#
#
# Mechanical properties :
#
#
# Convention : Reuss Voigt Hill
#
# Bulk Modulus (GPa) = 34.53795 36.40189 35.46992
# Shear Modulus (GPa) = 17.94765 20.77845 19.36305
#
# Velocity S-wave (km/s) = 3.10309 3.33885 3.22313
# Velocity P-wave (km/s) = 5.60080 5.86464 5.73424
#
# Compressibility (1/GPa) = 0.02895366
#
# Stress axis : x y z
#
# Youngs Moduli (GPa) = 65.40894 60.58985 67.96286
#
# Poissons Ratio (x) = 0.43620 0.11422
# Poissons Ratio (y) = 0.47089 -0.00702
# Poissons Ratio (z) = 0.10992 -0.00626
#
# Static dielectric constant tensor:
#      x y z
#    x 3.191740 0.000000 0.000000 
#    y 0.000000 3.126910 0.000000 
#    z 0.000000 0.000000 3.580540 
# 
# 
# High freq. dielectric constant tensor:
#      x y z
#    x 1.692850 0.000000 0.000000 
#    y 0.000000 1.706580 0.000000 
#    z 0.000000 0.000000 1.748040 
# 
# From -- ./inp_files/2072.got.cif
#   From: 2010.03.12/outbox.cif.g09.slc.cpg/sg46_2_cif.got.tgz:2072.got - 2010.04.14 02:56:35.
