data_PCOD8191980
_publ_section_title
;
Structure prediction by ZEFSAII (Michael W. Deem and Ramdas Pophale) SiO2 
 PCOD8191980
Probable space group: I M A 2
;
_chemical_formula_sum "Si O2"
_cell_formula_units_Z 64
_cell_length_a 9.048580
_cell_length_b 18.097277
_cell_length_c 20.603629
_cell_angle_alpha 90.000000
_cell_angle_beta 90.000000
_cell_angle_gamma 90.000000
_cell_volume 3373.940235
_symmetry_space_group_name_H-M "I M A 2"
_symmetry_group_IT_number 46
_symmetry_cell_setting 'orthorhombic'
loop_
_space_group_symop_operation_xyz
x,y,z
-x,-y,z
1/2-x,y,z
1/2+x,-y,z
1/2+x,1/2+y,1/2+z
1/2-x,1/2-y,1/2+z
-x,1/2+y,1/2+z
x,1/2-y,1/2+z
loop_
_atom_site_type_symbol
_atom_site_label
_atom_site_fract_x
_atom_site_fract_y
_atom_site_fract_z
Si Si1 0.416687 0.680976 0.579780
Si Si2 0.077832 0.843108 0.717252
Si Si3 0.077327 0.351583 0.951644
Si Si4 0.423663 0.190109 0.209382
Si Si5 0.413165 0.643274 0.076579
Si Si6 0.423363 0.075540 0.321175
Si Si7 0.423210 0.922796 0.848514
Si Si8 0.924808 0.819740 0.951236
O O1 0.250000 0.648884 0.578292
O O2 0.497607 0.656654 0.645770
O O3 0.414605 0.768675 0.576969
O O4 0.508411 0.649333 0.518683
O O5 0.250000 0.819239 0.713613
O O6 0.031425 0.881343 0.648422
O O7 0.048582 0.902046 0.773593
O O8 0.981793 0.770417 0.729992
O O9 0.250000 0.360808 0.955746
O O10 0.013525 0.396461 0.890407
O O11 0.034132 0.266126 0.943150
O O12 0.014681 0.386433 0.018387
O O13 0.250000 0.195676 0.195652
O O14 0.462981 0.136381 0.268082
O O15 0.250000 0.612228 0.063007
O O16 0.250000 0.062043 0.325194
O O17 0.500000 0.000000 0.300783
O O18 0.250000 0.928015 0.864554
O O19 0.497701 0.860488 0.892038
O O20 0.500000 0.000000 0.863918
O O21 0.750000 0.833738 0.950120
#
# Coordination Sequence:
#
# PCOD8191980 Si02
#       8
#     8   8   8   8   8   8   8   8
#     4   9  17  31  52  80 110 136 168 212 261 313
#     4   9  19  35  55  79 106 137 175 216 261 316
#     4   9  18  33  53  78 105 133 169 213 258 306
#     4  10  19  33  55  81 106 134 173 220 267 313
#     4   8  15  29  50  77 105 131 164 209 256 304
#     4  10  22  37  51  72 104 139 175 214 256 305
#     4  11  23  38  54  75 106 142 179 219 264 315
#     4  10  19  34  57  82 107 136 172 215 263 314
#
# _framework density 18.968919
#
# number of rings (size 3 to 8) (size 9 to 14) (size 15 to 20)
#    0.000    2.500    0.000    3.000    0.000    7.000 
#    0.000    1.250    0.000    4.500    0.000    0.000 
#    0.000    0.000    0.000    0.000    0.000    0.000 
#
# Total GULP energy -396773.089351 kJ/mol
# GULP energy per Si atom -12399.159042 kJ/mol
# Density = 1.892574 g / cm^3
# Si number density = 18.968919 Si / 1000 Ang^3
#
#
#
# Elastic Constant Matrix: (Units=GPa)
#
#
# Indices 1 2 3 4 5 6 
#
# 1 74.6172 20.1922 33.9943 0.0000 0.0000 0.0000
# 2 20.1922 29.7732 5.2931 0.0000 0.0000 0.0000
# 3 33.9943 5.2931 100.6567 0.0000 0.0000 0.0000
# 4 0.0000 0.0000 0.0000 3.5888 0.0000 0.0000
# 5 0.0000 0.0000 0.0000 0.0000 36.7377 0.0000
# 6 0.0000 0.0000 0.0000 0.0000 0.0000 22.1334
#
#
#
# Elastic Compliance Matrix: (Units=1/GPa)
#
#
# Indices 1 2 3 4 5 6 
#
# 1 0.019360 -0.012081 -0.005903 0.000000 0.000000 0.000000
# 2 -0.012081 0.041443 0.001901 0.000000 0.000000 0.000000
# 3 -0.005903 0.001901 0.011828 0.000000 0.000000 0.000000
# 4 0.000000 0.000000 0.000000 0.278647 0.000000 0.000000
# 5 0.000000 0.000000 0.000000 0.000000 0.027220 0.000000
# 6 0.000000 0.000000 0.000000 0.000000 0.000000 0.045181
#
#
# Mechanical properties :
#
#
# Convention : Reuss Voigt Hill
#
# Bulk Modulus (GPa) = 24.71281 36.00070 30.35676
# Shear Modulus (GPa) = 10.65340 22.19648 16.42494
#
# Velocity S-wave (km/s) = 2.37243 3.42446 2.94579
# Velocity P-wave (km/s) = 4.53441 5.88692 5.25437
#
# Compressibility (1/GPa) = 0.04046484
#
# Stress axis : x y z
#
# Youngs Moduli (GPa) = 51.65211 24.12981 84.54178
#
# Poissons Ratio (x) = 0.29150 0.49907
# Poissons Ratio (y) = 0.62399 -0.16069
# Poissons Ratio (z) = 0.30491 -0.04586
#
# Static dielectric constant tensor:
#      x y z
#    x 3.540490 0.000000 0.000000 
#    y 0.000000 3.083110 0.000000 
#    z 0.000000 0.000000 3.912800 
# 
# 
# High freq. dielectric constant tensor:
#      x y z
#    x 1.741030 0.000000 0.000000 
#    y 0.000000 1.697660 0.000000 
#    z 0.000000 0.000000 1.757880 
# 
# From -- ./inp_files/21347.got.cif
#   From: 2010.03.12/outbox.cif.g09.slc.cpg/sg46_11_cif.got.tgz:21347.got - 2010.04.14 02:56:35.
