data_PCOD8191819
_publ_section_title
;
Structure prediction by ZEFSAII (Michael W. Deem and Ramdas Pophale) SiO2 
 PCOD8191819
Probable space group: I M A 2
;
_chemical_formula_sum "Si O2"
_cell_formula_units_Z 48
_cell_length_a 8.724619
_cell_length_b 23.728580
_cell_length_c 13.512166
_cell_angle_alpha 90.000000
_cell_angle_beta 90.000000
_cell_angle_gamma 90.000000
_cell_volume 2797.326708
_symmetry_space_group_name_H-M "I M A 2"
_symmetry_group_IT_number 46
_symmetry_cell_setting 'orthorhombic'
loop_
_space_group_symop_operation_xyz
x,y,z
-x,-y,z
1/2-x,y,z
1/2+x,-y,z
1/2+x,1/2+y,1/2+z
1/2-x,1/2-y,1/2+z
-x,1/2+y,1/2+z
x,1/2-y,1/2+z
loop_
_atom_site_type_symbol
_atom_site_label
_atom_site_fract_x
_atom_site_fract_y
_atom_site_fract_z
Si Si1 0.430405 0.058562 0.782600
Si Si2 0.072143 0.768953 0.072098
Si Si3 0.069291 0.559207 0.071635
Si Si4 0.572241 0.667416 0.402470
Si Si5 0.425746 0.273826 0.775528
Si Si6 0.927663 0.662934 0.973361
O O1 0.250000 0.052255 0.766213
O O2 0.504587 0.076266 0.678772
O O3 0.469875 0.105488 0.863982
O O4 0.500000 0.000000 0.821829
O O5 0.250000 0.755244 0.061281
O O6 0.034248 0.787835 0.183467
O O7 0.027529 0.820316 0.999722
O O8 0.977461 0.713028 0.046171
O O9 0.250000 0.553309 0.078465
O O10 0.000000 0.500000 0.035434
O O11 0.024295 0.606876 0.993188
O O12 0.750000 0.673086 0.431819
O O13 0.532723 0.712025 0.316650
O O14 0.250000 0.276266 0.740745
O O15 0.458315 0.319956 0.860079
O O16 0.750000 0.650753 0.993688
#
# Coordination Sequence:
#
# PCOD8191819 Si02
#       6
#     8   8   8   8   8   8
#     4  10  19  32  51  74 101 133 167 203 245 291
#     4  11  21  31  49  76 103 129 160 203 248 293
#     4  11  21  33  51  75 103 132 163 201 244 291
#     4   9  19  34  51  70  96 133 168 199 240 292
#     4   9  18  33  52  71  96 131 166 200 241 292
#     4  10  20  35  53  72  98 132 167 202 243 291
#
# _framework density 17.15924
#
# number of rings (size 3 to 8) (size 9 to 14) (size 15 to 20)
#    0.000    2.000    0.000    7.000    0.000    6.000 
#    0.000    0.000    0.000    1.000    0.000    4.667 
#    0.000    0.000    0.000    0.000    0.000    0.000 
#
# Total GULP energy -297693.360003 kJ/mol
# GULP energy per Si atom -12403.890000 kJ/mol
# Density = 1.712018 g / cm^3
# Si number density = 17.159240 Si / 1000 Ang^3
#
#
#
# Elastic Constant Matrix: (Units=GPa)
#
#
# Indices 1 2 3 4 5 6 
#
# 1 98.3041 45.0829 44.5204 -0.0001 0.0000 0.0000
# 2 45.0829 110.0765 51.3645 -0.0002 0.0001 0.0000
# 3 44.5204 51.3645 95.6602 -0.0007 0.0002 0.0001
# 4 -0.0001 -0.0002 -0.0007 22.0262 0.0001 0.0000
# 5 0.0000 0.0001 0.0002 0.0001 24.9480 -0.0001
# 6 0.0000 0.0000 0.0001 0.0000 -0.0001 30.1894
#
#
#
# Elastic Compliance Matrix: (Units=1/GPa)
#
#
# Indices 1 2 3 4 5 6 
#
# 1 0.013860 -0.003558 -0.004540 0.000000 0.000000 0.000000
# 2 -0.003558 0.013035 -0.005343 0.000000 0.000000 0.000000
# 3 -0.004540 -0.005343 0.015436 0.000000 0.000000 0.000000
# 4 0.000000 0.000000 0.000000 0.045401 0.000000 0.000000
# 5 0.000000 0.000000 0.000000 0.000000 0.040083 0.000000
# 6 0.000000 0.000000 0.000000 0.000000 0.000000 0.033124
#
#
# Mechanical properties :
#
#
# Convention : Reuss Voigt Hill
#
# Bulk Modulus (GPa) = 64.73213 65.10849 64.92031
# Shear Modulus (GPa) = 25.91050 26.30423 26.10737
#
# Velocity S-wave (km/s) = 3.89009 3.91954 3.90484
# Velocity P-wave (km/s) = 7.61468 7.64917 7.63194
#
# Compressibility (1/GPa) = 0.01544828
#
# Stress axis : x y z
#
# Youngs Moduli (GPa) = 72.14766 76.71565 64.78493
#
# Poissons Ratio (x) = 0.27296 0.29413
# Poissons Ratio (y) = 0.25671 0.34616
# Poissons Ratio (z) = 0.32756 0.40991
#
# Static dielectric constant tensor:
#      x y z
#    x 3.231440 0.000000 0.000000 
#    y 0.000000 3.192020 0.000000 
#    z 0.000000 0.000000 3.063620 
# 
# 
# High freq. dielectric constant tensor:
#      x y z
#    x 1.672940 0.000000 0.000000 
#    y 0.000000 1.654080 0.000000 
#    z 0.000000 0.000000 1.648730 
# 
# From -- ./inp_files/9286.got.cif
#   From: 2010.03.12/outbox.cif.g09.slc.cpg/sg46_5_cif.got.tgz:9286.got - 2010.04.14 02:56:35.
