data_PCOD8191234
_publ_section_title
;
Structure prediction by ZEFSAII (Michael W. Deem and Ramdas Pophale) SiO2 
 PCOD8191234
Probable space group: I M A 2
;
_chemical_formula_sum "Si O2"
_cell_formula_units_Z 64
_cell_length_a 17.967875
_cell_length_b 19.514753
_cell_length_c 9.373796
_cell_angle_alpha 90.000000
_cell_angle_beta 90.000000
_cell_angle_gamma 90.000000
_cell_volume 3286.815105
_symmetry_space_group_name_H-M "I M A 2"
_symmetry_group_IT_number 46
_symmetry_cell_setting 'orthorhombic'
loop_
_space_group_symop_operation_xyz
x,y,z
-x,-y,z
1/2-x,y,z
1/2+x,-y,z
1/2+x,1/2+y,1/2+z
1/2-x,1/2-y,1/2+z
-x,1/2+y,1/2+z
x,1/2-y,1/2+z
loop_
_atom_site_type_symbol
_atom_site_label
_atom_site_fract_x
_atom_site_fract_y
_atom_site_fract_z
Si Si1 0.163723 0.165163 0.962720
Si Si2 0.662151 0.172898 0.608532
Si Si3 0.928570 0.539187 0.535947
Si Si4 0.335296 0.295896 0.785999
Si Si5 0.337696 0.585589 0.625825
Si Si6 0.161346 0.796394 0.920456
Si Si7 0.933917 0.919477 0.351324
Si Si8 0.096337 0.567565 0.922037
O O1 0.250000 0.141471 0.946867
O O2 0.142114 0.220561 0.842058
O O3 0.107338 0.100695 0.942152
O O4 0.151441 0.200025 0.117015
O O5 0.750000 0.175032 0.621094
O O6 0.628065 0.193702 0.761987
O O7 0.632530 0.225424 0.488215
O O8 0.636701 0.096890 0.562706
O O9 0.861091 0.487698 0.564707
O O10 0.957280 0.568592 0.686733
O O11 0.000000 0.500000 0.463795
O O12 0.250000 0.310845 0.825834
O O13 0.382804 0.353050 0.869655
O O14 0.250000 0.587993 0.636649
O O15 0.369305 0.642714 0.518953
O O16 0.369171 0.602308 0.781603
O O17 0.250000 0.797464 0.917011
O O18 0.010193 0.911176 0.437275
O O19 0.890777 0.985716 0.414191
#
# Coordination Sequence:
#
# PCOD8191234 Si02
#       8
#     8   8   8   8   8   8   8   8
#     4   9  18  33  56  83 107 139 181 227 273 325
#     4  10  19  33  52  75 104 140 178 221 266 315
#     4  10  17  33  54  78 110 142 173 223 269 327
#     4   9  18  34  56  79 106 137 181 227 271 326
#     4  10  18  31  55  81 103 137 180 221 267 323
#     4   9  19  34  51  75 106 134 173 224 264 309
#     4   9  18  34  52  76 109 143 174 221 275 320
#     4  10  18  32  53  75 107 138 179 223 267 325
#
# _framework density 19.471737999999998
#
# number of rings (size 3 to 8) (size 9 to 14) (size 15 to 20)
#    0.000    2.500    2.500    1.500    0.000    5.500 
#    2.250    2.500    2.750    4.500    0.000    0.000 
#    0.000    0.000    0.000    0.000    0.000    0.000 
#
# Total GULP energy -396711.464082 kJ/mol
# GULP energy per Si atom -12397.233253 kJ/mol
# Density = 1.942742 g / cm^3
# Si number density = 19.471738 Si / 1000 Ang^3
#
#
#
# Elastic Constant Matrix: (Units=GPa)
#
#
# Indices 1 2 3 4 5 6 
#
# 1 58.8671 48.2432 26.1780 0.0000 0.0000 0.0000
# 2 48.2432 101.3405 35.6147 0.0000 0.0000 0.0000
# 3 26.1780 35.6147 76.0123 0.0000 0.0000 0.0000
# 4 0.0000 0.0000 0.0000 23.6836 0.0000 0.0000
# 5 0.0000 0.0000 0.0000 0.0000 12.9280 0.0000
# 6 0.0000 0.0000 0.0000 0.0000 0.0000 33.6406
#
#
#
# Elastic Compliance Matrix: (Units=1/GPa)
#
#
# Indices 1 2 3 4 5 6 
#
# 1 0.028934 -0.012297 -0.004203 0.000000 0.000000 0.000000
# 2 -0.012297 0.017039 -0.003748 0.000000 0.000000 0.000000
# 3 -0.004203 -0.003748 0.016360 0.000000 0.000000 0.000000
# 4 0.000000 0.000000 0.000000 0.042223 0.000000 0.000000
# 5 0.000000 0.000000 0.000000 0.000000 0.077352 0.000000
# 6 0.000000 0.000000 0.000000 0.000000 0.000000 0.029726
#
#
# Mechanical properties :
#
#
# Convention : Reuss Voigt Hill
#
# Bulk Modulus (GPa) = 45.79651 50.69909 48.24780
# Shear Modulus (GPa) = 19.27453 22.46270 20.86862
#
# Velocity S-wave (km/s) = 3.14964 3.40016 3.27729
# Velocity P-wave (km/s) = 6.06609 6.44272 6.25724
#
# Compressibility (1/GPa) = 0.02183573
#
# Stress axis : x y z
#
# Youngs Moduli (GPa) = 34.56111 58.68854 61.12634
#
# Poissons Ratio (x) = 0.72170 0.25692
# Poissons Ratio (y) = 0.42500 0.22913
# Poissons Ratio (z) = 0.14526 0.21999
#
# Static dielectric constant tensor:
#      x y z
#    x 3.378090 0.000000 0.000000 
#    y 0.000000 3.672940 0.000000 
#    z 0.000000 0.000000 3.409900 
# 
# 
# High freq. dielectric constant tensor:
#      x y z
#    x 1.743380 0.000000 0.000000 
#    y 0.000000 1.762560 0.000000 
#    z 0.000000 0.000000 1.730740 
# 
# From -- ./inp_files/6943.got.cif
#   From: 2010.03.12/outbox.cif.g09.slc.cpg/sg46_4_cif.got.tgz:6943.got - 2010.04.14 02:56:35.
