data_PCOD8191127
_publ_section_title
;
Structure prediction by ZEFSAII (Michael W. Deem and Ramdas Pophale) SiO2 
 PCOD8191127
Probable space group: I B A 2
;
_chemical_formula_sum "Si O2"
_cell_formula_units_Z 64
_cell_length_a 13.414674
_cell_length_b 17.213327
_cell_length_c 11.721235
_cell_angle_alpha 90.000000
_cell_angle_beta 90.000000
_cell_angle_gamma 90.000000
_cell_volume 2706.564090
_symmetry_space_group_name_H-M "I B A 2"
_symmetry_group_IT_number 45
_symmetry_cell_setting 'orthorhombic'
loop_
_space_group_symop_operation_xyz
x,y,z
-x,-y,z
-x,y,1/2+z
x,-y,1/2+z
1/2+x,1/2+y,1/2+z
1/2-x,1/2-y,1/2+z
1/2-x,1/2+y,z
1/2+x,1/2-y,z
loop_
_atom_site_type_symbol
_atom_site_label
_atom_site_fract_x
_atom_site_fract_y
_atom_site_fract_z
Si Si1 0.329704 0.365139 0.857030
Si Si2 0.548265 0.081053 0.202791
Si Si3 0.340083 0.889160 0.421209
Si Si4 0.722319 0.957613 0.542979
Si Si5 0.102922 0.039382 0.143381
Si Si6 0.697752 0.280430 0.815141
Si Si7 0.419458 0.783221 0.613581
Si Si8 0.034264 0.167482 0.980086
O O1 0.344892 0.408396 0.738280
O O2 0.284226 0.280666 0.841302
O O3 0.435811 0.361368 0.917067
O O4 0.246873 0.410961 0.928966
O O5 0.572913 0.082976 0.336872
O O6 0.642846 0.090584 0.118344
O O7 0.466911 0.147819 0.186230
O O8 0.500000 0.000000 0.170454
O O9 0.248660 0.864438 0.337680
O O10 0.370837 0.814806 0.497221
O O11 0.316551 0.957473 0.508696
O O12 0.823156 0.968435 0.615840
O O13 0.089647 0.091628 0.029570
O O14 0.000000 0.000000 0.185535
O O15 0.663284 0.264200 0.685709
O O16 0.601463 0.279822 0.896851
O O17 0.506316 0.722131 0.586143
#
# Coordination Sequence:
#
# PCOD8191127 Si02
#       8
#     8   8   8   8   8   8   8   8
#     4  12  28  45  76 110 147 203 250 317 388 456
#     4  12  29  47  77 113 154 204 252 319 387 466
#     4  12  27  47  77 111 153 204 258 316 390 463
#     4  12  26  50  74 110 151 201 255 319 386 460
#     4  12  27  47  76 111 151 198 259 319 388 461
#     4  12  28  49  77 110 154 197 255 317 385 460
#     4  12  27  49  74 110 152 203 254 317 385 466
#     4  12  26  48  75 109 148 197 254 321 382 456
#
# _framework density 23.646217
#
# number of rings (size 3 to 8) (size 9 to 14) (size 15 to 20)
#    0.000    0.000    5.000    3.750    8.750    2.000 
#    0.000    0.000    0.000    0.000    0.000    0.000 
#    0.000    0.000    0.000    0.000    0.000    0.000 
#
# Total GULP energy -396933.531032 kJ/mol
# GULP energy per Si atom -12404.172845 kJ/mol
# Density = 2.359240 g / cm^3
# Si number density = 23.646217 Si / 1000 Ang^3
#
#
#
# Elastic Constant Matrix: (Units=GPa)
#
#
# Indices 1 2 3 4 5 6 
#
# 1 75.1914 -5.2027 35.3169 0.0000 0.0000 0.0000
# 2 -5.2027 35.1928 9.1602 0.0000 0.0000 0.0000
# 3 35.3169 9.1602 99.5968 0.0000 0.0000 0.0000
# 4 0.0000 0.0000 0.0000 36.6463 0.0000 0.0000
# 5 0.0000 0.0000 0.0000 0.0000 44.0286 0.0000
# 6 0.0000 0.0000 0.0000 0.0000 0.0000 40.4255
#
#
#
# Elastic Compliance Matrix: (Units=1/GPa)
#
#
# Indices 1 2 3 4 5 6 
#
# 1 0.016505 0.004061 -0.006226 0.000000 0.000000 0.000000
# 2 0.004061 0.030111 -0.004209 0.000000 0.000000 0.000000
# 3 -0.006226 -0.004209 0.012635 0.000000 0.000000 0.000000
# 4 0.000000 0.000000 0.000000 0.027288 0.000000 0.000000
# 5 0.000000 0.000000 0.000000 0.000000 0.022713 0.000000
# 6 0.000000 0.000000 0.000000 0.000000 0.000000 0.024737
#
#
# Mechanical properties :
#
#
# Convention : Reuss Voigt Hill
#
# Bulk Modulus (GPa) = 21.50475 32.05887 26.78181
# Shear Modulus (GPa) = 30.81894 35.60053 33.20974
#
# Velocity S-wave (km/s) = 3.61409 3.88435 3.75165
# Velocity P-wave (km/s) = 5.15069 5.80558 5.48791
#
# Compressibility (1/GPa) = 0.04650135
#
# Stress axis : x y z
#
# Youngs Moduli (GPa) = 60.58901 33.21069 79.14306
#
# Poissons Ratio (x) = -0.13485 0.49274
# Poissons Ratio (y) = -0.24602 0.33313
# Poissons Ratio (z) = 0.37723 0.13979
#
# Static dielectric constant tensor:
#      x y z
#    x 4.353580 0.000000 0.000000 
#    y 0.000000 4.379130 0.000000 
#    z 0.000000 0.000000 4.249340 
# 
# 
# High freq. dielectric constant tensor:
#      x y z
#    x 1.947480 0.000000 0.000000 
#    y 0.000000 1.942750 0.000000 
#    z 0.000000 0.000000 1.942520 
# 
# From -- ./inp_files/4264.got.cif
#   From: 2010.03.12/outbox.cif.g09.slc.cpg/sg45_3_cif.got.tgz:4264.got - 2010.04.14 02:50:11.
