data_PCOD8191964
_publ_section_title
;
Structure prediction by ZEFSAII (Michael W. Deem and Ramdas Pophale) SiO2 
 PCOD8191964
Probable space group: I M A 2
;
_chemical_formula_sum "Si O2"
_cell_formula_units_Z 56
_cell_length_a 8.733543
_cell_length_b 14.263229
_cell_length_c 22.746448
_cell_angle_alpha 90.000000
_cell_angle_beta 90.000000
_cell_angle_gamma 90.000000
_cell_volume 2833.491449
_symmetry_space_group_name_H-M "I M A 2"
_symmetry_group_IT_number 46
_symmetry_cell_setting 'orthorhombic'
loop_
_space_group_symop_operation_xyz
x,y,z
-x,-y,z
1/2-x,y,z
1/2+x,-y,z
1/2+x,1/2+y,1/2+z
1/2-x,1/2-y,1/2+z
-x,1/2+y,1/2+z
x,1/2-y,1/2+z
loop_
_atom_site_type_symbol
_atom_site_label
_atom_site_fract_x
_atom_site_fract_y
_atom_site_fract_z
Si Si1 0.067456 0.592040 0.490060
Si Si2 0.573762 0.353740 0.071361
Si Si3 0.572094 0.591808 0.184929
Si Si4 0.569913 0.102470 0.333551
Si Si5 0.926615 0.835599 0.098254
Si Si6 0.425626 0.204393 0.226403
Si Si7 0.930884 0.205679 0.448051
O O1 0.250000 0.587651 0.495298
O O2 0.009992 0.687114 0.457176
O O3 0.000000 0.500000 0.456168
O O4 0.984861 0.583741 0.554474
O O5 0.750000 0.381166 0.081669
O O6 0.469967 0.414157 0.115464
O O7 0.548460 0.245578 0.085886
O O8 0.524724 0.363347 0.002627
O O9 0.500000 0.500000 0.216549
O O10 0.750000 0.584524 0.192267
O O11 0.514929 0.689275 0.213577
O O12 0.750000 0.091437 0.339734
O O13 0.532941 0.160226 0.275253
O O14 0.500257 0.159935 0.388998
O O15 0.500000 0.000000 0.330441
O O16 0.750000 0.806003 0.084995
O O17 0.939742 0.859707 0.167606
O O18 0.250000 0.205940 0.248236
O O19 0.750000 0.212158 0.443577
#
# Coordination Sequence:
#
# PCOD8191964 Si02
#       7
#     8   8   8   8   8   8   8
#     4  10  19  33  54  81 112 143 178 217 265 324
#     4   9  16  30  52  77 108 141 175 215 262 312
#     4  10  20  34  54  82 115 146 180 220 266 323
#     4  11  23  40  60  79 102 136 180 226 272 321
#     4   9  17  31  51  76 107 140 176 216 260 311
#     4   9  20  38  56  78 109 142 180 226 269 315
#     4   8  18  36  55  77 107 142 178 220 266 316
#
# _framework density 19.763603
#
# number of rings (size 3 to 8) (size 9 to 14) (size 15 to 20)
#    0.000    2.571    0.000    3.857    0.000    4.571 
#    0.000   10.714    0.000    3.429    0.000    0.000 
#    0.000    0.000    0.000    0.000    0.000    0.000 
#
# Total GULP energy -346899.150174 kJ/mol
# GULP energy per Si atom -12389.255363 kJ/mol
# Density = 1.971862 g / cm^3
# Si number density = 19.763603 Si / 1000 Ang^3
#
#
#
# Elastic Constant Matrix: (Units=GPa)
#
#
# Indices 1 2 3 4 5 6 
#
# 1 58.6129 31.6726 33.8526 0.0000 0.0000 0.0000
# 2 31.6726 125.3124 52.3260 0.0000 0.0000 0.0000
# 3 33.8526 52.3260 110.2054 0.0000 0.0000 0.0000
# 4 0.0000 0.0000 0.0000 19.6873 0.0000 0.0000
# 5 0.0000 0.0000 0.0000 0.0000 20.6973 0.0000
# 6 0.0000 0.0000 0.0000 0.0000 0.0000 31.8083
#
#
#
# Elastic Compliance Matrix: (Units=1/GPa)
#
#
# Indices 1 2 3 4 5 6 
#
# 1 0.021838 -0.003391 -0.005098 0.000000 0.000000 0.000000
# 2 -0.003391 0.010480 -0.003934 0.000000 0.000000 0.000000
# 3 -0.005098 -0.003934 0.012508 0.000000 0.000000 0.000000
# 4 0.000000 0.000000 0.000000 0.050794 0.000000 0.000000
# 5 0.000000 0.000000 0.000000 0.000000 0.048315 0.000000
# 6 0.000000 0.000000 0.000000 0.000000 0.000000 0.031438
#
#
# Mechanical properties :
#
#
# Convention : Reuss Voigt Hill
#
# Bulk Modulus (GPa) = 50.05168 58.87035 54.46102
# Shear Modulus (GPa) = 24.16860 26.19054 25.17957
#
# Velocity S-wave (km/s) = 3.50077 3.64427 3.57324
# Velocity P-wave (km/s) = 6.45915 6.89634 6.68132
#
# Compressibility (1/GPa) = 0.01997935
#
# Stress axis : x y z
#
# Youngs Moduli (GPa) = 45.79212 95.42080 79.94837
#
# Poissons Ratio (x) = 0.32354 0.40759
# Poissons Ratio (y) = 0.15527 0.31455
# Poissons Ratio (z) = 0.23346 0.37542
#
# Static dielectric constant tensor:
#      x y z
#    x 3.426910 0.000000 0.000000 
#    y 0.000000 3.838750 0.000000 
#    z 0.000000 0.000000 3.732260 
# 
# 
# High freq. dielectric constant tensor:
#      x y z
#    x 1.762390 0.000000 0.000000 
#    y 0.000000 1.770700 0.000000 
#    z 0.000000 0.000000 1.749740 
# 
# From -- ./inp_files/21111.got.cif
#   From: 2010.03.12/outbox.cif.g09.slc.cpg/sg46_11_cif.got.tgz:21111.got - 2010.04.14 02:56:35.
