data_PCOD8191289
_publ_section_title
;
Structure prediction by ZEFSAII (Michael W. Deem and Ramdas Pophale) SiO2 
 PCOD8191289
Probable space group: I M A 2
;
_chemical_formula_sum "Si O2"
_cell_formula_units_Z 64
_cell_length_a 8.725878
_cell_length_b 18.459685
_cell_length_c 26.596251
_cell_angle_alpha 90.000000
_cell_angle_beta 90.000000
_cell_angle_gamma 90.000000
_cell_volume 4284.043238
_symmetry_space_group_name_H-M "I M A 2"
_symmetry_group_IT_number 46
_symmetry_cell_setting 'orthorhombic'
loop_
_space_group_symop_operation_xyz
x,y,z
-x,-y,z
1/2-x,y,z
1/2+x,-y,z
1/2+x,1/2+y,1/2+z
1/2-x,1/2-y,1/2+z
-x,1/2+y,1/2+z
x,1/2-y,1/2+z
loop_
_atom_site_type_symbol
_atom_site_label
_atom_site_fract_x
_atom_site_fract_y
_atom_site_fract_z
Si Si1 0.430771 0.078383 0.794480
Si Si2 0.574600 0.575371 0.777220
Si Si3 0.931781 0.168255 0.886188
Si Si4 0.930625 0.424068 0.591454
Si Si5 0.569796 0.338187 0.686378
Si Si6 0.427539 0.799820 0.740215
Si Si7 0.572910 0.716699 0.829260
Si Si8 0.930251 0.075752 0.979308
O O1 0.250000 0.073235 0.801786
O O2 0.506641 0.113635 0.843669
O O3 0.471583 0.127046 0.744938
O O4 0.500000 0.000000 0.785208
O O5 0.500000 0.500000 0.792714
O O6 0.750000 0.560086 0.765874
O O7 0.508053 0.609333 0.726582
O O8 0.553678 0.629933 0.824994
O O9 0.750000 0.175591 0.881089
O O10 0.980813 0.138116 0.940673
O O11 0.013938 0.247601 0.881514
O O12 0.750000 0.433001 0.591797
O O13 0.982663 0.361791 0.630510
O O14 0.989006 0.403403 0.535387
O O15 0.000000 0.500000 0.609391
O O16 0.750000 0.347566 0.694297
O O17 0.524857 0.253004 0.693670
O O18 0.250000 0.822101 0.737443
O O19 0.458444 0.751783 0.789195
O O20 0.750000 0.738751 0.818967
O O21 0.750000 0.065655 0.978703
O O22 0.000000 0.000000 0.961220
#
# Coordination Sequence:
#
# PCOD8191289 Si02
#       8
#     8   8   8   8   8   8   8   8
#     4  11  20  29  41  58  80 106 133 164 197 234
#     4  10  19  28  40  58  81 106 134 164 196 233
#     4  10  18  28  42  59  78 105 136 166 198 234
#     4   9  17  29  41  57  80 106 135 167 197 227
#     4   9  17  28  43  59  79 107 136 164 196 231
#     4   9  16  27  41  58  78 102 131 162 195 233
#     4   9  17  28  40  56  77 103 131 162 197 234
#     4   9  18  29  41  57  79 105 135 167 198 228
#
# _framework density 14.939159
#
# number of rings (size 3 to 8) (size 9 to 14) (size 15 to 20)
#    0.000    2.500    0.000    4.875    0.000    5.500 
#    0.000    0.000    0.000    0.000    0.000    0.000 
#    0.000    1.000    0.000    4.250    0.000    2.750 
#
# Total GULP energy -396523.785641 kJ/mol
# GULP energy per Si atom -12391.368301 kJ/mol
# Density = 1.490516 g / cm^3
# Si number density = 14.939159 Si / 1000 Ang^3
#
#
#
# Elastic Constant Matrix: (Units=GPa)
#
#
# Indices 1 2 3 4 5 6 
#
# 1 49.8328 37.8209 27.2660 0.0000 0.0000 0.0000
# 2 37.8209 110.6342 55.4011 0.0000 0.0000 0.0000
# 3 27.2660 55.4011 80.8390 0.0000 0.0000 0.0000
# 4 0.0000 0.0000 0.0000 25.8578 0.0000 0.0000
# 5 0.0000 0.0000 0.0000 0.0000 14.3729 0.0000
# 6 0.0000 0.0000 0.0000 0.0000 0.0000 24.9406
#
#
#
# Elastic Compliance Matrix: (Units=1/GPa)
#
#
# Indices 1 2 3 4 5 6 
#
# 1 0.028092 -0.007397 -0.004405 0.000000 0.000000 0.000000
# 2 -0.007397 0.015709 -0.008271 0.000000 0.000000 0.000000
# 3 -0.004405 -0.008271 0.019525 0.000000 0.000000 0.000000
# 4 0.000000 0.000000 0.000000 0.038673 0.000000 0.000000
# 5 0.000000 0.000000 0.000000 0.000000 0.069575 0.000000
# 6 0.000000 0.000000 0.000000 0.000000 0.000000 0.040095
#
#
# Mechanical properties :
#
#
# Convention : Reuss Voigt Hill
#
# Bulk Modulus (GPa) = 43.14409 53.58689 48.36549
# Shear Modulus (GPa) = 19.26462 21.08878 20.17670
#
# Velocity S-wave (km/s) = 3.59491 3.76126 3.67903
# Velocity P-wave (km/s) = 6.79513 7.40343 7.10579
#
# Compressibility (1/GPa) = 0.02317815
#
# Stress axis : x y z
#
# Youngs Moduli (GPa) = 35.59766 63.65613 51.21757
#
# Poissons Ratio (x) = 0.47088 0.22564
# Poissons Ratio (y) = 0.26332 0.42362
# Poissons Ratio (z) = 0.15682 0.52650
#
# Static dielectric constant tensor:
#      x y z
#    x 2.961400 0.000000 0.000000 
#    y 0.000000 3.191540 0.000000 
#    z 0.000000 0.000000 3.039620 
# 
# 
# High freq. dielectric constant tensor:
#      x y z
#    x 1.584730 0.000000 0.000000 
#    y 0.000000 1.564060 0.000000 
#    z 0.000000 0.000000 1.536320 
# 
# From -- ./inp_files/24412.got.cif
#   From: 2010.03.12/outbox.cif.g09.slc.cpg/sg46_13_cif.got.tgz:24412.got - 2010.04.14 02:56:35.
