data_PCOD8191955
_publ_section_title
;
Structure prediction by ZEFSAII (Michael W. Deem and Ramdas Pophale) SiO2 
 PCOD8191955
Probable space group: I M A 2
;
_chemical_formula_sum "Si O2"
_cell_formula_units_Z 64
_cell_length_a 8.908063
_cell_length_b 18.542894
_cell_length_c 20.876004
_cell_angle_alpha 90.000000
_cell_angle_beta 90.000000
_cell_angle_gamma 90.000000
_cell_volume 3448.324811
_symmetry_space_group_name_H-M "I M A 2"
_symmetry_group_IT_number 46
_symmetry_cell_setting 'orthorhombic'
loop_
_space_group_symop_operation_xyz
x,y,z
-x,-y,z
1/2-x,y,z
1/2+x,-y,z
1/2+x,1/2+y,1/2+z
1/2-x,1/2-y,1/2+z
-x,1/2+y,1/2+z
x,1/2-y,1/2+z
loop_
_atom_site_type_symbol
_atom_site_label
_atom_site_fract_x
_atom_site_fract_y
_atom_site_fract_z
Si Si1 0.923721 0.166303 0.938240
Si Si2 0.574794 0.921971 0.328799
Si Si3 0.073285 0.421481 0.051689
Si Si4 0.575700 0.923043 0.186826
Si Si5 0.925564 0.334250 0.939590
Si Si6 0.577436 0.924926 0.690249
Si Si7 0.072485 0.921502 0.062818
Si Si8 0.073603 0.077949 0.828993
O O1 0.750000 0.151326 0.924624
O O2 0.960077 0.250091 0.943228
O O3 0.017142 0.135050 0.879809
O O4 0.975083 0.128557 0.003837
O O5 0.750000 0.930864 0.344941
O O6 0.552764 0.888262 0.257183
O O7 0.499379 0.865310 0.375740
O O8 0.500000 0.000000 0.336971
O O9 0.250000 0.428754 0.037707
O O10 0.042887 0.385076 0.122549
O O11 0.000000 0.500000 0.044949
O O12 0.998496 0.368428 0.001889
O O13 0.750000 0.930466 0.169813
O O14 0.492712 0.882864 0.127637
O O15 0.500000 0.000000 0.190880
O O16 0.750000 0.351409 0.938568
O O17 0.750000 0.943441 0.694211
O O18 0.530981 0.888495 0.758170
O O19 0.500000 0.000000 0.684764
O O20 0.250000 0.929410 0.068875
O O21 0.000000 0.000000 0.052675
O O22 0.250000 0.067847 0.837677
O O23 0.000000 0.000000 0.839885
#
# Coordination Sequence:
#
# PCOD8191955 Si02
#       8
#     8   8   8   8   8   8   8   8
#     4  10  23  39  52  72 104 141 179 217 257 304
#     4  10  20  35  56  81 106 134 170 211 257 309
#     4  10  19  34  56  80 106 135 170 211 257 308
#     4   9  17  30  51  79 106 130 163 208 255 304
#     4  11  23  38  53  72 103 140 178 218 258 303
#     4   8  16  30  50  78 106 131 163 207 255 303
#     4  10  19  33  54  78 104 133 169 211 255 305
#     4  10  19  33  56  82 107 136 172 213 257 306
#
# _framework density 18.559736999999998
#
# number of rings (size 3 to 8) (size 9 to 14) (size 15 to 20)
#    0.000    2.250    0.000    3.750    0.000    5.500 
#    0.000    1.250    0.000    6.000    0.000    0.000 
#    0.000    0.000    0.000    0.000    0.000    0.000 
#
# Total GULP energy -396503.897628 kJ/mol
# GULP energy per Si atom -12390.746801 kJ/mol
# Density = 1.851749 g / cm^3
# Si number density = 18.559737 Si / 1000 Ang^3
#
#
#
# Elastic Constant Matrix: (Units=GPa)
#
#
# Indices 1 2 3 4 5 6 
#
# 1 107.8008 51.5235 82.5900 0.0000 0.0000 0.0000
# 2 51.5235 75.4656 70.5742 0.0000 0.0000 0.0000
# 3 82.5900 70.5742 192.2962 0.0000 0.0000 0.0000
# 4 0.0000 0.0000 0.0000 -1.5927 0.0000 0.0000
# 5 0.0000 0.0000 0.0000 0.0000 29.8291 0.0000
# 6 0.0000 0.0000 0.0000 0.0000 0.0000 24.2343
#
#
#
# Elastic Compliance Matrix: (Units=1/GPa)
#
#
# Indices 1 2 3 4 5 6 
#
# 1 0.015810 -0.006766 -0.004307 0.000000 0.000000 0.000000
# 2 -0.006766 0.023072 -0.005561 0.000000 0.000000 0.000000
# 3 -0.004307 -0.005561 0.009091 0.000000 0.000000 0.000000
# 4 0.000000 0.000000 0.000000 -0.627882 0.000000 0.000000
# 5 0.000000 0.000000 0.000000 0.000000 0.033524 0.000000
# 6 0.000000 0.000000 0.000000 0.000000 0.000000 0.041264
#
#
# Mechanical properties :
#
#
# Convention : Reuss Voigt Hill
#
# Bulk Modulus (GPa) = 68.01116 87.21533 77.61325
# Shear Modulus (GPa) = -10.70778 21.88581 5.58901
#
# Velocity S-wave (km/s) = -2.40456 3.43769 1.73721
# Velocity P-wave (km/s) = 5.38654 7.92784 6.77737
#
# Compressibility (1/GPa) = 0.01470347
#
# Stress axis : x y z
#
# Youngs Moduli (GPa) = 63.25054 43.34322 109.99619
#
# Poissons Ratio (x) = 0.29328 0.47376
# Poissons Ratio (y) = 0.42798 0.61173
# Poissons Ratio (z) = 0.27242 0.24105
#
# Static dielectric constant tensor:
#      x y z
#    x 3.552840 0.000000 0.000000 
#    y 0.000000 2.963990 0.000000 
#    z 0.000000 0.000000 4.362770 
# 
# 
# High freq. dielectric constant tensor:
#      x y z
#    x 1.735950 0.000000 0.000000 
#    y 0.000000 1.673160 0.000000 
#    z 0.000000 0.000000 1.752540 
# 
# From -- ./inp_files/21298.got.cif
#   From: 2010.03.12/outbox.cif.g09.slc.cpg/sg46_11_cif.got.tgz:21298.got - 2010.04.14 02:56:35.
