data_PCOD8191517
_publ_section_title
;
Structure prediction by ZEFSAII (Michael W. Deem and Ramdas Pophale) SiO2 
 PCOD8191517
Probable space group: I M A 2
;
_chemical_formula_sum "Si O2"
_cell_formula_units_Z 48
_cell_length_a 10.029371
_cell_length_b 8.690811
_cell_length_c 28.489971
_cell_angle_alpha 90.000000
_cell_angle_beta 90.000000
_cell_angle_gamma 90.000000
_cell_volume 2483.281821
_symmetry_space_group_name_H-M "I M A 2"
_symmetry_group_IT_number 46
_symmetry_cell_setting 'orthorhombic'
loop_
_space_group_symop_operation_xyz
x,y,z
-x,-y,z
1/2-x,y,z
1/2+x,-y,z
1/2+x,1/2+y,1/2+z
1/2-x,1/2-y,1/2+z
-x,1/2+y,1/2+z
x,1/2-y,1/2+z
loop_
_atom_site_type_symbol
_atom_site_label
_atom_site_fract_x
_atom_site_fract_y
_atom_site_fract_z
Si Si1 0.750000 0.679289 0.967790
Si Si2 0.250000 0.816728 0.471959
Si Si3 0.404829 0.355284 0.213017
Si Si4 0.594667 0.851757 0.609457
Si Si5 0.750000 0.312396 0.366929
Si Si6 0.006078 0.181119 0.021067
Si Si7 0.996543 0.682768 0.308513
Si Si8 0.750000 0.677787 0.368731
O O1 0.750000 0.498697 0.975664
O O2 0.750000 0.719700 0.914018
O O3 0.621356 0.754396 0.989309
O O4 0.250000 0.769394 0.417214
O O5 0.373597 0.752969 0.500452
O O6 0.500000 0.500000 0.207156
O O7 0.250000 0.400106 0.225472
O O8 0.409624 0.275766 0.161723
O O9 0.468039 0.251902 0.255520
O O10 0.750000 0.893402 0.596914
O O11 0.534422 0.724306 0.574936
O O12 0.500000 0.000000 0.604624
O O13 0.627983 0.257167 0.334347
O O14 0.750000 0.494444 0.377664
O O15 0.000000 0.000000 0.016472
O O16 0.877523 0.735079 0.341050
O O17 0.000000 0.500000 0.302738
#
# Coordination Sequence:
#
# PCOD8191517 Si02
#       8
#     4   4   8   8   4   8   8   4
#     4  12  24  42  63  88 119 159 206 251 307 368
#     4  12  26  42  63  88 123 161 204 253 305 368
#     4   9  17  30  52  85 121 156 196 245 296 350
#     4  10  21  38  61  91 125 161 203 252 306 363
#     4  10  20  34  53  82 117 155 196 247 293 348
#     4  12  25  42  63  89 121 160 202 252 308 368
#     4   9  17  29  50  82 115 152 193 241 291 341
#     4  10  18  32  55  80 113 149 198 243 293 350
#
# _framework density 19.329260000000001
#
# number of rings (size 3 to 8) (size 9 to 14) (size 15 to 20)
#    0.000    1.667    1.667    4.000    4.667    1.333 
#    0.000    0.000    0.000    2.000    0.000    0.000 
#    0.000    0.000    0.000    0.000    0.000    0.000 
#
# Total GULP energy -297376.816492 kJ/mol
# GULP energy per Si atom -12390.700687 kJ/mol
# Density = 1.928527 g / cm^3
# Si number density = 19.329260 Si / 1000 Ang^3
#
#
#
# Elastic Constant Matrix: (Units=GPa)
#
#
# Indices 1 2 3 4 5 6 
#
# 1 181.1998 48.4516 87.0965 0.0000 0.0000 0.0000
# 2 48.4516 101.2132 52.8575 0.0000 0.0000 0.0000
# 3 87.0965 52.8575 181.8143 0.0000 0.0000 0.0000
# 4 0.0000 0.0000 0.0000 26.1940 0.0000 0.0000
# 5 0.0000 0.0000 0.0000 0.0000 41.5755 0.0000
# 6 0.0000 0.0000 0.0000 0.0000 0.0000 17.2312
#
#
#
# Elastic Compliance Matrix: (Units=1/GPa)
#
#
# Indices 1 2 3 4 5 6 
#
# 1 0.007505 -0.002022 -0.003007 0.000000 0.000000 0.000000
# 2 -0.002022 0.012194 -0.002576 0.000000 0.000000 0.000000
# 3 -0.003007 -0.002576 0.007690 0.000000 0.000000 0.000000
# 4 0.000000 0.000000 0.000000 0.038177 0.000000 0.000000
# 5 0.000000 0.000000 0.000000 0.000000 0.024053 0.000000
# 6 0.000000 0.000000 0.000000 0.000000 0.000000 0.058034
#
#
# Mechanical properties :
#
#
# Convention : Reuss Voigt Hill
#
# Bulk Modulus (GPa) = 82.12311 93.44872 87.78591
# Shear Modulus (GPa) = 29.95404 35.38824 32.67114
#
# Velocity S-wave (km/s) = 3.94086 4.28344 4.11572
# Velocity P-wave (km/s) = 7.95524 8.53900 8.25228
#
# Compressibility (1/GPa) = 0.01217684
#
# Stress axis : x y z
#
# Youngs Moduli (GPa) = 133.24464 82.01039 130.04380
#
# Poissons Ratio (x) = 0.16584 0.39108
# Poissons Ratio (y) = 0.26944 0.33502
# Poissons Ratio (z) = 0.40071 0.21128
#
# Static dielectric constant tensor:
#      x y z
#    x 3.928600 0.000000 0.000000 
#    y 0.000000 3.121110 0.000000 
#    z 0.000000 0.000000 4.245190 
# 
# 
# High freq. dielectric constant tensor:
#      x y z
#    x 1.778200 0.000000 0.000000 
#    y 0.000000 1.695970 0.000000 
#    z 0.000000 0.000000 1.784700 
# 
# From -- ./inp_files/25084.got.cif
#   From: 2010.03.12/outbox.cif.g09.slc.cpg/sg46_13_cif.got.tgz:25084.got - 2010.04.14 02:56:35.
