data_PCOD8191233
_publ_section_title
;
Structure prediction by ZEFSAII (Michael W. Deem and Ramdas Pophale) SiO2 
 PCOD8191233
Probable space group: I M A 2
;
_chemical_formula_sum "Si O2"
_cell_formula_units_Z 64
_cell_length_a 16.837277
_cell_length_b 12.058368
_cell_length_c 15.592278
_cell_angle_alpha 90.000000
_cell_angle_beta 90.000000
_cell_angle_gamma 90.000000
_cell_volume 3165.701484
_symmetry_space_group_name_H-M "I M A 2"
_symmetry_group_IT_number 46
_symmetry_cell_setting 'orthorhombic'
loop_
_space_group_symop_operation_xyz
x,y,z
-x,-y,z
1/2-x,y,z
1/2+x,-y,z
1/2+x,1/2+y,1/2+z
1/2-x,1/2-y,1/2+z
-x,1/2+y,1/2+z
x,1/2-y,1/2+z
loop_
_atom_site_type_symbol
_atom_site_label
_atom_site_fract_x
_atom_site_fract_y
_atom_site_fract_z
Si Si1 0.656512 0.619901 0.077370
Si Si2 0.844459 0.020903 0.734758
Si Si3 0.844167 0.245679 0.172113
Si Si4 0.344228 0.983873 0.923284
Si Si5 0.155400 0.131993 0.077040
Si Si6 0.655625 0.011183 0.238842
Si Si7 0.655774 0.243125 0.477550
Si Si8 0.908038 0.484357 0.920597
O O1 0.750000 0.628201 0.089555
O O2 0.619269 0.556589 0.159966
O O3 0.620247 0.743677 0.074146
O O4 0.639615 0.554260 0.990737
O O5 0.750000 0.021085 0.727165
O O6 0.874696 0.147428 0.724314
O O7 0.871592 0.976729 0.828322
O O8 0.750000 0.236910 0.171285
O O9 0.877277 0.133286 0.214473
O O10 0.874151 0.258923 0.075122
O O11 0.250000 0.985274 0.931451
O O12 0.373508 0.858438 0.937142
O O13 0.380360 0.065459 0.995298
O O14 0.250000 0.132336 0.071226
O O15 0.128242 0.073458 0.164770
O O16 0.750000 0.010783 0.250413
O O17 0.615364 0.970705 0.326749
O O18 0.750000 0.227361 0.469761
O O19 0.614548 0.144643 0.425574
O O20 0.000000 0.500000 0.938318
#
# Coordination Sequence:
#
# PCOD8191233 Si02
#       8
#     8   8   8   8   8   8   8   8
#     4  10  20  36  57  80 111 150 186 225 276 335
#     4   9  16  26  46  79 112 138 168 213 270 327
#     4   9  15  27  53  86 111 135 173 224 285 335
#     4   9  16  28  52  89 119 133 167 229 288 337
#     4   9  18  32  55  87 115 141 178 225 278 335
#     4  10  19  35  59  86 113 143 181 232 284 336
#     4  10  17  32  59  85 112 144 180 233 290 333
#     4  12  25  38  53  79 114 154 196 232 276 329
#
# _framework density 20.216688000000001
#
# number of rings (size 3 to 8) (size 9 to 14) (size 15 to 20)
#    0.000    2.250    2.500    1.875    0.000    3.000 
#    0.000    5.000    0.000    0.000    0.000    0.000 
#    0.000    0.000    0.000    0.000    0.000    0.000 
#
# Total GULP energy -396750.460663 kJ/mol
# GULP energy per Si atom -12398.451896 kJ/mol
# Density = 2.017067 g / cm^3
# Si number density = 20.216688 Si / 1000 Ang^3
#
#
#
# Elastic Constant Matrix: (Units=GPa)
#
#
# Indices 1 2 3 4 5 6 
#
# 1 14.6265 7.6751 -0.7922 0.0000 0.0000 0.0000
# 2 7.6751 158.8784 69.7042 0.0000 0.0000 0.0000
# 3 -0.7922 69.7042 162.6496 0.0000 0.0000 0.0000
# 4 0.0000 0.0000 0.0000 20.4470 0.0000 0.0000
# 5 0.0000 0.0000 0.0000 0.0000 4.6175 0.0000
# 6 0.0000 0.0000 0.0000 0.0000 0.0000 3.4229
#
#
#
# Elastic Compliance Matrix: (Units=1/GPa)
#
#
# Indices 1 2 3 4 5 6 
#
# 1 0.070798 -0.004398 0.002230 0.000000 0.000000 0.000000
# 2 -0.004398 0.008025 -0.003460 0.000000 0.000000 0.000000
# 3 0.002230 -0.003460 0.007642 0.000000 0.000000 0.000000
# 4 0.000000 0.000000 0.000000 0.048907 0.000000 0.000000
# 5 0.000000 0.000000 0.000000 0.000000 0.216568 0.000000
# 6 0.000000 0.000000 0.000000 0.000000 0.000000 0.292148
#
#
# Mechanical properties :
#
#
# Convention : Reuss Voigt Hill
#
# Bulk Modulus (GPa) = 13.29673 54.36985 33.83329
# Shear Modulus (GPa) = 7.34847 23.00199 15.17523
#
# Velocity S-wave (km/s) = 1.90860 3.37675 2.74273
# Velocity P-wave (km/s) = 3.38354 6.49270 5.17704
#
# Compressibility (1/GPa) = 0.07520646
#
# Stress axis : x y z
#
# Youngs Moduli (GPa) = 14.12474 124.61361 130.85487
#
# Poissons Ratio (x) = 0.54809 -0.29178
# Poissons Ratio (y) = 0.06213 0.45282
# Poissons Ratio (z) = -0.03149 0.43122
#
# Static dielectric constant tensor:
#      x y z
#    x 2.930020 0.000000 0.000000 
#    y 0.000000 3.912420 0.000000 
#    z 0.000000 0.000000 3.905240 
# 
# 
# High freq. dielectric constant tensor:
#      x y z
#    x 1.715990 0.000000 0.000000 
#    y 0.000000 1.795830 0.000000 
#    z 0.000000 0.000000 1.808400 
# 
# From -- ./inp_files/16777.got.cif
#   From: 2010.03.12/outbox.cif.g09.slc.cpg/sg46_9_cif.got.tgz:16777.got - 2010.04.14 02:56:35.
