data_PCOD8191177
_publ_section_title
;
Structure prediction by ZEFSAII (Michael W. Deem and Ramdas Pophale) SiO2 
 PCOD8191177
Probable space group: I M A 2
;
_chemical_formula_sum "Si O2"
_cell_formula_units_Z 56
_cell_length_a 8.656781
_cell_length_b 13.783623
_cell_length_c 29.533406
_cell_angle_alpha 90.000000
_cell_angle_beta 90.000000
_cell_angle_gamma 90.000000
_cell_volume 3523.979332
_symmetry_space_group_name_H-M "I M A 2"
_symmetry_group_IT_number 46
_symmetry_cell_setting 'orthorhombic'
loop_
_space_group_symop_operation_xyz
x,y,z
-x,-y,z
1/2-x,y,z
1/2+x,-y,z
1/2+x,1/2+y,1/2+z
1/2-x,1/2-y,1/2+z
-x,1/2+y,1/2+z
x,1/2-y,1/2+z
loop_
_atom_site_type_symbol
_atom_site_label
_atom_site_fract_x
_atom_site_fract_y
_atom_site_fract_z
Si Si1 0.566024 0.892774 0.797110
Si Si2 0.066860 0.294203 0.570915
Si Si3 0.432657 0.102557 0.160037
Si Si4 0.566382 0.392176 0.388639
Si Si5 0.933976 0.892774 0.980169
Si Si6 0.933140 0.705797 0.206364
Si Si7 0.932657 0.897443 0.617242
O O1 0.750000 0.897625 0.799956
O O2 0.498509 0.842424 0.842811
O O3 0.505393 0.828176 0.755175
O O4 0.500000 0.000000 0.790559
O O5 0.250000 0.297329 0.571775
O O6 0.006117 0.367025 0.610100
O O7 0.005392 0.328176 0.522104
O O8 0.011172 0.184463 0.581395
O O9 0.250000 0.095087 0.159998
O O10 0.488828 0.184462 0.195884
O O11 0.500000 0.000000 0.175222
O O12 0.500000 0.500000 0.388639
O O13 0.750000 0.391894 0.388639
O O14 0.501491 0.342424 0.434468
O O15 0.750000 0.897624 0.977323
O O16 0.000000 0.000000 0.986720
O O17 0.750000 0.702672 0.205504
O O18 0.993883 0.632975 0.167179
O O19 0.750000 0.904913 0.617281
O O20 0.000000 0.000000 0.602057
#
# Coordination Sequence:
#
# PCOD8191177 Si02
#       7
#     8   8   8   8   8   8   8
#     4  10  17  27  42  61  83 111 140 169 201 242
#     4   8  16  28  43  60  84 114 141 164 201 248
#     4   9  16  29  44  61  84 112 140 170 202 239
#     4  10  18  28  40  58  83 110 135 168 207 246
#     4  10  17  27  42  61  83 111 140 169 201 242
#     4   8  16  28  43  60  84 114 141 164 201 248
#     4   9  16  29  44  61  84 112 140 170 202 239
#
# _framework density 15.891125000000001
#
# number of rings (size 3 to 8) (size 9 to 14) (size 15 to 20)
#    0.000    2.857    0.000    6.429    0.000    0.000 
#    0.000    7.143    0.000    0.000    0.000    1.000 
#    0.000    0.000    0.000    0.000    0.000    0.000 
#
# Total GULP energy -346986.863003 kJ/mol
# GULP energy per Si atom -12392.387964 kJ/mol
# Density = 1.585496 g / cm^3
# Si number density = 15.891125 Si / 1000 Ang^3
#
#
#
# Elastic Constant Matrix: (Units=GPa)
#
#
# Indices 1 2 3 4 5 6 
#
# 1 56.2840 21.3219 36.8848 0.0000 0.0000 0.0000
# 2 21.3219 99.9886 64.3073 0.0000 0.0000 0.0000
# 3 36.8848 64.3073 163.5049 0.0000 0.0000 0.0000
# 4 0.0000 0.0000 0.0000 24.3076 0.0000 0.0000
# 5 0.0000 0.0000 0.0000 0.0000 18.3584 0.0000
# 6 0.0000 0.0000 0.0000 0.0000 0.0000 21.0872
#
#
#
# Elastic Compliance Matrix: (Units=1/GPa)
#
#
# Indices 1 2 3 4 5 6 
#
# 1 0.021123 -0.001927 -0.004007 0.000000 0.000000 0.000000
# 2 -0.001927 0.013563 -0.004900 0.000000 0.000000 0.000000
# 3 -0.004007 -0.004900 0.008947 0.000000 0.000000 0.000000
# 4 0.000000 0.000000 0.000000 0.041139 0.000000 0.000000
# 5 0.000000 0.000000 0.000000 0.000000 0.054471 0.000000
# 6 0.000000 0.000000 0.000000 0.000000 0.000000 0.047422
#
#
# Mechanical properties :
#
#
# Convention : Reuss Voigt Hill
#
# Bulk Modulus (GPa) = 45.52625 62.75618 54.14122
# Shear Modulus (GPa) = 23.18505 25.90155 24.54330
#
# Velocity S-wave (km/s) = 3.82382 4.04163 3.93423
# Velocity P-wave (km/s) = 6.94309 7.83306 7.40146
#
# Compressibility (1/GPa) = 0.02196535
#
# Stress axis : x y z
#
# Youngs Moduli (GPa) = 47.34148 73.72792 111.76796
#
# Poissons Ratio (x) = 0.14209 0.44787
# Poissons Ratio (y) = 0.09124 0.54764
# Poissons Ratio (z) = 0.18970 0.36125
#
# Static dielectric constant tensor:
#      x y z
#    x 2.811410 0.000000 0.000000 
#    y 0.000000 3.010390 0.000000 
#    z 0.000000 0.000000 3.777580 
# 
# 
# High freq. dielectric constant tensor:
#      x y z
#    x 1.597820 0.000000 0.000000 
#    y 0.000000 1.576790 0.000000 
#    z 0.000000 0.000000 1.616150 
# 
# From -- ./inp_files/25246.got.cif
#   From: 2010.03.12/outbox.cif.g09.slc.cpg/sg46_13_cif.got.tgz:25246.got - 2010.04.14 02:56:35.
