data_PCOD8191163
_publ_section_title
;
Structure prediction by ZEFSAII (Michael W. Deem and Ramdas Pophale) SiO2 
 PCOD8191163
Probable space group: I M A 2
;
_chemical_formula_sum "Si O2"
_cell_formula_units_Z 64
_cell_length_a 8.897244
_cell_length_b 23.105502
_cell_length_c 18.807109
_cell_angle_alpha 90.000000
_cell_angle_beta 90.000000
_cell_angle_gamma 90.000000
_cell_volume 3866.276869
_symmetry_space_group_name_H-M "I M A 2"
_symmetry_group_IT_number 46
_symmetry_cell_setting 'orthorhombic'
loop_
_space_group_symop_operation_xyz
x,y,z
-x,-y,z
1/2-x,y,z
1/2+x,-y,z
1/2+x,1/2+y,1/2+z
1/2-x,1/2-y,1/2+z
-x,1/2+y,1/2+z
x,1/2-y,1/2+z
loop_
_atom_site_type_symbol
_atom_site_label
_atom_site_fract_x
_atom_site_fract_y
_atom_site_fract_z
Si Si1 0.575201 0.731059 0.706020
Si Si2 0.915190 0.226788 0.923291
Si Si3 0.926854 0.624294 0.484973
Si Si4 0.927923 0.131173 0.130872
Si Si5 0.421690 0.559667 0.768473
Si Si6 0.416606 0.830988 0.769606
Si Si7 0.928927 0.439034 0.353171
Si Si8 0.576437 0.173478 0.335183
O O1 0.750000 0.729375 0.687644
O O2 0.485626 0.696798 0.644453
O O3 0.522522 0.798326 0.712470
O O4 0.541803 0.700116 0.780368
O O5 0.750000 0.217968 0.958185
O O6 0.913631 0.203335 0.843388
O O7 0.951170 0.295918 0.912618
O O8 0.035717 0.192294 0.970369
O O9 0.750000 0.614794 0.483005
O O10 0.992169 0.605868 0.561047
O O11 0.003754 0.583231 0.427279
O O12 0.750000 0.132180 0.120600
O O13 0.979199 0.089818 0.195766
O O14 0.500000 0.500000 0.786430
O O15 0.250000 0.543879 0.758524
O O16 0.448578 0.604020 0.834896
O O17 0.250000 0.833396 0.736503
O O18 0.473544 0.895764 0.788506
O O19 0.750000 0.443018 0.362023
O O20 0.000000 0.500000 0.332749
O O21 0.750000 0.185431 0.309718
#
# Coordination Sequence:
#
# PCOD8191163 Si02
#       8
#     8   8   8   8   8   8   8   8
#     4  10  17  25  42  66  85 103 135 179 222 257
#     4   8  14  27  45  61  80 108 140 172 211 258
#     4  11  21  31  44  64  88 112 145 185 221 257
#     4  10  20  34  46  57  82 119 153 180 213 257
#     4   9  18  30  44  61  82 111 145 179 210 244
#     4   8  15  28  44  61  83 111 139 170 215 266
#     4  10  20  33  47  63  86 118 153 184 216 254
#     4   8  15  28  43  59  81 110 140 169 209 261
#
# _framework density 16.553393
#
# number of rings (size 3 to 8) (size 9 to 14) (size 15 to 20)
#    0.000    2.750    0.000    5.250    0.000    8.000 
#    0.000    1.250    0.000    0.000    0.000    0.000 
#    0.000    1.000    0.000    6.250    0.000    4.750 
#
# Total GULP energy -396474.671055 kJ/mol
# GULP energy per Si atom -12389.833470 kJ/mol
# Density = 1.651572 g / cm^3
# Si number density = 16.553393 Si / 1000 Ang^3
#
#
#
# Elastic Constant Matrix: (Units=GPa)
#
#
# Indices 1 2 3 4 5 6 
#
# 1 77.8438 35.5779 5.9851 0.0000 0.0000 0.0000
# 2 35.5779 123.0756 18.5329 0.0000 0.0000 0.0000
# 3 5.9851 18.5329 5.4210 0.0000 0.0000 0.0000
# 4 0.0000 0.0000 0.0000 16.7613 0.0000 0.0000
# 5 0.0000 0.0000 0.0000 0.0000 17.5881 0.0000
# 6 0.0000 0.0000 0.0000 0.0000 0.0000 28.4499
#
#
#
# Elastic Compliance Matrix: (Units=1/GPa)
#
#
# Indices 1 2 3 4 5 6 
#
# 1 0.014835 -0.003755 -0.003540 0.000000 0.000000 0.000000
# 2 -0.003755 0.017696 -0.056354 0.000000 0.000000 0.000000
# 3 -0.003540 -0.056354 0.381036 0.000000 0.000000 0.000000
# 4 0.000000 0.000000 0.000000 0.059661 0.000000 0.000000
# 5 0.000000 0.000000 0.000000 0.000000 0.056857 0.000000
# 6 0.000000 0.000000 0.000000 0.000000 0.000000 0.035149
#
#
# Mechanical properties :
#
#
# Convention : Reuss Voigt Hill
#
# Bulk Modulus (GPa) = 3.49322 36.28135 19.88728
# Shear Modulus (GPa) = 6.34554 22.30950 14.32752
#
# Velocity S-wave (km/s) = 1.96002 3.67513 2.94519
# Velocity P-wave (km/s) = 2.69019 6.32251 4.85856
#
# Compressibility (1/GPa) = 0.28626911
#
# Stress axis : x y z
#
# Youngs Moduli (GPa) = 67.40939 56.50849 2.62442
#
# Poissons Ratio (x) = 0.21220 0.00929
# Poissons Ratio (y) = 0.25314 0.14790
# Poissons Ratio (z) = 0.23864 3.18446
#
# Static dielectric constant tensor:
#      x y z
#    x 3.071840 0.000000 0.000000 
#    y 0.000000 3.456230 0.000000 
#    z 0.000000 0.000000 2.845210 
# 
# 
# High freq. dielectric constant tensor:
#      x y z
#    x 1.640340 0.000000 0.000000 
#    y 0.000000 1.634050 0.000000 
#    z 0.000000 0.000000 1.582430 
# 
# From -- ./inp_files/18639.got.cif
#   From: 2010.03.12/outbox.cif.g09.slc.cpg/sg46_10_cif.got.tgz:18639.got - 2010.04.14 02:56:35.
