data_PCOD8191450
_publ_section_title
;
Structure prediction by ZEFSAII (Michael W. Deem and Ramdas Pophale) SiO2 
 PCOD8191450
Probable space group: I M A 2
;
_chemical_formula_sum "Si O2"
_cell_formula_units_Z 64
_cell_length_a 8.998457
_cell_length_b 18.452116
_cell_length_c 21.255550
_cell_angle_alpha 90.000000
_cell_angle_beta 90.000000
_cell_angle_gamma 90.000000
_cell_volume 3529.283688
_symmetry_space_group_name_H-M "I M A 2"
_symmetry_group_IT_number 46
_symmetry_cell_setting 'orthorhombic'
loop_
_space_group_symop_operation_xyz
x,y,z
-x,-y,z
1/2-x,y,z
1/2+x,-y,z
1/2+x,1/2+y,1/2+z
1/2-x,1/2-y,1/2+z
-x,1/2+y,1/2+z
x,1/2-y,1/2+z
loop_
_atom_site_type_symbol
_atom_site_label
_atom_site_fract_x
_atom_site_fract_y
_atom_site_fract_z
Si Si1 0.420769 0.831566 0.038160
Si Si2 0.914947 0.932337 0.120955
Si Si3 0.084157 0.429634 0.768456
Si Si4 0.575126 0.280793 0.756703
Si Si5 0.423364 0.425548 0.171664
Si Si6 0.079424 0.709415 0.126763
Si Si7 0.423094 0.356264 0.302970
Si Si8 0.075048 0.076336 0.934765
O O1 0.250000 0.852205 0.025939
O O2 0.481851 0.865566 0.102773
O O3 0.437648 0.746877 0.057653
O O4 0.517544 0.858461 0.979421
O O5 0.750000 0.925754 0.090929
O O6 0.902062 0.941429 0.194590
O O7 0.000000 0.000000 0.089826
O O8 0.250000 0.425011 0.797798
O O9 0.000000 0.500000 0.797579
O O10 0.997256 0.355344 0.781163
O O11 0.750000 0.289874 0.763882
O O12 0.527673 0.261067 0.685099
O O13 0.517901 0.217372 0.802725
O O14 0.500000 0.500000 0.152430
O O15 0.250000 0.434633 0.161645
O O16 0.480770 0.362705 0.125210
O O17 0.465002 0.405671 0.243325
O O18 0.250000 0.687761 0.139098
O O19 0.250000 0.335035 0.302501
O O20 0.467712 0.402260 0.364003
O O21 0.250000 0.068296 0.943669
O O22 0.000000 0.000000 0.952277
#
# Coordination Sequence:
#
# PCOD8191450 Si02
#       8
#     8   8   8   8   8   8   8   8
#     4  11  21  34  50  69  99 134 172 213 253 300
#     4  10  19  29  43  63  91 129 168 204 243 290
#     4  10  19  29  44  67  98 132 167 206 249 301
#     4  10  18  31  51  74 100 131 169 212 261 311
#     4  10  19  32  53  78 104 132 164 206 257 308
#     4   9  19  33  49  71 100 132 166 207 253 306
#     4   9  20  36  53  74 101 135 174 216 258 304
#     4  11  23  38  54  74 103 139 181 220 256 300
#
# _framework density 18.133990000000001
#
# number of rings (size 3 to 8) (size 9 to 14) (size 15 to 20)
#    0.000    2.000    1.250    3.000    0.000    4.000 
#    0.000    0.000    0.000    0.000    0.000    0.875 
#    0.000    2.000    0.000    0.000    0.000    0.000 
#
# Total GULP energy -396673.935848 kJ/mol
# GULP energy per Si atom -12396.060495 kJ/mol
# Density = 1.809272 g / cm^3
# Si number density = 18.133990 Si / 1000 Ang^3
#
#
#
# Elastic Constant Matrix: (Units=GPa)
#
#
# Indices 1 2 3 4 5 6 
#
# 1 101.1585 63.2016 25.0132 0.0000 0.0000 0.0000
# 2 63.2016 120.7124 24.7268 0.0000 0.0000 0.0000
# 3 25.0132 24.7268 50.3954 0.0000 0.0000 0.0000
# 4 0.0000 0.0000 0.0000 19.1440 0.0000 0.0000
# 5 0.0000 0.0000 0.0000 0.0000 19.8785 0.0000
# 6 0.0000 0.0000 0.0000 0.0000 0.0000 36.1875
#
#
#
# Elastic Compliance Matrix: (Units=1/GPa)
#
#
# Indices 1 2 3 4 5 6 
#
# 1 0.015419 -0.007232 -0.004104 0.000000 0.000000 0.000000
# 2 -0.007232 0.012602 -0.002594 0.000000 0.000000 0.000000
# 3 -0.004104 -0.002594 0.023153 0.000000 0.000000 0.000000
# 4 0.000000 0.000000 0.000000 0.052236 0.000000 0.000000
# 5 0.000000 0.000000 0.000000 0.000000 0.050306 0.000000
# 6 0.000000 0.000000 0.000000 0.000000 0.000000 0.027634
#
#
# Mechanical properties :
#
#
# Convention : Reuss Voigt Hill
#
# Bulk Modulus (GPa) = 42.89414 55.34994 49.12204
# Shear Modulus (GPa) = 23.04354 25.66364 24.35359
#
# Velocity S-wave (km/s) = 3.56861 3.76603 3.66865
# Velocity P-wave (km/s) = 6.37850 7.03560 6.71509
#
# Compressibility (1/GPa) = 0.02331321
#
# Stress axis : x y z
#
# Youngs Moduli (GPa) = 64.85571 79.35269 43.19111
#
# Poissons Ratio (x) = 0.57389 0.17728
# Poissons Ratio (y) = 0.46904 0.11202
# Poissons Ratio (z) = 0.26620 0.20581
#
# Static dielectric constant tensor:
#      x y z
#    x 3.518300 0.000000 0.000000 
#    y 0.000000 3.360230 0.000000 
#    z 0.000000 0.000000 2.967020 
# 
# 
# High freq. dielectric constant tensor:
#      x y z
#    x 1.718120 0.000000 0.000000 
#    y 0.000000 1.702820 0.000000 
#    z 0.000000 0.000000 1.651920 
# 
# From -- ./inp_files/21291.got.cif
#   From: 2010.03.12/outbox.cif.g09.slc.cpg/sg46_11_cif.got.tgz:21291.got - 2010.04.14 02:56:35.
