data_PCOD8191057
_publ_section_title
;
Structure prediction by ZEFSAII (Michael W. Deem and Ramdas Pophale) SiO2 
 PCOD8191057
Probable space group: I B A 2
;
_chemical_formula_sum "Si O2"
_cell_formula_units_Z 40
_cell_length_a 24.996381
_cell_length_b 5.023024
_cell_length_c 13.151496
_cell_angle_alpha 90.000000
_cell_angle_beta 90.000000
_cell_angle_gamma 90.000000
_cell_volume 1651.267929
_symmetry_space_group_name_H-M "I B A 2"
_symmetry_group_IT_number 45
_symmetry_cell_setting 'orthorhombic'
loop_
_space_group_symop_operation_xyz
x,y,z
-x,-y,z
-x,y,1/2+z
x,-y,1/2+z
1/2+x,1/2+y,1/2+z
1/2-x,1/2-y,1/2+z
1/2-x,1/2+y,z
1/2+x,1/2-y,z
loop_
_atom_site_type_symbol
_atom_site_label
_atom_site_fract_x
_atom_site_fract_y
_atom_site_fract_z
Si Si1 0.100517 0.592120 0.733550
Si Si2 0.384827 0.428843 0.920937
Si Si3 0.000000 0.500000 0.120666
Si Si4 0.783356 0.838016 0.817874
Si Si5 0.850309 0.092888 0.144627
Si Si6 0.000000 0.000000 0.488202
O O1 0.041105 0.643549 0.695513
O O2 0.111582 0.283171 0.712365
O O3 0.108125 0.664806 0.851908
O O4 0.137296 0.782767 0.663891
O O5 0.341284 0.625275 0.870503
O O6 0.444306 0.569373 0.928095
O O7 0.358048 0.337213 0.027051
O O8 0.979513 0.257401 0.050642
O O9 0.760476 0.554268 0.851755
O O10 0.791563 0.853381 0.694214
#
# Coordination Sequence:
#
# PCOD8191057 Si02
#       6
#     8   8   4   8   8   4
#     4  11  24  42  69 103 148 195 248 303 366 447
#     4  11  26  47  78 111 153 202 251 307 384 460
#     4  12  22  44  68 104 156 204 240 312 364 454
#     4  11  26  47  73 109 145 196 258 310 368 440
#     4  11  24  46  71 103 148 194 247 318 371 436
#     4  12  26  44  74 114 156 202 252 296 394 460
#
# _framework density 24.223807999999998
#
# number of rings (size 3 to 8) (size 9 to 14) (size 15 to 20)
#    0.000    0.800    4.000    2.400    0.000   16.000 
#    0.000    0.000    0.000    0.000    0.000    0.000 
#    0.000    0.000    0.000    0.000    0.000    0.000 
#
# Total GULP energy -247763.409763 kJ/mol
# GULP energy per Si atom -12388.170488 kJ/mol
# Density = 2.416867 g / cm^3
# Si number density = 24.223808 Si / 1000 Ang^3
#
#
#
# Elastic Constant Matrix: (Units=GPa)
#
#
# Indices 1 2 3 4 5 6 
#
# 1 120.2326 22.5020 46.4409 0.0000 0.0000 0.0000
# 2 22.5020 79.9176 21.9005 0.0000 0.0000 0.0000
# 3 46.4409 21.9005 148.8928 0.0000 0.0000 0.0000
# 4 0.0000 0.0000 0.0000 30.2516 0.0000 0.0000
# 5 0.0000 0.0000 0.0000 0.0000 25.2286 0.0000
# 6 0.0000 0.0000 0.0000 0.0000 0.0000 37.3414
#
#
#
# Elastic Compliance Matrix: (Units=1/GPa)
#
#
# Indices 1 2 3 4 5 6 
#
# 1 0.009752 -0.001993 -0.002749 0.000000 0.000000 0.000000
# 2 -0.001993 0.013446 -0.001356 0.000000 0.000000 0.000000
# 3 -0.002749 -0.001356 0.007773 0.000000 0.000000 0.000000
# 4 0.000000 0.000000 0.000000 0.033056 0.000000 0.000000
# 5 0.000000 0.000000 0.000000 0.000000 0.039638 0.000000
# 6 0.000000 0.000000 0.000000 0.000000 0.000000 0.026780
#
#
# Mechanical properties :
#
#
# Convention : Reuss Voigt Hill
#
# Bulk Modulus (GPa) = 53.26027 58.96998 56.11513
# Shear Modulus (GPa) = 33.58022 35.77763 34.67892
#
# Velocity S-wave (km/s) = 3.72728 3.84730 3.78776
# Velocity P-wave (km/s) = 6.36851 6.64321 6.50731
#
# Compressibility (1/GPa) = 0.01877572
#
# Stress axis : x y z
#
# Youngs Moduli (GPa) = 102.54535 74.37395 128.64996
#
# Poissons Ratio (x) = 0.14819 0.35360
# Poissons Ratio (y) = 0.20433 0.17448
# Poissons Ratio (z) = 0.28185 0.10087
#
# Static dielectric constant tensor:
#      x y z
#    x 4.498920 0.000000 0.000000 
#    y 0.000000 4.502460 0.000000 
#    z 0.000000 0.000000 4.718860 
# 
# 
# High freq. dielectric constant tensor:
#      x y z
#    x 1.964390 0.000000 0.000000 
#    y 0.000000 1.961770 0.000000 
#    z 0.000000 0.000000 1.955340 
# 
# From -- ./inp_files/4831.got.cif
#   From: 2010.03.12/outbox.cif.g09.slc.cpg/sg45_3_cif.got.tgz:4831.got - 2010.04.14 02:50:11.
