data_PCOD8191691
_publ_section_title
;
Structure prediction by ZEFSAII (Michael W. Deem and Ramdas Pophale) SiO2 
 PCOD8191691
Probable space group: I M A 2
;
_chemical_formula_sum "Si O2"
_cell_formula_units_Z 56
_cell_length_a 14.568922
_cell_length_b 22.550366
_cell_length_c 9.346717
_cell_angle_alpha 90.000000
_cell_angle_beta 90.000000
_cell_angle_gamma 90.000000
_cell_volume 3070.719214
_symmetry_space_group_name_H-M "I M A 2"
_symmetry_group_IT_number 46
_symmetry_cell_setting 'orthorhombic'
loop_
_space_group_symop_operation_xyz
x,y,z
-x,-y,z
1/2-x,y,z
1/2+x,-y,z
1/2+x,1/2+y,1/2+z
1/2-x,1/2-y,1/2+z
-x,1/2+y,1/2+z
x,1/2-y,1/2+z
loop_
_atom_site_type_symbol
_atom_site_label
_atom_site_fract_x
_atom_site_fract_y
_atom_site_fract_z
Si Si1 0.019558 0.643276 0.131940
Si Si2 0.354659 0.330228 0.467577
Si Si3 0.144605 0.279451 0.157225
Si Si4 0.495396 0.430510 0.390613
Si Si5 0.146721 0.717542 0.341767
Si Si6 0.147296 0.623366 0.563984
Si Si7 0.357261 0.647003 0.876509
O O1 0.077407 0.687694 0.231518
O O2 0.926621 0.676087 0.078296
O O3 0.992332 0.585124 0.222691
O O4 0.079910 0.619290 0.000259
O O5 0.250000 0.352861 0.471481
O O6 0.371586 0.288676 0.327610
O O7 0.375969 0.288257 0.605476
O O8 0.417227 0.389947 0.469402
O O9 0.250000 0.295748 0.115501
O O10 0.500000 0.500000 0.412941
O O11 0.592844 0.417612 0.458230
O O12 0.250000 0.711681 0.278778
O O13 0.140676 0.690134 0.501526
O O14 0.118309 0.784373 0.366489
O O15 0.250000 0.599364 0.559164
O O16 0.111743 0.618915 0.726279
O O17 0.250000 0.635899 0.909136
#
# Coordination Sequence:
#
# PCOD8191691 Si02
#       7
#     8   8   8   8   8   8   8
#     4  10  20  30  53  76 104 144 174 217 270 314
#     4   9  19  35  55  79 105 134 170 223 278 319
#     4   9  19  33  50  76 106 132 171 221 272 325
#     4  10  22  38  53  75 103 141 188 219 253 319
#     4   9  17  29  46  75 112 141 166 196 248 322
#     4   9  19  33  50  75 106 139 173 211 254 304
#     4  10  19  30  48  78 111 137 166 207 260 319
#
# _framework density 18.236771000000001
#
# number of rings (size 3 to 8) (size 9 to 14) (size 15 to 20)
#    0.000    2.571    0.000    1.286    8.000    3.429 
#    0.000    0.714    0.000    0.000    0.000    8.000 
#    0.000    0.000    0.000    0.000    0.000    0.000 
#
# Total GULP energy -346930.782602 kJ/mol
# GULP energy per Si atom -12390.385093 kJ/mol
# Density = 1.819526 g / cm^3
# Si number density = 18.236771 Si / 1000 Ang^3
#
#
#
# Elastic Constant Matrix: (Units=GPa)
#
#
# Indices 1 2 3 4 5 6 
#
# 1 80.5139 31.1691 34.3142 0.0001 0.0000 0.0001
# 2 31.1691 88.0477 17.5419 0.0002 0.0001 0.0000
# 3 34.3142 17.5419 64.4006 0.0003 0.0004 0.0004
# 4 0.0001 0.0002 0.0003 19.7906 0.0001 0.0000
# 5 0.0000 0.0001 0.0004 0.0001 26.8668 0.0001
# 6 0.0001 0.0000 0.0004 0.0000 0.0001 12.5554
#
#
#
# Elastic Compliance Matrix: (Units=1/GPa)
#
#
# Indices 1 2 3 4 5 6 
#
# 1 0.017696 -0.004637 -0.008165 0.000000 0.000000 0.000000
# 2 -0.004637 0.013225 -0.001131 0.000000 0.000000 0.000000
# 3 -0.008165 -0.001131 0.020187 0.000000 0.000000 -0.000001
# 4 0.000000 0.000000 0.000000 0.050529 0.000000 0.000000
# 5 0.000000 0.000000 0.000000 0.000000 0.037221 0.000000
# 6 0.000000 0.000000 -0.000001 0.000000 0.000000 0.079647
#
#
# Mechanical properties :
#
#
# Convention : Reuss Voigt Hill
#
# Bulk Modulus (GPa) = 43.03207 44.33475 43.68341
# Shear Modulus (GPa) = 19.67592 21.83837 20.75714
#
# Velocity S-wave (km/s) = 3.28825 3.46423 3.37739
# Velocity P-wave (km/s) = 6.16963 6.35332 6.26215
#
# Compressibility (1/GPa) = 0.02323848
#
# Stress axis : x y z
#
# Youngs Moduli (GPa) = 56.51150 75.61705 49.53762
#
# Poissons Ratio (x) = 0.35067 0.40450
# Poissons Ratio (y) = 0.26207 0.05604
# Poissons Ratio (z) = 0.46144 0.08554
#
# Static dielectric constant tensor:
#      x y z
#    x 3.652190 0.000000 0.000000 
#    y 0.000000 2.932010 0.000000 
#    z 0.000000 0.000000 3.494040 
# 
# 
# High freq. dielectric constant tensor:
#      x y z
#    x 1.722530 0.000000 0.000000 
#    y 0.000000 1.656870 0.000000 
#    z 0.000000 0.000000 1.703990 
# 
# From -- ./inp_files/5938.got.cif
#   From: 2010.03.12/outbox.cif.g09.slc.cpg/sg46_3_cif.got.tgz:5938.got - 2010.04.14 02:56:35.
