data_PCOD8191173
_publ_section_title
;
Structure prediction by ZEFSAII (Michael W. Deem and Ramdas Pophale) SiO2 
 PCOD8191173
Probable space group: I M A 2
;
_chemical_formula_sum "Si O2"
_cell_formula_units_Z 64
_cell_length_a 8.999678
_cell_length_b 20.652777
_cell_length_c 22.013919
_cell_angle_alpha 90.000000
_cell_angle_beta 90.000000
_cell_angle_gamma 90.000000
_cell_volume 4091.690643
_symmetry_space_group_name_H-M "I M A 2"
_symmetry_group_IT_number 46
_symmetry_cell_setting 'orthorhombic'
loop_
_space_group_symop_operation_xyz
x,y,z
-x,-y,z
1/2-x,y,z
1/2+x,-y,z
1/2+x,1/2+y,1/2+z
1/2-x,1/2-y,1/2+z
-x,1/2+y,1/2+z
x,1/2-y,1/2+z
loop_
_atom_site_type_symbol
_atom_site_label
_atom_site_fract_x
_atom_site_fract_y
_atom_site_fract_z
Si Si1 0.423915 0.184739 0.735520
Si Si2 0.577130 0.566374 0.151025
Si Si3 0.425103 0.153572 0.048691
Si Si4 0.085988 0.644121 0.059382
Si Si5 0.920437 0.243690 0.469773
Si Si6 0.576620 0.066074 0.957687
Si Si7 0.582638 0.322674 0.359662
Si Si8 0.581908 0.269088 0.644366
O O1 0.250000 0.196347 0.729053
O O2 0.471927 0.119441 0.700447
O O3 0.466270 0.176403 0.805415
O O4 0.505606 0.247174 0.707316
O O5 0.500000 0.500000 0.169676
O O6 0.750000 0.553866 0.150100
O O7 0.528456 0.590497 0.083670
O O8 0.250000 0.142865 0.055112
O O9 0.493863 0.170271 0.114958
O O10 0.458792 0.212511 0.003408
O O11 0.501067 0.089478 0.020651
O O12 0.250000 0.613136 0.064234
O O13 0.075456 0.709386 0.098298
O O14 0.052723 0.668388 0.989928
O O15 0.750000 0.264345 0.488675
O O16 0.938035 0.255398 0.397571
O O17 0.750000 0.054985 0.969600
O O18 0.549258 0.117577 0.904201
O O19 0.500000 0.000000 0.936219
O O20 0.750000 0.327406 0.333506
O O21 0.750000 0.290540 0.658298
#
# Coordination Sequence:
#
# PCOD8191173 Si02
#       8
#     8   8   8   8   8   8   8   8
#     4  10  20  31  43  62  86 113 149 187 218 252
#     4  10  20  31  42  58  82 112 146 180 213 252
#     4  10  17  26  43  65  86 108 137 176 221 263
#     4   8  14  26  44  62  80 103 133 172 216 256
#     4   8  15  28  44  62  83 109 140 173 213 261
#     4  10  20  33  46  62  86 117 153 187 220 259
#     4   9  18  31  45  61  85 117 149 179 213 255
#     4   9  16  28  45  62  82 109 139 174 219 264
#
# _framework density 15.641456
#
# number of rings (size 3 to 8) (size 9 to 14) (size 15 to 20)
#    0.000    2.750    0.000    4.125    0.000    7.500 
#    0.000    2.500    0.000    0.000    0.000    0.000 
#    0.000    1.000    0.000    8.500    0.000    5.250 
#
# Total GULP energy -396603.910336 kJ/mol
# GULP energy per Si atom -12393.872198 kJ/mol
# Density = 1.560586 g / cm^3
# Si number density = 15.641456 Si / 1000 Ang^3
#
#
#
# Elastic Constant Matrix: (Units=GPa)
#
#
# Indices 1 2 3 4 5 6 
#
# 1 90.3263 25.8985 44.3389 0.0000 0.0000 0.0000
# 2 25.8985 29.5452 45.7922 0.0000 0.0000 0.0000
# 3 44.3389 45.7922 77.4193 0.0000 0.0000 0.0000
# 4 0.0000 0.0000 0.0000 14.9056 0.0000 0.0000
# 5 0.0000 0.0000 0.0000 0.0000 25.4373 0.0000
# 6 0.0000 0.0000 0.0000 0.0000 0.0000 24.2322
#
#
#
# Elastic Compliance Matrix: (Units=1/GPa)
#
#
# Indices 1 2 3 4 5 6 
#
# 1 0.015411 0.002050 -0.010038 0.000000 0.000000 0.000000
# 2 0.002050 0.406799 -0.241788 0.000000 0.000000 0.000000
# 3 -0.010038 -0.241788 0.161679 0.000000 0.000000 0.000000
# 4 0.000000 0.000000 0.000000 0.067089 0.000000 0.000000
# 5 0.000000 0.000000 0.000000 0.000000 0.039312 0.000000
# 6 0.000000 0.000000 0.000000 0.000000 0.000000 0.041267
#
#
# Mechanical properties :
#
#
# Convention : Reuss Voigt Hill
#
# Bulk Modulus (GPa) = 11.85747 47.70557 29.78152
# Shear Modulus (GPa) = 3.97070 18.33243 11.15157
#
# Velocity S-wave (km/s) = 1.59502 3.42722 2.67301
# Velocity P-wave (km/s) = 3.31502 6.79903 5.34865
#
# Compressibility (1/GPa) = 0.08433502
#
# Stress axis : x y z
#
# Youngs Moduli (GPa) = 64.88939 2.45822 6.18508
#
# Poissons Ratio (x) = -0.00504 0.06209
# Poissons Ratio (y) = -0.13301 1.49548
# Poissons Ratio (z) = 0.65138 0.59437
#
# Static dielectric constant tensor:
#      x y z
#    x 3.030960 0.000000 0.000000 
#    y 0.000000 2.881700 0.000000 
#    z 0.000000 0.000000 2.973190 
# 
# 
# High freq. dielectric constant tensor:
#      x y z
#    x 1.612410 0.000000 0.000000 
#    y 0.000000 1.564440 0.000000 
#    z 0.000000 0.000000 1.577260 
# 
# From -- ./inp_files/18658.got.cif
#   From: 2010.03.12/outbox.cif.g09.slc.cpg/sg46_10_cif.got.tgz:18658.got - 2010.04.14 02:56:35.
