data_PCOD8191734
_publ_section_title
;
Structure prediction by ZEFSAII (Michael W. Deem and Ramdas Pophale) SiO2 
 PCOD8191734
Probable space group: I M A 2
;
_chemical_formula_sum "Si O2"
_cell_formula_units_Z 64
_cell_length_a 9.066556
_cell_length_b 30.192138
_cell_length_c 14.266743
_cell_angle_alpha 90.000000
_cell_angle_beta 90.000000
_cell_angle_gamma 90.000000
_cell_volume 3905.359824
_symmetry_space_group_name_H-M "I M A 2"
_symmetry_group_IT_number 46
_symmetry_cell_setting 'orthorhombic'
loop_
_space_group_symop_operation_xyz
x,y,z
-x,-y,z
1/2-x,y,z
1/2+x,-y,z
1/2+x,1/2+y,1/2+z
1/2-x,1/2-y,1/2+z
-x,1/2+y,1/2+z
x,1/2-y,1/2+z
loop_
_atom_site_type_symbol
_atom_site_label
_atom_site_fract_x
_atom_site_fract_y
_atom_site_fract_z
Si Si1 0.418592 0.803170 0.160210
Si Si2 0.425248 0.631653 0.185855
Si Si3 0.423866 0.045064 0.722200
Si Si4 0.423104 0.044283 0.940109
Si Si5 0.582024 0.867472 0.036622
Si Si6 0.418695 0.732420 0.856469
Si Si7 0.076749 0.786233 0.565301
Si Si8 0.081159 0.178838 0.845288
O O1 0.250000 0.806332 0.128342
O O2 0.496465 0.847925 0.125477
O O3 0.434402 0.803151 0.273057
O O4 0.488320 0.758313 0.114032
O O5 0.250000 0.625425 0.182185
O O6 0.504141 0.585061 0.162471
O O7 0.484880 0.669223 0.113894
O O8 0.476003 0.645700 0.289312
O O9 0.250000 0.042793 0.703343
O O10 0.461162 0.052854 0.831554
O O11 0.500000 0.000000 0.687036
O O12 0.250000 0.038761 0.952700
O O13 0.500000 0.000000 0.977887
O O14 0.482723 0.085394 0.001932
O O15 0.750000 0.873947 0.067094
O O16 0.566312 0.831701 0.954407
O O17 0.250000 0.750294 0.861638
O O18 0.528057 0.771532 0.829178
O O19 0.465152 0.711116 0.955552
O O20 0.250000 0.785807 0.582514
O O21 0.250000 0.172998 0.811153
#
# Coordination Sequence:
#
# PCOD8191734 Si02
#       8
#     8   8   8   8   8   8   8   8
#     4  10  19  31  49  71  92 125 167 200 235 286
#     4  11  20  32  49  71  97 132 168 199 241 286
#     4  10  19  33  49  72 101 129 161 197 239 290
#     4   9  18  32  47  67  96 125 156 192 235 283
#     4  10  20  33  46  67  99 130 158 197 240 281
#     4  10  19  34  49  66  96 128 163 207 241 278
#     4   9  18  31  48  70  95 125 163 202 239 282
#     4  11  20  30  45  68  98 130 163 200 240 283
#
# _framework density 16.387733999999998
#
# number of rings (size 3 to 8) (size 9 to 14) (size 15 to 20)
#    0.000    2.000    3.750    1.125    0.000    2.000 
#    0.000    1.250    0.000    0.000    0.000    0.875 
#    0.000    2.000    0.000    0.000    0.000    0.000 
#
# Total GULP energy -396748.766799 kJ/mol
# GULP energy per Si atom -12398.398962 kJ/mol
# Density = 1.635044 g / cm^3
# Si number density = 16.387734 Si / 1000 Ang^3
#
#
#
# Elastic Constant Matrix: (Units=GPa)
#
#
# Indices 1 2 3 4 5 6 
#
# 1 52.5679 35.8284 19.2373 0.0000 -0.0001 0.0000
# 2 35.8284 110.1478 27.9398 0.0001 0.0000 0.0000
# 3 19.2373 27.9398 65.8111 0.0010 0.0005 0.0002
# 4 0.0000 0.0001 0.0010 26.3260 0.0001 0.0000
# 5 -0.0001 0.0000 0.0005 0.0001 16.8469 0.0001
# 6 0.0000 0.0000 0.0002 0.0000 0.0001 30.6440
#
#
#
# Elastic Compliance Matrix: (Units=1/GPa)
#
#
# Indices 1 2 3 4 5 6 
#
# 1 0.025536 -0.007187 -0.004413 0.000000 0.000000 0.000000
# 2 -0.007187 0.012197 -0.003077 0.000000 0.000000 0.000000
# 3 -0.004413 -0.003077 0.017792 -0.000001 -0.000001 0.000000
# 4 0.000000 0.000000 -0.000001 0.037985 0.000000 0.000000
# 5 0.000000 0.000000 -0.000001 0.000000 0.059358 0.000000
# 6 0.000000 0.000000 0.000000 0.000000 0.000000 0.032633
#
#
# Mechanical properties :
#
#
# Convention : Reuss Voigt Hill
#
# Bulk Modulus (GPa) = 38.21216 43.83753 41.02484
# Shear Modulus (GPa) = 22.36338 24.46479 23.41409
#
# Velocity S-wave (km/s) = 3.69811 3.86796 3.78399
# Velocity P-wave (km/s) = 6.45003 6.83787 6.64678
#
# Compressibility (1/GPa) = 0.02616968
#
# Stress axis : x y z
#
# Youngs Moduli (GPa) = 39.15974 81.98715 56.20633
#
# Poissons Ratio (x) = 0.58923 0.24806
# Poissons Ratio (y) = 0.28144 0.17297
# Poissons Ratio (z) = 0.17283 0.25231
#
# Static dielectric constant tensor:
#      x y z
#    x 3.001600 0.000000 0.000000 
#    y 0.000000 3.173120 0.000000 
#    z 0.000000 0.000000 2.938990 
# 
# 
# High freq. dielectric constant tensor:
#      x y z
#    x 1.624000 0.000000 0.000000 
#    y 0.000000 1.624440 0.000000 
#    z 0.000000 0.000000 1.600130 
# 
# From -- ./inp_files/14733.got.cif
#   From: 2010.03.12/outbox.cif.g09.slc.cpg/sg46_8_cif.got.tgz:14733.got - 2010.04.14 02:56:35.
