data_PCOD8191269
_publ_section_title
;
Structure prediction by ZEFSAII (Michael W. Deem and Ramdas Pophale) SiO2 
 PCOD8191269
Probable space group: I M A 2
;
_chemical_formula_sum "Si O2"
_cell_formula_units_Z 64
_cell_length_a 9.171670
_cell_length_b 33.854085
_cell_length_c 13.672812
_cell_angle_alpha 90.000000
_cell_angle_beta 90.000000
_cell_angle_gamma 90.000000
_cell_volume 4245.387559
_symmetry_space_group_name_H-M "I M A 2"
_symmetry_group_IT_number 46
_symmetry_cell_setting 'orthorhombic'
loop_
_space_group_symop_operation_xyz
x,y,z
-x,-y,z
1/2-x,y,z
1/2+x,-y,z
1/2+x,1/2+y,1/2+z
1/2-x,1/2-y,1/2+z
-x,1/2+y,1/2+z
x,1/2-y,1/2+z
loop_
_atom_site_type_symbol
_atom_site_label
_atom_site_fract_x
_atom_site_fract_y
_atom_site_fract_z
Si Si1 0.085915 0.537768 0.676770
Si Si2 0.081244 0.729242 0.950920
Si Si3 0.080917 0.385200 0.672110
Si Si4 0.082196 0.735650 0.170718
Si Si5 0.083836 0.687865 0.358222
Si Si6 0.915080 0.461976 0.443894
Si Si7 0.921339 0.804511 0.275053
Si Si8 0.920811 0.883892 0.946543
O O1 0.250000 0.536719 0.717613
O O2 0.084291 0.536402 0.560318
O O3 0.000000 0.500000 0.719344
O O4 0.009373 0.577784 0.713303
O O5 0.250000 0.720210 0.929582
O O6 0.046284 0.774693 0.926020
O O7 0.987031 0.700267 0.883309
O O8 0.037819 0.720960 0.062941
O O9 0.250000 0.396151 0.681307
O O10 0.037519 0.347810 0.737091
O O11 0.041197 0.375849 0.559727
O O12 0.250000 0.749768 0.172905
O O13 0.058107 0.699451 0.245056
O O14 0.985574 0.772956 0.199628
O O15 0.250000 0.673961 0.376041
O O16 0.974000 0.653043 0.383492
O O17 0.750000 0.461944 0.403495
O O18 0.000000 0.500000 0.401477
O O19 0.997296 0.422785 0.407494
O O20 0.750000 0.797930 0.279670
O O21 0.750000 0.890013 0.930050
#
# Coordination Sequence:
#
# PCOD8191269 Si02
#       8
#     8   8   8   8   8   8   8   8
#     4   9  16  25  39  57  78 107 139 169 202 241
#     4   9  18  32  47  61  81 111 144 177 213 254
#     4   9  18  29  39  56  84 113 140 171 205 243
#     4   9  18  32  47  61  81 111 144 177 213 253
#     4   9  17  28  42  61  82 105 137 175 211 246
#     4   9  16  26  39  56  79 107 138 169 202 241
#     4  10  19  29  43  64  87 110 139 177 216 251
#     4  10  18  27  40  58  82 112 142 171 204 243
#
# _framework density 15.075184
#
# number of rings (size 3 to 8) (size 9 to 14) (size 15 to 20)
#    0.000    2.750    0.000    3.000    0.000    7.000 
#    0.000    0.000    0.000    0.000    0.000    0.000 
#    0.000    1.000    0.000    5.250    0.000    4.500 
#
# Total GULP energy -396817.919339 kJ/mol
# GULP energy per Si atom -12400.559979 kJ/mol
# Density = 1.504087 g / cm^3
# Si number density = 15.075184 Si / 1000 Ang^3
#
#
#
# Elastic Constant Matrix: (Units=GPa)
#
#
# Indices 1 2 3 4 5 6 
#
# 1 97.5611 71.0508 35.6895 0.0000 0.0000 0.0000
# 2 71.0508 118.2163 44.3472 0.0007 0.0000 0.0000
# 3 35.6895 44.3472 74.7461 0.0028 -0.0001 0.0001
# 4 0.0000 0.0007 0.0028 16.4940 0.0000 0.0000
# 5 0.0000 0.0000 -0.0001 0.0000 17.8706 0.0002
# 6 0.0000 0.0000 0.0001 0.0000 0.0002 32.4887
#
#
#
# Elastic Compliance Matrix: (Units=1/GPa)
#
#
# Indices 1 2 3 4 5 6 
#
# 1 0.018708 -0.010153 -0.002909 0.000001 0.000000 0.000000
# 2 -0.010153 0.016391 -0.004877 0.000000 0.000000 0.000000
# 3 -0.002909 -0.004877 0.017661 -0.000003 0.000000 0.000000
# 4 0.000001 0.000000 -0.000003 0.060628 0.000000 0.000000
# 5 0.000000 0.000000 0.000000 0.000000 0.055958 0.000000
# 6 0.000000 0.000000 0.000000 0.000000 0.000000 0.030780
#
#
# Mechanical properties :
#
#
# Convention : Reuss Voigt Hill
#
# Bulk Modulus (GPa) = 59.23304 65.85539 62.54421
# Shear Modulus (GPa) = 20.69274 22.66638 21.67956
#
# Velocity S-wave (km/s) = 3.70893 3.88178 3.79634
# Velocity P-wave (km/s) = 7.59728 7.99190 7.79708
#
# Compressibility (1/GPa) = 0.01688247
#
# Stress axis : x y z
#
# Youngs Moduli (GPa) = 53.45285 61.01046 56.62152
#
# Poissons Ratio (x) = 0.61942 0.16471
# Poissons Ratio (y) = 0.54269 0.27614
# Poissons Ratio (z) = 0.15549 0.29754
#
# Static dielectric constant tensor:
#      x y z
#    x 2.998270 0.000000 0.000000 
#    y 0.000000 2.875860 0.000000 
#    z 0.000000 0.000000 2.682780 
# 
# 
# High freq. dielectric constant tensor:
#      x y z
#    x 1.589730 0.000000 0.000000 
#    y 0.000000 1.573360 0.000000 
#    z 0.000000 0.000000 1.533080 
# 
# From -- ./inp_files/14735.got.cif
#   From: 2010.03.12/outbox.cif.g09.slc.cpg/sg46_8_cif.got.tgz:14735.got - 2010.04.14 02:56:35.
