data_PCOD8191706
_publ_section_title
;
Structure prediction by ZEFSAII (Michael W. Deem and Ramdas Pophale) SiO2 
 PCOD8191706
Probable space group: I M A 2
;
_chemical_formula_sum "Si O2"
_cell_formula_units_Z 64
_cell_length_a 8.956822
_cell_length_b 19.070053
_cell_length_c 22.814812
_cell_angle_alpha 90.000000
_cell_angle_beta 90.000000
_cell_angle_gamma 90.000000
_cell_volume 3896.931196
_symmetry_space_group_name_H-M "I M A 2"
_symmetry_group_IT_number 46
_symmetry_cell_setting 'orthorhombic'
loop_
_space_group_symop_operation_xyz
x,y,z
-x,-y,z
1/2-x,y,z
1/2+x,-y,z
1/2+x,1/2+y,1/2+z
1/2-x,1/2-y,1/2+z
-x,1/2+y,1/2+z
x,1/2-y,1/2+z
loop_
_atom_site_type_symbol
_atom_site_label
_atom_site_fract_x
_atom_site_fract_y
_atom_site_fract_z
Si Si1 0.086314 0.355035 0.152660
Si Si2 0.423745 0.796176 0.821204
Si Si3 0.571673 0.573564 0.521144
Si Si4 0.075478 0.802373 0.955909
Si Si5 0.417578 0.213026 0.225610
Si Si6 0.428738 0.072687 0.765807
Si Si7 0.582696 0.355672 0.627465
Si Si8 0.587140 0.287977 0.058349
O O1 0.250000 0.380371 0.135330
O O2 0.090900 0.280733 0.184753
O O3 0.017374 0.410504 0.199038
O O4 0.000734 0.350254 0.090928
O O5 0.250000 0.804886 0.804909
O O6 0.447493 0.779377 0.889359
O O7 0.492178 0.731546 0.784717
O O8 0.509662 0.868259 0.809026
O O9 0.500000 0.500000 0.502489
O O10 0.750000 0.569004 0.521767
O O11 0.519425 0.628959 0.471981
O O12 0.513536 0.593916 0.585788
O O13 0.250000 0.817818 0.970575
O O14 0.017812 0.737166 0.996193
O O15 0.250000 0.188456 0.241980
O O16 0.501686 0.150649 0.190712
O O17 0.250000 0.071237 0.770370
O O18 0.500000 0.000000 0.786221
O O19 0.750000 0.386635 0.635616
O O20 0.593486 0.279046 0.600126
O O21 0.750000 0.319526 0.047295
#
# Coordination Sequence:
#
# PCOD8191706 Si02
#       8
#     8   8   8   8   8   8   8   8
#     4   8  15  26  40  59  81 103 130 169 213 255
#     4  10  19  31  46  62  85 118 151 183 219 256
#     4  11  21  32  46  63  86 117 151 186 223 261
#     4   9  19  33  45  61  86 116 151 185 215 256
#     4   9  16  27  43  64  87 109 139 178 219 261
#     4  10  20  32  44  60  84 113 147 183 216 256
#     4   9  16  28  45  64  85 109 140 177 220 265
#     4   8  14  25  42  61  80 103 133 171 212 254
#
# _framework density 16.423179999999999
#
# number of rings (size 3 to 8) (size 9 to 14) (size 15 to 20)
#    0.000    2.750    0.000    4.125    0.000    8.000 
#    0.000    0.000    0.000    0.000    0.000    0.000 
#    0.000    1.000    0.000    6.500    0.000    6.500 
#
# Total GULP energy -396600.726107 kJ/mol
# GULP energy per Si atom -12393.772691 kJ/mol
# Density = 1.638580 g / cm^3
# Si number density = 16.423180 Si / 1000 Ang^3
#
#
#
# Elastic Constant Matrix: (Units=GPa)
#
#
# Indices 1 2 3 4 5 6 
#
# 1 103.0217 11.4779 43.4319 0.0000 0.0000 0.0000
# 2 11.4779 6.8784 19.2887 0.0000 0.0000 0.0000
# 3 43.4319 19.2887 102.5758 0.0000 0.0000 0.0000
# 4 0.0000 0.0000 0.0000 14.0098 0.0000 0.0000
# 5 0.0000 0.0000 0.0000 0.0000 24.7592 0.0000
# 6 0.0000 0.0000 0.0000 0.0000 0.0000 20.5992
#
#
#
# Elastic Compliance Matrix: (Units=1/GPa)
#
#
# Indices 1 2 3 4 5 6 
#
# 1 0.012306 -0.012531 -0.002854 0.000000 0.000000 0.000000
# 2 -0.012531 0.320329 -0.054930 0.000000 0.000000 0.000000
# 3 -0.002854 -0.054930 0.021287 0.000000 0.000000 0.000000
# 4 0.000000 0.000000 0.000000 0.071379 0.000000 0.000000
# 5 0.000000 0.000000 0.000000 0.000000 0.040389 0.000000
# 6 0.000000 0.000000 0.000000 0.000000 0.000000 0.048546
#
#
# Mechanical properties :
#
#
# Convention : Reuss Voigt Hill
#
# Bulk Modulus (GPa) = 4.68843 40.09701 22.39272
# Shear Modulus (GPa) = 6.88740 21.09212 13.98976
#
# Velocity S-wave (km/s) = 2.05008 3.58759 2.92178
# Velocity P-wave (km/s) = 2.90942 6.45205 5.00468
#
# Compressibility (1/GPa) = 0.21329119
#
# Stress axis : x y z
#
# Youngs Moduli (GPa) = 81.26055 3.12179 46.97800
#
# Poissons Ratio (x) = 0.03912 0.13408
# Poissons Ratio (y) = 1.01831 2.58050
# Poissons Ratio (z) = 0.23193 0.17148
#
# Static dielectric constant tensor:
#      x y z
#    x 3.332740 0.000000 0.000000 
#    y 0.000000 2.774980 0.000000 
#    z 0.000000 0.000000 3.123260 
# 
# 
# High freq. dielectric constant tensor:
#      x y z
#    x 1.645380 0.000000 0.000000 
#    y 0.000000 1.579100 0.000000 
#    z 0.000000 0.000000 1.621560 
# 
# From -- ./inp_files/23300.got.cif
#   From: 2010.03.12/outbox.cif.g09.slc.cpg/sg46_12_cif.got.tgz:23300.got - 2010.04.14 02:56:35.
