data_PCOD8191565
_publ_section_title
;
Structure prediction by ZEFSAII (Michael W. Deem and Ramdas Pophale) SiO2 
 PCOD8191565
Probable space group: I M A 2
;
_chemical_formula_sum "Si O2"
_cell_formula_units_Z 64
_cell_length_a 8.990262
_cell_length_b 20.624886
_cell_length_c 19.582984
_cell_angle_alpha 90.000000
_cell_angle_beta 90.000000
_cell_angle_gamma 90.000000
_cell_volume 3631.138166
_symmetry_space_group_name_H-M "I M A 2"
_symmetry_group_IT_number 46
_symmetry_cell_setting 'orthorhombic'
loop_
_space_group_symop_operation_xyz
x,y,z
-x,-y,z
1/2-x,y,z
1/2+x,-y,z
1/2+x,1/2+y,1/2+z
1/2-x,1/2-y,1/2+z
-x,1/2+y,1/2+z
x,1/2-y,1/2+z
loop_
_atom_site_type_symbol
_atom_site_label
_atom_site_fract_x
_atom_site_fract_y
_atom_site_fract_z
Si Si1 0.076215 0.879359 0.887510
Si Si2 0.925381 0.566059 0.668786
Si Si3 0.420439 0.119541 0.024507
Si Si4 0.576368 0.228604 0.389369
Si Si5 0.073664 0.189469 0.672820
Si Si6 0.426738 0.312124 0.756644
Si Si7 0.426716 0.434114 0.257065
Si Si8 0.579224 0.728937 0.026795
O O1 0.250000 0.893432 0.878381
O O2 0.036619 0.803922 0.878020
O O3 0.984278 0.920255 0.832988
O O4 0.025149 0.902578 0.962347
O O5 0.750000 0.559052 0.673797
O O6 0.973854 0.580787 0.591129
O O7 0.980886 0.623572 0.717841
O O8 0.000000 0.500000 0.694103
O O9 0.250000 0.103879 0.005493
O O10 0.439038 0.195085 0.041122
O O11 0.750000 0.215427 0.385536
O O12 0.495215 0.186341 0.332082
O O13 0.518438 0.205400 0.463067
O O14 0.250000 0.195260 0.673770
O O15 0.009205 0.249746 0.716097
O O16 0.018919 0.122617 0.706339
O O17 0.018882 0.192336 0.594397
O O18 0.250000 0.308984 0.762511
O O19 0.500000 0.500000 0.229409
O O20 0.250000 0.440613 0.258489
O O21 0.750000 0.711312 0.011261
#
# Coordination Sequence:
#
# PCOD8191565 Si02
#       8
#     8   8   8   8   8   8   8   8
#     4  10  20  33  49  74 108 142 177 213 253 309
#     4  10  21  35  53  77 107 139 176 218 261 311
#     4   9  17  31  51  74 102 139 177 214 255 303
#     4  10  20  32  49  80 113 137 167 216 269 310
#     4   9  17  32  57  81  99 129 178 222 256 302
#     4  10  18  34  57  79 101 136 181 219 255 307
#     4  11  22  36  54  76 105 140 176 217 263 311
#     4   9  16  31  55  79 101 131 175 220 258 307
#
# _framework density 17.625328
#
# number of rings (size 3 to 8) (size 9 to 14) (size 15 to 20)
#    0.000    2.250    2.500    1.125    0.000    2.500 
#    0.000    3.125    0.000    0.750    0.000    1.750 
#    0.000    0.000    0.000    0.000    0.000    0.000 
#
# Total GULP energy -396871.036301 kJ/mol
# GULP energy per Si atom -12402.219884 kJ/mol
# Density = 1.758521 g / cm^3
# Si number density = 17.625328 Si / 1000 Ang^3
#
#
#
# Elastic Constant Matrix: (Units=GPa)
#
#
# Indices 1 2 3 4 5 6 
#
# 1 49.8270 37.8457 33.9773 0.0000 0.0000 0.0000
# 2 37.8457 110.3341 67.8126 0.0000 0.0000 0.0000
# 3 33.9773 67.8126 121.0517 0.0000 0.0000 0.0000
# 4 0.0000 0.0000 0.0000 24.8445 0.0000 0.0000
# 5 0.0000 0.0000 0.0000 0.0000 18.6107 0.0000
# 6 0.0000 0.0000 0.0000 0.0000 0.0000 25.4129
#
#
#
# Elastic Compliance Matrix: (Units=1/GPa)
#
#
# Indices 1 2 3 4 5 6 
#
# 1 0.028250 -0.007346 -0.003814 0.000000 0.000000 0.000000
# 2 -0.007346 0.015733 -0.006751 0.000000 0.000000 0.000000
# 3 -0.003814 -0.006751 0.013114 0.000000 0.000000 0.000000
# 4 0.000000 0.000000 0.000000 0.040250 0.000000 0.000000
# 5 0.000000 0.000000 0.000000 0.000000 0.053732 0.000000
# 6 0.000000 0.000000 0.000000 0.000000 0.000000 0.039350
#
#
# Mechanical properties :
#
#
# Convention : Reuss Voigt Hill
#
# Bulk Modulus (GPa) = 47.00758 62.27601 54.64179
# Shear Modulus (GPa) = 21.42773 23.21213 22.31993
#
# Velocity S-wave (km/s) = 3.49052 3.63295 3.56245
# Velocity P-wave (km/s) = 6.55541 7.28064 6.92752
#
# Compressibility (1/GPa) = 0.02127317
#
# Stress axis : x y z
#
# Youngs Moduli (GPa) = 35.39860 63.56245 76.25624
#
# Poissons Ratio (x) = 0.46691 0.29086
# Poissons Ratio (y) = 0.26003 0.51484
# Poissons Ratio (z) = 0.13502 0.42914
#
# Static dielectric constant tensor:
#      x y z
#    x 3.075250 0.000000 0.000000 
#    y 0.000000 3.190970 0.000000 
#    z 0.000000 0.000000 3.352780 
# 
# 
# High freq. dielectric constant tensor:
#      x y z
#    x 1.668690 0.000000 0.000000 
#    y 0.000000 1.659080 0.000000 
#    z 0.000000 0.000000 1.686030 
# 
# From -- ./inp_files/18574.got.cif
#   From: 2010.03.12/outbox.cif.g09.slc.cpg/sg46_10_cif.got.tgz:18574.got - 2010.04.14 02:56:35.
