data_PCOD8191933
_publ_section_title
;
Structure prediction by ZEFSAII (Michael W. Deem and Ramdas Pophale) SiO2 
 PCOD8191933
Probable space group: I M A 2
;
_chemical_formula_sum "Si O2"
_cell_formula_units_Z 64
_cell_length_a 19.909346
_cell_length_b 20.119144
_cell_length_c 8.605710
_cell_angle_alpha 90.000000
_cell_angle_beta 90.000000
_cell_angle_gamma 90.000000
_cell_volume 3447.094584
_symmetry_space_group_name_H-M "I M A 2"
_symmetry_group_IT_number 46
_symmetry_cell_setting 'orthorhombic'
loop_
_space_group_symop_operation_xyz
x,y,z
-x,-y,z
1/2-x,y,z
1/2+x,-y,z
1/2+x,1/2+y,1/2+z
1/2-x,1/2-y,1/2+z
-x,1/2+y,1/2+z
x,1/2-y,1/2+z
loop_
_atom_site_type_symbol
_atom_site_label
_atom_site_fract_x
_atom_site_fract_y
_atom_site_fract_z
Si Si1 0.425741 0.820167 0.922680
Si Si2 0.328384 0.923584 0.419611
Si Si3 0.824300 0.573049 0.925882
Si Si4 0.431427 0.178410 0.425719
Si Si5 0.675700 0.573049 0.556638
Si Si6 0.171616 0.923584 0.062910
Si Si7 0.568573 0.821590 0.056801
Si Si8 0.925741 0.179833 0.559840
O O1 0.438386 0.811350 0.741260
O O2 0.368995 0.874427 0.952726
O O3 0.495003 0.843428 0.001366
O O4 0.401273 0.750000 0.991260
O O5 0.250000 0.907885 0.438469
O O6 0.350815 0.913310 0.241260
O O7 0.368995 0.874427 0.529794
O O8 0.344305 0.998447 0.476427
O O9 0.750000 0.591031 0.990704
O O10 0.878261 0.625040 0.992639
O O11 0.822364 0.575601 0.741260
O O12 0.429980 0.180769 0.241260
O O13 0.410998 0.250000 0.491260
O O14 0.504997 0.156572 0.481154
O O15 0.750000 0.591031 0.491816
O O16 0.655695 0.498447 0.506094
O O17 0.621739 0.625040 0.489882
O O18 0.250000 0.907885 0.044051
#
# Coordination Sequence:
#
# PCOD8191933 Si02
#       8
#     8   8   8   8   8   8   8   8
#     4  11  22  36  53  74 103 135 170 210 253 302
#     4   9  18  35  57  78 101 131 169 210 251 299
#     4   8  16  32  54  78 103 134 171 208 248 300
#     4  10  19  33  53  76 104 136 172 211 251 297
#     4   8  16  32  54  78 103 134 171 208 248 300
#     4   9  18  35  57  78 101 131 169 210 251 299
#     4  10  19  33  53  76 104 136 172 211 251 297
#     4  11  22  36  53  74 103 135 170 210 253 302
#
# _framework density 18.56636
#
# number of rings (size 3 to 8) (size 9 to 14) (size 15 to 20)
#    0.000    2.500    0.000    6.000    0.000    2.500 
#    0.000    7.500    0.000    5.250    0.000    0.000 
#    0.000    0.000    0.000    0.000    0.000    0.000 
#
# Total GULP energy -396798.097731 kJ/mol
# GULP energy per Si atom -12399.940554 kJ/mol
# Density = 1.852410 g / cm^3
# Si number density = 18.566360 Si / 1000 Ang^3
#
#
#
# Elastic Constant Matrix: (Units=GPa)
#
#
# Indices 1 2 3 4 5 6 
#
# 1 103.3625 89.0170 28.0150 0.0000 0.0000 0.0000
# 2 89.0170 128.2159 31.1290 0.0000 0.0000 0.0000
# 3 28.0150 31.1290 67.8843 0.0000 0.0000 0.0000
# 4 0.0000 0.0000 0.0000 27.0616 0.0000 0.0000
# 5 0.0000 0.0000 0.0000 0.0000 21.6204 0.0000
# 6 0.0000 0.0000 0.0000 0.0000 0.0000 42.9079
#
#
#
# Elastic Compliance Matrix: (Units=1/GPa)
#
#
# Indices 1 2 3 4 5 6 
#
# 1 0.024461 -0.016353 -0.002596 0.000000 0.000000 0.000000
# 2 -0.016353 0.019708 -0.002289 0.000000 0.000000 0.000000
# 3 -0.002596 -0.002289 0.016852 0.000000 0.000000 0.000000
# 4 0.000000 0.000000 0.000000 0.036953 0.000000 0.000000
# 5 0.000000 0.000000 0.000000 0.000000 0.046253 0.000000
# 6 0.000000 0.000000 0.000000 0.000000 0.000000 0.023306
#
#
# Mechanical properties :
#
#
# Convention : Reuss Voigt Hill
#
# Bulk Modulus (GPa) = 53.91966 66.19832 60.05899
# Shear Modulus (GPa) = 23.12776 28.40476 25.76626
#
# Velocity S-wave (km/s) = 3.53325 3.91564 3.72935
# Velocity P-wave (km/s) = 6.76386 7.49502 7.13881
#
# Compressibility (1/GPa) = 0.01854611
#
# Stress axis : x y z
#
# Youngs Moduli (GPa) = 40.88069 50.74016 59.34016
#
# Poissons Ratio (x) = 0.82973 0.15406
# Poissons Ratio (y) = 0.66851 0.13582
# Poissons Ratio (z) = 0.10614 0.11614
#
# Static dielectric constant tensor:
#      x y z
#    x 3.553970 0.000000 0.000000 
#    y 0.000000 3.547180 0.000000 
#    z 0.000000 0.000000 3.167660 
# 
# 
# High freq. dielectric constant tensor:
#      x y z
#    x 1.722870 0.000000 0.000000 
#    y 0.000000 1.725270 0.000000 
#    z 0.000000 0.000000 1.701890 
# 
# From -- ./inp_files/6950.got.cif
#   From: 2010.03.12/outbox.cif.g09.slc.cpg/sg46_4_cif.got.tgz:6950.got - 2010.04.14 02:56:35.
