data_PCOD8191995
_publ_section_title
;
Structure prediction by ZEFSAII (Michael W. Deem and Ramdas Pophale) SiO2 
 PCOD8191995
Probable space group: I M A 2
;
_chemical_formula_sum "Si O2"
_cell_formula_units_Z 56
_cell_length_a 8.963136
_cell_length_b 14.465246
_cell_length_c 21.794832
_cell_angle_alpha 90.000000
_cell_angle_beta 90.000000
_cell_angle_gamma 90.000000
_cell_volume 2825.786433
_symmetry_space_group_name_H-M "I M A 2"
_symmetry_group_IT_number 46
_symmetry_cell_setting 'orthorhombic'
loop_
_space_group_symop_operation_xyz
x,y,z
-x,-y,z
1/2-x,y,z
1/2+x,-y,z
1/2+x,1/2+y,1/2+z
1/2-x,1/2-y,1/2+z
-x,1/2+y,1/2+z
x,1/2-y,1/2+z
loop_
_atom_site_type_symbol
_atom_site_label
_atom_site_fract_x
_atom_site_fract_y
_atom_site_fract_z
Si Si1 0.926403 0.278912 0.784700
Si Si2 0.922837 0.711990 0.562450
Si Si3 0.072466 0.404445 0.309770
Si Si4 0.923936 0.908806 0.521747
Si Si5 0.927193 0.905805 0.380917
Si Si6 0.921233 0.909683 0.949115
Si Si7 0.575672 0.099044 0.167670
O O1 0.750000 0.269537 0.794333
O O2 0.967608 0.344534 0.728101
O O3 0.999008 0.178836 0.771179
O O4 0.003362 0.319752 0.845221
O O5 0.750000 0.698527 0.580513
O O6 0.968784 0.819941 0.562374
O O7 0.952398 0.676454 0.493360
O O8 0.024403 0.657021 0.609180
O O9 0.250000 0.406313 0.299925
O O10 0.023847 0.386973 0.380471
O O11 0.000000 0.500000 0.286158
O O12 0.750000 0.926053 0.524268
O O13 0.973749 0.893015 0.451594
O O14 0.000000 0.000000 0.550036
O O15 0.750000 0.908199 0.371007
O O16 0.000000 0.000000 0.354881
O O17 0.750000 0.936007 0.946367
O O18 0.000000 0.000000 0.976707
O O19 0.750000 0.082400 0.162101
O O20 0.500000 0.000000 0.169856
#
# Coordination Sequence:
#
# PCOD8191995 Si02
#       7
#     8   8   8   8   8   8   8
#     4  11  23  38  56  80 110 146 189 231 273 324
#     4  10  20  36  57  80 109 145 184 224 270 322
#     4  10  20  36  58  84 115 147 181 224 274 327
#     4   9  19  35  55  82 114 145 179 223 272 325
#     4  10  19  33  55  84 116 147 181 223 275 331
#     4   9  18  32  52  81 113 143 176 218 269 325
#     4  11  25  42  59  81 109 141 181 227 271 320
#
# _framework density 19.817492999999999
#
# number of rings (size 3 to 8) (size 9 to 14) (size 15 to 20)
#    0.000    2.000    0.000    3.429    0.000    9.143 
#    0.000    2.143    0.000    1.714    0.000    0.000 
#    0.000    0.000    0.000    0.000    0.000    0.000 
#
# Total GULP energy -347269.605001 kJ/mol
# GULP energy per Si atom -12402.485893 kJ/mol
# Density = 1.977239 g / cm^3
# Si number density = 19.817493 Si / 1000 Ang^3
#
#
#
# Elastic Constant Matrix: (Units=GPa)
#
#
# Indices 1 2 3 4 5 6 
#
# 1 77.3230 63.8227 36.8867 0.0000 0.0000 0.0000
# 2 63.8227 173.8524 49.2045 0.0000 0.0000 0.0000
# 3 36.8867 49.2045 56.8885 0.0000 0.0000 0.0000
# 4 0.0000 0.0000 0.0000 26.8529 0.0000 0.0000
# 5 0.0000 0.0000 0.0000 0.0000 22.6788 0.0000
# 6 0.0000 0.0000 0.0000 0.0000 0.0000 41.2198
#
#
#
# Elastic Compliance Matrix: (Units=1/GPa)
#
#
# Indices 1 2 3 4 5 6 
#
# 1 0.021908 -0.005326 -0.009599 0.000000 0.000000 0.000000
# 2 -0.005326 0.008911 -0.004254 0.000000 0.000000 0.000000
# 3 -0.009599 -0.004254 0.027482 0.000000 0.000000 0.000000
# 4 0.000000 0.000000 0.000000 0.037240 0.000000 0.000000
# 5 0.000000 0.000000 0.000000 0.000000 0.044094 0.000000
# 6 0.000000 0.000000 0.000000 0.000000 0.000000 0.024260
#
#
# Mechanical properties :
#
#
# Convention : Reuss Voigt Hill
#
# Bulk Modulus (GPa) = 50.14243 67.54353 58.84298
# Shear Modulus (GPa) = 23.93492 28.69364 26.31428
#
# Velocity S-wave (km/s) = 3.47906 3.80925 3.64789
# Velocity P-wave (km/s) = 6.44170 7.31464 6.89201
#
# Compressibility (1/GPa) = 0.01994319
#
# Stress axis : x y z
#
# Youngs Moduli (GPa) = 45.64598 112.21770 36.38803
#
# Poissons Ratio (x) = 0.59766 0.34927
# Poissons Ratio (y) = 0.24311 0.15480
# Poissons Ratio (z) = 0.43813 0.47740
#
# Static dielectric constant tensor:
#      x y z
#    x 3.586250 0.000000 0.000000 
#    y 0.000000 3.850250 0.000000 
#    z 0.000000 0.000000 3.459390 
# 
# 
# High freq. dielectric constant tensor:
#      x y z
#    x 1.774560 0.000000 0.000000 
#    y 0.000000 1.789500 0.000000 
#    z 0.000000 0.000000 1.749390 
# 
# From -- ./inp_files/21077.got.cif
#   From: 2010.03.12/outbox.cif.g09.slc.cpg/sg46_11_cif.got.tgz:21077.got - 2010.04.14 02:56:35.
