data_PCOD8191137
_publ_section_title
;
Structure prediction by ZEFSAII (Michael W. Deem and Ramdas Pophale) SiO2 
 PCOD8191137
Probable space group: I M A 2
;
_chemical_formula_sum "Si O2"
_cell_formula_units_Z 64
_cell_length_a 25.606296
_cell_length_b 19.364129
_cell_length_c 8.562228
_cell_angle_alpha 90.000000
_cell_angle_beta 90.000000
_cell_angle_gamma 90.000000
_cell_volume 4245.526118
_symmetry_space_group_name_H-M "I M A 2"
_symmetry_group_IT_number 46
_symmetry_cell_setting 'orthorhombic'
loop_
_space_group_symop_operation_xyz
x,y,z
-x,-y,z
1/2-x,y,z
1/2+x,-y,z
1/2+x,1/2+y,1/2+z
1/2-x,1/2-y,1/2+z
-x,1/2+y,1/2+z
x,1/2-y,1/2+z
loop_
_atom_site_type_symbol
_atom_site_label
_atom_site_fract_x
_atom_site_fract_y
_atom_site_fract_z
Si Si1 0.514229 0.657457 0.351950
Si Si2 0.956478 0.160354 0.261098
Si Si3 0.311557 0.333751 0.334442
Si Si4 0.580602 0.667383 0.751542
Si Si5 0.889656 0.921527 0.982480
Si Si6 0.632764 0.721211 0.046204
Si Si7 0.475402 0.722594 0.056994
Si Si8 0.048483 0.951013 0.035680
O O1 0.570348 0.624716 0.380377
O O2 0.508319 0.671684 0.168024
O O3 0.512370 0.731174 0.442382
O O4 0.468185 0.605819 0.407456
O O5 0.938152 0.227069 0.158665
O O6 0.941061 0.173242 0.441740
O O7 0.932471 0.089720 0.192133
O O8 0.019088 0.154020 0.241112
O O9 0.250000 0.337861 0.341805
O O10 0.333780 0.406394 0.403965
O O11 0.329303 0.324151 0.155310
O O12 0.331362 0.272110 0.444826
O O13 0.608494 0.603173 0.663161
O O14 0.592662 0.738320 0.659204
O O15 0.600923 0.670758 0.929404
O O16 0.903619 0.002789 0.972185
O O17 0.000000 0.000000 0.078427
#
# Coordination Sequence:
#
# PCOD8191137 Si02
#       8
#     8   8   8   8   8   8   8   8
#     4   9  17  26  41  59  84 106 136 172 205 250
#     4  10  16  24  41  55  85 105 135 175 198 259
#     4  10  20  32  44  61  81 111 145 193 235 260
#     4  10  16  25  39  60  74 107 134 173 213 258
#     4  10  19  29  44  56  79 116 144 177 211 260
#     4   9  20  27  43  61  83 102 141 189 229 263
#     4   9  17  23  38  62  79 106 136 166 206 239
#     4   9  16  31  38  54  81 113 139 168 213 242
#
# _framework density 15.074693
#
# number of rings (size 3 to 8) (size 9 to 14) (size 15 to 20)
#    0.000    2.500    3.750    1.125   10.500    0.000 
#    0.000    3.750    0.000    0.000    0.000    0.000 
#    0.000    0.000    0.000   18.000    0.000    0.000 
#
# Total GULP energy -396559.495939 kJ/mol
# GULP energy per Si atom -12392.484248 kJ/mol
# Density = 1.504038 g / cm^3
# Si number density = 15.074693 Si / 1000 Ang^3
#
#
#
# Elastic Constant Matrix: (Units=GPa)
#
#
# Indices 1 2 3 4 5 6 
#
# 1 37.5969 19.7882 12.2831 0.0000 0.0000 0.0000
# 2 19.7882 70.5187 35.2808 0.0000 0.0000 0.0000
# 3 12.2831 35.2808 101.3162 0.0000 0.0000 0.0000
# 4 0.0000 0.0000 0.0000 18.1210 0.0000 0.0000
# 5 0.0000 0.0000 0.0000 0.0000 12.8851 0.0000
# 6 0.0000 0.0000 0.0000 0.0000 0.0000 14.9924
#
#
#
# Elastic Compliance Matrix: (Units=1/GPa)
#
#
# Indices 1 2 3 4 5 6 
#
# 1 0.031273 -0.008330 -0.000891 0.000000 0.000000 0.000000
# 2 -0.008330 0.019391 -0.005743 0.000000 0.000000 0.000000
# 3 -0.000891 -0.005743 0.011978 0.000000 0.000000 0.000000
# 4 0.000000 0.000000 0.000000 0.055185 0.000000 0.000000
# 5 0.000000 0.000000 0.000000 0.000000 0.077609 0.000000
# 6 0.000000 0.000000 0.000000 0.000000 0.000000 0.066700
#
#
# Mechanical properties :
#
#
# Convention : Reuss Voigt Hill
#
# Bulk Modulus (GPa) = 30.56641 38.23735 34.40188
# Shear Modulus (GPa) = 16.50341 18.67168 17.58755
#
# Velocity S-wave (km/s) = 3.31233 3.52321 3.41940
# Velocity P-wave (km/s) = 5.91180 6.47850 6.20163
#
# Compressibility (1/GPa) = 0.03271565
#
# Stress axis : x y z
#
# Youngs Moduli (GPa) = 31.97626 51.57003 83.48783
#
# Poissons Ratio (x) = 0.42957 0.07437
# Poissons Ratio (y) = 0.26636 0.47944
# Poissons Ratio (z) = 0.02848 0.29615
#
# Static dielectric constant tensor:
#      x y z
#    x 2.453200 0.000000 0.000000 
#    y 0.000000 2.987800 0.000000 
#    z 0.000000 0.000000 3.314280 
# 
# 
# High freq. dielectric constant tensor:
#      x y z
#    x 1.509280 0.000000 0.000000 
#    y 0.000000 1.558800 0.000000 
#    z 0.000000 0.000000 1.595480 
# 
# From -- ./inp_files/8031.got.cif
#   From: 2010.03.12/outbox.cif.g09.slc.cpg/sg46_5_cif.got.tgz:8031.got - 2010.04.14 02:56:35.
