data_PCOD8191165
_publ_section_title
;
Structure prediction by ZEFSAII (Michael W. Deem and Ramdas Pophale) SiO2 
 PCOD8191165
Probable space group: I M A 2
;
_chemical_formula_sum "Si O2"
_cell_formula_units_Z 48
_cell_length_a 8.624750
_cell_length_b 31.927793
_cell_length_c 9.307862
_cell_angle_alpha 90.000000
_cell_angle_beta 90.000000
_cell_angle_gamma 90.000000
_cell_volume 2563.098817
_symmetry_space_group_name_H-M "I M A 2"
_symmetry_group_IT_number 46
_symmetry_cell_setting 'orthorhombic'
loop_
_space_group_symop_operation_xyz
x,y,z
-x,-y,z
1/2-x,y,z
1/2+x,-y,z
1/2+x,1/2+y,1/2+z
1/2-x,1/2-y,1/2+z
-x,1/2+y,1/2+z
x,1/2-y,1/2+z
loop_
_atom_site_type_symbol
_atom_site_label
_atom_site_fract_x
_atom_site_fract_y
_atom_site_fract_z
Si Si1 0.566835 0.286331 0.801220
Si Si2 0.932363 0.712981 0.484735
Si Si3 0.577645 0.541110 0.834918
Si Si4 0.068446 0.872313 0.992774
Si Si5 0.073955 0.042468 0.992059
Si Si6 0.935520 0.630260 0.807234
O O1 0.750000 0.290483 0.776531
O O2 0.478342 0.282245 0.650627
O O3 0.498404 0.327739 0.884852
O O4 0.530225 0.246577 0.897046
O O5 0.750000 0.720497 0.465199
O O6 0.979000 0.667203 0.421980
O O7 0.500000 0.500000 0.903268
O O8 0.750000 0.535402 0.886611
O O9 0.560058 0.541923 0.663639
O O10 0.519523 0.586970 0.891723
O O11 0.250000 0.867100 0.966360
O O12 0.012680 0.916779 0.927405
O O13 0.028892 0.871095 0.159636
O O14 0.250000 0.044705 0.940814
O O15 0.000000 0.000000 0.928503
O O16 0.750000 0.631756 0.779013
#
# Coordination Sequence:
#
# PCOD8191165 Si02
#       6
#     8   8   8   8   8   8
#     4  11  21  34  51  73  97 125 161 203 244 287
#     4  11  21  35  52  71  96 129 163 199 242 291
#     4   8  14  21  32  50  76 108 144 180 219 267
#     4  10  17  26  40  60  85 116 151 190 232 278
#     4   9  15  23  34  52  78 111 147 184 225 275
#     4   9  16  27  40  58  84 117 152 188 230 280
#
# _framework density 18.727332000000001
#
# number of rings (size 3 to 8) (size 9 to 14) (size 15 to 20)
#    0.000    2.333    0.000    8.500    0.000    4.667 
#    0.000    0.000    0.000    0.000    0.000    0.000 
#    0.000    1.333    0.000   11.333    0.000   12.667 
#
# Total GULP energy -297315.404735 kJ/mol
# GULP energy per Si atom -12388.141864 kJ/mol
# Density = 1.868471 g / cm^3
# Si number density = 18.727332 Si / 1000 Ang^3
#
#
#
# Elastic Constant Matrix: (Units=GPa)
#
#
# Indices 1 2 3 4 5 6 
#
# 1 100.9787 38.2115 3.8342 -0.0016 0.0000 0.0001
# 2 38.2115 190.9834 18.4751 -0.0049 0.0004 0.0005
# 3 3.8342 18.4751 11.9294 -0.0051 0.0007 0.0009
# 4 -0.0016 -0.0049 -0.0051 15.3977 0.0002 0.0004
# 5 0.0000 0.0004 0.0007 0.0002 13.0367 -0.0007
# 6 0.0001 0.0005 0.0009 0.0004 -0.0007 41.7026
#
#
#
# Elastic Compliance Matrix: (Units=1/GPa)
#
#
# Indices 1 2 3 4 5 6 
#
# 1 0.010714 -0.002130 -0.000146 0.000000 0.000000 0.000000
# 2 -0.002130 0.006582 -0.009509 -0.000001 0.000000 0.000000
# 3 -0.000146 -0.009509 0.098600 0.000029 -0.000005 -0.000002
# 4 0.000000 -0.000001 0.000029 0.064945 -0.000001 -0.000001
# 5 0.000000 0.000000 -0.000005 -0.000001 0.076707 0.000001
# 6 0.000000 0.000000 -0.000002 -0.000001 0.000001 0.023979
#
#
# Mechanical properties :
#
#
# Convention : Reuss Voigt Hill
#
# Bulk Modulus (GPa) = 10.83099 47.21480 29.02289
# Shear Modulus (GPa) = 14.88666 30.25212 22.56939
#
# Velocity S-wave (km/s) = 2.82248 4.02356 3.47530
# Velocity P-wave (km/s) = 4.05191 6.84484 5.62449
#
# Compressibility (1/GPa) = 0.09232764
#
# Stress axis : x y z
#
# Youngs Moduli (GPa) = 93.33153 151.92889 10.14202
#
# Poissons Ratio (x) = 0.32356 0.00148
# Poissons Ratio (y) = 0.19876 0.09644
# Poissons Ratio (z) = 0.01359 1.44470
#
# Static dielectric constant tensor:
#      x y z
#    x 3.510720 0.000000 0.000000 
#    y 0.000000 4.611060 0.000000 
#    z 0.000000 0.000000 2.583750 
# 
# 
# High freq. dielectric constant tensor:
#      x y z
#    x 1.741470 0.000000 0.000000 
#    y 0.000000 1.768460 0.000000 
#    z 0.000000 0.000000 1.622450 
# 
# From -- ./inp_files/9562.got.cif
#   From: 2010.03.12/outbox.cif.g09.slc.cpg/sg46_5_cif.got.tgz:9562.got - 2010.04.14 02:56:35.
