data_PCOD8191149
_publ_section_title
;
Structure prediction by ZEFSAII (Michael W. Deem and Ramdas Pophale) SiO2 
 PCOD8191149
Probable space group: I M A 2
;
_chemical_formula_sum "Si O2"
_cell_formula_units_Z 64
_cell_length_a 8.748272
_cell_length_b 23.409436
_cell_length_c 19.342128
_cell_angle_alpha 90.000000
_cell_angle_beta 90.000000
_cell_angle_gamma 90.000000
_cell_volume 3961.115273
_symmetry_space_group_name_H-M "I M A 2"
_symmetry_group_IT_number 46
_symmetry_cell_setting 'orthorhombic'
loop_
_space_group_symop_operation_xyz
x,y,z
-x,-y,z
1/2-x,y,z
1/2+x,-y,z
1/2+x,1/2+y,1/2+z
1/2-x,1/2-y,1/2+z
-x,1/2+y,1/2+z
x,1/2-y,1/2+z
loop_
_atom_site_type_symbol
_atom_site_label
_atom_site_fract_x
_atom_site_fract_y
_atom_site_fract_z
Si Si1 0.069456 0.767720 0.081670
Si Si2 0.070530 0.061868 0.591495
Si Si3 0.570086 0.224011 0.376089
Si Si4 0.431093 0.741409 0.230503
Si Si5 0.431776 0.560456 0.367927
Si Si6 0.930945 0.617169 0.235146
Si Si7 0.931924 0.166167 0.954305
Si Si8 0.430190 0.654679 0.001840
O O1 0.250000 0.770543 0.081744
O O2 0.008784 0.772378 0.160563
O O3 0.018133 0.706890 0.050988
O O4 0.009103 0.819699 0.032753
O O5 0.250000 0.055701 0.589913
O O6 0.014808 0.092570 0.661498
O O7 0.017122 0.098094 0.525231
O O8 0.000000 0.000000 0.586079
O O9 0.750000 0.228005 0.385766
O O10 0.525697 0.217381 0.295251
O O11 0.502853 0.283906 0.404545
O O12 0.515730 0.170551 0.423245
O O13 0.250000 0.729672 0.227495
O O14 0.513565 0.681661 0.241719
O O15 0.500000 0.500000 0.390217
O O16 0.250000 0.557104 0.365249
O O17 0.491353 0.578053 0.292846
O O18 0.491290 0.605512 0.425956
O O19 0.750000 0.614238 0.244170
O O20 0.750000 0.166105 0.952486
O O21 0.250000 0.643492 0.006587
#
# Coordination Sequence:
#
# PCOD8191149 Si02
#       8
#     8   8   8   8   8   8   8   8
#     4   8  14  24  45  71  91 116 152 189 225 266
#     4  11  23  35  47  64  90 123 159 193 227 269
#     4   8  14  25  45  71  93 115 148 188 228 270
#     4  10  16  27  49  72  93 123 157 187 223 267
#     4  11  21  33  49  65  90 124 160 195 227 265
#     4  11  22  33  44  65  96 125 157 189 221 267
#     4   8  14  26  43  66  92 117 148 190 229 263
#     4   9  16  29  48  68  91 118 151 191 230 268
#
# _framework density 16.157064999999999
#
# number of rings (size 3 to 8) (size 9 to 14) (size 15 to 20)
#    0.000    2.500    2.500    3.000    0.000    2.500 
#    0.000    0.625    0.000    1.500    0.000    0.875 
#    0.000    2.000    0.000    0.000    0.000    0.250 
#
# Total GULP energy -396556.120194 kJ/mol
# GULP energy per Si atom -12392.378756 kJ/mol
# Density = 1.612029 g / cm^3
# Si number density = 16.157065 Si / 1000 Ang^3
#
#
#
# Elastic Constant Matrix: (Units=GPa)
#
#
# Indices 1 2 3 4 5 6 
#
# 1 32.4299 26.6914 23.8840 0.0000 0.0000 0.0000
# 2 26.6914 81.8298 56.8172 0.0000 0.0000 0.0000
# 3 23.8840 56.8172 130.7313 0.0000 0.0000 0.0000
# 4 0.0000 0.0000 0.0000 24.9536 0.0000 0.0000
# 5 0.0000 0.0000 0.0000 0.0000 12.0882 0.0000
# 6 0.0000 0.0000 0.0000 0.0000 0.0000 20.7007
#
#
#
# Elastic Compliance Matrix: (Units=1/GPa)
#
#
# Indices 1 2 3 4 5 6 
#
# 1 0.042717 -0.012195 -0.002504 0.000000 0.000000 0.000000
# 2 -0.012195 0.020983 -0.006892 0.000000 0.000000 0.000000
# 3 -0.002504 -0.006892 0.011102 0.000000 0.000000 0.000000
# 4 0.000000 0.000000 0.000000 0.040074 0.000000 0.000000
# 5 0.000000 0.000000 0.000000 0.000000 0.082725 0.000000
# 6 0.000000 0.000000 0.000000 0.000000 0.000000 0.048308
#
#
# Mechanical properties :
#
#
# Convention : Reuss Voigt Hill
#
# Bulk Modulus (GPa) = 31.62455 51.08624 41.35539
# Shear Modulus (GPa) = 16.68721 20.72172 18.70447
#
# Velocity S-wave (km/s) = 3.21723 3.58511 3.40614
# Velocity P-wave (km/s) = 5.78069 6.98745 6.41252
#
# Compressibility (1/GPa) = 0.03162101
#
# Stress axis : x y z
#
# Youngs Moduli (GPa) = 23.40995 47.65703 90.07406
#
# Poissons Ratio (x) = 0.58116 0.22557
# Poissons Ratio (y) = 0.28548 0.62076
# Poissons Ratio (z) = 0.05862 0.32844
#
# Static dielectric constant tensor:
#      x y z
#    x 2.771660 0.000000 0.000000 
#    y 0.000000 3.018550 0.000000 
#    z 0.000000 0.000000 3.646840 
# 
# 
# High freq. dielectric constant tensor:
#      x y z
#    x 1.594460 0.000000 0.000000 
#    y 0.000000 1.595280 0.000000 
#    z 0.000000 0.000000 1.625370 
# 
# From -- ./inp_files/21443.got.cif
#   From: 2010.03.12/outbox.cif.g09.slc.cpg/sg46_11_cif.got.tgz:21443.got - 2010.04.14 02:56:35.
