data_PCOD8191398
_publ_section_title
;
Structure prediction by ZEFSAII (Michael W. Deem and Ramdas Pophale) SiO2 
 PCOD8191398
Probable space group: I M A 2
;
_chemical_formula_sum "Si O2"
_cell_formula_units_Z 64
_cell_length_a 9.058776
_cell_length_b 23.290783
_cell_length_c 19.223090
_cell_angle_alpha 90.000000
_cell_angle_beta 90.000000
_cell_angle_gamma 90.000000
_cell_volume 4055.802599
_symmetry_space_group_name_H-M "I M A 2"
_symmetry_group_IT_number 46
_symmetry_cell_setting 'orthorhombic'
loop_
_space_group_symop_operation_xyz
x,y,z
-x,-y,z
1/2-x,y,z
1/2+x,-y,z
1/2+x,1/2+y,1/2+z
1/2-x,1/2-y,1/2+z
-x,1/2+y,1/2+z
x,1/2-y,1/2+z
loop_
_atom_site_type_symbol
_atom_site_label
_atom_site_fract_x
_atom_site_fract_y
_atom_site_fract_z
Si Si1 0.923091 0.234811 0.541700
Si Si2 0.923452 0.113296 0.899089
Si Si3 0.577062 0.059284 0.751086
Si Si4 0.078336 0.058493 0.030781
Si Si5 0.077378 0.834327 0.668379
Si Si6 0.923744 0.243021 0.890232
Si Si7 0.579076 0.834216 0.123595
Si Si8 0.075191 0.719500 0.744252
O O1 0.750000 0.249017 0.548576
O O2 0.962041 0.177908 0.587103
O O3 0.967859 0.224066 0.461405
O O4 0.006936 0.290271 0.569452
O O5 0.750000 0.113261 0.916434
O O6 0.959020 0.079121 0.828934
O O7 0.985794 0.178116 0.891248
O O8 0.009358 0.082094 0.960123
O O9 0.750000 0.050869 0.740130
O O10 0.508960 0.106463 0.697101
O O11 0.500000 0.000000 0.733354
O O12 0.250000 0.047066 0.016795
O O13 0.053868 0.102161 0.094421
O O14 0.000000 0.000000 0.053470
O O15 0.250000 0.839579 0.680986
O O16 0.021795 0.780144 0.712682
O O17 0.750000 0.237514 0.880990
O O18 0.981476 0.280136 0.824420
O O19 0.750000 0.818757 0.130349
O O20 0.504410 0.830462 0.200052
O O21 0.250000 0.710338 0.737624
#
# Coordination Sequence:
#
# PCOD8191398 Si02
#       8
#     8   8   8   8   8   8   8   8
#     4   9  16  28  50  70  88 117 152 188 229 275
#     4  10  18  30  47  67  94 123 154 192 225 263
#     4  10  19  30  43  61  89 122 156 189 220 255
#     4  11  23  35  47  64  91 125 161 196 229 272
#     4   8  14  26  43  63  85 114 148 183 218 256
#     4   9  15  26  48  75  93 115 151 188 225 274
#     4  10  20  32  44  66  95 120 150 192 235 274
#     4   9  16  29  49  68  89 118 151 184 226 279
#
# _framework density 15.779861
#
# number of rings (size 3 to 8) (size 9 to 14) (size 15 to 20)
#    0.000    2.500    2.500    1.875    0.000    3.000 
#    0.000    3.750    0.000    0.000    0.000    0.875 
#    0.000    4.000    0.000    0.000    0.000    0.000 
#
# Total GULP energy -396631.044859 kJ/mol
# GULP energy per Si atom -12394.720152 kJ/mol
# Density = 1.574395 g / cm^3
# Si number density = 15.779861 Si / 1000 Ang^3
#
#
#
# Elastic Constant Matrix: (Units=GPa)
#
#
# Indices 1 2 3 4 5 6 
#
# 1 51.3042 38.6998 44.8363 0.0000 0.0000 0.0000
# 2 38.6998 87.1517 63.2248 0.0000 0.0000 0.0000
# 3 44.8363 63.2248 138.7859 0.0000 0.0000 0.0000
# 4 0.0000 0.0000 0.0000 23.2803 0.0000 0.0000
# 5 0.0000 0.0000 0.0000 0.0000 15.3260 0.0000
# 6 0.0000 0.0000 0.0000 0.0000 0.0000 21.1732
#
#
#
# Elastic Compliance Matrix: (Units=1/GPa)
#
#
# Indices 1 2 3 4 5 6 
#
# 1 0.032158 -0.010072 -0.005801 0.000000 0.000000 0.000000
# 2 -0.010072 0.020292 -0.005991 0.000000 0.000000 0.000000
# 3 -0.005801 -0.005991 0.011808 0.000000 0.000000 0.000000
# 4 0.000000 0.000000 0.000000 0.042955 0.000000 0.000000
# 5 0.000000 0.000000 0.000000 0.000000 0.065249 0.000000
# 6 0.000000 0.000000 0.000000 0.000000 0.000000 0.047230
#
#
# Mechanical properties :
#
#
# Convention : Reuss Voigt Hill
#
# Bulk Modulus (GPa) = 48.70212 63.41817 56.06015
# Shear Modulus (GPa) = 18.50050 20.65462 19.57756
#
# Velocity S-wave (km/s) = 3.42776 3.62183 3.52613
# Velocity P-wave (km/s) = 6.82617 7.60044 7.22369
#
# Compressibility (1/GPa) = 0.02053299
#
# Stress axis : x y z
#
# Youngs Moduli (GPa) = 31.09612 49.27931 84.68509
#
# Poissons Ratio (x) = 0.49632 0.49125
# Poissons Ratio (y) = 0.31319 0.50732
# Poissons Ratio (z) = 0.18039 0.29521
#
# Static dielectric constant tensor:
#      x y z
#    x 2.826560 0.000000 0.000000 
#    y 0.000000 2.971190 0.000000 
#    z 0.000000 0.000000 3.291290 
# 
# 
# High freq. dielectric constant tensor:
#      x y z
#    x 1.585400 0.000000 0.000000 
#    y 0.000000 1.581280 0.000000 
#    z 0.000000 0.000000 1.608420 
# 
# From -- ./inp_files/21440.got.cif
#   From: 2010.03.12/outbox.cif.g09.slc.cpg/sg46_11_cif.got.tgz:21440.got - 2010.04.14 02:56:35.
