data_PCOD8191326
_publ_section_title
;
Structure prediction by ZEFSAII (Michael W. Deem and Ramdas Pophale) SiO2 
 PCOD8191326
Probable space group: I M A 2
;
_chemical_formula_sum "Si O2"
_cell_formula_units_Z 52
_cell_length_a 11.810287
_cell_length_b 21.103282
_cell_length_c 12.094884
_cell_angle_alpha 90.000000
_cell_angle_beta 90.000000
_cell_angle_gamma 90.000000
_cell_volume 3014.478296
_symmetry_space_group_name_H-M "I M A 2"
_symmetry_group_IT_number 46
_symmetry_cell_setting 'orthorhombic'
loop_
_space_group_symop_operation_xyz
x,y,z
-x,-y,z
1/2-x,y,z
1/2+x,-y,z
1/2+x,1/2+y,1/2+z
1/2-x,1/2-y,1/2+z
-x,1/2+y,1/2+z
x,1/2-y,1/2+z
loop_
_atom_site_type_symbol
_atom_site_label
_atom_site_fract_x
_atom_site_fract_y
_atom_site_fract_z
Si Si1 0.382511 0.702404 0.137080
Si Si2 0.510257 0.573757 0.731180
Si Si3 0.250000 0.319928 0.439033
Si Si4 0.118713 0.843757 0.064712
Si Si5 0.011256 0.192816 0.854689
Si Si6 0.750000 0.677857 0.915296
Si Si7 0.750000 0.873350 0.185160
Si Si8 0.006432 0.162866 0.425591
O O1 0.250000 0.689310 0.158354
O O2 0.406064 0.777283 0.125896
O O3 0.459320 0.675804 0.235914
O O4 0.420927 0.664125 0.028221
O O5 0.500000 0.500000 0.752671
O O6 0.437614 0.597615 0.627499
O O7 0.641174 0.584325 0.706441
O O8 0.462390 0.611262 0.838178
O O9 0.362419 0.336694 0.368277
O O10 0.250000 0.246547 0.468756
O O11 0.250000 0.350633 0.559639
O O12 0.250000 0.857853 0.055117
O O13 0.069245 0.840890 0.942427
O O14 0.012655 0.268415 0.868390
O O15 0.750000 0.681893 0.779361
O O16 0.635781 0.643337 0.959209
#
# Coordination Sequence:
#
# PCOD8191326 Si02
#       8
#     8   8   4   8   8   4   4   8
#     4  10  20  33  52  77 114 145 172 223 275 325
#     4  11  22  37  56  78 110 148 184 222 263 317
#     4  10  18  28  54  78 110 140 167 222 276 331
#     4  10  20  33  52  78 109 144 182 222 271 325
#     4  10  18  32  52  80 109 141 175 221 279 327
#     4   8  18  28  52  74 106 142 163 220 275 320
#     4  10  20  38  50  80 118 134 180 226 269 313
#     4   9  19  33  50  79 107 141 179 219 267 322
#
# _framework density 17.250083
#
# number of rings (size 3 to 8) (size 9 to 14) (size 15 to 20)
#    0.000    2.154    3.077    0.462    1.077    1.846 
#    0.000    0.000    0.000    0.923    0.000    0.000 
#    0.000    0.000    0.000    0.000    0.000    0.000 
#
# Total GULP energy -322286.643185 kJ/mol
# GULP energy per Si atom -12395.640123 kJ/mol
# Density = 1.721082 g / cm^3
# Si number density = 17.250083 Si / 1000 Ang^3
#
#
#
# Elastic Constant Matrix: (Units=GPa)
#
#
# Indices 1 2 3 4 5 6 
#
# 1 115.7048 24.2050 59.6969 0.0001 0.0000 0.0000
# 2 24.2050 73.5339 41.3490 0.0013 -0.0002 -0.0001
# 3 59.6969 41.3490 110.1162 0.0011 -0.0002 -0.0002
# 4 0.0001 0.0013 0.0011 18.1442 -0.0002 -0.0001
# 5 0.0000 -0.0002 -0.0002 -0.0002 32.5427 0.0000
# 6 0.0000 -0.0001 -0.0002 -0.0001 0.0000 7.7817
#
#
#
# Elastic Compliance Matrix: (Units=1/GPa)
#
#
# Indices 1 2 3 4 5 6 
#
# 1 0.012007 -0.000370 -0.006370 0.000000 0.000000 0.000000
# 2 -0.000370 0.017251 -0.006277 -0.000001 0.000000 0.000000
# 3 -0.006370 -0.006277 0.014892 0.000000 0.000000 0.000000
# 4 0.000000 -0.000001 0.000000 0.055114 0.000000 0.000001
# 5 0.000000 0.000000 0.000000 0.000000 0.030729 0.000000
# 6 0.000000 0.000000 0.000000 0.000001 0.000000 0.128506
#
#
# Mechanical properties :
#
#
# Convention : Reuss Voigt Hill
#
# Bulk Modulus (GPa) = 55.20445 61.09517 58.14981
# Shear Modulus (GPa) = 17.20747 23.30064 20.25406
#
# Velocity S-wave (km/s) = 3.16180 3.67925 3.43029
# Velocity P-wave (km/s) = 6.73804 7.31733 7.03365
#
# Compressibility (1/GPa) = 0.01811448
#
# Stress axis : x y z
#
# Youngs Moduli (GPa) = 83.28645 57.96882 67.15126
#
# Poissons Ratio (x) = 0.02146 0.42776
# Poissons Ratio (y) = 0.03084 0.42151
# Poissons Ratio (z) = 0.53055 0.36387
#
# Static dielectric constant tensor:
#      x y z
#    x 3.536030 0.000000 0.000000 
#    y 0.000000 2.762410 0.000000 
#    z 0.000000 0.000000 3.168250 
# 
# 
# High freq. dielectric constant tensor:
#      x y z
#    x 1.689820 0.000000 0.000000 
#    y 0.000000 1.608550 0.000000 
#    z 0.000000 0.000000 1.663730 
# 
# From -- ./inp_files/10407.got.cif
#   From: 2010.03.12/outbox.cif.g09.slc.cpg/sg46_6_cif.got.tgz:10407.got - 2010.04.14 02:56:35.
