data_PCOD8191728
_publ_section_title
;
Structure prediction by ZEFSAII (Michael W. Deem and Ramdas Pophale) SiO2 
 PCOD8191728
Probable space group: I M A 2
;
_chemical_formula_sum "Si O2"
_cell_formula_units_Z 56
_cell_length_a 9.578015
_cell_length_b 20.523216
_cell_length_c 14.660132
_cell_angle_alpha 90.000000
_cell_angle_beta 90.000000
_cell_angle_gamma 90.000000
_cell_volume 2881.766640
_symmetry_space_group_name_H-M "I M A 2"
_symmetry_group_IT_number 46
_symmetry_cell_setting 'orthorhombic'
loop_
_space_group_symop_operation_xyz
x,y,z
-x,-y,z
1/2-x,y,z
1/2+x,-y,z
1/2+x,1/2+y,1/2+z
1/2-x,1/2-y,1/2+z
-x,1/2+y,1/2+z
x,1/2-y,1/2+z
loop_
_atom_site_type_symbol
_atom_site_label
_atom_site_fract_x
_atom_site_fract_y
_atom_site_fract_z
Si Si1 0.901361 0.445244 0.757820
Si Si2 0.901294 0.053644 0.467752
Si Si3 0.902608 0.869900 0.566193
Si Si4 0.594951 0.778169 0.046878
Si Si5 0.086615 0.201444 0.837361
Si Si6 0.416781 0.698088 0.712660
Si Si7 0.087865 0.435356 0.255259
O O1 0.750000 0.449807 0.709150
O O2 0.883711 0.463386 0.863000
O O3 0.957334 0.371760 0.755232
O O4 0.000000 0.500000 0.711171
O O5 0.750000 0.055422 0.515595
O O6 0.982486 0.121034 0.486422
O O7 0.000000 0.000000 0.516625
O O8 0.750000 0.894957 0.533211
O O9 0.894693 0.794279 0.586632
O O10 0.951556 0.908661 0.655601
O O11 0.750000 0.810503 0.057565
O O12 0.476467 0.810094 0.109937
O O13 0.548693 0.780963 0.941540
O O14 0.250000 0.215857 0.815862
O O15 0.053489 0.124640 0.823835
O O16 0.991866 0.245898 0.771302
O O17 0.250000 0.710923 0.711303
O O18 0.250000 0.454397 0.262044
O O19 0.000000 0.500000 0.280517
#
# Coordination Sequence:
#
# PCOD8191728 Si02
#       7
#     8   8   8   8   8   8   8
#     4   9  20  36  53  78 111 149 188 231 282 343
#     4  10  19  31  48  73 107 142 180 221 273 338
#     4  10  19  33  52  79 110 140 185 239 288 347
#     4  10  21  38  61  85 112 151 198 244 293 350
#     4  10  21  40  63  86 116 157 204 248 293 356
#     4  11  22  37  59  88 121 150 187 243 301 353
#     4  10  21  37  56  81 115 153 198 246 294 355
#
# _framework density 19.432524999999998
#
# number of rings (size 3 to 8) (size 9 to 14) (size 15 to 20)
#    0.000    2.000    1.429    2.143    0.000    5.143 
#    0.000    0.714    0.000    3.429    0.000    0.000 
#    0.000    0.000    0.000    0.000    0.000    0.000 
#
# Total GULP energy -346948.748053 kJ/mol
# GULP energy per Si atom -12391.026716 kJ/mol
# Density = 1.938830 g / cm^3
# Si number density = 19.432525 Si / 1000 Ang^3
#
#
#
# Elastic Constant Matrix: (Units=GPa)
#
#
# Indices 1 2 3 4 5 6 
#
# 1 126.3408 58.4615 47.5568 0.0000 0.0000 0.0000
# 2 58.4615 115.1332 30.6777 0.0001 0.0000 0.0000
# 3 47.5568 30.6777 77.8826 0.0001 0.0000 0.0000
# 4 0.0000 0.0001 0.0001 27.9122 0.0000 0.0000
# 5 0.0000 0.0000 0.0000 0.0000 23.6207 0.0000
# 6 0.0000 0.0000 0.0000 0.0000 0.0000 31.9480
#
#
#
# Elastic Compliance Matrix: (Units=1/GPa)
#
#
# Indices 1 2 3 4 5 6 
#
# 1 0.012197 -0.004703 -0.005596 0.000000 0.000000 0.000000
# 2 -0.004703 0.011517 -0.001665 0.000000 0.000000 0.000000
# 3 -0.005596 -0.001665 0.016913 0.000000 0.000000 0.000000
# 4 0.000000 0.000000 0.000000 0.035827 0.000000 0.000000
# 5 0.000000 0.000000 0.000000 0.000000 0.042336 0.000000
# 6 0.000000 0.000000 0.000000 0.000000 0.000000 0.031301
#
#
# Mechanical properties :
#
#
# Convention : Reuss Voigt Hill
#
# Bulk Modulus (GPa) = 59.87858 65.86094 62.86976
# Shear Modulus (GPa) = 27.84220 28.87357 28.35789
#
# Velocity S-wave (km/s) = 3.78929 3.85884 3.82422
# Velocity P-wave (km/s) = 7.07287 7.33620 7.20574
#
# Compressibility (1/GPa) = 0.01670046
#
# Stress axis : x y z
#
# Youngs Moduli (GPa) = 81.98476 86.82768 59.12766
#
# Poissons Ratio (x) = 0.40831 0.33086
# Poissons Ratio (y) = 0.38553 0.09845
# Poissons Ratio (z) = 0.45876 0.14458
#
# Static dielectric constant tensor:
#      x y z
#    x 3.953650 0.000000 0.000000 
#    y 0.000000 3.540330 0.000000 
#    z 0.000000 0.000000 3.294370 
# 
# 
# High freq. dielectric constant tensor:
#      x y z
#    x 1.763610 0.000000 0.000000 
#    y 0.000000 1.753520 0.000000 
#    z 0.000000 0.000000 1.732040 
# 
# From -- ./inp_files/14136.got.cif
#   From: 2010.03.12/outbox.cif.g09.slc.cpg/sg46_8_cif.got.tgz:14136.got - 2010.04.14 02:56:35.
