data_PCOD8191613
_publ_section_title
;
Structure prediction by ZEFSAII (Michael W. Deem and Ramdas Pophale) SiO2 
 PCOD8191613
Probable space group: I M A 2
;
_chemical_formula_sum "Si O2"
_cell_formula_units_Z 60
_cell_length_a 24.991732
_cell_length_b 13.024517
_cell_length_c 8.890364
_cell_angle_alpha 90.000000
_cell_angle_beta 90.000000
_cell_angle_gamma 90.000000
_cell_volume 2893.860052
_symmetry_space_group_name_H-M "I M A 2"
_symmetry_group_IT_number 46
_symmetry_cell_setting 'orthorhombic'
loop_
_space_group_symop_operation_xyz
x,y,z
-x,-y,z
1/2-x,y,z
1/2+x,-y,z
1/2+x,1/2+y,1/2+z
1/2-x,1/2-y,1/2+z
-x,1/2+y,1/2+z
x,1/2-y,1/2+z
loop_
_atom_site_type_symbol
_atom_site_label
_atom_site_fract_x
_atom_site_fract_y
_atom_site_fract_z
Si Si1 0.064039 0.312939 0.594810
Si Si2 0.451510 0.825887 0.011553
Si Si3 0.190203 0.815726 0.732330
Si Si4 0.403628 0.373605 0.266187
Si Si5 0.500000 0.500000 0.299979
Si Si6 0.868860 0.337989 0.926766
Si Si7 0.385612 0.513626 0.686989
Si Si8 0.189280 0.014513 0.918343
O O1 0.075891 0.327849 0.421585
O O2 0.101612 0.220400 0.651151
O O3 0.073917 0.417773 0.687961
O O4 0.001203 0.283981 0.611813
O O5 0.408859 0.882097 0.116317
O O6 0.473312 0.910512 0.897203
O O7 0.423238 0.730009 0.928238
O O8 0.250000 0.803905 0.668257
O O9 0.173153 0.710304 0.809705
O O10 0.152626 0.848963 0.595150
O O11 0.187248 0.897409 0.866596
O O12 0.449544 0.453763 0.206047
O O13 0.345586 0.422811 0.295306
O O14 0.875559 0.454239 0.860976
O O15 0.334062 0.478877 0.587902
O O16 0.250000 0.057495 0.918750
#
# Coordination Sequence:
#
# PCOD8191613 Si02
#       8
#     8   8   8   8   4   8   8   8
#     4  10  23  38  61  85 122 164 198 254 312 371
#     4  11  19  37  59  86 117 159 199 241 312 376
#     4  11  22  37  56  84 119 158 198 252 311 369
#     4  10  21  40  61  88 119 161 208 255 315 374
#     4  10  18  36  60  80 114 160 198 248 302 372
#     4  12  23  34  60  90 122 157 202 252 306 382
#     4  11  21  40  60  88 125 159 202 258 312 375
#     4  10  21  41  66  85 117 165 211 259 313 371
#
# _framework density 20.733553000000001
#
# number of rings (size 3 to 8) (size 9 to 14) (size 15 to 20)
#    0.000    1.333    6.667    0.400    3.733    4.267 
#    0.000    2.667    0.000    0.000    0.000    0.000 
#    0.000    0.000    0.000    0.000    0.000    0.000 
#
# Total GULP energy -371856.001909 kJ/mol
# GULP energy per Si atom -12395.200064 kJ/mol
# Density = 2.068636 g / cm^3
# Si number density = 20.733553 Si / 1000 Ang^3
#
#
#
# Elastic Constant Matrix: (Units=GPa)
#
#
# Indices 1 2 3 4 5 6 
#
# 1 128.2019 37.8528 18.1007 0.0000 0.0000 0.0000
# 2 37.8528 78.7130 17.6382 0.0000 0.0000 0.0000
# 3 18.1007 17.6382 44.0251 0.0000 0.0000 0.0000
# 4 0.0000 0.0000 0.0000 27.7565 0.0000 0.0000
# 5 0.0000 0.0000 0.0000 0.0000 18.9587 0.0000
# 6 0.0000 0.0000 0.0000 0.0000 0.0000 24.4673
#
#
#
# Elastic Compliance Matrix: (Units=1/GPa)
#
#
# Indices 1 2 3 4 5 6 
#
# 1 0.009286 -0.003966 -0.002229 0.000000 0.000000 0.000000
# 2 -0.003966 0.015651 -0.004640 0.000000 0.000000 0.000000
# 3 -0.002229 -0.004640 0.025490 0.000000 0.000000 0.000000
# 4 0.000000 0.000000 0.000000 0.036028 0.000000 0.000000
# 5 0.000000 0.000000 0.000000 0.000000 0.052746 0.000000
# 6 0.000000 0.000000 0.000000 0.000000 0.000000 0.040871
#
#
# Mechanical properties :
#
#
# Convention : Reuss Voigt Hill
#
# Bulk Modulus (GPa) = 34.77397 44.23594 39.50495
# Shear Modulus (GPa) = 23.65998 26.05971 24.85984
#
# Velocity S-wave (km/s) = 3.38175 3.54910 3.46644
# Velocity P-wave (km/s) = 5.66185 6.17872 5.92592
#
# Compressibility (1/GPa) = 0.02875715
#
# Stress axis : x y z
#
# Youngs Moduli (GPa) = 107.68987 63.89203 39.23159
#
# Poissons Ratio (x) = 0.25340 0.08744
# Poissons Ratio (y) = 0.42711 0.18203
# Poissons Ratio (z) = 0.24003 0.29645
#
# Static dielectric constant tensor:
#      x y z
#    x 4.133940 0.000000 0.000000 
#    y 0.000000 3.741190 0.000000 
#    z 0.000000 0.000000 3.545120 
# 
# 
# High freq. dielectric constant tensor:
#      x y z
#    x 1.812960 0.000000 0.000000 
#    y 0.000000 1.801210 0.000000 
#    z 0.000000 0.000000 1.790210 
# 
# From -- ./inp_files/7946.got.cif
#   From: 2010.03.12/outbox.cif.g09.slc.cpg/sg46_4_cif.got.tgz:7946.got - 2010.04.14 02:56:35.
