data_PCOD8191769
_publ_section_title
;
Structure prediction by ZEFSAII (Michael W. Deem and Ramdas Pophale) SiO2 
 PCOD8191769
Probable space group: I M A 2
;
_chemical_formula_sum "Si O2"
_cell_formula_units_Z 52
_cell_length_a 12.523492
_cell_length_b 23.660719
_cell_length_c 9.311832
_cell_angle_alpha 90.000000
_cell_angle_beta 90.000000
_cell_angle_gamma 90.000000
_cell_volume 2759.233871
_symmetry_space_group_name_H-M "I M A 2"
_symmetry_group_IT_number 46
_symmetry_cell_setting 'orthorhombic'
loop_
_space_group_symop_operation_xyz
x,y,z
-x,-y,z
1/2-x,y,z
1/2+x,-y,z
1/2+x,1/2+y,1/2+z
1/2-x,1/2-y,1/2+z
-x,1/2+y,1/2+z
x,1/2-y,1/2+z
loop_
_atom_site_type_symbol
_atom_site_label
_atom_site_fract_x
_atom_site_fract_y
_atom_site_fract_z
Si Si1 0.126643 0.329886 0.243600
Si Si2 0.995303 0.223302 0.302989
Si Si3 0.987685 0.894762 0.971046
Si Si4 0.626063 0.207768 0.029121
Si Si5 0.500000 0.500000 0.273652
Si Si6 0.373256 0.068682 0.563865
Si Si7 0.622817 0.610521 0.765445
O O1 0.250000 0.316228 0.221537
O O2 0.065615 0.271498 0.228907
O O3 0.077400 0.372715 0.124759
O O4 0.108343 0.359758 0.397760
O O5 0.073230 0.169745 0.319288
O O6 0.895938 0.210816 0.198415
O O7 0.944054 0.243509 0.452277
O O8 0.027275 0.948204 0.878649
O O9 0.091348 0.854734 0.978258
O O10 0.939745 0.912686 0.125887
O O11 0.750000 0.216772 0.995647
O O12 0.593287 0.515024 0.160314
O O13 0.250000 0.074405 0.591591
O O14 0.398758 0.064758 0.393505
O O15 0.750000 0.617145 0.737721
#
# Coordination Sequence:
#
# PCOD8191769 Si02
#       7
#     8   8   8   8   4   8   8
#     4   9  16  30  50  78 108 135 166 203 248 311
#     4  10  19  31  52  77 105 141 172 200 253 307
#     4   9  20  33  52  76 101 137 176 215 263 309
#     4  10  20  34  49  72 104 140 179 214 242 292
#     4  10  20  38  56  72  98 134 178 224 260 316
#     4   9  19  33  53  76 102 133 168 211 262 308
#     4  10  19  33  52  81 111 132 161 213 272 326
#
# _framework density 18.845811999999999
#
# number of rings (size 3 to 8) (size 9 to 14) (size 15 to 20)
#    0.000    2.462    0.000    2.308    0.000    1.846 
#    0.000    4.615    0.000    6.462    0.000    0.000 
#    0.000    0.000    0.000    0.000    0.000    0.000 
#
# Total GULP energy -322163.667878 kJ/mol
# GULP energy per Si atom -12390.910303 kJ/mol
# Density = 1.880292 g / cm^3
# Si number density = 18.845812 Si / 1000 Ang^3
#
#
#
# Elastic Constant Matrix: (Units=GPa)
#
#
# Indices 1 2 3 4 5 6 
#
# 1 72.1434 25.3693 29.5412 0.0002 0.0001 0.0000
# 2 25.3693 82.4740 40.1746 0.0006 0.0000 0.0000
# 3 29.5412 40.1746 111.9823 0.0002 -0.0001 -0.0004
# 4 0.0002 0.0006 0.0002 27.8598 -0.0001 -0.0001
# 5 0.0001 0.0000 -0.0001 -0.0001 24.9842 0.0000
# 6 0.0000 0.0000 -0.0004 -0.0001 0.0000 21.5979
#
#
#
# Elastic Compliance Matrix: (Units=1/GPa)
#
#
# Indices 1 2 3 4 5 6 
#
# 1 0.016355 -0.003549 -0.003041 0.000000 0.000000 0.000000
# 2 -0.003549 0.015463 -0.004611 0.000000 0.000000 0.000000
# 3 -0.003041 -0.004611 0.011387 0.000000 0.000000 0.000000
# 4 0.000000 0.000000 0.000000 0.035894 0.000000 0.000000
# 5 0.000000 0.000000 0.000000 0.000000 0.040025 0.000000
# 6 0.000000 0.000000 0.000000 0.000000 0.000000 0.046301
#
#
# Mechanical properties :
#
#
# Convention : Reuss Voigt Hill
#
# Bulk Modulus (GPa) = 48.07454 50.75221 49.41337
# Shear Modulus (GPa) = 25.67246 26.32268 25.99757
#
# Velocity S-wave (km/s) = 3.69485 3.74135 3.71818
# Velocity P-wave (km/s) = 6.61569 6.75665 6.68654
#
# Compressibility (1/GPa) = 0.02080103
#
# Stress axis : x y z
#
# Youngs Moduli (GPa) = 61.14462 64.67037 87.82329
#
# Poissons Ratio (x) = 0.22954 0.26707
# Poissons Ratio (y) = 0.21703 0.40497
# Poissons Ratio (z) = 0.18594 0.29821
#
# Static dielectric constant tensor:
#      x y z
#    x 3.190580 0.000000 0.000000 
#    y 0.000000 3.526410 0.000000 
#    z 0.000000 0.000000 3.652300 
# 
# 
# High freq. dielectric constant tensor:
#      x y z
#    x 1.713440 0.000000 0.000000 
#    y 0.000000 1.716270 0.000000 
#    z 0.000000 0.000000 1.748380 
# 
# From -- ./inp_files/4837.got.cif
#   From: 2010.03.12/outbox.cif.g09.slc.cpg/sg46_3_cif.got.tgz:4837.got - 2010.04.14 02:56:35.
