data_PCOD8191369
_publ_section_title
;
Structure prediction by ZEFSAII (Michael W. Deem and Ramdas Pophale) SiO2 
 PCOD8191369
Probable space group: I M A 2
;
_chemical_formula_sum "Si O2"
_cell_formula_units_Z 56
_cell_length_a 9.168938
_cell_length_b 18.910233
_cell_length_c 17.587770
_cell_angle_alpha 90.000000
_cell_angle_beta 90.000000
_cell_angle_gamma 90.000000
_cell_volume 3049.486349
_symmetry_space_group_name_H-M "I M A 2"
_symmetry_group_IT_number 46
_symmetry_cell_setting 'orthorhombic'
loop_
_space_group_symop_operation_xyz
x,y,z
-x,-y,z
1/2-x,y,z
1/2+x,-y,z
1/2+x,1/2+y,1/2+z
1/2-x,1/2-y,1/2+z
-x,1/2+y,1/2+z
x,1/2-y,1/2+z
loop_
_atom_site_type_symbol
_atom_site_label
_atom_site_fract_x
_atom_site_fract_y
_atom_site_fract_z
Si Si1 0.081663 0.205667 0.275580
Si Si2 0.920157 0.306118 0.175364
Si Si3 0.585063 0.682367 0.949757
Si Si4 0.416693 0.794010 0.036180
Si Si5 0.578609 0.924497 0.580159
Si Si6 0.410184 0.436030 0.535462
Si Si7 0.908952 0.936937 0.212168
O O1 0.250000 0.224082 0.257703
O O2 0.061746 0.175308 0.360206
O O3 0.021628 0.140425 0.224567
O O4 0.988336 0.276161 0.254650
O O5 0.750000 0.325590 0.186154
O O6 0.943148 0.241343 0.117636
O O7 0.006326 0.374887 0.145201
O O8 0.750000 0.708185 0.968645
O O9 0.465842 0.739344 0.972653
O O10 0.555486 0.609724 0.996274
O O11 0.250000 0.814737 0.023750
O O12 0.510283 0.862989 0.022897
O O13 0.750000 0.933616 0.598601
O O14 0.500000 0.000000 0.581219
O O15 0.500000 0.500000 0.496404
O O16 0.250000 0.432148 0.497562
O O17 0.393776 0.453004 0.623795
O O18 0.750000 0.937418 0.251594
O O19 0.000000 0.000000 0.251248
#
# Coordination Sequence:
#
# PCOD8191369 Si02
#       7
#     8   8   8   8   8   8   8
#     4  10  19  34  52  75 106 142 179 216 262 317
#     4  10  20  33  53  79 104 136 178 223 268 314
#     4   9  20  35  53  75 104 141 177 213 264 321
#     4  10  19  32  50  73 101 131 172 218 258 304
#     4  10  20  36  57  81 109 142 182 227 272 322
#     4  10  18  29  47  71  99 130 165 204 249 296
#     4   9  18  29  44  68 100 134 166 201 241 290
#
# _framework density 18.363748000000001
#
# number of rings (size 3 to 8) (size 9 to 14) (size 15 to 20)
#    0.000    2.286    1.429    1.714    0.000    4.000 
#    0.000    0.000    0.000    0.857    0.000    0.000 
#    0.000    0.000    0.000    0.000    0.000    0.000 
#
# Total GULP energy -347022.062410 kJ/mol
# GULP energy per Si atom -12393.645086 kJ/mol
# Density = 1.832195 g / cm^3
# Si number density = 18.363748 Si / 1000 Ang^3
#
#
#
# Elastic Constant Matrix: (Units=GPa)
#
#
# Indices 1 2 3 4 5 6 
#
# 1 124.7687 80.2212 25.5687 0.0000 0.0000 0.0000
# 2 80.2212 134.4623 29.9364 0.0000 0.0000 0.0000
# 3 25.5687 29.9364 44.6729 0.0000 0.0000 0.0000
# 4 0.0000 0.0000 0.0000 15.2101 0.0000 0.0000
# 5 0.0000 0.0000 0.0000 0.0000 20.0526 0.0000
# 6 0.0000 0.0000 0.0000 0.0000 0.0000 40.9649
#
#
#
# Elastic Compliance Matrix: (Units=1/GPa)
#
#
# Indices 1 2 3 4 5 6 
#
# 1 0.013272 -0.007319 -0.002692 0.000000 0.000000 0.000000
# 2 -0.007319 0.012777 -0.004373 0.000000 0.000000 0.000000
# 3 -0.002692 -0.004373 0.026856 0.000000 0.000000 0.000000
# 4 0.000000 0.000000 0.000000 0.065746 0.000000 0.000000
# 5 0.000000 0.000000 0.000000 0.000000 0.049869 0.000000
# 6 0.000000 0.000000 0.000000 0.000000 0.000000 0.024411
#
#
# Mechanical properties :
#
#
# Convention : Reuss Voigt Hill
#
# Bulk Modulus (GPa) = 41.42917 63.92849 52.67883
# Shear Modulus (GPa) = 21.76320 26.45737 24.11029
#
# Velocity S-wave (km/s) = 3.44629 3.79982 3.62737
# Velocity P-wave (km/s) = 6.20042 7.35795 6.80385
#
# Compressibility (1/GPa) = 0.02413758
#
# Stress axis : x y z
#
# Youngs Moduli (GPa) = 75.34480 78.26380 37.23535
#
# Poissons Ratio (x) = 0.57282 0.10023
# Poissons Ratio (y) = 0.55145 0.16284
# Poissons Ratio (z) = 0.20281 0.34227
#
# Static dielectric constant tensor:
#      x y z
#    x 3.653620 0.000000 0.000000 
#    y 0.000000 3.345440 0.000000 
#    z 0.000000 0.000000 3.039660 
# 
# 
# High freq. dielectric constant tensor:
#      x y z
#    x 1.723770 0.000000 0.000000 
#    y 0.000000 1.711580 0.000000 
#    z 0.000000 0.000000 1.670490 
# 
# From -- ./inp_files/18462.got.cif
#   From: 2010.03.12/outbox.cif.g09.slc.cpg/sg46_10_cif.got.tgz:18462.got - 2010.04.14 02:56:35.
