data_PCOD8191526
_publ_section_title
;
Structure prediction by ZEFSAII (Michael W. Deem and Ramdas Pophale) SiO2 
 PCOD8191526
Probable space group: I M A 2
;
_chemical_formula_sum "Si O2"
_cell_formula_units_Z 40
_cell_length_a 8.662001
_cell_length_b 19.390347
_cell_length_c 10.668521
_cell_angle_alpha 90.000000
_cell_angle_beta 90.000000
_cell_angle_gamma 90.000000
_cell_volume 1791.876307
_symmetry_space_group_name_H-M "I M A 2"
_symmetry_group_IT_number 46
_symmetry_cell_setting 'orthorhombic'
loop_
_space_group_symop_operation_xyz
x,y,z
-x,-y,z
1/2-x,y,z
1/2+x,-y,z
1/2+x,1/2+y,1/2+z
1/2-x,1/2-y,1/2+z
-x,1/2+y,1/2+z
x,1/2-y,1/2+z
loop_
_atom_site_type_symbol
_atom_site_label
_atom_site_fract_x
_atom_site_fract_y
_atom_site_fract_z
Si Si1 0.933381 0.923632 0.193830
Si Si2 0.068700 0.924989 0.447440
Si Si3 0.070941 0.201085 0.554528
Si Si4 0.929058 0.798915 0.833132
Si Si5 0.931300 0.424989 0.440220
O O1 0.750000 0.921453 0.193827
O O2 0.997860 0.889918 0.320908
O O3 0.000000 0.000000 0.193832
O O4 0.997862 0.889918 0.066753
O O5 0.250000 0.933557 0.433991
O O6 0.022482 0.871120 0.555232
O O7 0.000000 0.000000 0.478000
O O8 0.250000 0.184981 0.529723
O O9 0.048073 0.234340 0.693830
O O10 0.005852 0.250000 0.443830
O O11 0.750000 0.815018 0.857939
O O12 0.022481 0.871120 0.832428
O O13 0.750000 0.433557 0.453667
O O14 0.000000 0.500000 0.409661
#
# Coordination Sequence:
#
# PCOD8191526 Si02
#       5
#     8   8   8   8   8
#     4  10  18  32  56  88 126 164 205 254 311 372
#     4  11  22  38  62  94 129 168 213 265 321 378
#     4  10  23  43  66  94 127 169 214 260 319 387
#     4  10  23  43  66  94 127 169 214 260 319 387
#     4  11  22  38  62  94 129 168 213 265 321 378
#
# _framework density 22.322970000000002
#
# number of rings (size 3 to 8) (size 9 to 14) (size 15 to 20)
#    0.000    1.600    0.000    7.800    2.800    2.400 
#    0.000    0.000    0.000    0.000    0.000    0.000 
#    0.000    0.000    0.000    0.000    0.000    0.000 
#
# Total GULP energy -247942.140972 kJ/mol
# GULP energy per Si atom -12397.107049 kJ/mol
# Density = 2.227216 g / cm^3
# Si number density = 22.322970 Si / 1000 Ang^3
#
#
#
# Elastic Constant Matrix: (Units=GPa)
#
#
# Indices 1 2 3 4 5 6 
#
# 1 157.7037 36.0924 39.8217 0.0001 -0.0001 0.0000
# 2 36.0924 97.9885 56.5126 -0.0001 0.0000 0.0000
# 3 39.8217 56.5126 132.4273 -0.0017 0.0007 0.0002
# 4 0.0001 -0.0001 -0.0017 36.1905 0.0002 0.0000
# 5 -0.0001 0.0000 0.0007 0.0002 26.5998 -0.0001
# 6 0.0000 0.0000 0.0002 0.0000 -0.0001 31.2899
#
#
#
# Elastic Compliance Matrix: (Units=1/GPa)
#
#
# Indices 1 2 3 4 5 6 
#
# 1 0.007103 -0.001836 -0.001352 0.000000 0.000000 0.000000
# 2 -0.001836 0.014012 -0.005427 0.000000 0.000000 0.000000
# 3 -0.001352 -0.005427 0.010274 0.000000 0.000000 0.000000
# 4 0.000000 0.000000 0.000000 0.027632 0.000000 0.000000
# 5 0.000000 0.000000 0.000000 0.000000 0.037594 0.000000
# 6 0.000000 0.000000 0.000000 0.000000 0.000000 0.031959
#
#
# Mechanical properties :
#
#
# Convention : Reuss Voigt Hill
#
# Bulk Modulus (GPa) = 70.63694 72.55256 71.59475
# Shear Modulus (GPa) = 33.21734 35.86221 34.53978
#
# Velocity S-wave (km/s) = 3.86169 4.01249 3.93781
# Velocity P-wave (km/s) = 7.18299 7.35109 7.26753
#
# Compressibility (1/GPa) = 0.01415690
#
# Stress axis : x y z
#
# Youngs Moduli (GPa) = 140.79127 71.36907 97.33347
#
# Poissons Ratio (x) = 0.13106 0.13161
# Poissons Ratio (y) = 0.25854 0.52825
# Poissons Ratio (z) = 0.19038 0.38733
#
# Static dielectric constant tensor:
#      x y z
#    x 3.817170 0.000000 0.000000 
#    y 0.000000 3.795760 0.000000 
#    z 0.000000 0.000000 4.922420 
# 
# 
# High freq. dielectric constant tensor:
#      x y z
#    x 1.872310 0.000000 0.000000 
#    y 0.000000 1.868310 0.000000 
#    z 0.000000 0.000000 1.886520 
# 
# From -- ./inp_files/9049.got.cif
#   From: 2010.03.12/outbox.cif.g09.slc.cpg/sg46_5_cif.got.tgz:9049.got - 2010.04.14 02:56:35.
