data_PCOD8191870
_publ_section_title
;
Structure prediction by ZEFSAII (Michael W. Deem and Ramdas Pophale) SiO2 
 PCOD8191870
Probable space group: I M A 2
;
_chemical_formula_sum "Si O2"
_cell_formula_units_Z 56
_cell_length_a 8.943143
_cell_length_b 14.119327
_cell_length_c 22.716785
_cell_angle_alpha 90.000000
_cell_angle_beta 90.000000
_cell_angle_gamma 90.000000
_cell_volume 2868.474803
_symmetry_space_group_name_H-M "I M A 2"
_symmetry_group_IT_number 46
_symmetry_cell_setting 'orthorhombic'
loop_
_space_group_symop_operation_xyz
x,y,z
-x,-y,z
1/2-x,y,z
1/2+x,-y,z
1/2+x,1/2+y,1/2+z
1/2-x,1/2-y,1/2+z
-x,1/2+y,1/2+z
x,1/2-y,1/2+z
loop_
_atom_site_type_symbol
_atom_site_label
_atom_site_fract_x
_atom_site_fract_y
_atom_site_fract_z
Si Si1 0.925895 0.289114 0.525100
Si Si2 0.583506 0.643307 0.636591
Si Si3 0.071879 0.405917 0.053788
Si Si4 0.073810 0.797115 0.790068
Si Si5 0.572868 0.092060 0.251039
Si Si6 0.587017 0.644831 0.179946
Si Si7 0.424748 0.601112 0.406410
O O1 0.750000 0.279143 0.537680
O O2 0.961359 0.336249 0.462905
O O3 0.998970 0.357387 0.574081
O O4 0.999489 0.185457 0.523347
O O5 0.750000 0.597857 0.630184
O O6 0.483670 0.587554 0.683650
O O7 0.601675 0.748827 0.658558
O O8 0.250000 0.402534 0.044776
O O9 0.027477 0.411604 0.123133
O O10 0.000000 0.500000 0.024428
O O11 0.250000 0.796534 0.789605
O O12 0.016654 0.688463 0.783033
O O13 0.010452 0.841647 0.850151
O O14 0.022446 0.863258 0.735624
O O15 0.750000 0.083662 0.252638
O O16 0.500000 0.000000 0.283272
O O17 0.750000 0.607093 0.199703
O O18 0.500000 0.500000 0.412124
O O19 0.250000 0.583898 0.398774
#
# Coordination Sequence:
#
# PCOD8191870 Si02
#       7
#     8   8   8   8   8   8   8
#     4  10  20  36  56  78 109 145 182 225 271 318
#     4   9  17  31  51  76 107 139 175 216 260 312
#     4  10  20  34  54  82 114 146 181 220 267 323
#     4   9  19  36  55  76 106 142 178 219 266 315
#     4  10  19  32  53  80 110 143 178 216 265 323
#     4   8  16  30  49  75 105 137 172 212 257 306
#     4  10  23  41  59  79 103 136 179 226 272 319
#
# _framework density 19.522569000000001
#
# number of rings (size 3 to 8) (size 9 to 14) (size 15 to 20)
#    0.000    2.571    0.000    2.571    0.000    7.429 
#    0.000    5.000    0.000    1.714    0.000    0.000 
#    0.000    0.000    0.000    0.000    0.000    0.000 
#
# Total GULP energy -347064.456693 kJ/mol
# GULP energy per Si atom -12395.159168 kJ/mol
# Density = 1.947813 g / cm^3
# Si number density = 19.522569 Si / 1000 Ang^3
#
#
#
# Elastic Constant Matrix: (Units=GPa)
#
#
# Indices 1 2 3 4 5 6 
#
# 1 82.1416 47.0944 44.1542 0.0000 0.0000 0.0000
# 2 47.0944 113.0720 44.2726 0.0000 0.0000 0.0000
# 3 44.1542 44.2726 108.6730 0.0000 0.0000 0.0000
# 4 0.0000 0.0000 0.0000 18.6317 0.0000 0.0000
# 5 0.0000 0.0000 0.0000 0.0000 23.6285 0.0000
# 6 0.0000 0.0000 0.0000 0.0000 0.0000 31.2204
#
#
#
# Elastic Compliance Matrix: (Units=1/GPa)
#
#
# Indices 1 2 3 4 5 6 
#
# 1 0.018087 -0.005540 -0.005092 0.000000 0.000000 0.000000
# 2 -0.005540 0.012219 -0.002727 0.000000 0.000000 0.000000
# 3 -0.005092 -0.002727 0.012382 0.000000 0.000000 0.000000
# 4 0.000000 0.000000 0.000000 0.053672 0.000000 0.000000
# 5 0.000000 0.000000 0.000000 0.000000 0.042322 0.000000
# 6 0.000000 0.000000 0.000000 0.000000 0.000000 0.032030
#
#
# Mechanical properties :
#
#
# Convention : Reuss Voigt Hill
#
# Bulk Modulus (GPa) = 62.61583 63.88101 63.24842
# Shear Modulus (GPa) = 24.66045 25.92046 25.29046
#
# Velocity S-wave (km/s) = 3.55798 3.64774 3.60314
# Velocity P-wave (km/s) = 7.00158 7.10873 7.05536
#
# Compressibility (1/GPa) = 0.01597040
#
# Stress axis : x y z
#
# Youngs Moduli (GPa) = 55.28724 81.84009 80.76293
#
# Poissons Ratio (x) = 0.45336 0.41126
# Poissons Ratio (y) = 0.30627 0.22025
# Poissons Ratio (z) = 0.28153 0.22319
#
# Static dielectric constant tensor:
#      x y z
#    x 3.618020 0.000000 0.000000 
#    y 0.000000 3.767340 0.000000 
#    z 0.000000 0.000000 3.574340 
# 
# 
# High freq. dielectric constant tensor:
#      x y z
#    x 1.763270 0.000000 0.000000 
#    y 0.000000 1.764210 0.000000 
#    z 0.000000 0.000000 1.737450 
# 
# From -- ./inp_files/21068.got.cif
#   From: 2010.03.12/outbox.cif.g09.slc.cpg/sg46_11_cif.got.tgz:21068.got - 2010.04.14 02:56:35.
