data_PCOD8191025
_publ_section_title
;
Structure prediction by ZEFSAII (Michael W. Deem and Ramdas Pophale) SiO2 
 PCOD8191025
Probable space group: I B A 2
;
_chemical_formula_sum "Si O2"
_cell_formula_units_Z 48
_cell_length_a 12.543279
_cell_length_b 9.741835
_cell_length_c 17.369746
_cell_angle_alpha 90.000000
_cell_angle_beta 90.000000
_cell_angle_gamma 90.000000
_cell_volume 2122.488372
_symmetry_space_group_name_H-M "I B A 2"
_symmetry_group_IT_number 45
_symmetry_cell_setting 'orthorhombic'
loop_
_space_group_symop_operation_xyz
x,y,z
-x,-y,z
-x,y,1/2+z
x,-y,1/2+z
1/2+x,1/2+y,1/2+z
1/2-x,1/2-y,1/2+z
1/2-x,1/2+y,z
1/2+x,1/2-y,z
loop_
_atom_site_type_symbol
_atom_site_label
_atom_site_fract_x
_atom_site_fract_y
_atom_site_fract_z
Si Si1 0.944908 0.867226 0.039780
Si Si2 0.445230 0.205975 0.778046
Si Si3 0.059646 0.363093 0.629014
Si Si4 0.792573 0.110193 0.675172
Si Si5 0.128181 0.214470 0.882045
Si Si6 0.716016 0.000048 0.322804
O O1 0.872037 0.931866 0.107496
O O2 0.027448 0.765476 0.078634
O O3 0.887132 0.778447 0.973976
O O4 0.000000 0.000000 0.001351
O O5 0.530360 0.146960 0.718579
O O6 0.349300 0.279087 0.731504
O O7 0.514196 0.298203 0.837655
O O8 0.394653 0.082895 0.827934
O O9 0.187043 0.351027 0.627350
O O10 0.000000 0.500000 0.596137
O O11 0.757278 0.990929 0.733869
O O12 0.193286 0.074235 0.871653
O O13 0.196632 0.346389 0.854561
#
# Coordination Sequence:
#
# PCOD8191025 Si02
#       6
#     8   8   8   8   8   8
#     4  11  31  46  68 107 151 192 236 300 375 442
#     4  11  22  44  75 109 142 186 251 303 366 432
#     4  11  22  45  72 104 140 187 243 298 361 437
#     4  11  25  44  76 105 138 191 246 305 357 440
#     4  12  28  47  71 108 151 192 242 306 373 437
#     4  12  24  46  76 109 140 191 248 306 359 440
#
# _framework density 22.614965999999999
#
# number of rings (size 3 to 8) (size 9 to 14) (size 15 to 20)
#    0.000    0.667    5.000    0.500    9.333    5.333 
#    0.000    0.000    0.000    0.000    0.000    0.000 
#    0.000    0.000    0.000    0.000    0.000    0.000 
#
# Total GULP energy -297417.123111 kJ/mol
# GULP energy per Si atom -12392.380130 kJ/mol
# Density = 2.256349 g / cm^3
# Si number density = 22.614966 Si / 1000 Ang^3
#
#
#
# Elastic Constant Matrix: (Units=GPa)
#
#
# Indices 1 2 3 4 5 6 
#
# 1 107.2448 57.1241 29.4917 0.0000 0.0000 0.0000
# 2 57.1241 100.7334 37.4263 0.0000 0.0000 0.0000
# 3 29.4917 37.4263 109.8042 0.0000 0.0000 0.0000
# 4 0.0000 0.0000 0.0000 22.3847 0.0000 0.0000
# 5 0.0000 0.0000 0.0000 0.0000 17.9792 0.0000
# 6 0.0000 0.0000 0.0000 0.0000 0.0000 28.6402
#
#
#
# Elastic Compliance Matrix: (Units=1/GPa)
#
#
# Indices 1 2 3 4 5 6 
#
# 1 0.013488 -0.007217 -0.001163 0.000000 0.000000 0.000000
# 2 -0.007217 0.015228 -0.003252 0.000000 0.000000 0.000000
# 3 -0.001163 -0.003252 0.010528 0.000000 0.000000 0.000000
# 4 0.000000 0.000000 0.000000 0.044673 0.000000 0.000000
# 5 0.000000 0.000000 0.000000 0.000000 0.055620 0.000000
# 6 0.000000 0.000000 0.000000 0.000000 0.000000 0.034916
#
#
# Mechanical properties :
#
#
# Convention : Reuss Voigt Hill
#
# Bulk Modulus (GPa) = 62.57618 62.87406 62.72512
# Shear Modulus (GPa) = 24.62518 26.71685 25.67101
#
# Velocity S-wave (km/s) = 3.30341 3.44085 3.37283
# Velocity P-wave (km/s) = 6.50233 6.60668 6.55472
#
# Compressibility (1/GPa) = 0.01598052
#
# Stress axis : x y z
#
# Youngs Moduli (GPa) = 74.13794 65.66828 94.98567
#
# Poissons Ratio (x) = 0.47392 0.11046
# Poissons Ratio (y) = 0.53505 0.30890
# Poissons Ratio (z) = 0.08622 0.21356
#
# Static dielectric constant tensor:
#      x y z
#    x 4.300280 0.000000 0.000000 
#    y 0.000000 3.917370 0.000000 
#    z 0.000000 0.000000 3.947150 
# 
# 
# High freq. dielectric constant tensor:
#      x y z
#    x 1.910300 0.000000 0.000000 
#    y 0.000000 1.885090 0.000000 
#    z 0.000000 0.000000 1.881880 
# 
# From -- ./inp_files/7890.got.cif
#   From: 2010.03.12/outbox.cif.g09.slc.cpg/sg45_4_cif.got.tgz:7890.got - 2010.04.14 02:50:11.
