data_PCOD8191808
_publ_section_title
;
Structure prediction by ZEFSAII (Michael W. Deem and Ramdas Pophale) SiO2 
 PCOD8191808
Probable space group: I M A 2
;
_chemical_formula_sum "Si O2"
_cell_formula_units_Z 64
_cell_length_a 8.642876
_cell_length_b 29.837540
_cell_length_c 14.518907
_cell_angle_alpha 90.000000
_cell_angle_beta 90.000000
_cell_angle_gamma 90.000000
_cell_volume 3744.167074
_symmetry_space_group_name_H-M "I M A 2"
_symmetry_group_IT_number 46
_symmetry_cell_setting 'orthorhombic'
loop_
_space_group_symop_operation_xyz
x,y,z
-x,-y,z
1/2-x,y,z
1/2+x,-y,z
1/2+x,1/2+y,1/2+z
1/2-x,1/2-y,1/2+z
-x,1/2+y,1/2+z
x,1/2-y,1/2+z
loop_
_atom_site_type_symbol
_atom_site_label
_atom_site_fract_x
_atom_site_fract_y
_atom_site_fract_z
Si Si1 0.576242 0.824348 0.754440
Si Si2 0.930634 0.863302 0.569496
Si Si3 0.075429 0.278831 0.743891
Si Si4 0.434158 0.367369 0.436446
Si Si5 0.433304 0.548032 0.362559
Si Si6 0.568210 0.201901 0.432263
Si Si7 0.430226 0.046601 0.664794
Si Si8 0.568344 0.288622 0.547397
O O1 0.750000 0.843763 0.747817
O O2 0.497416 0.837319 0.658043
O O3 0.573974 0.772319 0.773743
O O4 0.495530 0.847116 0.841735
O O5 0.750000 0.852332 0.553821
O O6 0.958667 0.916302 0.585457
O O7 0.025618 0.844415 0.483452
O O8 0.250000 0.295491 0.723291
O O9 0.006891 0.304305 0.831883
O O10 0.970074 0.284248 0.654627
O O11 0.250000 0.369286 0.439570
O O12 0.505159 0.417275 0.440304
O O13 0.491109 0.335313 0.517675
O O14 0.500000 0.500000 0.390766
O O15 0.250000 0.546532 0.363216
O O16 0.491820 0.561876 0.260565
O O17 0.750000 0.206065 0.420106
O O18 0.504909 0.245485 0.489387
O O19 0.250000 0.040008 0.685341
O O20 0.500000 0.000000 0.628054
O O21 0.750000 0.292214 0.534033
#
# Coordination Sequence:
#
# PCOD8191808 Si02
#       8
#     8   8   8   8   8   8   8   8
#     4   9  17  29  49  73 101 135 175 216 251 296
#     4  10  19  34  52  73 101 139 181 213 253 311
#     4  11  21  36  55  73  98 141 184 219 257 304
#     4  11  20  35  54  76 103 140 181 217 258 313
#     4  11  21  33  50  75 106 140 174 215 263 314
#     4  11  23  35  50  76 107 137 172 219 266 307
#     4  10  19  32  50  74 104 138 175 217 261 313
#     4  11  23  36  50  76 108 138 173 218 266 311
#
# _framework density 17.093254000000002
#
# number of rings (size 3 to 8) (size 9 to 14) (size 15 to 20)
#    0.000    1.500    3.750    3.750    0.000    2.000 
#    0.000    0.000    0.000    0.000    0.000    0.875 
#    0.000    2.000    0.000    0.000    0.000    0.000 
#
# Total GULP energy -396740.855093 kJ/mol
# GULP energy per Si atom -12398.151722 kJ/mol
# Density = 1.705435 g / cm^3
# Si number density = 17.093254 Si / 1000 Ang^3
#
#
#
# Elastic Constant Matrix: (Units=GPa)
#
#
# Indices 1 2 3 4 5 6 
#
# 1 87.4827 36.5127 20.7870 -0.0001 0.0000 0.0000
# 2 36.5127 89.6755 29.1774 -0.0001 0.0001 0.0000
# 3 20.7870 29.1774 71.6422 -0.0005 0.0006 -0.0001
# 4 -0.0001 -0.0001 -0.0005 25.6106 0.0000 0.0000
# 5 0.0000 0.0001 0.0006 0.0000 26.0578 0.0000
# 6 0.0000 0.0000 -0.0001 0.0000 0.0000 27.0250
#
#
#
# Elastic Compliance Matrix: (Units=1/GPa)
#
#
# Indices 1 2 3 4 5 6 
#
# 1 0.014017 -0.005054 -0.002009 0.000000 0.000000 0.000000
# 2 -0.005054 0.014677 -0.004511 0.000000 0.000000 0.000000
# 3 -0.002009 -0.004511 0.016378 0.000000 0.000000 0.000000
# 4 0.000000 0.000000 0.000000 0.039046 0.000000 0.000000
# 5 0.000000 0.000000 0.000000 0.000000 0.038376 0.000000
# 6 0.000000 0.000000 0.000000 0.000000 0.000000 0.037003
#
#
# Mechanical properties :
#
#
# Convention : Reuss Voigt Hill
#
# Bulk Modulus (GPa) = 45.60972 46.86160 46.23566
# Shear Modulus (GPa) = 26.32219 26.56022 26.44121
#
# Velocity S-wave (km/s) = 3.92843 3.94616 3.93731
# Velocity P-wave (km/s) = 6.87878 6.94533 6.91214
#
# Compressibility (1/GPa) = 0.02192515
#
# Stress axis : x y z
#
# Youngs Moduli (GPa) = 71.33946 68.13488 61.05630
#
# Poissons Ratio (x) = 0.34434 0.12266
# Poissons Ratio (y) = 0.36053 0.27542
# Poissons Ratio (z) = 0.14332 0.30736
#
# Static dielectric constant tensor:
#      x y z
#    x 3.172390 0.000000 0.000000 
#    y 0.000000 3.269630 0.000000 
#    z 0.000000 0.000000 3.016230 
# 
# 
# High freq. dielectric constant tensor:
#      x y z
#    x 1.662160 0.000000 0.000000 
#    y 0.000000 1.652930 0.000000 
#    z 0.000000 0.000000 1.632710 
# 
# From -- ./inp_files/14763.got.cif
#   From: 2010.03.12/outbox.cif.g09.slc.cpg/sg46_8_cif.got.tgz:14763.got - 2010.04.14 02:56:35.
