data_PCOD8191493
_publ_section_title
;
Structure prediction by ZEFSAII (Michael W. Deem and Ramdas Pophale) SiO2 
 PCOD8191493
Probable space group: I M A 2
;
_chemical_formula_sum "Si O2"
_cell_formula_units_Z 64
_cell_length_a 8.738692
_cell_length_b 18.670778
_cell_length_c 21.685446
_cell_angle_alpha 90.000000
_cell_angle_beta 90.000000
_cell_angle_gamma 90.000000
_cell_volume 3538.157866
_symmetry_space_group_name_H-M "I M A 2"
_symmetry_group_IT_number 46
_symmetry_cell_setting 'orthorhombic'
loop_
_space_group_symop_operation_xyz
x,y,z
-x,-y,z
1/2-x,y,z
1/2+x,-y,z
1/2+x,1/2+y,1/2+z
1/2-x,1/2-y,1/2+z
-x,1/2+y,1/2+z
x,1/2-y,1/2+z
loop_
_atom_site_type_symbol
_atom_site_label
_atom_site_fract_x
_atom_site_fract_y
_atom_site_fract_z
Si Si1 0.430888 0.573311 0.509480
Si Si2 0.431839 0.720366 0.934990
Si Si3 0.921924 0.929973 0.570949
Si Si4 0.068489 0.138779 0.889357
Si Si5 0.927174 0.172138 0.656439
Si Si6 0.578813 0.571879 0.925400
Si Si7 0.570839 0.576564 0.258929
Si Si8 0.429954 0.719326 0.563405
O O1 0.500000 0.500000 0.536168
O O2 0.250000 0.567060 0.501988
O O3 0.502063 0.589096 0.442962
O O4 0.478002 0.636187 0.557300
O O5 0.250000 0.722771 0.932510
O O6 0.497230 0.781826 0.890198
O O7 0.486834 0.643835 0.908568
O O8 0.497332 0.736536 0.004189
O O9 0.750000 0.920548 0.598168
O O10 0.915446 0.934739 0.498314
O O11 0.037076 0.868697 0.592669
O O12 0.000000 0.000000 0.599690
O O13 0.250000 0.144292 0.895345
O O14 0.016418 0.101088 0.826147
O O15 0.750000 0.167893 0.674892
O O16 0.977551 0.251906 0.632042
O O17 0.024980 0.140117 0.711918
O O18 0.500000 0.500000 0.897840
O O19 0.750000 0.577060 0.898110
O O20 0.500000 0.500000 0.240744
O O21 0.750000 0.566868 0.255749
O O22 0.250000 0.727955 0.557101
#
# Coordination Sequence:
#
# PCOD8191493 Si02
#       8
#     8   8   8   8   8   8   8   8
#     4  10  19  33  53  79 106 133 165 206 258 310
#     4  10  18  32  52  74 102 132 169 213 262 314
#     4  10  19  29  42  63  92 129 167 204 241 288
#     4  10  21  36  54  75 101 134 174 217 261 308
#     4  11  20  33  51  69  96 133 172 211 252 299
#     4  10  19  29  44  68  99 134 170 207 250 302
#     4  11  24  39  53  73 102 137 178 219 255 300
#     4   8  17  31  48  71  99 130 163 203 250 305
#
# _framework density 18.088508999999998
#
# number of rings (size 3 to 8) (size 9 to 14) (size 15 to 20)
#    0.000    2.000    1.250    4.125    0.000    4.000 
#    0.000    1.875    0.000    0.000    0.000    0.875 
#    0.000    4.000    0.000    0.000    0.000    0.125 
#
# Total GULP energy -396557.311669 kJ/mol
# GULP energy per Si atom -12392.415990 kJ/mol
# Density = 1.804734 g / cm^3
# Si number density = 18.088509 Si / 1000 Ang^3
#
#
#
# Elastic Constant Matrix: (Units=GPa)
#
#
# Indices 1 2 3 4 5 6 
#
# 1 69.7729 36.2689 22.9770 0.0000 0.0000 0.0000
# 2 36.2689 137.8619 38.5611 0.0000 0.0000 0.0000
# 3 22.9770 38.5611 63.7535 0.0000 0.0000 0.0000
# 4 0.0000 0.0000 0.0000 34.9915 0.0000 0.0000
# 5 0.0000 0.0000 0.0000 0.0000 19.2176 0.0000
# 6 0.0000 0.0000 0.0000 0.0000 0.0000 32.4676
#
#
#
# Elastic Compliance Matrix: (Units=1/GPa)
#
#
# Indices 1 2 3 4 5 6 
#
# 1 0.017506 -0.003419 -0.004241 0.000000 0.000000 0.000000
# 2 -0.003419 0.009399 -0.004452 0.000000 0.000000 0.000000
# 3 -0.004241 -0.004452 0.019907 0.000000 0.000000 0.000000
# 4 0.000000 0.000000 0.000000 0.028578 0.000000 0.000000
# 5 0.000000 0.000000 0.000000 0.000000 0.052036 0.000000
# 6 0.000000 0.000000 0.000000 0.000000 0.000000 0.030800
#
#
# Mechanical properties :
#
#
# Convention : Reuss Voigt Hill
#
# Bulk Modulus (GPa) = 44.27499 51.88914 48.08207
# Shear Modulus (GPa) = 26.31854 28.90742 27.61298
#
# Velocity S-wave (km/s) = 3.81857 4.00197 3.91135
# Velocity P-wave (km/s) = 6.63113 7.07834 6.85838
#
# Compressibility (1/GPa) = 0.02258612
#
# Stress axis : x y z
#
# Youngs Moduli (GPa) = 57.12240 106.39950 50.23370
#
# Poissons Ratio (x) = 0.36381 0.21305
# Poissons Ratio (y) = 0.19532 0.22366
# Poissons Ratio (z) = 0.24227 0.47373
#
# Static dielectric constant tensor:
#      x y z
#    x 3.400860 0.000000 0.000000 
#    y 0.000000 3.507610 0.000000 
#    z 0.000000 0.000000 3.068260 
# 
# 
# High freq. dielectric constant tensor:
#      x y z
#    x 1.706700 0.000000 0.000000 
#    y 0.000000 1.708720 0.000000 
#    z 0.000000 0.000000 1.651310 
# 
# From -- ./inp_files/21343.got.cif
#   From: 2010.03.12/outbox.cif.g09.slc.cpg/sg46_11_cif.got.tgz:21343.got - 2010.04.14 02:56:35.
