data_PCOD8191101
_publ_section_title
;
Structure prediction by ZEFSAII (Michael W. Deem and Ramdas Pophale) SiO2 
 PCOD8191101
Probable space group: I B A 2
;
_chemical_formula_sum "Si O2"
_cell_formula_units_Z 40
_cell_length_a 8.796791
_cell_length_b 9.563242
_cell_length_c 19.817716
_cell_angle_alpha 90.000000
_cell_angle_beta 90.000000
_cell_angle_gamma 90.000000
_cell_volume 1667.182028
_symmetry_space_group_name_H-M "I B A 2"
_symmetry_group_IT_number 45
_symmetry_cell_setting 'orthorhombic'
loop_
_space_group_symop_operation_xyz
x,y,z
-x,-y,z
-x,y,1/2+z
x,-y,1/2+z
1/2+x,1/2+y,1/2+z
1/2-x,1/2-y,1/2+z
1/2-x,1/2+y,z
1/2+x,1/2-y,z
loop_
_atom_site_type_symbol
_atom_site_label
_atom_site_fract_x
_atom_site_fract_y
_atom_site_fract_z
Si Si1 0.676599 0.482716 0.018550
Si Si2 0.385990 0.381512 0.665789
Si Si3 0.466611 0.664221 0.350355
Si Si4 0.437303 0.154947 0.222314
Si Si5 0.209612 0.272409 0.940009
O O1 0.500000 0.500000 0.997034
O O2 0.685043 0.436461 0.096166
O O3 0.772628 0.621765 0.002949
O O4 0.764528 0.373403 0.971528
O O5 0.500000 0.500000 0.695243
O O6 0.482500 0.235739 0.658550
O O7 0.244868 0.354692 0.716382
O O8 0.500000 0.500000 0.343773
O O9 0.511799 0.743603 0.282674
O O10 0.290431 0.681055 0.370180
O O11 0.538919 0.743340 0.415156
O O12 0.500000 0.000000 0.231787
#
# Coordination Sequence:
#
# PCOD8191101 Si02
#       5
#     8   8   8   8   8
#     4  11  26  47  73 112 153 194 247 318 384 466
#     4  11  27  51  76 111 159 197 258 326 387 477
#     4  12  27  49  71 108 153 197 254 324 379 457
#     4  12  28  47  78 112 147 211 265 321 397 460
#     4  12  23  47  73 106 149 194 247 308 390 447
#
# _framework density 23.992581000000001
#
# number of rings (size 3 to 8) (size 9 to 14) (size 15 to 20)
#    0.000    0.400    4.000    3.000   11.200    3.200 
#    0.000    0.000    0.000    0.000    0.000    0.000 
#    0.000    0.000    0.000    0.000    0.000    0.000 
#
# Total GULP energy -247795.465799 kJ/mol
# GULP energy per Si atom -12389.773290 kJ/mol
# Density = 2.393797 g / cm^3
# Si number density = 23.992581 Si / 1000 Ang^3
#
#
#
# Elastic Constant Matrix: (Units=GPa)
#
#
# Indices 1 2 3 4 5 6 
#
# 1 73.2765 49.9598 20.6131 0.0000 0.0000 0.0000
# 2 49.9598 176.3303 45.3141 0.0000 0.0000 0.0000
# 3 20.6131 45.3141 107.3796 0.0000 0.0000 0.0000
# 4 0.0000 0.0000 0.0000 51.6314 0.0000 0.0000
# 5 0.0000 0.0000 0.0000 0.0000 27.0476 0.0000
# 6 0.0000 0.0000 0.0000 0.0000 0.0000 45.0231
#
#
#
# Elastic Compliance Matrix: (Units=1/GPa)
#
#
# Indices 1 2 3 4 5 6 
#
# 1 0.017097 -0.004487 -0.001388 0.000000 0.000000 0.000000
# 2 -0.004487 0.007539 -0.002320 0.000000 0.000000 0.000000
# 3 -0.001388 -0.002320 0.010558 0.000000 0.000000 0.000000
# 4 0.000000 0.000000 0.000000 0.019368 0.000000 0.000000
# 5 0.000000 0.000000 0.000000 0.000000 0.036972 0.000000
# 6 0.000000 0.000000 0.000000 0.000000 0.000000 0.022211
#
#
# Mechanical properties :
#
#
# Convention : Reuss Voigt Hill
#
# Bulk Modulus (GPa) = 53.18376 65.41784 59.30080
# Shear Modulus (GPa) = 36.65594 40.81372 38.73483
#
# Velocity S-wave (km/s) = 3.91295 4.12891 4.02238
# Velocity P-wave (km/s) = 6.52915 7.07500 6.80755
#
# Compressibility (1/GPa) = 0.01880273
#
# Stress axis : x y z
#
# Youngs Moduli (GPa) = 58.49007 132.64789 94.71234
#
# Poissons Ratio (x) = 0.59523 0.13150
# Poissons Ratio (y) = 0.26246 0.21973
# Poissons Ratio (z) = 0.08121 0.30774
#
# Static dielectric constant tensor:
#      x y z
#    x 4.351010 0.000000 0.000000 
#    y 0.000000 4.541560 0.000000 
#    z 0.000000 0.000000 4.315530 
# 
# 
# High freq. dielectric constant tensor:
#      x y z
#    x 1.948510 0.000000 0.000000 
#    y 0.000000 1.969810 0.000000 
#    z 0.000000 0.000000 1.955460 
# 
# From -- ./inp_files/9488.got.cif
#   From: 2010.03.12/outbox.cif.g09.slc.cpg/sg45_5_cif.got.tgz:9488.got - 2010.04.14 02:50:11.
