data_PCOD8191365
_publ_section_title
;
Structure prediction by ZEFSAII (Michael W. Deem and Ramdas Pophale) SiO2 
 PCOD8191365
Probable space group: I M A 2
;
_chemical_formula_sum "Si O2"
_cell_formula_units_Z 56
_cell_length_a 8.523939
_cell_length_b 18.561889
_cell_length_c 20.730818
_cell_angle_alpha 90.000000
_cell_angle_beta 90.000000
_cell_angle_gamma 90.000000
_cell_volume 3280.038514
_symmetry_space_group_name_H-M "I M A 2"
_symmetry_group_IT_number 46
_symmetry_cell_setting 'orthorhombic'
loop_
_space_group_symop_operation_xyz
x,y,z
-x,-y,z
1/2-x,y,z
1/2+x,-y,z
1/2+x,1/2+y,1/2+z
1/2-x,1/2-y,1/2+z
-x,1/2+y,1/2+z
x,1/2-y,1/2+z
loop_
_atom_site_type_symbol
_atom_site_label
_atom_site_fract_x
_atom_site_fract_y
_atom_site_fract_z
Si Si1 0.564205 0.078437 0.770060
Si Si2 0.567065 0.078440 0.259774
Si Si3 0.065389 0.853752 0.398235
Si Si4 0.433232 0.420595 0.024152
Si Si5 0.568059 0.284883 0.334860
Si Si6 0.432404 0.285612 0.711866
Si Si7 0.434268 0.661847 0.143056
O O1 0.750000 0.075340 0.771824
O O2 0.500165 0.133467 0.826752
O O3 0.509026 0.107208 0.699903
O O4 0.500000 0.000000 0.784807
O O5 0.750000 0.079605 0.244846
O O6 0.530546 0.102917 0.332781
O O7 0.479552 0.130336 0.207830
O O8 0.500000 0.000000 0.248139
O O9 0.250000 0.857103 0.415517
O O10 0.003862 0.770014 0.389878
O O11 0.962521 0.889940 0.453144
O O12 0.500000 0.500000 0.029828
O O13 0.250000 0.421871 0.039385
O O14 0.521689 0.370547 0.074586
O O15 0.750000 0.291260 0.348140
O O16 0.543508 0.247046 0.266627
O O17 0.250000 0.277302 0.728616
O O18 0.476396 0.239062 0.648434
O O19 0.250000 0.675360 0.146607
#
# Coordination Sequence:
#
# PCOD8191365 Si02
#       7
#     8   8   8   8   8   8   8
#     4   9  17  28  45  69  94 120 150 188 231 275
#     4  10  19  31  48  71  98 127 159 196 239 283
#     4   9  18  33  50  66  90 126 163 197 234 278
#     4  12  24  35  48  69  96 126 161 196 233 278
#     4   8  16  31  47  64  90 124 159 193 233 281
#     4  10  18  29  47  70  94 121 155 194 238 285
#     4  10  20  35  50  65  92 128 163 196 232 276
#
# _framework density 17.072970000000002
#
# number of rings (size 3 to 8) (size 9 to 14) (size 15 to 20)
#    0.000    2.286    0.000    6.000    0.000    8.000 
#    0.000    0.000    0.000    0.000    0.000    1.000 
#    0.000    2.286    0.000    0.000    0.000    0.000 
#
# Total GULP energy -346942.626403 kJ/mol
# GULP energy per Si atom -12390.808086 kJ/mol
# Density = 1.703411 g / cm^3
# Si number density = 17.072970 Si / 1000 Ang^3
#
#
#
# Elastic Constant Matrix: (Units=GPa)
#
#
# Indices 1 2 3 4 5 6 
#
# 1 37.7243 30.9929 15.1694 0.0000 0.0000 0.0000
# 2 30.9929 150.4654 42.7320 0.0000 0.0000 0.0000
# 3 15.1694 42.7320 46.7484 0.0000 0.0000 0.0000
# 4 0.0000 0.0000 0.0000 31.6539 0.0000 0.0000
# 5 0.0000 0.0000 0.0000 0.0000 20.2660 0.0000
# 6 0.0000 0.0000 0.0000 0.0000 0.0000 29.5147
#
#
#
# Elastic Compliance Matrix: (Units=1/GPa)
#
#
# Indices 1 2 3 4 5 6 
#
# 1 0.033147 -0.005096 -0.006098 0.000000 0.000000 0.000000
# 2 -0.005096 0.009760 -0.007268 0.000000 0.000000 0.000000
# 3 -0.006098 -0.007268 0.030013 0.000000 0.000000 0.000000
# 4 0.000000 0.000000 0.000000 0.031592 0.000000 0.000000
# 5 0.000000 0.000000 0.000000 0.000000 0.049344 0.000000
# 6 0.000000 0.000000 0.000000 0.000000 0.000000 0.033881
#
#
# Mechanical properties :
#
#
# Convention : Reuss Voigt Hill
#
# Bulk Modulus (GPa) = 27.78018 45.85852 36.81935
# Shear Modulus (GPa) = 21.12759 26.02318 23.57538
#
# Velocity S-wave (km/s) = 3.52161 3.90838 3.72002
# Velocity P-wave (km/s) = 5.73083 6.87647 6.32962
#
# Compressibility (1/GPa) = 0.03599689
#
# Stress axis : x y z
#
# Youngs Moduli (GPa) = 30.16903 102.46237 33.31890
#
# Poissons Ratio (x) = 0.52213 0.20317
# Poissons Ratio (y) = 0.15374 0.24215
# Poissons Ratio (z) = 0.18396 0.74466
#
# Static dielectric constant tensor:
#      x y z
#    x 3.120520 0.000000 0.000000 
#    y 0.000000 3.798820 0.000000 
#    z 0.000000 0.000000 2.981290 
# 
# 
# High freq. dielectric constant tensor:
#      x y z
#    x 1.661330 0.000000 0.000000 
#    y 0.000000 1.672460 0.000000 
#    z 0.000000 0.000000 1.611390 
# 
# From -- ./inp_files/21216.got.cif
#   From: 2010.03.12/outbox.cif.g09.slc.cpg/sg46_11_cif.got.tgz:21216.got - 2010.04.14 02:56:35.
