data_PCOD8191558
_publ_section_title
;
Structure prediction by ZEFSAII (Michael W. Deem and Ramdas Pophale) SiO2 
 PCOD8191558
Probable space group: I M A 2
;
_chemical_formula_sum "Si O2"
_cell_formula_units_Z 56
_cell_length_a 25.226483
_cell_length_b 17.111247
_cell_length_c 5.460937
_cell_angle_alpha 90.000000
_cell_angle_beta 90.000000
_cell_angle_gamma 90.000000
_cell_volume 2357.249398
_symmetry_space_group_name_H-M "I M A 2"
_symmetry_group_IT_number 46
_symmetry_cell_setting 'orthorhombic'
loop_
_space_group_symop_operation_xyz
x,y,z
-x,-y,z
1/2-x,y,z
1/2+x,-y,z
1/2+x,1/2+y,1/2+z
1/2-x,1/2-y,1/2+z
-x,1/2+y,1/2+z
x,1/2-y,1/2+z
loop_
_atom_site_type_symbol
_atom_site_label
_atom_site_fract_x
_atom_site_fract_y
_atom_site_fract_z
Si Si1 0.068180 0.313732 0.872910
Si Si2 0.447188 0.454573 0.567164
Si Si3 0.332926 0.217574 0.807828
Si Si4 0.312334 0.705734 0.743717
Si Si5 0.382373 0.928320 0.398032
Si Si6 0.131770 0.431271 0.167216
Si Si7 0.454509 0.707885 0.036558
O O1 0.040404 0.366434 0.661442
O O2 0.102829 0.239266 0.769775
O O3 0.019175 0.291958 0.055175
O O4 0.116346 0.370039 0.955203
O O5 0.500000 0.500000 0.526084
O O6 0.409689 0.505639 0.738696
O O7 0.422794 0.448854 0.301488
O O8 0.305754 0.249395 0.555898
O O9 0.327369 0.122203 0.827649
O O10 0.250000 0.690353 0.739450
O O11 0.329512 0.752775 0.499743
O O12 0.342247 0.623172 0.737645
O O13 0.427310 0.877468 0.537613
O O14 0.346897 0.983191 0.583146
O O15 0.434602 0.748860 0.783382
#
# Coordination Sequence:
#
# PCOD8191558 Si02
#       7
#     8   8   8   8   8   8   8
#     4  10  21  35  48  74 103 159 207 247 285 338
#     4  11  22  35  52  79 121 166 207 253 313 360
#     4  10  18  34  51  68  99 144 200 240 273 335
#     4  10  23  46  74  99 126 162 208 269 339 400
#     4  11  25  38  58  88 123 158 206 263 319 390
#     4  10  23  34  53  76 114 159 199 253 304 357
#     4  12  26  37  54  78 107 154 207 258 299 353
#
# _framework density 23.756501
#
# number of rings (size 3 to 8) (size 9 to 14) (size 15 to 20)
#    0.000    1.429    2.857    2.571    8.000    0.000 
#    0.000    0.000    0.000    0.000    0.000    0.000 
#    0.000   10.286    0.000    0.000    0.000    0.000 
#
# Total GULP energy -346875.585945 kJ/mol
# GULP energy per Si atom -12388.413784 kJ/mol
# Density = 2.370243 g / cm^3
# Si number density = 23.756501 Si / 1000 Ang^3
#
#
#
# Elastic Constant Matrix: (Units=GPa)
#
#
# Indices 1 2 3 4 5 6 
#
# 1 28.3474 25.9590 10.0711 0.0000 0.0000 0.0000
# 2 25.9590 132.8707 27.1419 0.0000 0.0000 0.0000
# 3 10.0711 27.1419 113.0621 0.0000 0.0000 0.0000
# 4 0.0000 0.0000 0.0000 23.1058 0.0000 0.0000
# 5 0.0000 0.0000 0.0000 0.0000 -21.1115 0.0000
# 6 0.0000 0.0000 0.0000 0.0000 0.0000 11.7902
#
#
#
# Elastic Compliance Matrix: (Units=1/GPa)
#
#
# Indices 1 2 3 4 5 6 
#
# 1 0.043357 -0.008078 -0.001923 0.000000 0.000000 0.000000
# 2 -0.008078 0.009419 -0.001542 0.000000 0.000000 0.000000
# 3 -0.001923 -0.001542 0.009386 0.000000 0.000000 0.000000
# 4 0.000000 0.000000 0.000000 0.043279 0.000000 0.000000
# 5 0.000000 0.000000 0.000000 0.000000 -0.047368 0.000000
# 6 0.000000 0.000000 0.000000 0.000000 0.000000 0.084816
#
#
# Mechanical properties :
#
#
# Convention : Reuss Voigt Hill
#
# Bulk Modulus (GPa) = 25.59018 44.51380 35.05199
# Shear Modulus (GPa) = 27.93284 16.83078 22.38181
#
# Velocity S-wave (km/s) = 3.43271 2.66460 3.07275
# Velocity P-wave (km/s) = 5.14845 5.31460 5.23219
#
# Compressibility (1/GPa) = 0.03907749
#
# Stress axis : x y z
#
# Youngs Moduli (GPa) = 23.06431 106.16599 106.54079
#
# Poissons Ratio (x) = 0.85760 0.20487
# Poissons Ratio (y) = 0.18631 0.16425
# Poissons Ratio (z) = 0.04435 0.16367
#
# Static dielectric constant tensor:
#      x y z
#    x 3.812520 0.000000 0.000000 
#    y 0.000000 4.856650 0.000000 
#    z 0.000000 0.000000 4.533640 
# 
# 
# High freq. dielectric constant tensor:
#      x y z
#    x 1.891730 0.000000 0.000000 
#    y 0.000000 1.962010 0.000000 
#    z 0.000000 0.000000 1.953380 
# 
# From -- ./inp_files/2724.got.cif
#   From: 2010.03.12/outbox.cif.g09.slc.cpg/sg46_2_cif.got.tgz:2724.got - 2010.04.14 02:56:35.
