data_PCOD8191349
_publ_section_title
;
Structure prediction by ZEFSAII (Michael W. Deem and Ramdas Pophale) SiO2 
 PCOD8191349
Probable space group: I M A 2
;
_chemical_formula_sum "Si O2"
_cell_formula_units_Z 56
_cell_length_a 8.769966
_cell_length_b 13.622220
_cell_length_c 29.425332
_cell_angle_alpha 90.000000
_cell_angle_beta 90.000000
_cell_angle_gamma 90.000000
_cell_volume 3515.338667
_symmetry_space_group_name_H-M "I M A 2"
_symmetry_group_IT_number 46
_symmetry_cell_setting 'orthorhombic'
loop_
_space_group_symop_operation_xyz
x,y,z
-x,-y,z
1/2-x,y,z
1/2+x,-y,z
1/2+x,1/2+y,1/2+z
1/2-x,1/2-y,1/2+z
-x,1/2+y,1/2+z
x,1/2-y,1/2+z
loop_
_atom_site_type_symbol
_atom_site_label
_atom_site_fract_x
_atom_site_fract_y
_atom_site_fract_z
Si Si1 0.068823 0.603615 0.393880
Si Si2 0.573088 0.898294 0.432210
Si Si3 0.069247 0.216472 0.344737
Si Si4 0.430577 0.891737 0.064983
Si Si5 0.929954 0.798336 0.979659
Si Si6 0.925195 0.396606 0.663415
Si Si7 0.570306 0.108298 0.262049
O O1 0.250000 0.599466 0.393899
O O2 0.000000 0.500000 0.378882
O O3 0.011132 0.681567 0.356884
O O4 0.010636 0.629066 0.444320
O O5 0.750000 0.917138 0.432334
O O6 0.520185 0.865066 0.381924
O O7 0.527520 0.814046 0.468105
O O8 0.500000 0.000000 0.447247
O O9 0.250000 0.232798 0.345026
O O10 0.011952 0.182258 0.295934
O O11 0.250000 0.896462 0.056160
O O12 0.471911 0.846258 0.115331
O O13 0.500000 0.000000 0.059349
O O14 0.509089 0.818419 0.029871
O O15 0.750000 0.816527 0.976195
O O16 0.750000 0.420606 0.660159
O O17 0.960923 0.343442 0.711619
O O18 0.000000 0.500000 0.666890
O O19 0.750000 0.101730 0.272668
O O20 0.500000 0.000000 0.266885
#
# Coordination Sequence:
#
# PCOD8191349 Si02
#       7
#     8   8   8   8   8   8   8
#     4  11  21  34  50  68  91 121 153 188 226 268
#     4   9  19  32  46  63  88 117 147 183 221 259
#     4  10  20  33  47  68  94 121 153 188 224 269
#     4  10  18  29  45  66  91 122 154 188 227 270
#     4  10  20  33  46  66  93 121 152 187 225 270
#     4   8  16  28  42  62  90 119 151 186 225 270
#     4  10  18  29  45  67  94 125 155 188 228 272
#
# _framework density 15.930187
#
# number of rings (size 3 to 8) (size 9 to 14) (size 15 to 20)
#    0.000    2.286    0.000    4.714    0.000    5.714 
#    0.000    0.000    0.000    0.000    0.000    1.000 
#    0.000    2.286    0.000    0.000    0.000    0.000 
#
# Total GULP energy -346995.117028 kJ/mol
# GULP energy per Si atom -12392.682751 kJ/mol
# Density = 1.589393 g / cm^3
# Si number density = 15.930187 Si / 1000 Ang^3
#
#
#
# Elastic Constant Matrix: (Units=GPa)
#
#
# Indices 1 2 3 4 5 6 
#
# 1 87.4389 42.5367 48.0482 0.0000 0.0000 0.0000
# 2 42.5367 93.2406 53.9835 0.0000 0.0000 0.0000
# 3 48.0482 53.9835 131.4385 0.0000 0.0000 0.0000
# 4 0.0000 0.0000 0.0000 21.0343 0.0000 0.0000
# 5 0.0000 0.0000 0.0000 0.0000 24.3481 0.0000
# 6 0.0000 0.0000 0.0000 0.0000 0.0000 27.0297
#
#
#
# Elastic Compliance Matrix: (Units=1/GPa)
#
#
# Indices 1 2 3 4 5 6 
#
# 1 0.015985 -0.005129 -0.003737 0.000000 0.000000 0.000000
# 2 -0.005129 0.015716 -0.004580 0.000000 0.000000 0.000000
# 3 -0.003737 -0.004580 0.010855 0.000000 0.000000 0.000000
# 4 0.000000 0.000000 0.000000 0.047541 0.000000 0.000000
# 5 0.000000 0.000000 0.000000 0.000000 0.041071 0.000000
# 6 0.000000 0.000000 0.000000 0.000000 0.000000 0.036996
#
#
# Mechanical properties :
#
#
# Convention : Reuss Voigt Hill
#
# Bulk Modulus (GPa) = 63.83637 66.80609 65.32123
# Shear Modulus (GPa) = 24.96517 25.65240 25.30879
#
# Velocity S-wave (km/s) = 3.96303 4.01721 3.99021
# Velocity P-wave (km/s) = 7.81668 7.97152 7.89448
#
# Compressibility (1/GPa) = 0.01566505
#
# Stress axis : x y z
#
# Youngs Moduli (GPa) = 62.55824 63.62749 92.12104
#
# Poissons Ratio (x) = 0.32634 0.34425
# Poissons Ratio (y) = 0.32085 0.42192
# Poissons Ratio (z) = 0.23378 0.29142
#
# Static dielectric constant tensor:
#      x y z
#    x 3.111770 0.000000 0.000000 
#    y 0.000000 2.419880 0.000000 
#    z 0.000000 0.000000 3.481600 
# 
# 
# High freq. dielectric constant tensor:
#      x y z
#    x 1.629700 0.000000 0.000000 
#    y 0.000000 1.577520 0.000000 
#    z 0.000000 0.000000 1.616650 
# 
# From -- ./inp_files/25249.got.cif
#   From: 2010.03.12/outbox.cif.g09.slc.cpg/sg46_13_cif.got.tgz:25249.got - 2010.04.14 02:56:35.
