data_PCOD8191255
_publ_section_title
;
Structure prediction by ZEFSAII (Michael W. Deem and Ramdas Pophale) SiO2 
 PCOD8191255
Probable space group: I M A 2
;
_chemical_formula_sum "Si O2"
_cell_formula_units_Z 64
_cell_length_a 9.369920
_cell_length_b 26.141311
_cell_length_c 18.074258
_cell_angle_alpha 90.000000
_cell_angle_beta 90.000000
_cell_angle_gamma 90.000000
_cell_volume 4427.144772
_symmetry_space_group_name_H-M "I M A 2"
_symmetry_group_IT_number 46
_symmetry_cell_setting 'orthorhombic'
loop_
_space_group_symop_operation_xyz
x,y,z
-x,-y,z
1/2-x,y,z
1/2+x,-y,z
1/2+x,1/2+y,1/2+z
1/2-x,1/2-y,1/2+z
-x,1/2+y,1/2+z
x,1/2-y,1/2+z
loop_
_atom_site_type_symbol
_atom_site_label
_atom_site_fract_x
_atom_site_fract_y
_atom_site_fract_z
Si Si1 0.407498 0.200117 0.090100
Si Si2 0.583013 0.746562 0.819937
Si Si3 0.416713 0.649750 0.057218
Si Si4 0.915793 0.450288 0.972381
Si Si5 0.916180 0.856468 0.234507
Si Si6 0.082359 0.751797 0.970323
Si Si7 0.592516 0.695008 0.178613
Si Si8 0.417553 0.550755 0.800795
O O1 0.250000 0.189449 0.056626
O O2 0.448690 0.155880 0.148399
O O3 0.403463 0.252389 0.134786
O O4 0.521395 0.203592 0.023731
O O5 0.750000 0.748714 0.840077
O O6 0.543986 0.691436 0.786283
O O7 0.488505 0.757082 0.891025
O O8 0.542807 0.791650 0.761903
O O9 0.250000 0.648098 0.071377
O O10 0.488288 0.655232 0.137892
O O11 0.471878 0.597976 0.019066
O O12 0.457587 0.696440 0.003366
O O13 0.750000 0.460554 0.986209
O O14 0.946912 0.438429 0.886900
O O15 0.000000 0.500000 0.999975
O O16 0.750000 0.871187 0.245365
O O17 0.019441 0.902581 0.254774
O O18 0.250000 0.759773 0.962599
O O19 0.750000 0.670312 0.179849
O O20 0.500000 0.500000 0.775194
O O21 0.250000 0.544674 0.784047
#
# Coordination Sequence:
#
# PCOD8191255 Si02
#       8
#     8   8   8   8   8   8   8   8
#     4   8  15  28  42  56  78 106 134 166 202 239
#     4   9  17  28  41  58  82 109 136 167 200 237
#     4   9  17  28  40  56  80 106 132 166 204 236
#     4   9  18  30  41  56  79 106 136 169 203 236
#     4   9  17  29  44  60  79 107 141 171 203 243
#     4  10  18  26  39  60  83 107 137 168 199 239
#     4   8  15  27  41  57  76 102 136 166 194 235
#     4  10  19  30  43  59  82 109 138 173 207 239
#
# _framework density 14.456270999999999
#
# number of rings (size 3 to 8) (size 9 to 14) (size 15 to 20)
#    0.000    3.000    0.000    3.000    0.000    4.000 
#    0.000    2.500    0.000    0.000    0.000    0.000 
#    0.000    1.000    0.000    7.000    0.000    5.125 
#
# Total GULP energy -396697.398886 kJ/mol
# GULP energy per Si atom -12396.793715 kJ/mol
# Density = 1.442337 g / cm^3
# Si number density = 14.456271 Si / 1000 Ang^3
#
#
#
# Elastic Constant Matrix: (Units=GPa)
#
#
# Indices 1 2 3 4 5 6 
#
# 1 74.1297 46.4102 59.5122 0.0000 0.0000 0.0000
# 2 46.4102 75.9584 46.9109 0.0000 0.0000 0.0000
# 3 59.5122 46.9109 98.8447 0.0002 0.0000 0.0000
# 4 0.0000 0.0000 0.0002 23.9589 0.0000 0.0000
# 5 0.0000 0.0000 0.0000 0.0000 26.4949 0.0000
# 6 0.0000 0.0000 0.0000 0.0000 0.0000 24.1497
#
#
#
# Elastic Compliance Matrix: (Units=1/GPa)
#
#
# Indices 1 2 3 4 5 6 
#
# 1 0.031102 -0.010522 -0.013732 0.000000 0.000000 0.000000
# 2 -0.010522 0.022184 -0.004193 0.000000 0.000000 0.000000
# 3 -0.013732 -0.004193 0.020374 0.000000 0.000000 0.000000
# 4 0.000000 0.000000 0.000000 0.041738 0.000000 0.000000
# 5 0.000000 0.000000 0.000000 0.000000 0.037743 0.000000
# 6 0.000000 0.000000 0.000000 0.000000 0.000000 0.041408
#
#
# Mechanical properties :
#
#
# Convention : Reuss Voigt Hill
#
# Bulk Modulus (GPa) = 59.64592 61.62216 60.63404
# Shear Modulus (GPa) = 19.45283 21.32733 20.39008
#
# Velocity S-wave (km/s) = 3.67227 3.84513 3.75969
# Velocity P-wave (km/s) = 7.70259 7.90142 7.80264
#
# Compressibility (1/GPa) = 0.01676561
#
# Stress axis : x y z
#
# Youngs Moduli (GPa) = 32.15270 45.07810 49.08128
#
# Poissons Ratio (x) = 0.47433 0.67397
# Poissons Ratio (y) = 0.33832 0.20579
# Poissons Ratio (z) = 0.44151 0.18901
#
# Static dielectric constant tensor:
#      x y z
#    x 2.889430 0.000000 0.000000 
#    y 0.000000 2.680830 0.000000 
#    z 0.000000 0.000000 2.839300 
# 
# 
# High freq. dielectric constant tensor:
#      x y z
#    x 1.559030 0.000000 0.000000 
#    y 0.000000 1.520240 0.000000 
#    z 0.000000 0.000000 1.540560 
# 
# From -- ./inp_files/18643.got.cif
#   From: 2010.03.12/outbox.cif.g09.slc.cpg/sg46_10_cif.got.tgz:18643.got - 2010.04.14 02:56:35.
