data_PCOD8191711
_publ_section_title
;
Structure prediction by ZEFSAII (Michael W. Deem and Ramdas Pophale) SiO2 
 PCOD8191711
Probable space group: I M A 2
;
_chemical_formula_sum "Si O2"
_cell_formula_units_Z 64
_cell_length_a 15.033617
_cell_length_b 27.136646
_cell_length_c 8.803713
_cell_angle_alpha 90.000000
_cell_angle_beta 90.000000
_cell_angle_gamma 90.000000
_cell_volume 3591.579858
_symmetry_space_group_name_H-M "I M A 2"
_symmetry_group_IT_number 46
_symmetry_cell_setting 'orthorhombic'
loop_
_space_group_symop_operation_xyz
x,y,z
-x,-y,z
1/2-x,y,z
1/2+x,-y,z
1/2+x,1/2+y,1/2+z
1/2-x,1/2-y,1/2+z
-x,1/2+y,1/2+z
x,1/2-y,1/2+z
loop_
_atom_site_type_symbol
_atom_site_label
_atom_site_fract_x
_atom_site_fract_y
_atom_site_fract_z
Si Si1 0.846289 0.014672 0.129330
Si Si2 0.851409 0.576445 0.112044
Si Si3 0.438690 0.611803 0.597969
Si Si4 0.851833 0.201385 0.938555
Si Si5 0.449488 0.454415 0.389673
Si Si6 0.980332 0.112201 0.440625
Si Si7 0.848396 0.474715 0.964440
Si Si8 0.353544 0.806658 0.585356
O O1 0.750000 0.002712 0.062971
O O2 0.858156 0.073862 0.125442
O O3 0.857684 0.998159 0.302659
O O4 0.913034 0.982271 0.036044
O O5 0.750000 0.596721 0.091222
O O6 0.879593 0.575895 0.288464
O O7 0.857138 0.518548 0.081700
O O8 0.920394 0.609208 0.012770
O O9 0.407265 0.665114 0.545350
O O10 0.492265 0.589563 0.456962
O O11 0.491151 0.617290 0.758388
O O12 0.750000 0.186174 0.957679
O O13 0.879304 0.198188 0.762200
O O14 0.869376 0.255682 0.999657
O O15 0.500000 0.500000 0.301483
O O16 0.927036 0.063658 0.492777
O O17 0.922832 0.156712 0.507248
O O18 0.750000 0.449431 0.978537
O O19 0.250000 0.823461 0.566091
#
# Coordination Sequence:
#
# PCOD8191711 Si02
#       8
#     8   8   8   8   8   8   8   8
#     4   9  17  30  47  70 101 137 171 207 250 303
#     4  11  22  34  49  71  99 136 177 221 264 303
#     4  10  20  32  51  75 101 137 174 210 256 305
#     4  10  20  35  53  79 111 138 167 203 245 304
#     4  10  19  31  47  70 100 134 175 217 259 303
#     4  11  20  34  53  75 104 137 174 215 255 307
#     4   9  18  31  49  73 103 137 172 207 253 308
#     4  10  21  35  55  81 110 140 168 202 248 301
#
# _framework density 17.819457
#
# number of rings (size 3 to 8) (size 9 to 14) (size 15 to 20)
#    0.000    2.000    0.000    4.500    0.000    5.500 
#    0.000    3.125    0.000    0.000    0.000    8.750 
#    0.000    0.000    0.000    0.000    0.000    0.000 
#
# Total GULP energy -396532.802718 kJ/mol
# GULP energy per Si atom -12391.650085 kJ/mol
# Density = 1.777890 g / cm^3
# Si number density = 17.819457 Si / 1000 Ang^3
#
#
#
# Elastic Constant Matrix: (Units=GPa)
#
#
# Indices 1 2 3 4 5 6 
#
# 1 101.1824 33.4092 34.6816 -0.0008 -0.0014 -0.0006
# 2 33.4092 64.4719 29.8677 -0.0002 -0.0016 0.0000
# 3 34.6816 29.8677 87.7174 -0.0047 0.0015 0.0021
# 4 -0.0008 -0.0002 -0.0047 19.4502 -0.0023 -0.0001
# 5 -0.0014 -0.0016 0.0015 -0.0023 5.0077 0.0004
# 6 -0.0006 0.0000 0.0021 -0.0001 0.0004 25.1713
#
#
#
# Elastic Compliance Matrix: (Units=1/GPa)
#
#
# Indices 1 2 3 4 5 6 
#
# 1 0.012678 -0.005043 -0.003295 0.000000 0.000003 0.000001
# 2 -0.005043 0.020422 -0.004960 -0.000001 0.000007 0.000000
# 3 -0.003295 -0.004960 0.014392 0.000003 -0.000007 -0.000001
# 4 0.000000 -0.000001 0.000003 0.051413 0.000023 0.000000
# 5 0.000003 0.000007 -0.000007 0.000023 0.199692 -0.000003
# 6 0.000001 0.000000 -0.000001 0.000000 -0.000003 0.039728
#
#
# Mechanical properties :
#
#
# Convention : Reuss Voigt Hill
#
# Bulk Modulus (GPa) = 47.85776 49.92096 48.88936
# Shear Modulus (GPa) = 13.44500 20.28673 16.86587
#
# Velocity S-wave (km/s) = 2.74982 3.37777 3.07984
# Velocity P-wave (km/s) = 6.08254 6.57937 6.33583
#
# Compressibility (1/GPa) = 0.02089525
#
# Stress axis : x y z
#
# Youngs Moduli (GPa) = 78.87800 48.96794 69.48341
#
# Poissons Ratio (x) = 0.24694 0.22898
# Poissons Ratio (y) = 0.39778 0.34461
# Poissons Ratio (z) = 0.25993 0.24286
#
# Static dielectric constant tensor:
#      x y z
#    x 3.400290 0.000000 0.000000 
#    y 0.000000 3.063030 0.000000 
#    z 0.000000 0.000000 3.415570 
# 
# 
# High freq. dielectric constant tensor:
#      x y z
#    x 1.679020 0.000000 0.000000 
#    y 0.000000 1.662570 0.000000 
#    z 0.000000 0.000000 1.707410 
# 
# From -- ./inp_files/6095.got.cif
#   From: 2010.03.12/outbox.cif.g09.slc.cpg/sg46_4_cif.got.tgz:6095.got - 2010.04.14 02:56:35.
