data_PCOD8191882
_publ_section_title
;
Structure prediction by ZEFSAII (Michael W. Deem and Ramdas Pophale) SiO2 
 PCOD8191882
Probable space group: I M A 2
;
_chemical_formula_sum "Si O2"
_cell_formula_units_Z 64
_cell_length_a 9.299914
_cell_length_b 24.446395
_cell_length_c 15.163996
_cell_angle_alpha 90.000000
_cell_angle_beta 90.000000
_cell_angle_gamma 90.000000
_cell_volume 3447.524954
_symmetry_space_group_name_H-M "I M A 2"
_symmetry_group_IT_number 46
_symmetry_cell_setting 'orthorhombic'
loop_
_space_group_symop_operation_xyz
x,y,z
-x,-y,z
1/2-x,y,z
1/2+x,-y,z
1/2+x,1/2+y,1/2+z
1/2-x,1/2-y,1/2+z
-x,1/2+y,1/2+z
x,1/2-y,1/2+z
loop_
_atom_site_type_symbol
_atom_site_label
_atom_site_fract_x
_atom_site_fract_y
_atom_site_fract_z
Si Si1 0.920714 0.054756 0.692620
Si Si2 0.582622 0.944000 0.338620
Si Si3 0.917521 0.144699 0.834153
Si Si4 0.417452 0.353412 0.699579
Si Si5 0.419031 0.767418 0.299696
Si Si6 0.086052 0.339479 0.504471
Si Si7 0.086332 0.216950 0.470095
Si Si8 0.414330 0.101461 0.531309
O O1 0.750000 0.046082 0.688000
O O2 0.966533 0.100101 0.763471
O O3 0.976318 0.071891 0.596542
O O4 0.000000 0.000000 0.723403
O O5 0.750000 0.956441 0.328629
O O6 0.530704 0.902741 0.261876
O O7 0.546990 0.917906 0.433040
O O8 0.500000 0.000000 0.325044
O O9 0.750000 0.141666 0.853266
O O10 0.961606 0.203573 0.795098
O O11 0.992294 0.133252 0.927787
O O12 0.250000 0.340202 0.714565
O O13 0.506777 0.298463 0.718935
O O14 0.447786 0.368815 0.597441
O O15 0.250000 0.776605 0.295148
O O16 0.478626 0.793115 0.389706
O O17 0.250000 0.348419 0.476372
O O18 0.053182 0.274679 0.516585
O O19 0.250000 0.214681 0.433552
O O20 0.062976 0.167064 0.538373
O O21 0.250000 0.085629 0.555650
#
# Coordination Sequence:
#
# PCOD8191882 Si02
#       8
#     8   8   8   8   8   8   8   8
#     4  11  24  41  59  81 110 147 191 239 285 333
#     4  10  21  37  55  76 110 148 183 225 271 320
#     4   9  21  40  57  79 114 147 181 231 287 332
#     4  10  20  36  55  81 115 147 182 232 277 320
#     4  10  19  32  53  82 112 147 183 218 271 335
#     4   9  19  34  58  85 111 147 188 226 273 331
#     4   9  17  33  53  80 114 146 181 220 269 327
#     4  10  20  35  56  84 114 147 183 227 280 332
#
# _framework density 18.564043000000002
#
# number of rings (size 3 to 8) (size 9 to 14) (size 15 to 20)
#    0.000    2.250    1.250    1.125    1.750    4.500 
#    0.000    0.625    0.000    3.000    0.000    0.000 
#    0.000    0.000    0.000    0.000    0.000    0.000 
#
# Total GULP energy -396837.799116 kJ/mol
# GULP energy per Si atom -12401.181222 kJ/mol
# Density = 1.852179 g / cm^3
# Si number density = 18.564043 Si / 1000 Ang^3
#
#
#
# Elastic Constant Matrix: (Units=GPa)
#
#
# Indices 1 2 3 4 5 6 
#
# 1 65.7683 48.3069 49.2364 0.0000 0.0000 0.0000
# 2 48.3069 105.8816 60.2580 -0.0001 0.0000 0.0000
# 3 49.2364 60.2580 115.9795 -0.0001 0.0000 0.0000
# 4 0.0000 -0.0001 -0.0001 27.0934 0.0000 0.0000
# 5 0.0000 0.0000 0.0000 0.0000 28.2987 0.0000
# 6 0.0000 0.0000 0.0000 0.0000 0.0000 29.1748
#
#
#
# Elastic Compliance Matrix: (Units=1/GPa)
#
#
# Indices 1 2 3 4 5 6 
#
# 1 0.026357 -0.008032 -0.007016 0.000000 0.000000 0.000000
# 2 -0.008032 0.015857 -0.004829 0.000000 0.000000 0.000000
# 3 -0.007016 -0.004829 0.014110 0.000000 0.000000 0.000000
# 4 0.000000 0.000000 0.000000 0.036909 0.000000 0.000000
# 5 0.000000 0.000000 0.000000 0.000000 0.035337 0.000000
# 6 0.000000 0.000000 0.000000 0.000000 0.000000 0.034276
#
#
# Mechanical properties :
#
#
# Convention : Reuss Voigt Hill
#
# Bulk Modulus (GPa) = 60.35136 67.02578 63.68857
# Shear Modulus (GPa) = 24.02416 25.56859 24.79637
#
# Velocity S-wave (km/s) = 3.60130 3.71525 3.65872
# Velocity P-wave (km/s) = 7.06207 7.38835 7.22705
#
# Compressibility (1/GPa) = 0.01656964
#
# Stress axis : x y z
#
# Youngs Moduli (GPa) = 37.94069 63.06305 70.87352
#
# Poissons Ratio (x) = 0.50652 0.49726
# Poissons Ratio (y) = 0.30474 0.34224
# Poissons Ratio (z) = 0.26620 0.30452
#
# Static dielectric constant tensor:
#      x y z
#    x 3.373890 0.000000 0.000000 
#    y 0.000000 3.482680 0.000000 
#    z 0.000000 0.000000 3.340290 
# 
# 
# High freq. dielectric constant tensor:
#      x y z
#    x 1.717930 0.000000 0.000000 
#    y 0.000000 1.715380 0.000000 
#    z 0.000000 0.000000 1.713660 
# 
# From -- ./inp_files/14461.got.cif
#   From: 2010.03.12/outbox.cif.g09.slc.cpg/sg46_8_cif.got.tgz:14461.got - 2010.04.14 02:56:35.
