data_PCOD8191271
_publ_section_title
;
Structure prediction by ZEFSAII (Michael W. Deem and Ramdas Pophale) SiO2 
 PCOD8191271
Probable space group: I M A 2
;
_chemical_formula_sum "Si O2"
_cell_formula_units_Z 64
_cell_length_a 8.885299
_cell_length_b 18.224055
_cell_length_c 26.466526
_cell_angle_alpha 90.000000
_cell_angle_beta 90.000000
_cell_angle_gamma 90.000000
_cell_volume 4285.623391
_symmetry_space_group_name_H-M "I M A 2"
_symmetry_group_IT_number 46
_symmetry_cell_setting 'orthorhombic'
loop_
_space_group_symop_operation_xyz
x,y,z
-x,-y,z
1/2-x,y,z
1/2+x,-y,z
1/2+x,1/2+y,1/2+z
1/2-x,1/2-y,1/2+z
-x,1/2+y,1/2+z
x,1/2-y,1/2+z
loop_
_atom_site_type_symbol
_atom_site_label
_atom_site_fract_x
_atom_site_fract_y
_atom_site_fract_z
Si Si1 0.425741 0.157047 0.490800
Si Si2 0.574373 0.422116 0.592588
Si Si3 0.571619 0.078450 0.583502
Si Si4 0.426292 0.669379 0.689001
Si Si5 0.918393 0.796696 0.639917
Si Si6 0.426867 0.422799 0.889363
Si Si7 0.572080 0.422146 0.786062
Si Si8 0.583532 0.799974 0.040009
O O1 0.250000 0.145280 0.504553
O O2 0.521991 0.107322 0.528594
O O3 0.461472 0.134763 0.433556
O O4 0.468358 0.243640 0.495823
O O5 0.500000 0.500000 0.584433
O O6 0.750000 0.434119 0.591730
O O7 0.519308 0.387172 0.645533
O O8 0.528828 0.368385 0.546235
O O9 0.750000 0.072730 0.584699
O O10 0.516722 0.131185 0.628872
O O11 0.500000 0.000000 0.593773
O O12 0.250000 0.683281 0.683118
O O13 0.508038 0.747919 0.684374
O O14 0.470001 0.635808 0.742890
O O15 0.750000 0.819815 0.656123
O O16 0.915325 0.748270 0.590092
O O17 0.500000 0.500000 0.904655
O O18 0.250000 0.434083 0.880599
O O19 0.502562 0.392112 0.838291
O O20 0.500000 0.500000 0.771659
O O21 0.750000 0.432307 0.791460
O O22 0.750000 0.831477 0.028933
#
# Coordination Sequence:
#
# PCOD8191271 Si02
#       8
#     8   8   8   8   8   8   8   8
#     4   9  18  31  45  61  82 110 143 176 212 252
#     4  10  18  27  40  59  82 108 138 169 202 241
#     4  11  20  29  43  62  86 113 142 174 207 247
#     4   9  18  30  43  60  82 110 143 175 208 246
#     4   9  17  29  44  61  82 108 138 171 208 248
#     4  10  19  30  43  60  83 110 142 178 213 248
#     4  10  19  30  43  60  84 112 144 180 214 248
#     4   8  15  28  42  57  79 105 133 167 205 244
#
# _framework density 14.93365
#
# number of rings (size 3 to 8) (size 9 to 14) (size 15 to 20)
#    0.000    2.500    0.000    4.875    0.000    6.500 
#    0.000    0.000    0.000    0.000    0.000    0.000 
#    0.000    1.000    0.000    7.750    0.000    4.750 
#
# Total GULP energy -396730.275755 kJ/mol
# GULP energy per Si atom -12397.821117 kJ/mol
# Density = 1.489966 g / cm^3
# Si number density = 14.933650 Si / 1000 Ang^3
#
#
#
# Elastic Constant Matrix: (Units=GPa)
#
#
# Indices 1 2 3 4 5 6 
#
# 1 92.6637 55.7277 41.0285 0.0000 0.0000 0.0000
# 2 55.7277 108.2714 57.7763 0.0000 0.0000 0.0000
# 3 41.0285 57.7763 85.5764 0.0000 0.0000 0.0000
# 4 0.0000 0.0000 0.0000 27.4473 0.0000 0.0000
# 5 0.0000 0.0000 0.0000 0.0000 19.3023 0.0000
# 6 0.0000 0.0000 0.0000 0.0000 0.0000 26.3700
#
#
#
# Elastic Compliance Matrix: (Units=1/GPa)
#
#
# Indices 1 2 3 4 5 6 
#
# 1 0.016220 -0.006563 -0.003345 0.000000 0.000000 0.000000
# 2 -0.006563 0.017093 -0.008394 0.000000 0.000000 0.000000
# 3 -0.003345 -0.008394 0.018956 0.000000 0.000000 0.000000
# 4 0.000000 0.000000 0.000000 0.036433 0.000000 0.000000
# 5 0.000000 0.000000 0.000000 0.000000 0.051807 0.000000
# 6 0.000000 0.000000 0.000000 0.000000 0.000000 0.037922
#
#
# Mechanical properties :
#
#
# Convention : Reuss Voigt Hill
#
# Bulk Modulus (GPa) = 63.83692 66.17518 65.00605
# Shear Modulus (GPa) = 22.70054 23.42250 23.06152
#
# Velocity S-wave (km/s) = 3.90307 3.96465 3.93398
# Velocity P-wave (km/s) = 7.94681 8.08498 8.01619
#
# Compressibility (1/GPa) = 0.01566492
#
# Stress axis : x y z
#
# Youngs Moduli (GPa) = 61.65181 58.50221 52.75300
#
# Poissons Ratio (x) = 0.38398 0.17647
# Poissons Ratio (y) = 0.40465 0.44279
# Poissons Ratio (z) = 0.20624 0.49105
#
# Static dielectric constant tensor:
#      x y z
#    x 3.027340 0.000000 0.000000 
#    y 0.000000 2.953750 0.000000 
#    z 0.000000 0.000000 2.797960 
# 
# 
# High freq. dielectric constant tensor:
#      x y z
#    x 1.585820 0.000000 0.000000 
#    y 0.000000 1.560500 0.000000 
#    z 0.000000 0.000000 1.538310 
# 
# From -- ./inp_files/24397.got.cif
#   From: 2010.03.12/outbox.cif.g09.slc.cpg/sg46_13_cif.got.tgz:24397.got - 2010.04.14 02:56:35.
