data_PCOD8191569
_publ_section_title
;
Structure prediction by ZEFSAII (Michael W. Deem and Ramdas Pophale) SiO2 
 PCOD8191569
Probable space group: I M A 2
;
_chemical_formula_sum "Si O2"
_cell_formula_units_Z 48
_cell_length_a 19.058941
_cell_length_b 15.094265
_cell_length_c 8.940968
_cell_angle_alpha 90.000000
_cell_angle_beta 90.000000
_cell_angle_gamma 90.000000
_cell_volume 2572.143987
_symmetry_space_group_name_H-M "I M A 2"
_symmetry_group_IT_number 46
_symmetry_cell_setting 'orthorhombic'
loop_
_space_group_symop_operation_xyz
x,y,z
-x,-y,z
1/2-x,y,z
1/2+x,-y,z
1/2+x,1/2+y,1/2+z
1/2-x,1/2-y,1/2+z
-x,1/2+y,1/2+z
x,1/2-y,1/2+z
loop_
_atom_site_type_symbol
_atom_site_label
_atom_site_fract_x
_atom_site_fract_y
_atom_site_fract_z
Si Si1 0.750000 0.815553 0.307550
Si Si2 0.592777 0.251456 0.890531
Si Si3 0.750000 0.632939 0.149981
Si Si4 0.169074 0.645682 0.640233
Si Si5 0.391043 0.037240 0.609667
Si Si6 0.328454 0.474597 0.799822
Si Si7 0.531277 0.363992 0.146973
O O1 0.750000 0.713516 0.267030
O O2 0.750000 0.822773 0.487623
O O3 0.818937 0.870990 0.246839
O O4 0.651581 0.299247 0.790057
O O5 0.536906 0.205167 0.781783
O O6 0.627013 0.177716 0.996461
O O7 0.551806 0.323017 0.987855
O O8 0.818233 0.572164 0.179821
O O9 0.250000 0.659123 0.603722
O O10 0.149498 0.541654 0.667368
O O11 0.384303 0.019551 0.432519
O O12 0.450399 0.109886 0.637567
O O13 0.415899 0.945305 0.683666
O O14 0.250000 0.504262 0.859779
#
# Coordination Sequence:
#
# PCOD8191569 Si02
#       7
#     4   8   4   8   8   8   8
#     4   8  18  34  54  81 113 136 186 231 287 322
#     4  10  21  36  55  86 117 151 195 237 284 355
#     4  10  20  38  60  85 107 144 196 241 279 342
#     4  10  18  34  57  87 117 152 190 240 288 345
#     4  10  19  38  61  81 113 155 190 233 290 343
#     4   8  16  33  58  83 115 142 189 233 282 344
#     4  10  22  37  59  81 120 154 193 230 294 348
#
# _framework density 18.661474999999999
#
# number of rings (size 3 to 8) (size 9 to 14) (size 15 to 20)
#    0.500    2.000    2.500    0.500    0.000    2.667 
#   10.500    0.000   14.667    0.000    0.000    0.000 
#    0.000    0.000    0.000    0.000    0.000    0.000 
#
# Total GULP energy -297391.935675 kJ/mol
# GULP energy per Si atom -12391.330653 kJ/mol
# Density = 1.861900 g / cm^3
# Si number density = 18.661475 Si / 1000 Ang^3
#
#
#
# Elastic Constant Matrix: (Units=GPa)
#
#
# Indices 1 2 3 4 5 6 
#
# 1 100.1186 38.8899 19.2230 0.0000 0.0000 0.0000
# 2 38.8899 71.4180 16.6436 0.0000 0.0000 0.0000
# 3 19.2230 16.6436 59.7572 0.0000 0.0000 0.0000
# 4 0.0000 0.0000 0.0000 33.4188 0.0000 0.0000
# 5 0.0000 0.0000 0.0000 0.0000 15.8203 0.0000
# 6 0.0000 0.0000 0.0000 0.0000 0.0000 28.2726
#
#
#
# Elastic Compliance Matrix: (Units=1/GPa)
#
#
# Indices 1 2 3 4 5 6 
#
# 1 0.012971 -0.006514 -0.002358 0.000000 0.000000 0.000000
# 2 -0.006514 0.018245 -0.002986 0.000000 0.000000 0.000000
# 3 -0.002358 -0.002986 0.018325 0.000000 0.000000 0.000000
# 4 0.000000 0.000000 0.000000 0.029923 0.000000 0.000000
# 5 0.000000 0.000000 0.000000 0.000000 0.063210 0.000000
# 6 0.000000 0.000000 0.000000 0.000000 0.000000 0.035370
#
#
# Mechanical properties :
#
#
# Convention : Reuss Voigt Hill
#
# Bulk Modulus (GPa) = 38.72338 42.31185 40.51761
# Shear Modulus (GPa) = 23.76780 25.93817 24.85298
#
# Velocity S-wave (km/s) = 3.57267 3.73222 3.65332
# Velocity P-wave (km/s) = 6.14931 6.42614 6.28925
#
# Compressibility (1/GPa) = 0.02582419
#
# Stress axis : x y z
#
# Youngs Moduli (GPa) = 77.09430 54.80972 54.57088
#
# Poissons Ratio (x) = 0.35701 0.12870
# Poissons Ratio (y) = 0.50217 0.16296
# Poissons Ratio (z) = 0.18182 0.16368
#
# Static dielectric constant tensor:
#      x y z
#    x 3.226510 0.000000 0.000000 
#    y 0.000000 3.635670 0.000000 
#    z 0.000000 0.000000 3.182820 
# 
# 
# High freq. dielectric constant tensor:
#      x y z
#    x 1.709490 0.000000 0.000000 
#    y 0.000000 1.734140 0.000000 
#    z 0.000000 0.000000 1.703730 
# 
# From -- ./inp_files/7338.got.cif
#   From: 2010.03.12/outbox.cif.g09.slc.cpg/sg46_4_cif.got.tgz:7338.got - 2010.04.14 02:56:35.
