data_PCOD8191608
_publ_section_title
;
Structure prediction by ZEFSAII (Michael W. Deem and Ramdas Pophale) SiO2 
 PCOD8191608
Probable space group: I M A 2
;
_chemical_formula_sum "Si O2"
_cell_formula_units_Z 56
_cell_length_a 14.335693
_cell_length_b 10.052476
_cell_length_c 20.635424
_cell_angle_alpha 90.000000
_cell_angle_beta 90.000000
_cell_angle_gamma 90.000000
_cell_volume 2973.754647
_symmetry_space_group_name_H-M "I M A 2"
_symmetry_group_IT_number 46
_symmetry_cell_setting 'orthorhombic'
loop_
_space_group_symop_operation_xyz
x,y,z
-x,-y,z
1/2-x,y,z
1/2+x,-y,z
1/2+x,1/2+y,1/2+z
1/2-x,1/2-y,1/2+z
-x,1/2+y,1/2+z
x,1/2-y,1/2+z
loop_
_atom_site_type_symbol
_atom_site_label
_atom_site_fract_x
_atom_site_fract_y
_atom_site_fract_z
Si Si1 0.643320 0.433191 0.912860
Si Si2 0.355451 0.080381 0.706554
Si Si3 0.953220 0.641926 0.331986
Si Si4 0.928472 0.383886 0.779284
Si Si5 0.644726 0.284820 0.169923
Si Si6 0.954710 0.802143 0.451661
Si Si7 0.981593 0.652301 0.090385
O O1 0.750000 0.398812 0.935223
O O2 0.641167 0.435982 0.834634
O O3 0.565639 0.331434 0.940824
O O4 0.614524 0.578254 0.935929
O O5 0.250000 0.104695 0.686021
O O6 0.370179 0.134548 0.779300
O O7 0.415696 0.160567 0.653488
O O8 0.381376 0.923736 0.706034
O O9 0.921188 0.681271 0.405074
O O10 0.000000 0.500000 0.336408
O O11 0.021741 0.754885 0.307326
O O12 0.869417 0.340817 0.716836
O O13 0.000000 0.500000 0.759483
O O14 0.750000 0.286216 0.144417
O O15 0.578176 0.273822 0.107741
O O16 0.940036 0.769788 0.528068
O O17 0.000000 0.500000 0.068878
#
# Coordination Sequence:
#
# PCOD8191608 Si02
#       7
#     8   8   8   8   8   8   8
#     4  10  19  33  53  80 115 148 184 236 291 341
#     4  10  20  34  58  87 114 152 196 237 289 343
#     4  11  19  38  60  81 114 151 188 238 286 346
#     4  11  19  36  58  86 116 144 188 243 295 346
#     4  10  20  34  59  88 114 151 195 240 290 344
#     4  10  21  36  54  84 116 148 197 236 290 345
#     4  10  18  36  55  81 120 149 189 246 279 341
#
# _framework density 18.831412
#
# number of rings (size 3 to 8) (size 9 to 14) (size 15 to 20)
#    0.000    1.714    7.143    0.857    0.000    1.714 
#    0.000    0.714    0.000    0.000    0.000    0.000 
#    0.000    0.000    0.000    0.000    0.000    0.000 
#
# Total GULP energy -347010.240376 kJ/mol
# GULP energy per Si atom -12393.222871 kJ/mol
# Density = 1.878855 g / cm^3
# Si number density = 18.831412 Si / 1000 Ang^3
#
#
#
# Elastic Constant Matrix: (Units=GPa)
#
#
# Indices 1 2 3 4 5 6 
#
# 1 86.6562 23.3062 40.1970 0.0000 0.0000 0.0000
# 2 23.3062 61.0064 38.8129 0.0000 0.0000 0.0000
# 3 40.1970 38.8129 146.9575 0.0000 0.0000 0.0000
# 4 0.0000 0.0000 0.0000 23.7089 0.0000 0.0000
# 5 0.0000 0.0000 0.0000 0.0000 29.1156 0.0000
# 6 0.0000 0.0000 0.0000 0.0000 0.0000 17.5536
#
#
#
# Elastic Compliance Matrix: (Units=1/GPa)
#
#
# Indices 1 2 3 4 5 6 
#
# 1 0.013795 -0.003449 -0.002862 0.000000 0.000000 0.000000
# 2 -0.003449 0.020565 -0.004488 0.000000 0.000000 0.000000
# 3 -0.002862 -0.004488 0.008773 0.000000 0.000000 0.000000
# 4 0.000000 0.000000 0.000000 0.042178 0.000000 0.000000
# 5 0.000000 0.000000 0.000000 0.000000 0.034346 0.000000
# 6 0.000000 0.000000 0.000000 0.000000 0.000000 0.056968
#
#
# Mechanical properties :
#
#
# Convention : Reuss Voigt Hill
#
# Bulk Modulus (GPa) = 46.43822 55.47248 50.95535
# Shear Modulus (GPa) = 24.34248 26.89588 25.61918
#
# Velocity S-wave (km/s) = 3.59925 3.78331 3.69243
# Velocity P-wave (km/s) = 6.47968 6.97180 6.73024
#
# Compressibility (1/GPa) = 0.02153399
#
# Stress axis : x y z
#
# Youngs Moduli (GPa) = 72.48848 48.62723 113.98677
#
# Poissons Ratio (x) = 0.16772 0.32628
# Poissons Ratio (y) = 0.25002 0.51156
# Poissons Ratio (z) = 0.20750 0.21823
#
# Static dielectric constant tensor:
#      x y z
#    x 3.203530 0.000000 0.000000 
#    y 0.000000 3.262890 0.000000 
#    z 0.000000 0.000000 3.707490 
# 
# 
# High freq. dielectric constant tensor:
#      x y z
#    x 1.720030 0.000000 0.000000 
#    y 0.000000 1.695620 0.000000 
#    z 0.000000 0.000000 1.733690 
# 
# From -- ./inp_files/22029.got.cif
#   From: 2010.03.12/outbox.cif.g09.slc.cpg/sg46_12_cif.got.tgz:22029.got - 2010.04.14 02:56:35.
