data_PCOD8191197
_publ_section_title
;
Structure prediction by ZEFSAII (Michael W. Deem and Ramdas Pophale) SiO2 
 PCOD8191197
Probable space group: I M A 2
;
_chemical_formula_sum "Si O2"
_cell_formula_units_Z 64
_cell_length_a 18.842048
_cell_length_b 9.325691
_cell_length_c 21.641162
_cell_angle_alpha 90.000000
_cell_angle_beta 90.000000
_cell_angle_gamma 90.000000
_cell_volume 3802.679323
_symmetry_space_group_name_H-M "I M A 2"
_symmetry_group_IT_number 46
_symmetry_cell_setting 'orthorhombic'
loop_
_space_group_symop_operation_xyz
x,y,z
-x,-y,z
1/2-x,y,z
1/2+x,-y,z
1/2+x,1/2+y,1/2+z
1/2-x,1/2-y,1/2+z
-x,1/2+y,1/2+z
x,1/2-y,1/2+z
loop_
_atom_site_type_symbol
_atom_site_label
_atom_site_fract_x
_atom_site_fract_y
_atom_site_fract_z
Si Si1 0.067642 0.596177 0.751880
Si Si2 0.830352 0.427179 0.637390
Si Si3 0.830497 0.569055 0.985357
Si Si4 0.976453 0.652639 0.296940
Si Si5 0.422575 0.056133 0.670415
Si Si6 0.668840 0.128896 0.593391
Si Si7 0.831063 0.767553 0.093210
Si Si8 0.572737 0.923127 0.367032
O O1 0.121794 0.597434 0.696537
O O2 0.104516 0.518328 0.810814
O O3 0.000000 0.500000 0.733127
O O4 0.043039 0.759130 0.767525
O O5 0.750000 0.431999 0.662168
O O6 0.840846 0.298803 0.588566
O O7 0.850121 0.566037 0.597988
O O8 0.750000 0.534916 0.966025
O O9 0.874588 0.576363 0.923480
O O10 0.861179 0.444904 0.030999
O O11 0.836254 0.720026 0.021726
O O12 0.923222 0.605130 0.241777
O O13 0.938336 0.756909 0.346170
O O14 0.000000 0.500000 0.328118
O O15 0.392322 0.190092 0.632134
O O16 0.500000 0.000000 0.648916
O O17 0.369731 0.924722 0.655889
O O18 0.750000 0.079857 0.599952
O O19 0.750000 0.737033 0.117322
O O20 0.500000 0.000000 0.387696
#
# Coordination Sequence:
#
# PCOD8191197 Si02
#       8
#     8   8   8   8   8   8   8   8
#     4   9  18  32  48  70 100 127 152 189 236 282
#     4  10  18  30  50  75 100 125 154 190 238 289
#     4   9  18  34  51  66  90 126 165 197 229 276
#     4   9  17  30  49  69  93 122 154 195 241 279
#     4  10  17  28  49  73  94 125 159 188 228 284
#     4   9  19  33  49  71 100 129 154 190 239 286
#     4   9  18  31  47  70 100 126 152 194 239 275
#     4   9  19  34  50  66  91 126 161 195 233 279
#
# _framework density 16.830238000000001
#
# number of rings (size 3 to 8) (size 9 to 14) (size 15 to 20)
#    0.000    3.000    0.000    4.125    0.000    2.500 
#    0.000    3.750    0.000    0.750    0.000    0.000 
#    0.000    0.000    0.000    0.000    0.000    0.000 
#
# Total GULP energy -396443.216815 kJ/mol
# GULP energy per Si atom -12388.850525 kJ/mol
# Density = 1.679193 g / cm^3
# Si number density = 16.830238 Si / 1000 Ang^3
#
#
#
# Elastic Constant Matrix: (Units=GPa)
#
#
# Indices 1 2 3 4 5 6 
#
# 1 66.0412 41.6135 52.8682 0.0000 0.0000 0.0000
# 2 41.6135 140.9845 44.5969 0.0000 0.0000 0.0000
# 3 52.8682 44.5969 100.3282 0.0000 0.0000 0.0000
# 4 0.0000 0.0000 0.0000 14.8784 0.0000 0.0000
# 5 0.0000 0.0000 0.0000 0.0000 36.4954 0.0000
# 6 0.0000 0.0000 0.0000 0.0000 0.0000 20.9511
#
#
#
# Elastic Compliance Matrix: (Units=1/GPa)
#
#
# Indices 1 2 3 4 5 6 
#
# 1 0.028189 -0.004214 -0.012981 0.000000 0.000000 0.000000
# 2 -0.004214 0.008884 -0.001728 0.000000 0.000000 0.000000
# 3 -0.012981 -0.001728 0.017576 0.000000 0.000000 0.000000
# 4 0.000000 0.000000 0.000000 0.067211 0.000000 0.000000
# 5 0.000000 0.000000 0.000000 0.000000 0.027401 0.000000
# 6 0.000000 0.000000 0.000000 0.000000 0.000000 0.047730
#
#
# Mechanical properties :
#
#
# Convention : Reuss Voigt Hill
#
# Bulk Modulus (GPa) = 59.51760 65.05679 62.28719
# Shear Modulus (GPa) = 20.79532 25.68334 23.23933
#
# Velocity S-wave (km/s) = 3.51891 3.91067 3.71995
# Velocity P-wave (km/s) = 7.20768 7.68959 7.45253
#
# Compressibility (1/GPa) = 0.01680175
#
# Stress axis : x y z
#
# Youngs Moduli (GPa) = 35.47435 112.56811 56.89599
#
# Poissons Ratio (x) = 0.47439 0.73858
# Poissons Ratio (y) = 0.14950 0.09832
# Poissons Ratio (z) = 0.46050 0.19453
#
# Static dielectric constant tensor:
#      x y z
#    x 3.091970 0.000000 0.000000 
#    y 0.000000 3.497600 0.000000 
#    z 0.000000 0.000000 2.910830 
# 
# 
# High freq. dielectric constant tensor:
#      x y z
#    x 1.637700 0.000000 0.000000 
#    y 0.000000 1.666480 0.000000 
#    z 0.000000 0.000000 1.622170 
# 
# From -- ./inp_files/22478.got.cif
#   From: 2010.03.12/outbox.cif.g09.slc.cpg/sg46_12_cif.got.tgz:22478.got - 2010.04.14 02:56:35.
