data_PCOD8191670
_publ_section_title
;
Structure prediction by ZEFSAII (Michael W. Deem and Ramdas Pophale) SiO2 
 PCOD8191670
Probable space group: I M A 2
;
_chemical_formula_sum "Si O2"
_cell_formula_units_Z 64
_cell_length_a 8.810461
_cell_length_b 26.390013
_cell_length_c 18.510977
_cell_angle_alpha 90.000000
_cell_angle_beta 90.000000
_cell_angle_gamma 90.000000
_cell_volume 4303.953578
_symmetry_space_group_name_H-M "I M A 2"
_symmetry_group_IT_number 46
_symmetry_cell_setting 'orthorhombic'
loop_
_space_group_symop_operation_xyz
x,y,z
-x,-y,z
1/2-x,y,z
1/2+x,-y,z
1/2+x,1/2+y,1/2+z
1/2-x,1/2-y,1/2+z
-x,1/2+y,1/2+z
x,1/2-y,1/2+z
loop_
_atom_site_type_symbol
_atom_site_label
_atom_site_fract_x
_atom_site_fract_y
_atom_site_fract_z
Si Si1 0.071907 0.649993 0.029710
Si Si2 0.573214 0.245527 0.757948
Si Si3 0.927681 0.753830 0.605018
Si Si4 0.572337 0.204488 0.395732
Si Si5 0.930112 0.447565 0.113972
Si Si6 0.427232 0.701046 0.484129
Si Si7 0.570701 0.947303 0.767993
Si Si8 0.575012 0.142917 0.846492
O O1 0.250000 0.657511 0.042154
O O2 0.019531 0.595055 0.056677
O O3 0.994060 0.693400 0.076426
O O4 0.032997 0.654087 0.942873
O O5 0.750000 0.250543 0.737014
O O6 0.471878 0.252122 0.688085
O O7 0.516453 0.291011 0.812745
O O8 0.542137 0.191949 0.797210
O O9 0.750000 0.756286 0.597943
O O10 0.987144 0.703802 0.561314
O O11 0.750000 0.214446 0.390437
O O12 0.505779 0.250382 0.442473
O O13 0.750000 0.452534 0.121163
O O14 0.000000 0.500000 0.085477
O O15 0.998325 0.432613 0.191223
O O16 0.250000 0.705086 0.500810
O O17 0.460805 0.653322 0.431676
O O18 0.750000 0.953532 0.759562
O O19 0.533126 0.903035 0.824162
O O20 0.500000 0.000000 0.796318
O O21 0.750000 0.126759 0.837154
#
# Coordination Sequence:
#
# PCOD8191670 Si02
#       8
#     8   8   8   8   8   8   8   8
#     4   9  17  30  45  58  76 107 142 170 202 244
#     4   9  16  27  43  59  79 108 137 165 199 241
#     4  11  20  26  37  60  87 110 135 168 201 237
#     4   7  12  25  43  59  73  97 136 170 193 229
#     4  10  19  30  44  60  81 108 139 175 209 243
#     4   8  15  29  45  58  77 106 137 167 200 243
#     4  11  21  31  43  59  83 111 140 174 207 241
#     4   9  17  30  47  63  79 105 141 175 207 244
#
# _framework density 14.870050000000001
#
# number of rings (size 3 to 8) (size 9 to 14) (size 15 to 20)
#    0.000    2.750    0.000    6.375    0.000    5.000 
#    0.000    5.000    0.000    0.000    0.000    0.000 
#    0.000    1.000    0.000    6.000    0.000    3.000 
#
# Total GULP energy -396426.733738 kJ/mol
# GULP energy per Si atom -12388.335429 kJ/mol
# Density = 1.483620 g / cm^3
# Si number density = 14.870050 Si / 1000 Ang^3
#
#
#
# Elastic Constant Matrix: (Units=GPa)
#
#
# Indices 1 2 3 4 5 6 
#
# 1 60.1141 35.4538 33.3178 0.0001 0.0000 0.0000
# 2 35.4538 77.7528 52.8379 0.0000 0.0000 0.0000
# 3 33.3178 52.8379 97.4740 0.0004 -0.0001 0.0000
# 4 0.0001 0.0000 0.0004 26.4520 -0.0001 0.0000
# 5 0.0000 0.0000 -0.0001 -0.0001 11.1036 0.0000
# 6 0.0000 0.0000 0.0000 0.0000 0.0000 19.6501
#
#
#
# Elastic Compliance Matrix: (Units=1/GPa)
#
#
# Indices 1 2 3 4 5 6 
#
# 1 0.023493 -0.008320 -0.003520 0.000000 0.000000 0.000000
# 2 -0.008320 0.023309 -0.009791 0.000000 0.000000 0.000000
# 3 -0.003520 -0.009791 0.016770 0.000000 0.000000 0.000000
# 4 0.000000 0.000000 0.000000 0.037804 0.000000 0.000000
# 5 0.000000 0.000000 0.000000 0.000000 0.090061 0.000000
# 6 0.000000 0.000000 0.000000 0.000000 0.000000 0.050890
#
#
# Mechanical properties :
#
#
# Convention : Reuss Voigt Hill
#
# Bulk Modulus (GPa) = 49.23950 53.17332 51.20641
# Shear Modulus (GPa) = 17.10220 19.02323 18.06271
#
# Velocity S-wave (km/s) = 3.39501 3.58061 3.48904
# Velocity P-wave (km/s) = 6.96801 7.27534 7.12334
#
# Compressibility (1/GPa) = 0.02030890
#
# Stress axis : x y z
#
# Youngs Moduli (GPa) = 42.56567 42.90212 59.63100
#
# Poissons Ratio (x) = 0.35696 0.20990
# Poissons Ratio (y) = 0.35416 0.58385
# Poissons Ratio (z) = 0.14983 0.42006
#
# Static dielectric constant tensor:
#      x y z
#    x 2.760270 0.000000 0.000000 
#    y 0.000000 2.784750 0.000000 
#    z 0.000000 0.000000 3.084410 
# 
# 
# High freq. dielectric constant tensor:
#      x y z
#    x 1.563720 0.000000 0.000000 
#    y 0.000000 1.534760 0.000000 
#    z 0.000000 0.000000 1.564420 
# 
# From -- ./inp_files/18691.got.cif
#   From: 2010.03.12/outbox.cif.g09.slc.cpg/sg46_10_cif.got.tgz:18691.got - 2010.04.14 02:56:35.
