data_PCOD8191453
_publ_section_title
;
Structure prediction by ZEFSAII (Michael W. Deem and Ramdas Pophale) SiO2 
 PCOD8191453
Probable space group: I M A 2
;
_chemical_formula_sum "Si O2"
_cell_formula_units_Z 48
_cell_length_a 19.239472
_cell_length_b 9.512272
_cell_length_c 15.161679
_cell_angle_alpha 90.000000
_cell_angle_beta 90.000000
_cell_angle_gamma 90.000000
_cell_volume 2774.755412
_symmetry_space_group_name_H-M "I M A 2"
_symmetry_group_IT_number 46
_symmetry_cell_setting 'orthorhombic'
loop_
_space_group_symop_operation_xyz
x,y,z
-x,-y,z
1/2-x,y,z
1/2+x,-y,z
1/2+x,1/2+y,1/2+z
1/2-x,1/2-y,1/2+z
-x,1/2+y,1/2+z
x,1/2-y,1/2+z
loop_
_atom_site_type_symbol
_atom_site_label
_atom_site_fract_x
_atom_site_fract_y
_atom_site_fract_z
Si Si1 0.440378 0.190173 0.987150
Si Si2 0.571894 0.931061 0.610711
Si Si3 0.330311 0.690912 0.147076
Si Si4 0.435316 0.100980 0.805358
Si Si5 0.596083 0.374468 0.512076
Si Si6 0.829962 0.127415 0.839283
O O1 0.438041 0.221598 0.880996
O O2 0.402926 0.316684 0.039034
O O3 0.518738 0.183340 0.022549
O O4 0.401103 0.043643 0.006868
O O5 0.558308 0.848824 0.704179
O O6 0.500000 0.000000 0.578916
O O7 0.630284 0.049438 0.617977
O O8 0.250000 0.668284 0.123068
O O9 0.360232 0.825851 0.096654
O O10 0.339508 0.723253 0.251656
O O11 0.500000 0.000000 0.830441
O O12 0.361848 0.023418 0.814944
O O13 0.630292 0.307364 0.423510
O O14 0.750000 0.106219 0.864278
#
# Coordination Sequence:
#
# PCOD8191453 Si02
#       6
#     8   8   8   8   8   8
#     4  10  18  31  52  77 102 128 168 213 251 293
#     4  10  19  32  54  74 101 136 169 208 255 293
#     4  10  20  34  52  76 103 134 172 209 248 302
#     4   9  16  31  50  69  98 135 170 205 241 298
#     4  10  18  31  51  75 103 130 164 210 253 298
#     4   9  17  30  50  73  96 132 173 203 243 300
#
# _framework density 17.298821
#
# number of rings (size 3 to 8) (size 9 to 14) (size 15 to 20)
#    0.000    2.333    5.000    0.500    0.000    0.000 
#    0.000    5.833    3.667    0.000    0.000    0.000 
#    0.000    0.000    0.000    0.000    0.000    0.000 
#
# Total GULP energy -297427.750264 kJ/mol
# GULP energy per Si atom -12392.822928 kJ/mol
# Density = 1.725945 g / cm^3
# Si number density = 17.298821 Si / 1000 Ang^3
#
#
#
# Elastic Constant Matrix: (Units=GPa)
#
#
# Indices 1 2 3 4 5 6 
#
# 1 87.9206 23.2320 31.1733 0.0000 0.0000 0.0000
# 2 23.2320 57.4617 47.4907 0.0000 0.0000 0.0000
# 3 31.1733 47.4907 119.1485 0.0000 0.0000 0.0000
# 4 0.0000 0.0000 0.0000 33.9290 0.0000 0.0000
# 5 0.0000 0.0000 0.0000 0.0000 24.8230 0.0000
# 6 0.0000 0.0000 0.0000 0.0000 0.0000 17.6960
#
#
#
# Elastic Compliance Matrix: (Units=1/GPa)
#
#
# Indices 1 2 3 4 5 6 
#
# 1 0.013032 -0.003655 -0.001953 0.000000 0.000000 0.000000
# 2 -0.003655 0.026977 -0.009796 0.000000 0.000000 0.000000
# 3 -0.001953 -0.009796 0.012808 0.000000 0.000000 0.000000
# 4 0.000000 0.000000 0.000000 0.029473 0.000000 0.000000
# 5 0.000000 0.000000 0.000000 0.000000 0.040285 0.000000
# 6 0.000000 0.000000 0.000000 0.000000 0.000000 0.056510
#
#
# Mechanical properties :
#
#
# Convention : Reuss Voigt Hill
#
# Bulk Modulus (GPa) = 45.43531 52.03589 48.73560
# Shear Modulus (GPa) = 23.01698 26.13193 24.57445
#
# Velocity S-wave (km/s) = 3.65163 3.89088 3.77315
# Velocity P-wave (km/s) = 6.64087 7.09445 6.87140
#
# Compressibility (1/GPa) = 0.02200932
#
# Stress axis : x y z
#
# Youngs Moduli (GPa) = 76.73375 37.06851 78.07321
#
# Poissons Ratio (x) = 0.13548 0.15246
# Poissons Ratio (y) = 0.28046 0.76483
# Poissons Ratio (z) = 0.14985 0.36314
#
# Static dielectric constant tensor:
#      x y z
#    x 3.238880 0.000000 0.000000 
#    y 0.000000 2.791200 0.000000 
#    z 0.000000 0.000000 3.576070 
# 
# 
# High freq. dielectric constant tensor:
#      x y z
#    x 1.669940 0.000000 0.000000 
#    y 0.000000 1.611950 0.000000 
#    z 0.000000 0.000000 1.685950 
# 
# From -- ./inp_files/16628.got.cif
#   From: 2010.03.12/outbox.cif.g09.slc.cpg/sg46_9_cif.got.tgz:16628.got - 2010.04.14 02:56:35.
