data_PCOD8191918
_publ_section_title
;
Structure prediction by ZEFSAII (Michael W. Deem and Ramdas Pophale) SiO2 
 PCOD8191918
Probable space group: I M A 2
;
_chemical_formula_sum "Si O2"
_cell_formula_units_Z 64
_cell_length_a 8.878944
_cell_length_b 33.407691
_cell_length_c 11.753451
_cell_angle_alpha 90.000000
_cell_angle_beta 90.000000
_cell_angle_gamma 90.000000
_cell_volume 3486.367609
_symmetry_space_group_name_H-M "I M A 2"
_symmetry_group_IT_number 46
_symmetry_cell_setting 'orthorhombic'
loop_
_space_group_symop_operation_xyz
x,y,z
-x,-y,z
1/2-x,y,z
1/2+x,-y,z
1/2+x,1/2+y,1/2+z
1/2-x,1/2-y,1/2+z
-x,1/2+y,1/2+z
x,1/2-y,1/2+z
loop_
_atom_site_type_symbol
_atom_site_label
_atom_site_fract_x
_atom_site_fract_y
_atom_site_fract_z
Si Si1 0.580181 0.723164 0.822750
Si Si2 0.428804 0.957076 0.841156
Si Si3 0.919593 0.826702 0.531687
Si Si4 0.928822 0.619988 0.449949
Si Si5 0.072507 0.190081 0.787146
Si Si6 0.572186 0.856514 0.204201
Si Si7 0.927473 0.041285 0.582869
Si Si8 0.424860 0.605866 0.906522
O O1 0.750000 0.728325 0.777102
O O2 0.498076 0.766272 0.811469
O O3 0.507959 0.686969 0.746583
O O4 0.578430 0.713765 0.957399
O O5 0.250000 0.959934 0.857115
O O6 0.493837 0.922307 0.921671
O O7 0.474464 0.945974 0.711096
O O8 0.500000 0.000000 0.875260
O O9 0.750000 0.845325 0.527082
O O10 0.971345 0.819175 0.658771
O O11 0.045595 0.854338 0.477405
O O12 0.750000 0.614471 0.438542
O O13 0.992489 0.654829 0.366991
O O14 0.976442 0.633783 0.576155
O O15 0.250000 0.191962 0.808777
O O16 0.750000 0.856549 0.220282
O O17 0.507852 0.891802 0.284884
O O18 0.750000 0.037664 0.576189
O O19 0.990595 0.071142 0.487253
O O20 0.000000 0.000000 0.548557
O O21 0.250000 0.600078 0.882644
#
# Coordination Sequence:
#
# PCOD8191918 Si02
#       8
#     8   8   8   8   8   8   8   8
#     4   8  15  27  45  71 100 131 170 215 258 297
#     4  10  20  36  57  80 108 138 171 213 264 316
#     4   9  17  29  47  72  98 128 167 207 253 300
#     4  10  20  33  51  78 108 140 179 220 263 314
#     4   9  17  27  47  77 105 133 169 216 261 305
#     4   9  19  34  51  73 103 138 177 219 260 304
#     4   9  19  33  52  79 104 129 161 206 258 310
#     4  10  19  33  52  72  98 131 168 206 254 310
#
# _framework density 18.357213999999999
#
# number of rings (size 3 to 8) (size 9 to 14) (size 15 to 20)
#    0.000    2.750    0.000    2.250    1.750    2.000 
#    0.000    0.625    0.000    7.500    0.000    0.000 
#    0.000    0.000    0.000    0.000    0.000    0.000 
#
# Total GULP energy -396575.282156 kJ/mol
# GULP energy per Si atom -12392.977567 kJ/mol
# Density = 1.831543 g / cm^3
# Si number density = 18.357214 Si / 1000 Ang^3
#
#
#
# Elastic Constant Matrix: (Units=GPa)
#
#
# Indices 1 2 3 4 5 6 
#
# 1 24.5547 27.1302 27.7609 0.0000 -0.0001 -0.0001
# 2 27.1302 125.0962 77.3596 -0.0002 -0.0001 -0.0003
# 3 27.7609 77.3596 152.9790 0.0009 0.0000 -0.0004
# 4 0.0000 -0.0002 0.0009 24.4501 0.0000 -0.0002
# 5 -0.0001 -0.0001 0.0000 0.0000 21.8936 0.0001
# 6 -0.0001 -0.0003 -0.0004 -0.0002 0.0001 19.6721
#
#
#
# Elastic Compliance Matrix: (Units=1/GPa)
#
#
# Indices 1 2 3 4 5 6 
#
# 1 0.057067 -0.008690 -0.005962 0.000000 0.000000 0.000000
# 2 -0.008690 0.012954 -0.004974 0.000000 0.000000 0.000000
# 3 -0.005962 -0.004974 0.010134 0.000000 0.000000 0.000000
# 4 0.000000 0.000000 0.000000 0.040900 0.000000 0.000000
# 5 0.000000 0.000000 0.000000 0.000000 0.045676 0.000000
# 6 0.000000 0.000000 0.000000 0.000000 0.000000 0.050834
#
#
# Mechanical properties :
#
#
# Convention : Reuss Voigt Hill
#
# Bulk Modulus (GPa) = 24.44716 63.01459 43.73088
# Shear Modulus (GPa) = 18.48780 24.56176 21.52478
#
# Velocity S-wave (km/s) = 3.17695 3.66182 3.42797
# Velocity P-wave (km/s) = 5.17723 7.23049 6.28823
#
# Compressibility (1/GPa) = 0.04090454
#
# Stress axis : x y z
#
# Youngs Moduli (GPa) = 17.52338 77.19437 98.67846
#
# Poissons Ratio (x) = 0.67080 0.58827
# Poissons Ratio (y) = 0.15227 0.49082
# Poissons Ratio (z) = 0.10447 0.38396
#
# Static dielectric constant tensor:
#      x y z
#    x 3.115990 0.000000 0.000000 
#    y 0.000000 3.530900 0.000000 
#    z 0.000000 0.000000 3.532840 
# 
# 
# High freq. dielectric constant tensor:
#      x y z
#    x 1.676290 0.000000 0.000000 
#    y 0.000000 1.711660 0.000000 
#    z 0.000000 0.000000 1.715590 
# 
# From -- ./inp_files/9766.got.cif
#   From: 2010.03.12/outbox.cif.g09.slc.cpg/sg46_5_cif.got.tgz:9766.got - 2010.04.14 02:56:35.
