data_PCOD8191236
_publ_section_title
;
Structure prediction by ZEFSAII (Michael W. Deem and Ramdas Pophale) SiO2 
 PCOD8191236
Probable space group: I M A 2
;
_chemical_formula_sum "Si O2"
_cell_formula_units_Z 48
_cell_length_a 19.765827
_cell_length_b 26.272129
_cell_length_c 4.961394
_cell_angle_alpha 90.000000
_cell_angle_beta 90.000000
_cell_angle_gamma 90.000000
_cell_volume 2576.404060
_symmetry_space_group_name_H-M "I M A 2"
_symmetry_group_IT_number 46
_symmetry_cell_setting 'orthorhombic'
loop_
_space_group_symop_operation_xyz
x,y,z
-x,-y,z
1/2-x,y,z
1/2+x,-y,z
1/2+x,1/2+y,1/2+z
1/2-x,1/2-y,1/2+z
-x,1/2+y,1/2+z
x,1/2-y,1/2+z
loop_
_atom_site_type_symbol
_atom_site_label
_atom_site_fract_x
_atom_site_fract_y
_atom_site_fract_z
Si Si1 0.001289 0.878519 0.575830
Si Si2 0.823979 0.078931 0.124322
Si Si3 0.527588 0.445141 0.564004
Si Si4 0.102667 0.213485 0.569174
Si Si5 0.850582 0.358702 0.133284
Si Si6 0.750000 0.781559 0.662925
Si Si7 0.250000 0.720290 0.938005
O O1 0.005650 0.903384 0.282359
O O2 0.069704 0.848312 0.644961
O O3 0.942499 0.836872 0.593373
O O4 0.993870 0.924969 0.787972
O O5 0.750000 0.050876 0.095161
O O6 0.890563 0.046938 0.038674
O O7 0.831905 0.094741 0.434910
O O8 0.822788 0.128388 0.930307
O O9 0.500000 0.500000 0.641600
O O10 0.088832 0.243746 0.294434
O O11 0.179562 0.190552 0.586661
O O12 0.817841 0.308100 0.021358
O O13 0.750000 0.729787 0.482035
O O14 0.250000 0.771419 0.117858
#
# Coordination Sequence:
#
# PCOD8191236 Si02
#       7
#     8   8   8   8   8   4   4
#     4  10  21  35  56  78 105 145 172 219 269 305
#     4  10  17  33  57  70  92 130 172 211 247 304
#     4  10  21  36  56  80 106 136 179 221 265 318
#     4  10  19  33  55  80 110 140 179 216 255 318
#     4  10  20  33  47  71  96 129 179 208 246 309
#     4   8  16  30  50  76  99 136 173 206 254 316
#     4  12  22  30  44  66 101 136 165 218 260 286
#
# _framework density 18.630617999999998
#
# number of rings (size 3 to 8) (size 9 to 14) (size 15 to 20)
#    0.000    2.000    1.667    2.500    0.000    1.333 
#    0.000    0.000    3.667    0.000    0.000    0.000 
#    0.000    0.000    0.000    0.000    0.000    0.000 
#
# Total GULP energy -297362.812746 kJ/mol
# GULP energy per Si atom -12390.117198 kJ/mol
# Density = 1.858821 g / cm^3
# Si number density = 18.630618 Si / 1000 Ang^3
#
#
#
# Elastic Constant Matrix: (Units=GPa)
#
#
# Indices 1 2 3 4 5 6 
#
# 1 153.5716 51.6838 10.9898 0.0000 0.0000 0.0000
# 2 51.6838 62.2108 -0.0512 0.0000 0.0000 0.0000
# 3 10.9898 -0.0512 69.6819 0.0000 0.0000 0.0000
# 4 0.0000 0.0000 0.0000 21.1059 0.0000 0.0000
# 5 0.0000 0.0000 0.0000 0.0000 20.2230 0.0000
# 6 0.0000 0.0000 0.0000 0.0000 0.0000 24.0688
#
#
#
# Elastic Compliance Matrix: (Units=1/GPa)
#
#
# Indices 1 2 3 4 5 6 
#
# 1 0.009184 -0.007631 -0.001454 0.000000 0.000000 0.000000
# 2 -0.007631 0.022415 0.001220 0.000000 0.000000 0.000000
# 3 -0.001454 0.001220 0.014581 0.000000 0.000000 0.000000
# 4 0.000000 0.000000 0.000000 0.047380 0.000000 0.000000
# 5 0.000000 0.000000 0.000000 0.000000 0.049449 0.000000
# 6 0.000000 0.000000 0.000000 0.000000 0.000000 0.041548
#
#
# Mechanical properties :
#
#
# Convention : Reuss Voigt Hill
#
# Bulk Modulus (GPa) = 32.84074 45.63436 39.23755
# Shear Modulus (GPa) = 23.76012 27.93565 25.84788
#
# Velocity S-wave (km/s) = 3.57505 3.87647 3.72881
# Velocity P-wave (km/s) = 5.89125 6.67709 6.29644
#
# Compressibility (1/GPa) = 0.03044999
#
# Stress axis : x y z
#
# Youngs Moduli (GPa) = 108.88691 44.61285 68.58169
#
# Poissons Ratio (x) = 0.34044 0.09972
# Poissons Ratio (y) = 0.83091 -0.08367
# Poissons Ratio (z) = 0.15832 -0.05443
#
# Static dielectric constant tensor:
#      x y z
#    x 3.818940 0.000000 0.000000 
#    y 0.000000 2.862080 0.000000 
#    z 0.000000 0.000000 3.708590 
# 
# 
# High freq. dielectric constant tensor:
#      x y z
#    x 1.736770 0.000000 0.000000 
#    y 0.000000 1.664560 0.000000 
#    z 0.000000 0.000000 1.749400 
# 
# From -- ./inp_files/2117.got.cif
#   From: 2010.03.12/outbox.cif.g09.slc.cpg/sg46_2_cif.got.tgz:2117.got - 2010.04.14 02:56:35.
