data_PCOD8191098
_publ_section_title
;
Structure prediction by ZEFSAII (Michael W. Deem and Ramdas Pophale) SiO2 
 PCOD8191098
Probable space group: I B A 2
;
_chemical_formula_sum "Si O2"
_cell_formula_units_Z 64
_cell_length_a 22.101442
_cell_length_b 14.702101
_cell_length_c 8.828015
_cell_angle_alpha 90.000000
_cell_angle_beta 90.000000
_cell_angle_gamma 90.000000
_cell_volume 2868.554294
_symmetry_space_group_name_H-M "I B A 2"
_symmetry_group_IT_number 45
_symmetry_cell_setting 'orthorhombic'
loop_
_space_group_symop_operation_xyz
x,y,z
-x,-y,z
-x,y,1/2+z
x,-y,1/2+z
1/2+x,1/2+y,1/2+z
1/2-x,1/2-y,1/2+z
1/2-x,1/2+y,z
1/2+x,1/2-y,z
loop_
_atom_site_type_symbol
_atom_site_label
_atom_site_fract_x
_atom_site_fract_y
_atom_site_fract_z
Si Si1 0.888477 0.093852 0.235040
Si Si2 0.182373 0.495717 0.272265
Si Si3 0.490116 0.276035 0.349170
Si Si4 0.096279 0.500516 0.020931
Si Si5 0.228077 0.844641 0.735555
Si Si6 0.102625 0.099074 0.372802
Si Si7 0.998033 0.354538 0.098148
Si Si8 0.734463 0.657349 0.373975
O O1 0.928537 0.174461 0.303411
O O2 0.820431 0.107414 0.290620
O O3 0.911433 0.998838 0.301732
O O4 0.891106 0.092248 0.053594
O O5 0.116280 0.515789 0.347889
O O6 0.233467 0.570807 0.296992
O O7 0.205488 0.398410 0.330942
O O8 0.162987 0.495455 0.097229
O O9 0.546883 0.340097 0.319125
O O10 0.490450 0.244841 0.523532
O O11 0.493300 0.175612 0.272251
O O12 0.063750 0.597832 0.042024
O O13 0.054310 0.420492 0.079609
O O14 0.161287 0.854572 0.801327
O O15 0.259978 0.757161 0.805629
O O16 0.225155 0.839041 0.554094
#
# Coordination Sequence:
#
# PCOD8191098 Si02
#       8
#     8   8   8   8   8   8   8   8
#     4  12  28  48  74 107 149 195 249 313 374 442
#     4  12  26  47  76 109 146 194 244 304 370 444
#     4  12  27  45  78 104 148 188 254 299 373 440
#     4  11  26  46  76 104 154 187 240 298 374 437
#     4  12  29  47  75 110 150 197 251 309 376 447
#     4  12  28  48  74 107 149 195 249 313 374 442
#     4  11  26  48  71 114 142 194 239 306 362 453
#     4  12  29  47  75 110 150 197 251 309 376 447
#
# _framework density 22.310891000000002
#
# number of rings (size 3 to 8) (size 9 to 14) (size 15 to 20)
#    0.000    0.250    3.750    3.375   14.000    3.000 
#    0.000    0.000    0.000    0.000    0.000    0.000 
#    0.000    0.000    0.000    0.000    0.000    0.000 
#
# Total GULP energy -396919.281493 kJ/mol
# GULP energy per Si atom -12403.727547 kJ/mol
# Density = 2.226011 g / cm^3
# Si number density = 22.310891 Si / 1000 Ang^3
#
#
#
# Elastic Constant Matrix: (Units=GPa)
#
#
# Indices 1 2 3 4 5 6 
#
# 1 93.6682 25.1869 24.4992 0.0000 0.0000 0.0000
# 2 25.1869 111.2592 28.9059 0.0000 0.0000 0.0000
# 3 24.4992 28.9059 95.5131 0.0000 0.0000 0.0000
# 4 0.0000 0.0000 0.0000 172.9186 0.0000 0.0000
# 5 0.0000 0.0000 0.0000 0.0000 40.8264 0.0000
# 6 0.0000 0.0000 0.0000 0.0000 0.0000 39.2210
#
#
#
# Elastic Compliance Matrix: (Units=1/GPa)
#
#
# Indices 1 2 3 4 5 6 
#
# 1 0.011862 -0.002057 -0.002420 0.000000 0.000000 0.000000
# 2 -0.002057 0.010112 -0.002533 0.000000 0.000000 0.000000
# 3 -0.002420 -0.002533 0.011857 0.000000 0.000000 0.000000
# 4 0.000000 0.000000 0.000000 0.005783 0.000000 0.000000
# 5 0.000000 0.000000 0.000000 0.000000 0.024494 0.000000
# 6 0.000000 0.000000 0.000000 0.000000 0.000000 0.025497
#
#
# Mechanical properties :
#
#
# Convention : Reuss Voigt Hill
#
# Bulk Modulus (GPa) = 50.47499 50.84717 50.66108
# Shear Modulus (GPa) = 45.36096 65.38309 55.37203
#
# Velocity S-wave (km/s) = 4.51392 5.41932 4.98721
# Velocity P-wave (km/s) = 7.05973 7.87392 7.47791
#
# Compressibility (1/GPa) = 0.01981179
#
# Stress axis : x y z
#
# Youngs Moduli (GPa) = 84.30287 98.89651 84.33811
#
# Poissons Ratio (x) = 0.20338 0.20412
# Poissons Ratio (y) = 0.17337 0.21360
# Poissons Ratio (z) = 0.20403 0.25047
#
# Static dielectric constant tensor:
#      x y z
#    x 3.962700 0.000000 0.000000 
#    y 0.000000 2.852940 0.000000 
#    z 0.000000 0.000000 4.169250 
# 
# 
# High freq. dielectric constant tensor:
#      x y z
#    x 1.888380 0.000000 0.000000 
#    y 0.000000 1.889270 0.000000 
#    z 0.000000 0.000000 1.901470 
# 
# From -- ./inp_files/2554.got.cif
#   From: 2010.03.12/outbox.cif.g09.slc.cpg/sg45_2_cif.got.tgz:2554.got - 2010.04.14 02:50:11.
