data_PCOD8191020
_publ_section_title
;
Structure prediction by ZEFSAII (Michael W. Deem and Ramdas Pophale) SiO2 
 PCOD8191020
Probable space group: I B A 2
;
_chemical_formula_sum "Si O2"
_cell_formula_units_Z 48
_cell_length_a 18.245031
_cell_length_b 13.049146
_cell_length_c 7.353221
_cell_angle_alpha 90.000000
_cell_angle_beta 90.000000
_cell_angle_gamma 90.000000
_cell_volume 1750.670101
_symmetry_space_group_name_H-M "I B A 2"
_symmetry_group_IT_number 45
_symmetry_cell_setting 'orthorhombic'
loop_
_space_group_symop_operation_xyz
x,y,z
-x,-y,z
-x,y,1/2+z
x,-y,1/2+z
1/2+x,1/2+y,1/2+z
1/2-x,1/2-y,1/2+z
1/2-x,1/2+y,z
1/2+x,1/2-y,z
loop_
_atom_site_type_symbol
_atom_site_label
_atom_site_fract_x
_atom_site_fract_y
_atom_site_fract_z
Si Si1 0.573434 0.286303 0.149510
Si Si2 0.376182 0.524731 0.974814
Si Si3 0.089553 0.168427 0.635096
Si Si4 0.682746 0.797821 0.353675
Si Si5 0.785198 0.485177 0.133981
Si Si6 0.178240 0.335362 0.365315
O O1 0.585148 0.407686 0.131417
O O2 0.486525 0.270861 0.157645
O O3 0.608495 0.240762 0.337437
O O4 0.612785 0.223115 0.985199
O O5 0.408655 0.407893 0.960303
O O6 0.290934 0.524560 0.027342
O O7 0.389507 0.581982 0.786137
O O8 0.153859 0.254794 0.652914
O O9 0.710507 0.915392 0.323214
O O10 0.749842 0.728540 0.421768
O O11 0.805227 0.603972 0.172014
O O12 0.842906 0.426665 0.003606
#
# Coordination Sequence:
#
# PCOD8191020 Si02
#       6
#     8   8   8   8   8   8
#     4  11  25  43  65 102 149 190 238 289 370 440
#     4  11  22  43  67 103 143 187 231 297 360 431
#     4  11  25  43  68 106 150 187 234 291 372 443
#     4  11  23  45  70 102 142 192 243 302 358 431
#     4  12  23  42  75 105 138 187 248 301 356 422
#     4  12  23  44  69 104 143 187 244 300 353 433
#
# _framework density 27.418075000000002
#
# number of rings (size 3 to 8) (size 9 to 14) (size 15 to 20)
#    0.000    0.667    6.667    1.500    0.000    9.333 
#    0.000    0.833    0.000    6.000    0.000    0.000 
#    0.000    0.000    0.000    0.000    0.000    0.000 
#
# Total GULP energy -297447.045501 kJ/mol
# GULP energy per Si atom -12393.626896 kJ/mol
# Density = 2.735567 g / cm^3
# Si number density = 27.418075 Si / 1000 Ang^3
#
#
#
# Elastic Constant Matrix: (Units=GPa)
#
#
# Indices 1 2 3 4 5 6 
#
# 1 154.3421 73.3242 23.7771 0.0000 0.0000 0.0000
# 2 73.3242 164.1837 1.7523 0.0000 0.0000 0.0000
# 3 23.7771 1.7523 34.2766 0.0000 0.0000 0.0000
# 4 0.0000 0.0000 0.0000 33.6456 0.0000 0.0000
# 5 0.0000 0.0000 0.0000 0.0000 37.3166 0.0000
# 6 0.0000 0.0000 0.0000 0.0000 0.0000 43.7506
#
#
#
# Elastic Compliance Matrix: (Units=1/GPa)
#
#
# Indices 1 2 3 4 5 6 
#
# 1 0.009420 -0.004139 -0.006323 0.000000 0.000000 0.000000
# 2 -0.004139 0.007913 0.002467 0.000000 0.000000 0.000000
# 3 -0.006323 0.002467 0.033434 0.000000 0.000000 0.000000
# 4 0.000000 0.000000 0.000000 0.029722 0.000000 0.000000
# 5 0.000000 0.000000 0.000000 0.000000 0.026798 0.000000
# 6 0.000000 0.000000 0.000000 0.000000 0.000000 0.022857
#
#
# Mechanical properties :
#
#
# Convention : Reuss Voigt Hill
#
# Bulk Modulus (GPa) = 28.75490 61.16772 44.96131
# Shear Modulus (GPa) = 31.70066 39.87247 35.78656
#
# Velocity S-wave (km/s) = 3.40398 3.81759 3.61670
# Velocity P-wave (km/s) = 5.09507 6.46449 5.82020
#
# Compressibility (1/GPa) = 0.03477669
#
# Stress axis : x y z
#
# Youngs Moduli (GPa) = 106.16133 126.37401 29.90946
#
# Poissons Ratio (x) = 0.52310 0.18911
# Poissons Ratio (y) = 0.43943 -0.07378
# Poissons Ratio (z) = 0.67122 -0.31174
#
# Static dielectric constant tensor:
#      x y z
#    x 4.529490 0.000000 0.000000 
#    y 0.000000 5.778780 0.000000 
#    z 0.000000 0.000000 6.070510 
# 
# 
# High freq. dielectric constant tensor:
#      x y z
#    x 2.059280 0.000000 0.000000 
#    y 0.000000 2.130520 0.000000 
#    z 0.000000 0.000000 2.170100 
# 
# From -- ./inp_files/2074.got.cif
#   From: 2010.03.12/outbox.cif.g09.slc.cpg/sg45_2_cif.got.tgz:2074.got - 2010.04.14 02:50:11.
