data_PCOD8191752
_publ_section_title
;
Structure prediction by ZEFSAII (Michael W. Deem and Ramdas Pophale) SiO2 
 PCOD8191752
Probable space group: I M A 2
;
_chemical_formula_sum "Si O2"
_cell_formula_units_Z 56
_cell_length_a 9.067274
_cell_length_b 24.221107
_cell_length_c 13.566688
_cell_angle_alpha 90.000000
_cell_angle_beta 90.000000
_cell_angle_gamma 90.000000
_cell_volume 2979.508065
_symmetry_space_group_name_H-M "I M A 2"
_symmetry_group_IT_number 46
_symmetry_cell_setting 'orthorhombic'
loop_
_space_group_symop_operation_xyz
x,y,z
-x,-y,z
1/2-x,y,z
1/2+x,-y,z
1/2+x,1/2+y,1/2+z
1/2-x,1/2-y,1/2+z
-x,1/2+y,1/2+z
x,1/2-y,1/2+z
loop_
_atom_site_type_symbol
_atom_site_label
_atom_site_fract_x
_atom_site_fract_y
_atom_site_fract_z
Si Si1 0.576260 0.834335 0.350690
Si Si2 0.078398 0.942273 0.674425
Si Si3 0.421357 0.344324 0.072455
Si Si4 0.421518 0.055745 0.024169
Si Si5 0.578812 0.944503 0.253615
Si Si6 0.578227 0.375934 0.368551
Si Si7 0.422553 0.221109 0.763003
O O1 0.750000 0.838843 0.339052
O O2 0.530895 0.823878 0.464135
O O3 0.509365 0.892074 0.311204
O O4 0.521147 0.783320 0.283459
O O5 0.250000 0.949368 0.652739
O O6 0.048240 0.921742 0.785115
O O7 0.014341 0.898419 0.597480
O O8 0.000000 0.000000 0.657243
O O9 0.250000 0.360954 0.075960
O O10 0.454706 0.294739 0.149233
O O11 0.250000 0.051076 0.998006
O O12 0.492989 0.106847 0.967056
O O13 0.500000 0.000000 0.988382
O O14 0.449769 0.066203 0.138779
O O15 0.750000 0.952290 0.276934
O O16 0.500000 0.000000 0.290709
O O17 0.750000 0.369322 0.391660
O O18 0.514423 0.317552 0.335402
O O19 0.250000 0.214360 0.788339
#
# Coordination Sequence:
#
# PCOD8191752 Si02
#       7
#     8   8   8   8   8   8   8
#     4   9  18  34  56  79 102 133 172 210 251 302
#     4  10  20  33  50  73 103 137 172 211 255 303
#     4   9  18  33  53  76 103 134 169 210 253 300
#     4  10  19  31  50  75 104 138 174 213 257 304
#     4   9  19  35  53  75 104 135 170 212 254 300
#     4  10  20  33  50  74 105 138 172 212 257 305
#     4   9  18  33  53  76 102 133 171 212 253 300
#
# _framework density 18.795048000000001
#
# number of rings (size 3 to 8) (size 9 to 14) (size 15 to 20)
#    0.000    2.571    0.000    1.714    0.000    5.143 
#    0.000    7.857    0.000    3.429    0.000    0.000 
#    0.000    0.000    0.000    0.000    0.000    0.000 
#
# Total GULP energy -347231.409204 kJ/mol
# GULP energy per Si atom -12401.121757 kJ/mol
# Density = 1.875227 g / cm^3
# Si number density = 18.795048 Si / 1000 Ang^3
#
#
#
# Elastic Constant Matrix: (Units=GPa)
#
#
# Indices 1 2 3 4 5 6 
#
# 1 69.4248 52.7362 40.1330 0.0000 0.0000 0.0000
# 2 52.7362 167.4145 79.4234 0.0001 0.0000 0.0000
# 3 40.1330 79.4234 94.1676 0.0004 -0.0002 -0.0001
# 4 0.0000 0.0001 0.0004 27.3049 -0.0001 0.0000
# 5 0.0000 0.0000 -0.0002 -0.0001 17.7880 0.0000
# 6 0.0000 0.0000 -0.0001 0.0000 0.0000 28.5368
#
#
#
# Elastic Compliance Matrix: (Units=1/GPa)
#
#
# Indices 1 2 3 4 5 6 
#
# 1 0.020505 -0.003856 -0.005486 0.000000 0.000000 0.000000
# 2 -0.003856 0.010683 -0.007367 0.000000 0.000000 0.000000
# 3 -0.005486 -0.007367 0.019171 0.000000 0.000000 0.000000
# 4 0.000000 0.000000 0.000000 0.036624 0.000000 0.000000
# 5 0.000000 0.000000 0.000000 0.000000 0.056218 0.000000
# 6 0.000000 0.000000 0.000000 0.000000 0.000000 0.035043
#
#
# Mechanical properties :
#
#
# Convention : Reuss Voigt Hill
#
# Bulk Modulus (GPa) = 59.03249 75.06579 67.04914
# Shear Modulus (GPa) = 23.00888 25.30688 24.15788
#
# Velocity S-wave (km/s) = 3.50265 3.67340 3.58904
# Velocity P-wave (km/s) = 6.91627 7.61693 7.27504
#
# Compressibility (1/GPa) = 0.01693982
#
# Stress axis : x y z
#
# Youngs Moduli (GPa) = 48.76861 93.60875 52.16266
#
# Poissons Ratio (x) = 0.36099 0.28619
# Poissons Ratio (y) = 0.18807 0.38426
# Poissons Ratio (z) = 0.26757 0.68958
#
# Static dielectric constant tensor:
#      x y z
#    x 3.345140 0.000000 0.000000 
#    y 0.000000 3.537880 0.000000 
#    z 0.000000 0.000000 3.475510 
# 
# 
# High freq. dielectric constant tensor:
#      x y z
#    x 1.715890 0.000000 0.000000 
#    y 0.000000 1.730680 0.000000 
#    z 0.000000 0.000000 1.727100 
# 
# From -- ./inp_files/14203.got.cif
#   From: 2010.03.12/outbox.cif.g09.slc.cpg/sg46_8_cif.got.tgz:14203.got - 2010.04.14 02:56:35.
