data_PCOD8191736
_publ_section_title
;
Structure prediction by ZEFSAII (Michael W. Deem and Ramdas Pophale) SiO2 
 PCOD8191736
Probable space group: I M A 2
;
_chemical_formula_sum "Si O2"
_cell_formula_units_Z 64
_cell_length_a 8.917373
_cell_length_b 29.950012
_cell_length_c 14.203609
_cell_angle_alpha 90.000000
_cell_angle_beta 90.000000
_cell_angle_gamma 90.000000
_cell_volume 3793.434958
_symmetry_space_group_name_H-M "I M A 2"
_symmetry_group_IT_number 46
_symmetry_cell_setting 'orthorhombic'
loop_
_space_group_symop_operation_xyz
x,y,z
-x,-y,z
1/2-x,y,z
1/2+x,-y,z
1/2+x,1/2+y,1/2+z
1/2-x,1/2-y,1/2+z
-x,1/2+y,1/2+z
x,1/2-y,1/2+z
loop_
_atom_site_type_symbol
_atom_site_label
_atom_site_fract_x
_atom_site_fract_y
_atom_site_fract_z
Si Si1 0.916417 0.683887 0.836200
Si Si2 0.578080 0.870952 0.521952
Si Si3 0.578792 0.630409 0.654787
Si Si4 0.924628 0.301033 0.142325
Si Si5 0.572587 0.783614 0.040981
Si Si6 0.073076 0.546128 0.928140
Si Si7 0.074641 0.954312 0.211258
Si Si8 0.578879 0.271534 0.347594
O O1 0.750000 0.704963 0.822533
O O2 0.940123 0.644230 0.763147
O O3 0.042120 0.720809 0.819093
O O4 0.934115 0.665152 0.939894
O O5 0.750000 0.882932 0.544940
O O6 0.500368 0.847402 0.610899
O O7 0.491042 0.915643 0.495203
O O8 0.750000 0.619115 0.629518
O O9 0.518298 0.670308 0.588997
O O10 0.481940 0.585516 0.643344
O O11 0.750000 0.300932 0.115446
O O12 0.948880 0.300810 0.254695
O O13 0.997377 0.258188 0.092293
O O14 0.750000 0.777588 0.051113
O O15 0.528412 0.787202 0.931750
O O16 0.250000 0.543361 0.941425
O O17 0.029343 0.555509 0.819577
O O18 0.000000 0.500000 0.961937
O O19 0.250000 0.959511 0.199129
O O20 0.000000 0.000000 0.176230
O O21 0.750000 0.274491 0.381728
#
# Coordination Sequence:
#
# PCOD8191736 Si02
#       8
#     8   8   8   8   8   8   8   8
#     4  10  19  31  49  72 103 138 174 211 252 305
#     4  11  21  33  52  76 102 139 176 212 258 308
#     4  10  20  34  51  73 102 136 174 212 252 303
#     4  11  23  36  51  74 103 137 176 217 259 306
#     4  11  22  35  53  75 101 137 176 216 259 307
#     4  10  20  33  50  74 105 138 172 212 255 306
#     4  10  20  32  50  74 103 137 170 208 254 303
#     4  11  23  36  51  72 103 138 175 220 260 302
#
# _framework density 16.871252999999999
#
# number of rings (size 3 to 8) (size 9 to 14) (size 15 to 20)
#    0.000    1.500    3.750    2.250    0.000    4.500 
#    0.000    0.000    0.000    0.000    0.000    0.875 
#    0.000    2.000    0.000    0.000    0.000    0.000 
#
# Total GULP energy -396850.348036 kJ/mol
# GULP energy per Si atom -12401.573376 kJ/mol
# Density = 1.683285 g / cm^3
# Si number density = 16.871253 Si / 1000 Ang^3
#
#
#
# Elastic Constant Matrix: (Units=GPa)
#
#
# Indices 1 2 3 4 5 6 
#
# 1 83.7330 50.0487 28.6557 0.0001 0.0000 0.0000
# 2 50.0487 111.6442 24.9494 0.0001 0.0000 0.0000
# 3 28.6557 24.9494 54.3883 0.0003 0.0001 0.0000
# 4 0.0001 0.0001 0.0003 23.1367 0.0000 0.0000
# 5 0.0000 0.0000 0.0001 0.0000 22.3484 0.0000
# 6 0.0000 0.0000 0.0000 0.0000 0.0000 34.1482
#
#
#
# Elastic Compliance Matrix: (Units=1/GPa)
#
#
# Indices 1 2 3 4 5 6 
#
# 1 0.018167 -0.006691 -0.006503 0.000000 0.000000 0.000000
# 2 -0.006691 0.012444 -0.002183 0.000000 0.000000 0.000000
# 3 -0.006503 -0.002183 0.022814 0.000000 0.000000 0.000000
# 4 0.000000 0.000000 0.000000 0.043221 0.000000 0.000000
# 5 0.000000 0.000000 0.000000 0.000000 0.044746 0.000000
# 6 0.000000 0.000000 0.000000 0.000000 0.000000 0.029284
#
#
# Mechanical properties :
#
#
# Convention : Reuss Voigt Hill
#
# Bulk Modulus (GPa) = 44.10739 50.78592 47.44665
# Shear Modulus (GPa) = 23.92479 25.66745 24.79612
#
# Velocity S-wave (km/s) = 3.76983 3.90471 3.83786
# Velocity P-wave (km/s) = 6.71930 7.10608 6.91540
#
# Compressibility (1/GPa) = 0.02267194
#
# Stress axis : x y z
#
# Youngs Moduli (GPa) = 55.04343 80.35705 43.83306
#
# Poissons Ratio (x) = 0.53768 0.28503
# Poissons Ratio (y) = 0.36830 0.09570
# Poissons Ratio (z) = 0.35792 0.17544
#
# Static dielectric constant tensor:
#      x y z
#    x 3.270960 0.000000 0.000000 
#    y 0.000000 3.133270 0.000000 
#    z 0.000000 0.000000 3.056330 
# 
# 
# High freq. dielectric constant tensor:
#      x y z
#    x 1.664990 0.000000 0.000000 
#    y 0.000000 1.641640 0.000000 
#    z 0.000000 0.000000 1.622960 
# 
# From -- ./inp_files/14754.got.cif
#   From: 2010.03.12/outbox.cif.g09.slc.cpg/sg46_8_cif.got.tgz:14754.got - 2010.04.14 02:56:35.
