data_PCOD8191813
_publ_section_title
;
Structure prediction by ZEFSAII (Michael W. Deem and Ramdas Pophale) SiO2 
 PCOD8191813
Probable space group: I M A 2
;
_chemical_formula_sum "Si O2"
_cell_formula_units_Z 48
_cell_length_a 8.812089
_cell_length_b 9.159227
_cell_length_c 31.672024
_cell_angle_alpha 90.000000
_cell_angle_beta 90.000000
_cell_angle_gamma 90.000000
_cell_volume 2556.309978
_symmetry_space_group_name_H-M "I M A 2"
_symmetry_group_IT_number 46
_symmetry_cell_setting 'orthorhombic'
loop_
_space_group_symop_operation_xyz
x,y,z
-x,-y,z
1/2-x,y,z
1/2+x,-y,z
1/2+x,1/2+y,1/2+z
1/2-x,1/2-y,1/2+z
-x,1/2+y,1/2+z
x,1/2-y,1/2+z
loop_
_atom_site_type_symbol
_atom_site_label
_atom_site_fract_x
_atom_site_fract_y
_atom_site_fract_z
Si Si1 0.570137 0.340162 0.081090
Si Si2 0.070655 0.160226 0.497847
Si Si3 0.925201 0.845323 0.407847
Si Si4 0.570238 0.157576 0.742042
Si Si5 0.571372 0.157682 0.161375
Si Si6 0.070835 0.160504 0.315924
O O1 0.500000 0.500000 0.086631
O O2 0.750000 0.353494 0.079550
O O3 0.513730 0.242352 0.119974
O O4 0.508957 0.261817 0.037961
O O5 0.250000 0.152937 0.506113
O O6 0.031928 0.238316 0.452130
O O7 0.000000 0.000000 0.495891
O O8 0.750000 0.880263 0.409941
O O9 0.963513 0.769766 0.362849
O O10 0.000000 0.000000 0.407144
O O11 0.750000 0.144448 0.745388
O O12 0.517947 0.254804 0.702564
O O13 0.506290 0.227929 0.784399
O O14 0.500000 0.000000 0.735335
O O15 0.750000 0.139995 0.160570
O O16 0.500000 0.000000 0.162837
O O17 0.250000 0.149393 0.307070
O O18 0.000000 0.000000 0.310544
#
# Coordination Sequence:
#
# PCOD8191813 Si02
#       6
#     8   8   8   8   8   8
#     4  10  19  32  50  76 105 135 170 210 253 301
#     4   9  15  25  43  70 101 135 170 208 250 295
#     4   8  15  26  43  69 102 135 170 208 250 295
#     4  11  23  39  57  79 104 135 172 213 260 312
#     4  10  23  39  56  77 103 133 169 209 255 307
#     4  10  19  33  53  79 109 141 175 216 259 306
#
# _framework density 18.777066999999999
#
# number of rings (size 3 to 8) (size 9 to 14) (size 15 to 20)
#    0.000    2.333    0.000    4.000    0.000    5.333 
#    0.000    0.000    0.000    1.000    0.000    2.333 
#    0.000    0.000    0.000    0.000    0.000    0.000 
#
# Total GULP energy -297316.964939 kJ/mol
# GULP energy per Si atom -12388.206872 kJ/mol
# Density = 1.873433 g / cm^3
# Si number density = 18.777067 Si / 1000 Ang^3
#
#
#
# Elastic Constant Matrix: (Units=GPa)
#
#
# Indices 1 2 3 4 5 6 
#
# 1 71.9733 35.7272 61.7397 0.0000 0.0000 0.0000
# 2 35.7272 90.2684 71.5931 0.0000 0.0000 0.0000
# 3 61.7397 71.5931 213.6081 0.0000 0.0000 0.0000
# 4 0.0000 0.0000 0.0000 34.6585 0.0000 0.0000
# 5 0.0000 0.0000 0.0000 0.0000 31.4330 0.0000
# 6 0.0000 0.0000 0.0000 0.0000 0.0000 26.2949
#
#
#
# Elastic Compliance Matrix: (Units=1/GPa)
#
#
# Indices 1 2 3 4 5 6 
#
# 1 0.019717 -0.004473 -0.004200 0.000000 0.000000 0.000000
# 2 -0.004473 0.016104 -0.004105 0.000000 0.000000 0.000000
# 3 -0.004200 -0.004105 0.007271 0.000000 0.000000 0.000000
# 4 0.000000 0.000000 0.000000 0.028853 0.000000 0.000000
# 5 0.000000 0.000000 0.000000 0.000000 0.031814 0.000000
# 6 0.000000 0.000000 0.000000 0.000000 0.000000 0.038030
#
#
# Mechanical properties :
#
#
# Convention : Reuss Voigt Hill
#
# Bulk Modulus (GPa) = 57.02092 79.32999 68.17546
# Shear Modulus (GPa) = 28.87026 32.26327 30.56676
#
# Velocity S-wave (km/s) = 3.92539 4.14965 4.03907
# Velocity P-wave (km/s) = 7.13990 8.08081 7.62488
#
# Compressibility (1/GPa) = 0.01753742
#
# Stress axis : x y z
#
# Youngs Moduli (GPa) = 50.71782 62.09726 137.53266
#
# Poissons Ratio (x) = 0.27776 0.57759
# Poissons Ratio (y) = 0.22686 0.56451
# Poissons Ratio (z) = 0.21300 0.25488
#
# Static dielectric constant tensor:
#      x y z
#    x 3.773140 0.000000 0.000000 
#    y 0.000000 2.968840 0.000000 
#    z 0.000000 0.000000 4.656760 
# 
# 
# High freq. dielectric constant tensor:
#      x y z
#    x 1.739480 0.000000 0.000000 
#    y 0.000000 1.674550 0.000000 
#    z 0.000000 0.000000 1.767930 
# 
# From -- ./inp_files/24998.got.cif
#   From: 2010.03.12/outbox.cif.g09.slc.cpg/sg46_13_cif.got.tgz:24998.got - 2010.04.14 02:56:35.
