data_PCOD8191040
_publ_section_title
;
Structure prediction by ZEFSAII (Michael W. Deem and Ramdas Pophale) SiO2 
 PCOD8191040
Probable space group: I B A 2
;
_chemical_formula_sum "Si O2"
_cell_formula_units_Z 48
_cell_length_a 9.569458
_cell_length_b 24.591307
_cell_length_c 8.551174
_cell_angle_alpha 90.000000
_cell_angle_beta 90.000000
_cell_angle_gamma 90.000000
_cell_volume 2012.309122
_symmetry_space_group_name_H-M "I B A 2"
_symmetry_group_IT_number 45
_symmetry_cell_setting 'orthorhombic'
loop_
_space_group_symop_operation_xyz
x,y,z
-x,-y,z
-x,y,1/2+z
x,-y,1/2+z
1/2+x,1/2+y,1/2+z
1/2-x,1/2-y,1/2+z
1/2-x,1/2+y,z
1/2+x,1/2-y,z
loop_
_atom_site_type_symbol
_atom_site_label
_atom_site_fract_x
_atom_site_fract_y
_atom_site_fract_z
Si Si1 0.630647 0.364643 0.445990
Si Si2 0.877283 0.429796 0.318089
Si Si3 0.361936 0.608196 0.764795
Si Si4 0.597972 0.245966 0.601805
Si Si5 0.674394 0.790250 0.782148
Si Si6 0.842856 0.546428 0.452848
O O1 0.779513 0.378319 0.362984
O O2 0.611205 0.409846 0.584726
O O3 0.508421 0.367987 0.320450
O O4 0.609235 0.304741 0.518074
O O5 0.848789 0.482166 0.426172
O O6 0.040336 0.418318 0.356592
O O7 0.854660 0.442472 0.136347
O O8 0.238476 0.651972 0.740409
O O9 0.308588 0.562482 0.883373
O O10 0.451435 0.226768 0.669171
O O11 0.637774 0.204460 0.464532
O O12 0.707646 0.244068 0.745894
#
# Coordination Sequence:
#
# PCOD8191040 Si02
#       6
#     8   8   8   8   8   8
#     4  11  23  42  64  93 129 175 225 286 348 417
#     4  11  23  42  68  96 138 182 227 290 354 422
#     4  11  24  41  64  94 128 171 226 279 346 420
#     4  11  23  42  63  92 129 171 222 279 346 417
#     4  11  24  41  65  94 130 173 219 283 348 416
#     4  11  23  42  66 101 136 180 231 286 350 428
#
# _framework density 23.853193000000001
#
# number of rings (size 3 to 8) (size 9 to 14) (size 15 to 20)
#    0.000    1.000    0.000    9.000    0.000    7.333 
#    0.000    3.333    0.000    0.000    0.000    0.000 
#    0.000    0.000    0.000    0.000    0.000    0.000 
#
# Total GULP energy -297328.363224 kJ/mol
# GULP energy per Si atom -12388.681801 kJ/mol
# Density = 2.379890 g / cm^3
# Si number density = 23.853193 Si / 1000 Ang^3
#
#
#
# Elastic Constant Matrix: (Units=GPa)
#
#
# Indices 1 2 3 4 5 6 
#
# 1 111.6288 28.5659 0.9785 -0.0017 0.0003 0.0003
# 2 28.5659 28.6569 2.1079 -0.0025 0.0009 -0.0002
# 3 0.9785 2.1079 112.8414 -0.0052 -0.0013 0.0008
# 4 -0.0017 -0.0025 -0.0052 30.6393 0.0000 -0.0001
# 5 0.0003 0.0009 -0.0013 0.0000 47.6754 -0.0001
# 6 0.0003 -0.0002 0.0008 -0.0001 -0.0001 34.9001
#
#
#
# Elastic Compliance Matrix: (Units=1/GPa)
#
#
# Indices 1 2 3 4 5 6 
#
# 1 0.012028 -0.011998 0.000120 0.000000 0.000000 0.000000
# 2 -0.011998 0.046912 -0.000772 0.000003 -0.000001 0.000000
# 3 0.000120 -0.000772 0.008875 0.000001 0.000000 0.000000
# 4 0.000000 0.000003 0.000001 0.032638 0.000000 0.000000
# 5 0.000000 -0.000001 0.000000 0.000000 0.020975 0.000000
# 6 0.000000 0.000000 0.000000 0.000000 0.000000 0.028653
#
#
# Mechanical properties :
#
#
# Convention : Reuss Voigt Hill
#
# Bulk Modulus (GPa) = 23.52159 35.15908 29.34033
# Shear Modulus (GPa) = 26.37767 37.40795 31.89281
#
# Velocity S-wave (km/s) = 3.32902 3.96442 3.66053
# Velocity P-wave (km/s) = 4.96577 5.97723 5.49482
#
# Compressibility (1/GPa) = 0.04251414
#
# Stress axis : x y z
#
# Youngs Moduli (GPa) = 83.14247 21.31629 112.67116
#
# Poissons Ratio (x) = 0.25576 -0.01350
# Poissons Ratio (y) = 0.99756 0.08702
# Poissons Ratio (z) = -0.00996 0.01646
#
# Static dielectric constant tensor:
#      x y z
#    x 4.671310 0.000000 0.000000 
#    y 0.000000 4.067950 0.000000 
#    z 0.000000 0.000000 5.073110 
# 
# 
# High freq. dielectric constant tensor:
#      x y z
#    x 1.955590 0.000000 0.000000 
#    y 0.000000 1.919980 0.000000 
#    z 0.000000 0.000000 1.972450 
# 
# From -- ./inp_files/1075.got.cif
#   From: 2010.03.12/outbox.cif.g09.slc.cpg/sg45_1_cif.got.tgz:1075.got - 2010.04.14 02:50:11.
