data_PCOD8191074
_publ_section_title
;
Structure prediction by ZEFSAII (Michael W. Deem and Ramdas Pophale) SiO2 
 PCOD8191074
Probable space group: I B A 2
;
_chemical_formula_sum "Si O2"
_cell_formula_units_Z 32
_cell_length_a 10.790882
_cell_length_b 14.413806
_cell_length_c 7.868310
_cell_angle_alpha 90.000000
_cell_angle_beta 90.000000
_cell_angle_gamma 90.000000
_cell_volume 1223.818681
_symmetry_space_group_name_H-M "I B A 2"
_symmetry_group_IT_number 45
_symmetry_cell_setting 'orthorhombic'
loop_
_space_group_symop_operation_xyz
x,y,z
-x,-y,z
-x,y,1/2+z
x,-y,1/2+z
1/2+x,1/2+y,1/2+z
1/2-x,1/2-y,1/2+z
1/2-x,1/2+y,z
1/2+x,1/2-y,z
loop_
_atom_site_type_symbol
_atom_site_label
_atom_site_fract_x
_atom_site_fract_y
_atom_site_fract_z
Si Si1 0.758394 0.121977 0.606710
Si Si2 0.483287 0.397194 0.816871
Si Si3 0.358098 0.026383 0.422620
Si Si4 0.193918 0.833230 0.101455
O O1 0.902065 0.096102 0.641609
O O2 0.664492 0.079518 0.747334
O O3 0.749892 0.231698 0.601322
O O4 0.718469 0.071069 0.431636
O O5 0.500000 0.500000 0.890345
O O6 0.616093 0.350379 0.775682
O O7 0.401807 0.336190 0.944231
O O8 0.305168 0.092408 0.575918
O O9 0.500000 0.000000 0.451543
#
# Coordination Sequence:
#
# PCOD8191074 Si02
#       4
#     8   8   8   8
#     4  11  27  45  75 112 148 205 249 316 388 453
#     4  11  24  48  76 108 153 196 261 318 373 461
#     4  11  26  49  72 109 158 198 250 318 388 461
#     4  11  27  45  77 113 149 204 255 314 388 456
#
# _framework density 26.147665
#
# number of rings (size 3 to 8) (size 9 to 14) (size 15 to 20)
#    0.000    1.000    2.500    1.500   10.500    6.000 
#    0.000    0.000    0.000    0.000    0.000    0.000 
#    0.000    0.000    0.000    0.000    0.000    0.000 
#
# Total GULP energy -198415.194010 kJ/mol
# GULP energy per Si atom -12400.949626 kJ/mol
# Density = 2.608815 g / cm^3
# Si number density = 26.147665 Si / 1000 Ang^3
#
#
#
# Elastic Constant Matrix: (Units=GPa)
#
#
# Indices 1 2 3 4 5 6 
#
# 1 185.6133 65.8736 24.5185 0.0000 0.0000 0.0000
# 2 65.8736 157.5277 -1.8040 0.0000 0.0000 0.0000
# 3 24.5185 -1.8040 16.3602 0.0000 0.0000 0.0000
# 4 0.0000 0.0000 0.0000 34.4563 0.0000 0.0000
# 5 0.0000 0.0000 0.0000 0.0000 43.4634 0.0000
# 6 0.0000 0.0000 0.0000 0.0000 0.0000 32.7401
#
#
#
# Elastic Compliance Matrix: (Units=1/GPa)
#
#
# Indices 1 2 3 4 5 6 
#
# 1 0.008405 -0.003664 -0.013000 0.000000 0.000000 0.000000
# 2 -0.003664 0.007953 0.006368 0.000000 0.000000 0.000000
# 3 -0.013000 0.006368 0.081309 0.000000 0.000000 0.000000
# 4 0.000000 0.000000 0.000000 0.029022 0.000000 0.000000
# 5 0.000000 0.000000 0.000000 0.000000 0.023008 0.000000
# 6 0.000000 0.000000 0.000000 0.000000 0.000000 0.030544
#
#
# Mechanical properties :
#
#
# Convention : Reuss Voigt Hill
#
# Bulk Modulus (GPa) = 12.97445 59.63082 36.30264
# Shear Modulus (GPa) = 22.07257 40.19285 31.13271
#
# Velocity S-wave (km/s) = 2.90858 3.92490 3.45432
# Velocity P-wave (km/s) = 4.03144 6.58747 5.46110
#
# Compressibility (1/GPa) = 0.07707455
#
# Stress axis : x y z
#
# Youngs Moduli (GPa) = 118.97628 125.73809 12.29871
#
# Poissons Ratio (x) = 0.46066 0.15989
# Poissons Ratio (y) = 0.43589 -0.07831
# Poissons Ratio (z) = 1.54673 -0.80064
#
# Static dielectric constant tensor:
#      x y z
#    x 4.817220 0.000000 0.000000 
#    y 0.000000 4.524960 0.000000 
#    z 0.000000 0.000000 5.080990 
# 
# 
# High freq. dielectric constant tensor:
#      x y z
#    x 2.059010 0.000000 0.000000 
#    y 0.000000 2.042010 0.000000 
#    z 0.000000 0.000000 2.067260 
# 
# From -- ./inp_files/1173.got.cif
#   From: 2010.03.12/outbox.cif.g09.slc.cpg/sg45_1_cif.got.tgz:1173.got - 2010.04.14 02:50:11.
