data_PCOD8191983
_publ_section_title
;
Structure prediction by ZEFSAII (Michael W. Deem and Ramdas Pophale) SiO2 
 PCOD8191983
Probable space group: I M A 2
;
_chemical_formula_sum "Si O2"
_cell_formula_units_Z 64
_cell_length_a 8.682042
_cell_length_b 33.582310
_cell_length_c 11.731372
_cell_angle_alpha 90.000000
_cell_angle_beta 90.000000
_cell_angle_gamma 90.000000
_cell_volume 3420.434318
_symmetry_space_group_name_H-M "I M A 2"
_symmetry_group_IT_number 46
_symmetry_cell_setting 'orthorhombic'
loop_
_space_group_symop_operation_xyz
x,y,z
-x,-y,z
1/2-x,y,z
1/2+x,-y,z
1/2+x,1/2+y,1/2+z
1/2-x,1/2-y,1/2+z
-x,1/2+y,1/2+z
x,1/2-y,1/2+z
loop_
_atom_site_type_symbol
_atom_site_label
_atom_site_fract_x
_atom_site_fract_y
_atom_site_fract_z
Si Si1 0.075578 0.681397 0.646340
Si Si2 0.430693 0.121837 0.568169
Si Si3 0.574989 0.384512 0.474327
Si Si4 0.427768 0.185411 0.385988
Si Si5 0.430060 0.330324 0.287330
Si Si6 0.069702 0.733135 0.435090
Si Si7 0.433120 0.957711 0.647578
Si Si8 0.932695 0.958796 0.895884
O O1 0.250000 0.692917 0.683320
O O2 0.071976 0.636812 0.596353
O O3 0.010703 0.711777 0.550630
O O4 0.963843 0.681772 0.753288
O O5 0.250000 0.113001 0.583470
O O6 0.468197 0.144003 0.449205
O O7 0.490208 0.151731 0.667618
O O8 0.518945 0.079425 0.567485
O O9 0.750000 0.387615 0.428653
O O10 0.471392 0.361382 0.384470
O O11 0.496002 0.427366 0.487666
O O12 0.250000 0.196044 0.403204
O O13 0.524996 0.220919 0.441835
O O14 0.250000 0.323462 0.280721
O O15 0.503340 0.287534 0.320132
O O16 0.250000 0.727031 0.428295
O O17 0.250000 0.961336 0.654225
O O18 0.502156 0.948189 0.771415
O O19 0.500000 0.000000 0.601562
O O20 0.750000 0.959716 0.891061
O O21 0.000000 0.000000 0.940120
#
# Coordination Sequence:
#
# PCOD8191983 Si02
#       8
#     8   8   8   8   8   8   8   8
#     4   9  21  40  58  79 108 145 186 229 277 332
#     4  10  22  38  55  83 118 149 188 237 285 338
#     4  10  19  34  55  80 109 143 183 225 274 329
#     4  11  24  39  58  83 112 147 189 236 282 335
#     4  10  19  33  55  81 110 144 183 226 277 333
#     4  10  22  39  58  81 111 145 187 235 282 332
#     4  11  21  34  56  83 116 154 189 232 286 344
#     4  11  20  31  50  80 116 149 182 224 276 333
#
# _framework density 18.711074
#
# number of rings (size 3 to 8) (size 9 to 14) (size 15 to 20)
#    0.000    1.750    1.250    5.250    1.750    4.500 
#    0.000    0.000    0.000    0.750    0.000    5.250 
#    0.000    0.000    0.000    0.000    0.000    0.000 
#
# Total GULP energy -396797.044158 kJ/mol
# GULP energy per Si atom -12399.907630 kJ/mol
# Density = 1.866849 g / cm^3
# Si number density = 18.711074 Si / 1000 Ang^3
#
#
#
# Elastic Constant Matrix: (Units=GPa)
#
#
# Indices 1 2 3 4 5 6 
#
# 1 74.0039 41.9316 30.1511 0.0011 0.0000 0.0001
# 2 41.9316 126.6850 40.1410 0.0054 0.0021 0.0011
# 3 30.1511 40.1410 81.0247 0.0134 0.0038 0.0023
# 4 0.0011 0.0054 0.0134 24.2075 0.0021 0.0012
# 5 0.0000 0.0021 0.0038 0.0021 24.1305 0.0012
# 6 0.0001 0.0011 0.0023 0.0012 0.0012 34.6343
#
#
#
# Elastic Compliance Matrix: (Units=1/GPa)
#
#
# Indices 1 2 3 4 5 6 
#
# 1 0.017870 -0.004517 -0.004412 0.000003 0.000001 0.000000
# 2 -0.004517 0.010505 -0.003524 0.000000 0.000000 0.000000
# 3 -0.004412 -0.003524 0.015729 -0.000008 -0.000002 -0.000001
# 4 0.000003 0.000000 -0.000008 0.041309 -0.000004 -0.000001
# 5 0.000001 0.000000 -0.000002 -0.000004 0.041441 -0.000001
# 6 0.000000 0.000000 -0.000001 -0.000001 -0.000001 0.028873
#
#
# Mechanical properties :
#
#
# Convention : Reuss Voigt Hill
#
# Bulk Modulus (GPa) = 52.08506 56.24009 54.16258
# Shear Modulus (GPa) = 26.73334 27.89380 27.31357
#
# Velocity S-wave (km/s) = 3.78397 3.86523 3.82482
# Velocity P-wave (km/s) = 6.85479 7.07406 6.96529
#
# Compressibility (1/GPa) = 0.01919936
#
# Stress axis : x y z
#
# Youngs Moduli (GPa) = 55.96098 95.19224 63.57527
#
# Poissons Ratio (x) = 0.42995 0.28050
# Poissons Ratio (y) = 0.25276 0.22401
# Poissons Ratio (z) = 0.24690 0.33542
#
# Static dielectric constant tensor:
#      x y z
#    x 3.462320 0.000000 0.000000 
#    y 0.000000 3.689460 0.000000 
#    z 0.000000 0.000000 3.227380 
# 
# 
# High freq. dielectric constant tensor:
#      x y z
#    x 1.736400 0.000000 0.000000 
#    y 0.000000 1.735390 0.000000 
#    z 0.000000 0.000000 1.691530 
# 
# From -- ./inp_files/9783.got.cif
#   From: 2010.03.12/outbox.cif.g09.slc.cpg/sg46_5_cif.got.tgz:9783.got - 2010.04.14 02:56:35.
