data_PCOD8191002
_publ_section_title
;
Structure prediction by ZEFSAII (Michael W. Deem and Ramdas Pophale) SiO2 
 PCOD8191002
Probable space group: I B A 2
;
_chemical_formula_sum "Si O2"
_cell_formula_units_Z 56
_cell_length_a 15.020318
_cell_length_b 11.868153
_cell_length_c 13.694694
_cell_angle_alpha 90.000000
_cell_angle_beta 90.000000
_cell_angle_gamma 90.000000
_cell_volume 2441.263154
_symmetry_space_group_name_H-M "I B A 2"
_symmetry_group_IT_number 45
_symmetry_cell_setting 'orthorhombic'
loop_
_space_group_symop_operation_xyz
x,y,z
-x,-y,z
-x,y,1/2+z
x,-y,1/2+z
1/2+x,1/2+y,1/2+z
1/2-x,1/2-y,1/2+z
1/2-x,1/2+y,z
1/2+x,1/2-y,z
loop_
_atom_site_type_symbol
_atom_site_label
_atom_site_fract_x
_atom_site_fract_y
_atom_site_fract_z
Si Si1 0.265577 0.092425 0.395690
Si Si2 0.408585 0.447010 0.353775
Si Si3 0.697881 0.893693 0.182755
Si Si4 0.348700 0.293967 0.032118
Si Si5 0.384235 0.510846 0.142519
Si Si6 0.404156 0.947518 0.050219
Si Si7 0.454200 0.702994 0.015837
O O1 0.318265 0.127032 0.297586
O O2 0.227738 0.206810 0.448398
O O3 0.336570 0.023962 0.461753
O O4 0.180994 0.014017 0.374641
O O5 0.500000 0.500000 0.397603
O O6 0.421283 0.440795 0.236277
O O7 0.404047 0.328804 0.413828
O O8 0.673307 0.782490 0.123980
O O9 0.802076 0.911531 0.170899
O O10 0.636888 0.998771 0.148562
O O11 0.349251 0.424651 0.062577
O O12 0.444893 0.260561 0.990180
O O13 0.455620 0.598696 0.094309
O O14 0.407323 0.812295 0.062894
O O15 0.500000 0.000000 0.026552
#
# Coordination Sequence:
#
# PCOD8191002 Si02
#       7
#     8   8   8   8   8   8   8
#     4  11  25  46  75 106 146 198 250 311 379 452
#     4  11  21  42  71 111 147 180 244 307 380 442
#     4  11  26  48  69 106 145 200 251 300 376 455
#     4  12  22  46  74 104 148 185 247 320 377 443
#     4  11  24  42  72 107 145 186 246 311 373 447
#     4  12  26  50  70 102 156 207 251 310 371 470
#     4  12  23  43  76 105 148 196 243 314 386 445
#
# _framework density 22.938945
#
# number of rings (size 3 to 8) (size 9 to 14) (size 15 to 20)
#    0.000    0.571    5.714    2.143    2.000    0.571 
#    2.571    0.000    0.000    0.000    0.000    0.000 
#    0.000    0.000    0.000    0.000    0.000    0.000 
#
# Total GULP energy -347084.227290 kJ/mol
# GULP energy per Si atom -12395.865260 kJ/mol
# Density = 2.288674 g / cm^3
# Si number density = 22.938945 Si / 1000 Ang^3
#
#
#
# Elastic Constant Matrix: (Units=GPa)
#
#
# Indices 1 2 3 4 5 6 
#
# 1 122.1549 23.9441 58.0591 0.0000 0.0000 0.0000
# 2 23.9441 113.6299 58.2734 0.0000 0.0000 0.0000
# 3 58.0591 58.2734 170.4524 0.0000 0.0000 0.0000
# 4 0.0000 0.0000 0.0000 36.1796 0.0000 0.0000
# 5 0.0000 0.0000 0.0000 0.0000 35.4039 0.0000
# 6 0.0000 0.0000 0.0000 0.0000 0.0000 35.1179
#
#
#
# Elastic Compliance Matrix: (Units=1/GPa)
#
#
# Indices 1 2 3 4 5 6 
#
# 1 0.009785 -0.000428 -0.003187 0.000000 0.000000 0.000000
# 2 -0.000428 0.010690 -0.003509 0.000000 0.000000 0.000000
# 3 -0.003187 -0.003509 0.008152 0.000000 0.000000 0.000000
# 4 0.000000 0.000000 0.000000 0.027640 0.000000 0.000000
# 5 0.000000 0.000000 0.000000 0.000000 0.028245 0.000000
# 6 0.000000 0.000000 0.000000 0.000000 0.000000 0.028476
#
#
# Mechanical properties :
#
#
# Convention : Reuss Voigt Hill
#
# Bulk Modulus (GPa) = 69.54059 76.31004 72.92531
# Shear Modulus (GPa) = 37.87087 39.07100 38.47094
#
# Velocity S-wave (km/s) = 4.06759 4.13153 4.09969
# Velocity P-wave (km/s) = 7.24166 7.48988 7.36681
#
# Compressibility (1/GPa) = 0.01438009
#
# Stress axis : x y z
#
# Youngs Moduli (GPa) = 102.20007 93.54391 122.67187
#
# Poissons Ratio (x) = 0.04000 0.39091
# Poissons Ratio (y) = 0.04370 0.43046
# Poissons Ratio (z) = 0.32568 0.32825
#
# Static dielectric constant tensor:
#      x y z
#    x 4.355440 0.000000 0.000000 
#    y 0.000000 3.907190 0.000000 
#    z 0.000000 0.000000 4.500650 
# 
# 
# High freq. dielectric constant tensor:
#      x y z
#    x 1.929390 0.000000 0.000000 
#    y 0.000000 1.886230 0.000000 
#    z 0.000000 0.000000 1.905580 
# 
# From -- ./inp_files/6516.got.cif
#   From: 2010.03.12/outbox.cif.g09.slc.cpg/sg45_4_cif.got.tgz:6516.got - 2010.04.14 02:50:11.
