data_PCOD8191675
_publ_section_title
;
Structure prediction by ZEFSAII (Michael W. Deem and Ramdas Pophale) SiO2 
 PCOD8191675
Probable space group: I M A 2
;
_chemical_formula_sum "Si O2"
_cell_formula_units_Z 64
_cell_length_a 9.336135
_cell_length_b 14.433272
_cell_length_c 27.454318
_cell_angle_alpha 90.000000
_cell_angle_beta 90.000000
_cell_angle_gamma 90.000000
_cell_volume 3699.496143
_symmetry_space_group_name_H-M "I M A 2"
_symmetry_group_IT_number 46
_symmetry_cell_setting 'orthorhombic'
loop_
_space_group_symop_operation_xyz
x,y,z
-x,-y,z
1/2-x,y,z
1/2+x,-y,z
1/2+x,1/2+y,1/2+z
1/2-x,1/2-y,1/2+z
-x,1/2+y,1/2+z
x,1/2-y,1/2+z
loop_
_atom_site_type_symbol
_atom_site_label
_atom_site_fract_x
_atom_site_fract_y
_atom_site_fract_z
Si Si1 0.581432 0.587609 0.985540
Si Si2 0.082223 0.212326 0.023128
Si Si3 0.915031 0.090375 0.208987
Si Si4 0.093167 0.149582 0.382769
Si Si5 0.418959 0.587267 0.331954
Si Si6 0.092877 0.356492 0.419690
Si Si7 0.418833 0.593750 0.597584
Si Si8 0.083605 0.712704 0.797422
O O1 0.500000 0.500000 0.009471
O O2 0.750000 0.572067 0.989633
O O3 0.533456 0.591991 0.928707
O O4 0.537466 0.681350 0.013478
O O5 0.250000 0.205496 0.036563
O O6 0.983598 0.178241 0.067141
O O7 0.048181 0.147277 0.976405
O O8 0.750000 0.064291 0.214785
O O9 0.951303 0.118282 0.153774
O O10 0.955795 0.177422 0.243375
O O11 0.000000 0.000000 0.225979
O O12 0.250000 0.112821 0.366874
O O13 0.108553 0.253282 0.401063
O O14 0.989525 0.144073 0.336408
O O15 0.500000 0.500000 0.306875
O O16 0.250000 0.571109 0.330520
O O17 0.472136 0.591461 0.388221
O O18 0.465667 0.680271 0.303006
O O19 0.250000 0.404760 0.413643
O O20 0.500000 0.500000 0.582421
O O21 0.250000 0.582305 0.587443
O O22 0.250000 0.706169 0.808854
#
# Coordination Sequence:
#
# PCOD8191675 Si02
#       8
#     8   8   8   8   8   8   8   8
#     4   9  18  31  47  69  99 133 164 196 233 274
#     4   9  18  33  51  71  97 127 160 199 239 280
#     4   9  19  35  52  72  96 120 150 190 237 286
#     4   8  15  28  44  64  91 122 156 191 226 265
#     4  10  19  30  46  68  95 127 160 194 229 269
#     4   8  15  29  46  63  88 122 156 190 227 267
#     4  10  20  34  53  74  95 121 153 193 242 292
#     4   9  18  32  49  69  94 124 157 193 233 277
#
# _framework density 17.299652999999999
#
# number of rings (size 3 to 8) (size 9 to 14) (size 15 to 20)
#    0.000    3.000    0.000    2.250    0.000    4.000 
#    0.000    5.000    0.000    0.750    0.000    3.500 
#    0.000    0.000    0.000    0.000    0.000    0.000 
#
# Total GULP energy -396627.583759 kJ/mol
# GULP energy per Si atom -12394.611992 kJ/mol
# Density = 1.726028 g / cm^3
# Si number density = 17.299653 Si / 1000 Ang^3
#
#
#
# Elastic Constant Matrix: (Units=GPa)
#
#
# Indices 1 2 3 4 5 6 
#
# 1 73.0711 53.1527 46.0287 0.0000 0.0000 0.0000
# 2 53.1527 104.0811 54.7268 0.0000 0.0000 0.0000
# 3 46.0287 54.7268 89.1762 0.0000 0.0000 0.0000
# 4 0.0000 0.0000 0.0000 23.1901 0.0000 0.0000
# 5 0.0000 0.0000 0.0000 0.0000 22.5533 0.0000
# 6 0.0000 0.0000 0.0000 0.0000 0.0000 28.5208
#
#
#
# Elastic Compliance Matrix: (Units=1/GPa)
#
#
# Indices 1 2 3 4 5 6 
#
# 1 0.024683 -0.008720 -0.007389 0.000000 0.000000 0.000000
# 2 -0.008720 0.017266 -0.006095 0.000000 0.000000 0.000000
# 3 -0.007389 -0.006095 0.018768 0.000000 0.000000 0.000000
# 4 0.000000 0.000000 0.000000 0.043122 0.000000 0.000000
# 5 0.000000 0.000000 0.000000 0.000000 0.044339 0.000000
# 6 0.000000 0.000000 0.000000 0.000000 0.000000 0.035062
#
#
# Mechanical properties :
#
#
# Convention : Reuss Voigt Hill
#
# Bulk Modulus (GPa) = 61.31593 63.79387 62.55490
# Shear Modulus (GPa) = 21.45154 22.34752 21.89953
#
# Velocity S-wave (km/s) = 3.52518 3.59805 3.56180
# Velocity P-wave (km/s) = 7.21731 7.36323 7.29063
#
# Compressibility (1/GPa) = 0.01630897
#
# Stress axis : x y z
#
# Youngs Moduli (GPa) = 40.51453 57.91750 53.28235
#
# Poissons Ratio (x) = 0.50504 0.39368
# Poissons Ratio (y) = 0.35329 0.32476
# Poissons Ratio (z) = 0.29934 0.35301
#
# Static dielectric constant tensor:
#      x y z
#    x 3.325950 0.000000 0.000000 
#    y 0.000000 3.263170 0.000000 
#    z 0.000000 0.000000 3.199940 
# 
# 
# High freq. dielectric constant tensor:
#      x y z
#    x 1.670100 0.000000 0.000000 
#    y 0.000000 1.661660 0.000000 
#    z 0.000000 0.000000 1.643640 
# 
# From -- ./inp_files/25305.got.cif
#   From: 2010.03.12/outbox.cif.g09.slc.cpg/sg46_13_cif.got.tgz:25305.got - 2010.04.14 02:56:35.
