data_PCOD8191823
_publ_section_title
;
Structure prediction by ZEFSAII (Michael W. Deem and Ramdas Pophale) SiO2 
 PCOD8191823
Probable space group: I M A 2
;
_chemical_formula_sum "Si O2"
_cell_formula_units_Z 64
_cell_length_a 8.743977
_cell_length_b 19.501165
_cell_length_c 20.491361
_cell_angle_alpha 90.000000
_cell_angle_beta 90.000000
_cell_angle_gamma 90.000000
_cell_volume 3494.140531
_symmetry_space_group_name_H-M "I M A 2"
_symmetry_group_IT_number 46
_symmetry_cell_setting 'orthorhombic'
loop_
_space_group_symop_operation_xyz
x,y,z
-x,-y,z
1/2-x,y,z
1/2+x,-y,z
1/2+x,1/2+y,1/2+z
1/2-x,1/2-y,1/2+z
-x,1/2+y,1/2+z
x,1/2-y,1/2+z
loop_
_atom_site_type_symbol
_atom_site_label
_atom_site_fract_x
_atom_site_fract_y
_atom_site_fract_z
Si Si1 0.928289 0.203303 0.986490
Si Si2 0.428148 0.568628 0.906062
Si Si3 0.572674 0.284975 0.857245
Si Si4 0.069707 0.929481 0.797643
Si Si5 0.073543 0.200942 0.744881
Si Si6 0.074999 0.213662 0.598700
Si Si7 0.427764 0.431509 0.046255
Si Si8 0.069116 0.071004 0.938673
O O1 0.750000 0.186110 0.983948
O O2 0.977803 0.250279 0.925299
O O3 0.022571 0.132517 0.986613
O O4 0.964453 0.242099 0.053480
O O5 0.500000 0.500000 0.873777
O O6 0.250000 0.556907 0.916627
O O7 0.459688 0.633781 0.860053
O O8 0.501103 0.583292 0.975923
O O9 0.750000 0.269022 0.843266
O O10 0.472107 0.256742 0.798411
O O11 0.250000 0.937310 0.804471
O O12 0.027786 0.867521 0.749953
O O13 0.999930 0.912009 0.868042
O O14 0.000000 0.000000 0.769685
O O15 0.250000 0.180457 0.754212
O O16 0.045425 0.234017 0.673787
O O17 0.250000 0.227861 0.577772
O O18 0.037135 0.132950 0.592311
O O19 0.500000 0.500000 0.078267
O O20 0.250000 0.444576 0.036988
O O21 0.250000 0.064211 0.933587
O O22 0.000000 0.000000 0.966073
#
# Coordination Sequence:
#
# PCOD8191823 Si02
#       8
#     8   8   8   8   8   8   8   8
#     4  11  21  36  59  85 113 146 187 232 281 331
#     4  10  19  33  53  81 111 139 177 224 272 324
#     4  10  21  36  56  82 112 143 184 232 277 334
#     4  11  21  35  54  79 112 149 190 231 276 333
#     4  11  23  38  56  80 112 150 191 233 281 334
#     4  10  23  39  54  79 113 149 190 232 277 334
#     4  10  19  32  51  75 108 144 182 222 265 319
#     4  11  21  35  57  85 115 146 183 230 281 331
#
# _framework density 18.316379000000001
#
# number of rings (size 3 to 8) (size 9 to 14) (size 15 to 20)
#    0.000    1.500    2.500    5.250    0.000    3.500 
#    0.000    1.250    0.000    0.750    0.000    1.750 
#    0.000    0.000    0.000    0.000    0.000    0.000 
#
# Total GULP energy -396898.229927 kJ/mol
# GULP energy per Si atom -12403.069685 kJ/mol
# Density = 1.827469 g / cm^3
# Si number density = 18.316379 Si / 1000 Ang^3
#
#
#
# Elastic Constant Matrix: (Units=GPa)
#
#
# Indices 1 2 3 4 5 6 
#
# 1 124.7887 52.1706 39.8863 0.0000 0.0000 0.0000
# 2 52.1706 108.2287 44.0335 0.0000 0.0000 0.0000
# 3 39.8863 44.0335 83.7754 0.0000 0.0000 0.0000
# 4 0.0000 0.0000 0.0000 22.3385 0.0000 0.0000
# 5 0.0000 0.0000 0.0000 0.0000 23.1737 0.0000
# 6 0.0000 0.0000 0.0000 0.0000 0.0000 35.0768
#
#
#
# Elastic Compliance Matrix: (Units=1/GPa)
#
#
# Indices 1 2 3 4 5 6 
#
# 1 0.010598 -0.003887 -0.003003 0.000000 0.000000 0.000000
# 2 -0.003887 0.013179 -0.005076 0.000000 0.000000 0.000000
# 3 -0.003003 -0.005076 0.016035 0.000000 0.000000 0.000000
# 4 0.000000 0.000000 0.000000 0.044766 0.000000 0.000000
# 5 0.000000 0.000000 0.000000 0.000000 0.043152 0.000000
# 6 0.000000 0.000000 0.000000 0.000000 0.000000 0.028509
#
#
# Mechanical properties :
#
#
# Convention : Reuss Voigt Hill
#
# Bulk Modulus (GPa) = 62.97545 65.44150 64.20848
# Shear Modulus (GPa) = 26.95935 28.16462 27.56198
#
# Velocity S-wave (km/s) = 3.84066 3.92557 3.88335
# Velocity P-wave (km/s) = 7.35692 7.50685 7.43226
#
# Compressibility (1/GPa) = 0.01587920
#
# Stress axis : x y z
#
# Youngs Moduli (GPa) = 94.35324 75.87974 62.36546
#
# Poissons Ratio (x) = 0.29495 0.18728
# Poissons Ratio (y) = 0.36676 0.31658
# Poissons Ratio (z) = 0.28333 0.38518
#
# Static dielectric constant tensor:
#      x y z
#    x 3.453510 0.000000 0.000000 
#    y 0.000000 3.554940 0.000000 
#    z 0.000000 0.000000 3.062500 
# 
# 
# High freq. dielectric constant tensor:
#      x y z
#    x 1.724480 0.000000 0.000000 
#    y 0.000000 1.717120 0.000000 
#    z 0.000000 0.000000 1.676360 
# 
# From -- ./inp_files/18548.got.cif
#   From: 2010.03.12/outbox.cif.g09.slc.cpg/sg46_10_cif.got.tgz:18548.got - 2010.04.14 02:56:35.
