data_PCOD8191765
_publ_section_title
;
Structure prediction by ZEFSAII (Michael W. Deem and Ramdas Pophale) SiO2 
 PCOD8191765
Probable space group: I M A 2
;
_chemical_formula_sum "Si O2"
_cell_formula_units_Z 64
_cell_length_a 14.320805
_cell_length_b 18.225022
_cell_length_c 12.338323
_cell_angle_alpha 90.000000
_cell_angle_beta 90.000000
_cell_angle_gamma 90.000000
_cell_volume 3220.265118
_symmetry_space_group_name_H-M "I M A 2"
_symmetry_group_IT_number 46
_symmetry_cell_setting 'orthorhombic'
loop_
_space_group_symop_operation_xyz
x,y,z
-x,-y,z
1/2-x,y,z
1/2+x,-y,z
1/2+x,1/2+y,1/2+z
1/2-x,1/2-y,1/2+z
-x,1/2+y,1/2+z
x,1/2-y,1/2+z
loop_
_atom_site_type_symbol
_atom_site_label
_atom_site_fract_x
_atom_site_fract_y
_atom_site_fract_z
Si Si1 0.356161 0.816449 0.199540
Si Si2 0.963692 0.196128 0.413925
Si Si3 0.050675 0.635869 0.488351
Si Si4 0.361685 0.954362 0.799617
Si Si5 0.355781 0.653248 0.116597
Si Si6 0.643684 0.885558 0.741764
Si Si7 0.148924 0.155456 0.974683
Si Si8 0.646216 0.681787 0.020670
O O1 0.250000 0.838590 0.228884
O O2 0.424209 0.831056 0.300058
O O3 0.362448 0.731559 0.172528
O O4 0.389981 0.864757 0.098235
O O5 0.949773 0.283337 0.432816
O O6 0.910129 0.150119 0.504777
O O7 0.072373 0.170592 0.423103
O O8 0.095533 0.575872 0.410558
O O9 0.942901 0.612256 0.516229
O O10 0.250000 0.950934 0.810469
O O11 0.398822 0.905142 0.700469
O O12 0.400499 0.036409 0.777728
O O13 0.250000 0.632083 0.089439
O O14 0.750000 0.899802 0.709924
O O15 0.634028 0.830906 0.844450
O O16 0.600612 0.850706 0.632037
O O17 0.250000 0.113574 0.990724
O O18 0.155164 0.231263 0.039324
O O19 0.750000 0.650023 0.991970
#
# Coordination Sequence:
#
# PCOD8191765 Si02
#       8
#     8   8   8   8   8   8   8   8
#     4  10  19  32  50  76 113 152 189 231 281 336
#     4  10  19  31  51  76 111 147 196 233 275 335
#     4  10  20  31  51  80 113 150 192 229 282 341
#     4  10  19  33  53  83 118 145 180 230 289 344
#     4   9  18  30  48  77 112 147 181 226 280 334
#     4   9  19  35  55  82 112 144 183 238 296 343
#     4   9  19  34  52  76 108 143 184 234 285 333
#     4   9  19  34  52  76 108 144 189 242 295 333
#
# _framework density 19.874140000000001
#
# number of rings (size 3 to 8) (size 9 to 14) (size 15 to 20)
#    0.000    2.500    1.250    0.750    1.750    4.500 
#    0.000    1.875    0.000    0.000    9.750    0.000 
#    0.000    0.000    0.000    0.000    0.000    0.000 
#
# Total GULP energy -396515.340814 kJ/mol
# GULP energy per Si atom -12391.104400 kJ/mol
# Density = 1.982891 g / cm^3
# Si number density = 19.874140 Si / 1000 Ang^3
#
#
#
# Elastic Constant Matrix: (Units=GPa)
#
#
# Indices 1 2 3 4 5 6 
#
# 1 102.0656 19.7677 54.7770 0.0000 0.0000 0.0000
# 2 19.7677 68.1590 50.8637 0.0000 0.0000 0.0000
# 3 54.7770 50.8637 118.9179 0.0000 0.0000 0.0000
# 4 0.0000 0.0000 0.0000 29.8592 0.0000 0.0000
# 5 0.0000 0.0000 0.0000 0.0000 35.1005 0.0000
# 6 0.0000 0.0000 0.0000 0.0000 0.0000 14.6693
#
#
#
# Elastic Compliance Matrix: (Units=1/GPa)
#
#
# Indices 1 2 3 4 5 6 
#
# 1 0.013064 0.001031 -0.006459 0.000000 0.000000 0.000000
# 2 0.001031 0.021631 -0.009727 0.000000 0.000000 0.000000
# 3 -0.006459 -0.009727 0.015545 0.000000 0.000000 0.000000
# 4 0.000000 0.000000 0.000000 0.033491 0.000000 0.000000
# 5 0.000000 0.000000 0.000000 0.000000 0.028490 0.000000
# 6 0.000000 0.000000 0.000000 0.000000 0.000000 0.068170
#
#
# Mechanical properties :
#
#
# Convention : Reuss Voigt Hill
#
# Bulk Modulus (GPa) = 50.17415 59.99547 55.08481
# Shear Modulus (GPa) = 23.00508 26.84142 24.92325
#
# Velocity S-wave (km/s) = 3.40595 3.67900 3.54510
# Velocity P-wave (km/s) = 6.38499 6.94982 6.67338
#
# Compressibility (1/GPa) = 0.01993058
#
# Stress axis : x y z
#
# Youngs Moduli (GPa) = 76.54474 46.22909 64.33063
#
# Poissons Ratio (x) = -0.04766 0.41549
# Poissons Ratio (y) = -0.07891 0.62575
# Poissons Ratio (z) = 0.49438 0.44967
#
# Static dielectric constant tensor:
#      x y z
#    x 4.044010 0.000000 0.000000 
#    y 0.000000 3.341040 0.000000 
#    z 0.000000 0.000000 3.517170 
# 
# 
# High freq. dielectric constant tensor:
#      x y z
#    x 1.800090 0.000000 0.000000 
#    y 0.000000 1.726900 0.000000 
#    z 0.000000 0.000000 1.759810 
# 
# From -- ./inp_files/11346.got.cif
#   From: 2010.03.12/outbox.cif.g09.slc.cpg/sg46_6_cif.got.tgz:11346.got - 2010.04.14 02:56:35.
