data_PCOD8191800
_publ_section_title
;
Structure prediction by ZEFSAII (Michael W. Deem and Ramdas Pophale) SiO2 
 PCOD8191800
Probable space group: I M A 2
;
_chemical_formula_sum "Si O2"
_cell_formula_units_Z 64
_cell_length_a 8.992465
_cell_length_b 23.233070
_cell_length_c 18.870924
_cell_angle_alpha 90.000000
_cell_angle_beta 90.000000
_cell_angle_gamma 90.000000
_cell_volume 3942.561918
_symmetry_space_group_name_H-M "I M A 2"
_symmetry_group_IT_number 46
_symmetry_cell_setting 'orthorhombic'
loop_
_space_group_symop_operation_xyz
x,y,z
-x,-y,z
1/2-x,y,z
1/2+x,-y,z
1/2+x,1/2+y,1/2+z
1/2-x,1/2-y,1/2+z
-x,1/2+y,1/2+z
x,1/2-y,1/2+z
loop_
_atom_site_type_symbol
_atom_site_label
_atom_site_fract_x
_atom_site_fract_y
_atom_site_fract_z
Si Si1 0.076156 0.059973 0.420120
Si Si2 0.920866 0.838010 0.521993
Si Si3 0.574213 0.740031 0.776361
Si Si4 0.424222 0.940415 0.138411
Si Si5 0.924586 0.332749 0.550738
Si Si6 0.925515 0.117172 0.285476
Si Si7 0.421877 0.271613 0.432028
Si Si8 0.424576 0.721763 0.141212
O O1 0.250000 0.051509 0.403995
O O2 0.049981 0.099677 0.488607
O O3 0.002157 0.088347 0.352187
O O4 0.000000 0.000000 0.438234
O O5 0.750000 0.830355 0.544806
O O6 0.965491 0.790789 0.463106
O O7 0.023327 0.831035 0.591468
O O8 0.750000 0.729262 0.770056
O O9 0.490394 0.679761 0.770880
O O10 0.533725 0.771770 0.849718
O O11 0.514190 0.781605 0.714696
O O12 0.250000 0.947702 0.128551
O O13 0.485468 0.891860 0.084383
O O14 0.462776 0.922764 0.218490
O O15 0.500000 0.000000 0.118270
O O16 0.750000 0.334999 0.541907
O O17 0.970357 0.281099 0.603038
O O18 0.992789 0.322495 0.473003
O O19 0.750000 0.122676 0.298113
O O20 0.250000 0.284342 0.442679
O O21 0.250000 0.717226 0.156103
#
# Coordination Sequence:
#
# PCOD8191800 Si02
#       8
#     8   8   8   8   8   8   8   8
#     4  11  22  36  51  72 101 135 175 211 248 296
#     4   9  18  34  50  69  98 130 166 207 248 293
#     4  11  20  32  50  74 103 134 165 202 249 301
#     4  10  21  35  48  68  97 130 169 205 239 284
#     4   9  18  33  48  68  97 126 160 205 246 284
#     4  11  21  34  49  69 101 137 174 211 243 286
#     4   9  18  32  49  71  96 125 164 201 242 297
#     4  10  19  32  50  73  99 127 165 206 249 299
#
# _framework density 16.2331
#
# number of rings (size 3 to 8) (size 9 to 14) (size 15 to 20)
#    0.000    2.000    2.500    1.875    0.000    5.000 
#    0.000    0.000    0.000    0.000    0.000    0.875 
#    0.000    6.000    0.000    0.000    0.000    0.000 
#
# Total GULP energy -396859.073128 kJ/mol
# GULP energy per Si atom -12401.846035 kJ/mol
# Density = 1.619615 g / cm^3
# Si number density = 16.233100 Si / 1000 Ang^3
#
#
#
# Elastic Constant Matrix: (Units=GPa)
#
#
# Indices 1 2 3 4 5 6 
#
# 1 67.1458 34.7739 48.6115 0.0000 0.0000 0.0000
# 2 34.7739 60.5093 39.8385 0.0000 0.0000 0.0000
# 3 48.6115 39.8385 105.1781 0.0000 0.0000 0.0000
# 4 0.0000 0.0000 0.0000 21.5871 0.0000 0.0000
# 5 0.0000 0.0000 0.0000 0.0000 29.6577 0.0000
# 6 0.0000 0.0000 0.0000 0.0000 0.0000 28.0130
#
#
#
# Elastic Compliance Matrix: (Units=1/GPa)
#
#
# Indices 1 2 3 4 5 6 
#
# 1 0.025783 -0.009288 -0.008399 0.000000 0.000000 0.000000
# 2 -0.009288 0.025363 -0.005314 0.000000 0.000000 0.000000
# 3 -0.008399 -0.005314 0.015402 0.000000 0.000000 0.000000
# 4 0.000000 0.000000 0.000000 0.046324 0.000000 0.000000
# 5 0.000000 0.000000 0.000000 0.000000 0.033718 0.000000
# 6 0.000000 0.000000 0.000000 0.000000 0.000000 0.035698
#
#
# Mechanical properties :
#
#
# Convention : Reuss Voigt Hill
#
# Bulk Modulus (GPa) = 48.66827 53.25344 50.96085
# Shear Modulus (GPa) = 21.26411 23.15884 22.21147
#
# Velocity S-wave (km/s) = 3.62321 3.78119 3.70304
# Velocity P-wave (km/s) = 6.89562 7.20693 7.05299
#
# Compressibility (1/GPa) = 0.02054727
#
# Stress axis : x y z
#
# Youngs Moduli (GPa) = 38.78469 39.42804 64.92585
#
# Poissons Ratio (x) = 0.36620 0.54529
# Poissons Ratio (y) = 0.36023 0.34502
# Poissons Ratio (z) = 0.32574 0.20952
#
# Static dielectric constant tensor:
#      x y z
#    x 3.116700 0.000000 0.000000 
#    y 0.000000 2.939320 0.000000 
#    z 0.000000 0.000000 3.162370 
# 
# 
# High freq. dielectric constant tensor:
#      x y z
#    x 1.633550 0.000000 0.000000 
#    y 0.000000 1.598350 0.000000 
#    z 0.000000 0.000000 1.620750 
# 
# From -- ./inp_files/18553.got.cif
#   From: 2010.03.12/outbox.cif.g09.slc.cpg/sg46_10_cif.got.tgz:18553.got - 2010.04.14 02:56:35.
