data_PCOD8191616
_publ_section_title
;
Structure prediction by ZEFSAII (Michael W. Deem and Ramdas Pophale) SiO2 
 PCOD8191616
Probable space group: I M A 2
;
_chemical_formula_sum "Si O2"
_cell_formula_units_Z 36
_cell_length_a 21.260699
_cell_length_b 8.149983
_cell_length_c 9.205752
_cell_angle_alpha 90.000000
_cell_angle_beta 90.000000
_cell_angle_gamma 90.000000
_cell_volume 1595.120560
_symmetry_space_group_name_H-M "I M A 2"
_symmetry_group_IT_number 46
_symmetry_cell_setting 'orthorhombic'
loop_
_space_group_symop_operation_xyz
x,y,z
-x,-y,z
1/2-x,y,z
1/2+x,-y,z
1/2+x,1/2+y,1/2+z
1/2-x,1/2-y,1/2+z
-x,1/2+y,1/2+z
x,1/2-y,1/2+z
loop_
_atom_site_type_symbol
_atom_site_label
_atom_site_fract_x
_atom_site_fract_y
_atom_site_fract_z
Si Si1 0.407620 0.679118 0.475020
Si Si2 0.677495 0.605847 0.533018
Si Si3 0.000000 0.500000 0.693431
Si Si4 0.610577 0.785535 0.294436
Si Si5 0.930753 0.050316 0.672604
O O1 0.343188 0.575266 0.481375
O O2 0.460016 0.610370 0.584172
O O3 0.396440 0.865024 0.532815
O O4 0.433024 0.678481 0.309783
O O5 0.750000 0.631714 0.495401
O O6 0.634907 0.748541 0.456864
O O7 0.663952 0.616700 0.704891
O O8 0.955161 0.613814 0.794928
O O9 0.606818 0.609182 0.218189
O O10 0.000000 0.000000 0.624512
#
# Coordination Sequence:
#
# PCOD8191616 Si02
#       5
#     8   8   4   8   8
#     4  10  22  37  59  88 126 163 205 262 320 383
#     4  10  22  43  62  87 125 174 222 265 316 383
#     4  10  18  36  60  96 128 156 210 262 332 388
#     4  10  22  37  64  95 125 166 212 267 327 386
#     4  11  21  38  58  93 126 160 198 258 328 388
#
# _framework density 22.568826000000001
#
# number of rings (size 3 to 8) (size 9 to 14) (size 15 to 20)
#    0.000    1.778    3.333    0.667    0.000    3.556 
#    4.000    5.556    0.000    0.000    0.000    0.000 
#    0.000    0.000    0.000    0.000    0.000    0.000 
#
# Total GULP energy -223140.603951 kJ/mol
# GULP energy per Si atom -12396.700219 kJ/mol
# Density = 2.251746 g / cm^3
# Si number density = 22.568826 Si / 1000 Ang^3
#
#
#
# Elastic Constant Matrix: (Units=GPa)
#
#
# Indices 1 2 3 4 5 6 
#
# 1 115.5424 25.9675 26.3557 0.0000 0.0000 0.0000
# 2 25.9675 79.7041 32.6405 0.0000 0.0000 0.0000
# 3 26.3557 32.6405 86.9553 0.0000 0.0000 0.0000
# 4 0.0000 0.0000 0.0000 39.1996 0.0000 0.0000
# 5 0.0000 0.0000 0.0000 0.0000 21.5782 0.0000
# 6 0.0000 0.0000 0.0000 0.0000 0.0000 27.2098
#
#
#
# Elastic Compliance Matrix: (Units=1/GPa)
#
#
# Indices 1 2 3 4 5 6 
#
# 1 0.009641 -0.002298 -0.002060 0.000000 0.000000 0.000000
# 2 -0.002298 0.015373 -0.005074 0.000000 0.000000 0.000000
# 3 -0.002060 -0.005074 0.014029 0.000000 0.000000 0.000000
# 4 0.000000 0.000000 0.000000 0.025510 0.000000 0.000000
# 5 0.000000 0.000000 0.000000 0.000000 0.046343 0.000000
# 6 0.000000 0.000000 0.000000 0.000000 0.000000 0.036752
#
#
# Mechanical properties :
#
#
# Convention : Reuss Voigt Hill
#
# Bulk Modulus (GPa) = 49.55342 50.23656 49.89499
# Shear Modulus (GPa) = 28.86208 30.74672 29.80440
#
# Velocity S-wave (km/s) = 3.57998 3.69501 3.63795
# Velocity P-wave (km/s) = 6.25240 6.36488 6.30889
#
# Compressibility (1/GPa) = 0.02018024
#
# Stress axis : x y z
#
# Youngs Moduli (GPa) = 103.72344 65.04949 71.28020
#
# Poissons Ratio (x) = 0.14945 0.14682
# Poissons Ratio (y) = 0.23831 0.36169
# Poissons Ratio (z) = 0.21364 0.33007
#
# Static dielectric constant tensor:
#      x y z
#    x 3.573480 0.000000 0.000000 
#    y 0.000000 4.358970 0.000000 
#    z 0.000000 0.000000 4.213130 
# 
# 
# High freq. dielectric constant tensor:
#      x y z
#    x 1.846290 0.000000 0.000000 
#    y 0.000000 1.896210 0.000000 
#    z 0.000000 0.000000 1.898790 
# 
# From -- ./inp_files/7148.got.cif
#   From: 2010.03.12/outbox.cif.g09.slc.cpg/sg46_4_cif.got.tgz:7148.got - 2010.04.14 02:56:35.
