data_PCOD8191114
_publ_section_title
;
Structure prediction by ZEFSAII (Michael W. Deem and Ramdas Pophale) SiO2 
 PCOD8191114
Probable space group: I B A 2
;
_chemical_formula_sum "Si O2"
_cell_formula_units_Z 48
_cell_length_a 8.467594
_cell_length_b 13.884837
_cell_length_c 16.640148
_cell_angle_alpha 90.000000
_cell_angle_beta 90.000000
_cell_angle_gamma 90.000000
_cell_volume 1956.401544
_symmetry_space_group_name_H-M "I B A 2"
_symmetry_group_IT_number 45
_symmetry_cell_setting 'orthorhombic'
loop_
_space_group_symop_operation_xyz
x,y,z
-x,-y,z
-x,y,1/2+z
x,-y,1/2+z
1/2+x,1/2+y,1/2+z
1/2-x,1/2-y,1/2+z
1/2-x,1/2+y,z
1/2+x,1/2-y,z
loop_
_atom_site_type_symbol
_atom_site_label
_atom_site_fract_x
_atom_site_fract_y
_atom_site_fract_z
Si Si1 0.147874 0.325128 0.487440
Si Si2 0.820771 0.804666 0.254901
Si Si3 0.170566 0.966307 0.394885
Si Si4 0.666976 0.610589 0.224446
Si Si5 0.336777 0.049026 0.146590
Si Si6 0.698681 0.156516 0.931641
O O1 0.286234 0.361479 0.427645
O O2 0.148701 0.395493 0.562666
O O3 0.207010 0.214762 0.503022
O O4 0.985190 0.320907 0.438888
O O5 0.798897 0.694337 0.226294
O O6 0.690770 0.869361 0.212070
O O7 0.787135 0.811390 0.349565
O O8 0.993901 0.841122 0.226806
O O9 0.184874 0.963529 0.298878
O O10 0.290081 0.041548 0.437159
O O11 0.000000 0.000000 0.423037
O O12 0.703113 0.537359 0.149414
O O13 0.500000 0.000000 0.169377
#
# Coordination Sequence:
#
# PCOD8191114 Si02
#       6
#     8   8   8   8   8   8
#     4  12  29  48  75 111 161 207 259 322 397 471
#     4  12  25  46  83 115 153 204 261 336 381 477
#     4  12  23  43  74 111 152 199 259 319 381 464
#     4  12  25  47  76 117 153 201 267 317 402 455
#     4  12  28  49  73 115 158 208 256 326 399 467
#     4  12  24  47  77 113 149 205 262 320 388 466
#
# _framework density 24.534839999999999
#
# number of rings (size 3 to 8) (size 9 to 14) (size 15 to 20)
#    0.000    0.000    5.000    5.000    2.333    5.333 
#    0.000    1.667    0.000    0.000    0.000    0.000 
#    0.000    0.000    0.000    0.000    0.000    0.000 
#
# Total GULP energy -297431.732935 kJ/mol
# GULP energy per Si atom -12392.988872 kJ/mol
# Density = 2.447900 g / cm^3
# Si number density = 24.534840 Si / 1000 Ang^3
#
#
#
# Elastic Constant Matrix: (Units=GPa)
#
#
# Indices 1 2 3 4 5 6 
#
# 1 153.7515 56.6730 32.9844 0.0000 0.0000 0.0000
# 2 56.6730 137.2851 35.1994 0.0000 0.0000 0.0000
# 3 32.9844 35.1994 45.6176 0.0000 0.0000 0.0000
# 4 0.0000 0.0000 0.0000 45.4661 0.0000 0.0000
# 5 0.0000 0.0000 0.0000 0.0000 25.3471 0.0000
# 6 0.0000 0.0000 0.0000 0.0000 0.0000 51.1804
#
#
#
# Elastic Compliance Matrix: (Units=1/GPa)
#
#
# Indices 1 2 3 4 5 6 
#
# 1 0.008261 -0.002342 -0.004166 0.000000 0.000000 0.000000
# 2 -0.002342 0.009745 -0.005826 0.000000 0.000000 0.000000
# 3 -0.004166 -0.005826 0.029429 0.000000 0.000000 0.000000
# 4 0.000000 0.000000 0.000000 0.021994 0.000000 0.000000
# 5 0.000000 0.000000 0.000000 0.000000 0.039452 0.000000
# 6 0.000000 0.000000 0.000000 0.000000 0.000000 0.019539
#
#
# Mechanical properties :
#
#
# Convention : Reuss Voigt Hill
#
# Bulk Modulus (GPa) = 43.92336 65.15200 54.53768
# Shear Modulus (GPa) = 31.11841 38.51853 34.81847
#
# Velocity S-wave (km/s) = 3.56523 3.96656 3.77124
# Velocity P-wave (km/s) = 5.90670 6.89860 6.42183
#
# Compressibility (1/GPa) = 0.02276693
#
# Stress axis : x y z
#
# Youngs Moduli (GPa) = 121.04993 102.62050 33.98023
#
# Poissons Ratio (x) = 0.24035 0.14156
# Poissons Ratio (y) = 0.28351 0.19796
# Poissons Ratio (z) = 0.50430 0.59783
#
# Static dielectric constant tensor:
#      x y z
#    x 4.381160 0.000000 0.000000 
#    y 0.000000 5.178510 0.000000 
#    z 0.000000 0.000000 4.151160 
# 
# 
# High freq. dielectric constant tensor:
#      x y z
#    x 1.979440 0.000000 0.000000 
#    y 0.000000 2.015590 0.000000 
#    z 0.000000 0.000000 1.947050 
# 
# From -- ./inp_files/7555.got.cif
#   From: 2010.03.12/outbox.cif.g09.slc.cpg/sg45_4_cif.got.tgz:7555.got - 2010.04.14 02:50:11.
