data_PCOD8191051
_publ_section_title
;
Structure prediction by ZEFSAII (Michael W. Deem and Ramdas Pophale) SiO2 
 PCOD8191051
Probable space group: I B A 2
;
_chemical_formula_sum "Si O2"
_cell_formula_units_Z 48
_cell_length_a 8.454542
_cell_length_b 27.361229
_cell_length_c 9.333806
_cell_angle_alpha 90.000000
_cell_angle_beta 90.000000
_cell_angle_gamma 90.000000
_cell_volume 2159.158165
_symmetry_space_group_name_H-M "I B A 2"
_symmetry_group_IT_number 45
_symmetry_cell_setting 'orthorhombic'
loop_
_space_group_symop_operation_xyz
x,y,z
-x,-y,z
-x,y,1/2+z
x,-y,1/2+z
1/2+x,1/2+y,1/2+z
1/2-x,1/2-y,1/2+z
1/2-x,1/2+y,z
1/2+x,1/2-y,z
loop_
_atom_site_type_symbol
_atom_site_label
_atom_site_fract_x
_atom_site_fract_y
_atom_site_fract_z
Si Si1 0.335944 0.566823 0.199430
Si Si2 0.197266 0.954649 0.201549
Si Si3 0.834672 0.210141 0.023390
Si Si4 0.177619 0.390377 0.967456
Si Si5 0.185680 0.607546 0.933180
Si Si6 0.344417 0.705706 0.856171
O O1 0.273046 0.511855 0.183197
O O2 0.521862 0.565004 0.165939
O O3 0.304936 0.587925 0.356596
O O4 0.242086 0.604486 0.097414
O O5 0.240355 0.941420 0.364374
O O6 0.320427 0.925697 0.103830
O O7 0.870111 0.222520 0.190803
O O8 0.717048 0.164636 0.012516
O O9 0.756183 0.256041 0.946775
O O10 0.991888 0.197331 0.937139
O O11 0.000980 0.391171 0.908415
O O12 0.252654 0.654838 0.853620
#
# Coordination Sequence:
#
# PCOD8191051 Si02
#       6
#     8   8   8   8   8   8
#     4  11  25  41  74  95 140 189 237 297 351 429
#     4  11  23  47  64 103 136 187 243 291 359 419
#     4  12  27  48  76 106 145 188 239 294 360 434
#     4  12  26  43  69 103 143 184 236 292 356 424
#     4  12  26  43  69 103 143 184 236 292 356 424
#     4  12  27  48  76 106 145 188 239 294 360 434
#
# _framework density 22.230885000000001
#
# number of rings (size 3 to 8) (size 9 to 14) (size 15 to 20)
#    0.000    0.333    1.667    7.000    4.667    6.667 
#    0.000    0.000    0.000    0.000    0.000    0.000 
#    0.000    0.000    0.000    0.000    0.000    0.000 
#
# Total GULP energy -297732.535700 kJ/mol
# GULP energy per Si atom -12405.522321 kJ/mol
# Density = 2.218029 g / cm^3
# Si number density = 22.230885 Si / 1000 Ang^3
#
#
#
# Elastic Constant Matrix: (Units=GPa)
#
#
# Indices 1 2 3 4 5 6 
#
# 1 95.9279 34.8250 31.0695 0.0007 -0.0007 0.0001
# 2 34.8250 87.4231 34.9932 0.0010 0.0012 0.0002
# 3 31.0695 34.9932 124.5195 0.0070 0.0040 0.0020
# 4 0.0007 0.0010 0.0070 42.8568 0.0001 0.0003
# 5 -0.0007 0.0012 0.0040 0.0001 36.4134 0.0000
# 6 0.0001 0.0002 0.0020 0.0003 0.0000 32.9061
#
#
#
# Elastic Compliance Matrix: (Units=1/GPa)
#
#
# Indices 1 2 3 4 5 6 
#
# 1 0.012594 -0.004236 -0.001952 0.000000 0.000001 0.000000
# 2 -0.004236 0.014313 -0.002965 0.000000 0.000000 0.000000
# 3 -0.001952 -0.002965 0.009351 -0.000001 -0.000001 -0.000001
# 4 0.000000 0.000000 -0.000001 0.023334 0.000000 0.000000
# 5 0.000001 0.000000 -0.000001 0.000000 0.027462 0.000000
# 6 0.000000 0.000000 -0.000001 0.000000 0.000000 0.030389
#
#
# Mechanical properties :
#
#
# Convention : Reuss Voigt Hill
#
# Bulk Modulus (GPa) = 55.70349 56.62732 56.16541
# Shear Modulus (GPa) = 35.27722 36.23412 35.75567
#
# Velocity S-wave (km/s) = 3.98786 4.04158 4.01481
# Velocity P-wave (km/s) = 6.80553 6.87800 6.84186
#
# Compressibility (1/GPa) = 0.01795220
#
# Stress axis : x y z
#
# Youngs Moduli (GPa) = 79.40017 69.86725 106.93651
#
# Poissons Ratio (x) = 0.29593 0.20876
# Poissons Ratio (y) = 0.33631 0.31711
# Poissons Ratio (z) = 0.15500 0.20719
#
# Static dielectric constant tensor:
#      x y z
#    x 4.029280 0.000000 0.000000 
#    y 0.000000 4.019320 0.000000 
#    z 0.000000 0.000000 4.077690 
# 
# 
# High freq. dielectric constant tensor:
#      x y z
#    x 1.880890 0.000000 0.000000 
#    y 0.000000 1.884260 0.000000 
#    z 0.000000 0.000000 1.891680 
# 
# From -- ./inp_files/1049.got.cif
#   From: 2010.03.12/outbox.cif.g09.slc.cpg/sg45_1_cif.got.tgz:1049.got - 2010.04.14 02:50:11.
