data_PCOD8191904
_publ_section_title
;
Structure prediction by ZEFSAII (Michael W. Deem and Ramdas Pophale) SiO2 
 PCOD8191904
Probable space group: I M A 2
;
_chemical_formula_sum "Si O2"
_cell_formula_units_Z 64
_cell_length_a 8.588636
_cell_length_b 23.415192
_cell_length_c 19.003770
_cell_angle_alpha 90.000000
_cell_angle_beta 90.000000
_cell_angle_gamma 90.000000
_cell_volume 3821.744822
_symmetry_space_group_name_H-M "I M A 2"
_symmetry_group_IT_number 46
_symmetry_cell_setting 'orthorhombic'
loop_
_space_group_symop_operation_xyz
x,y,z
-x,-y,z
1/2-x,y,z
1/2+x,-y,z
1/2+x,1/2+y,1/2+z
1/2-x,1/2-y,1/2+z
-x,1/2+y,1/2+z
x,1/2-y,1/2+z
loop_
_atom_site_type_symbol
_atom_site_label
_atom_site_fract_x
_atom_site_fract_y
_atom_site_fract_z
Si Si1 0.431112 0.246447 0.024200
Si Si2 0.066627 0.937187 0.873308
Si Si3 0.066626 0.777678 0.666177
Si Si4 0.933749 0.166664 0.246455
Si Si5 0.933741 0.061377 0.161850
Si Si6 0.067005 0.767087 0.379046
Si Si7 0.567339 0.836171 0.792940
Si Si8 0.432235 0.878653 0.019822
O O1 0.250000 0.252287 0.038616
O O2 0.520934 0.281456 0.084644
O O3 0.474218 0.276564 0.950821
O O4 0.476546 0.180367 0.021775
O O5 0.250000 0.937216 0.860201
O O6 0.023855 0.912572 0.949784
O O7 0.982237 0.899921 0.813653
O O8 0.000000 0.000000 0.867101
O O9 0.250000 0.785758 0.675942
O O10 0.006323 0.716405 0.694620
O O11 0.980168 0.826419 0.711592
O O12 0.750000 0.165330 0.239766
O O13 0.000812 0.105974 0.220139
O O14 0.982168 0.181147 0.326660
O O15 0.750000 0.057699 0.165673
O O16 0.987006 0.082042 0.084728
O O17 0.000000 0.000000 0.180212
O O18 0.250000 0.766730 0.394983
O O19 0.025832 0.706872 0.343515
O O20 0.750000 0.826942 0.803761
O O21 0.250000 0.864003 0.024826
#
# Coordination Sequence:
#
# PCOD8191904 Si02
#       8
#     8   8   8   8   8   8   8   8
#     4  12  22  31  49  78 106 133 167 214 263 305
#     4  11  22  35  52  73 101 143 184 217 257 303
#     4  10  19  35  55  72  98 136 171 207 255 314
#     4   8  16  31  51  70  93 128 170 207 243 294
#     4  10  19  33  49  71  98 134 174 212 249 291
#     4  10  19  33  52  72  97 136 174 207 255 312
#     4  11  21  34  51  77 105 130 168 218 261 306
#     4  10  20  34  50  67 100 143 180 209 246 303
#
# _framework density 16.746276000000002
#
# number of rings (size 3 to 8) (size 9 to 14) (size 15 to 20)
#    0.000    1.750    2.500    4.500    0.000    1.000 
#    0.000    1.250    0.000    0.000    0.000    0.875 
#    0.000    2.000    0.000    0.000    0.000    0.000 
#
# Total GULP energy -396833.357066 kJ/mol
# GULP energy per Si atom -12401.042408 kJ/mol
# Density = 1.670816 g / cm^3
# Si number density = 16.746276 Si / 1000 Ang^3
#
#
#
# Elastic Constant Matrix: (Units=GPa)
#
#
# Indices 1 2 3 4 5 6 
#
# 1 53.8962 28.2393 21.6275 0.0000 0.0000 0.0000
# 2 28.2393 97.9006 60.1890 0.0000 0.0000 0.0000
# 3 21.6275 60.1890 109.1477 0.0000 0.0000 0.0000
# 4 0.0000 0.0000 0.0000 18.9831 0.0000 0.0000
# 5 0.0000 0.0000 0.0000 0.0000 22.9102 0.0000
# 6 0.0000 0.0000 0.0000 0.0000 0.0000 24.9323
#
#
#
# Elastic Compliance Matrix: (Units=1/GPa)
#
#
# Indices 1 2 3 4 5 6 
#
# 1 0.021979 -0.005541 -0.001300 0.000000 0.000000 0.000000
# 2 -0.005541 0.016850 -0.008194 0.000000 0.000000 0.000000
# 3 -0.001300 -0.008194 0.013938 0.000000 0.000000 0.000000
# 4 0.000000 0.000000 0.000000 0.052678 0.000000 0.000000
# 5 0.000000 0.000000 0.000000 0.000000 0.043649 0.000000
# 6 0.000000 0.000000 0.000000 0.000000 0.000000 0.040109
#
#
# Mechanical properties :
#
#
# Convention : Reuss Voigt Hill
#
# Bulk Modulus (GPa) = 44.05653 53.45068 48.75361
# Shear Modulus (GPa) = 22.04214 23.42437 22.73325
#
# Velocity S-wave (km/s) = 3.63194 3.74409 3.68844
# Velocity P-wave (km/s) = 6.62973 7.11886 6.87864
#
# Compressibility (1/GPa) = 0.02269811
#
# Stress axis : x y z
#
# Youngs Moduli (GPa) = 45.49837 59.34565 71.74593
#
# Poissons Ratio (x) = 0.32882 0.09325
# Poissons Ratio (y) = 0.25209 0.58790
# Poissons Ratio (z) = 0.05913 0.48629
#
# Static dielectric constant tensor:
#      x y z
#    x 3.063240 0.000000 0.000000 
#    y 0.000000 3.276500 0.000000 
#    z 0.000000 0.000000 3.387540 
# 
# 
# High freq. dielectric constant tensor:
#      x y z
#    x 1.645570 0.000000 0.000000 
#    y 0.000000 1.618220 0.000000 
#    z 0.000000 0.000000 1.645290 
# 
# From -- ./inp_files/18657.got.cif
#   From: 2010.03.12/outbox.cif.g09.slc.cpg/sg46_10_cif.got.tgz:18657.got - 2010.04.14 02:56:35.
