data_PCOD8191795
_publ_section_title
;
Structure prediction by ZEFSAII (Michael W. Deem and Ramdas Pophale) SiO2 
 PCOD8191795
Probable space group: I M A 2
;
_chemical_formula_sum "Si O2"
_cell_formula_units_Z 64
_cell_length_a 8.806345
_cell_length_b 14.855263
_cell_length_c 27.442604
_cell_angle_alpha 90.000000
_cell_angle_beta 90.000000
_cell_angle_gamma 90.000000
_cell_volume 3590.057126
_symmetry_space_group_name_H-M "I M A 2"
_symmetry_group_IT_number 46
_symmetry_cell_setting 'orthorhombic'
loop_
_space_group_symop_operation_xyz
x,y,z
-x,-y,z
1/2-x,y,z
1/2+x,-y,z
1/2+x,1/2+y,1/2+z
1/2-x,1/2-y,1/2+z
-x,1/2+y,1/2+z
x,1/2-y,1/2+z
loop_
_atom_site_type_symbol
_atom_site_label
_atom_site_fract_x
_atom_site_fract_y
_atom_site_fract_z
Si Si1 0.570407 0.408309 0.346270
Si Si2 0.572312 0.218073 0.042743
Si Si3 0.926937 0.090241 0.956404
Si Si4 0.928259 0.408383 0.005899
Si Si5 0.930010 0.594786 0.621697
Si Si6 0.930058 0.220404 0.312139
Si Si7 0.931478 0.404918 0.725304
Si Si8 0.430074 0.592127 0.895922
O O1 0.500000 0.500000 0.324758
O O2 0.750000 0.416911 0.344323
O O3 0.513074 0.391541 0.401697
O O4 0.512913 0.323948 0.313732
O O5 0.750000 0.204974 0.054992
O O6 0.470869 0.173382 0.084242
O O7 0.531880 0.174209 0.990588
O O8 0.527698 0.323406 0.039610
O O9 0.750000 0.073164 0.955150
O O10 0.000000 0.000000 0.978594
O O11 0.750000 0.421925 0.005115
O O12 0.987446 0.389689 0.950974
O O13 0.000000 0.500000 0.027482
O O14 0.750000 0.584388 0.626341
O O15 0.000000 0.500000 0.603669
O O16 0.001113 0.622731 0.673280
O O17 0.750000 0.218331 0.313477
O O18 0.986976 0.171107 0.263312
O O19 0.991045 0.170619 0.360607
O O20 0.750000 0.412399 0.722181
O O21 0.000000 0.500000 0.742554
O O22 0.500000 0.500000 0.875788
O O23 0.250000 0.585347 0.893841
#
# Coordination Sequence:
#
# PCOD8191795 Si02
#       8
#     8   8   8   8   8   8   8   8
#     4   9  17  31  47  67  95 128 162 196 231 273
#     4  10  19  32  50  72  96 128 165 200 238 284
#     4   9  17  28  45  68  97 128 159 193 232 277
#     4   9  18  31  48  69  98 132 165 199 237 278
#     4  11  22  36  53  74  99 126 154 193 241 291
#     4   9  17  29  49  71  94 126 162 193 231 281
#     4  10  19  33  52  74  98 125 154 190 235 285
#     4   9  16  28  45  69  99 131 161 192 230 277
#
# _framework density 17.827013999999998
#
# number of rings (size 3 to 8) (size 9 to 14) (size 15 to 20)
#    0.000    2.500    0.000    3.750    0.000    5.000 
#    0.000    2.500    0.000    6.750    0.000    1.750 
#    0.000    0.000    0.000    0.000    0.000    0.000 
#
# Total GULP energy -396726.305679 kJ/mol
# GULP energy per Si atom -12397.697052 kJ/mol
# Density = 1.778644 g / cm^3
# Si number density = 17.827014 Si / 1000 Ang^3
#
#
#
# Elastic Constant Matrix: (Units=GPa)
#
#
# Indices 1 2 3 4 5 6 
#
# 1 48.9257 37.9330 30.4370 0.0000 0.0000 0.0000
# 2 37.9330 156.6600 68.2918 0.0000 0.0000 0.0000
# 3 30.4370 68.2918 80.8231 0.0000 0.0000 0.0000
# 4 0.0000 0.0000 0.0000 29.6454 0.0000 0.0000
# 5 0.0000 0.0000 0.0000 0.0000 18.9861 0.0000
# 6 0.0000 0.0000 0.0000 0.0000 0.0000 28.7996
#
#
#
# Elastic Compliance Matrix: (Units=1/GPa)
#
#
# Indices 1 2 3 4 5 6 
#
# 1 0.027812 -0.003433 -0.007573 0.000000 0.000000 0.000000
# 2 -0.003433 0.010529 -0.007604 0.000000 0.000000 0.000000
# 3 -0.007573 -0.007604 0.021649 0.000000 0.000000 0.000000
# 4 0.000000 0.000000 0.000000 0.033732 0.000000 0.000000
# 5 0.000000 0.000000 0.000000 0.000000 0.052670 0.000000
# 6 0.000000 0.000000 0.000000 0.000000 0.000000 0.034723
#
#
# Mechanical properties :
#
#
# Convention : Reuss Voigt Hill
#
# Bulk Modulus (GPa) = 43.91533 62.19248 53.05391
# Shear Modulus (GPa) = 22.13119 25.46936 23.80027
#
# Velocity S-wave (km/s) = 3.52723 3.78391 3.65782
# Velocity P-wave (km/s) = 6.42465 7.35207 6.90395
#
# Compressibility (1/GPa) = 0.02277109
#
# Stress axis : x y z
#
# Youngs Moduli (GPa) = 35.95566 94.97380 46.19059
#
# Poissons Ratio (x) = 0.32606 0.34979
# Poissons Ratio (y) = 0.12344 0.35123
# Poissons Ratio (z) = 0.27229 0.72217
#
# Static dielectric constant tensor:
#      x y z
#    x 3.139490 0.000000 0.000000 
#    y 0.000000 3.674780 0.000000 
#    z 0.000000 0.000000 3.262230 
# 
# 
# High freq. dielectric constant tensor:
#      x y z
#    x 1.673780 0.000000 0.000000 
#    y 0.000000 1.692680 0.000000 
#    z 0.000000 0.000000 1.668750 
# 
# From -- ./inp_files/25288.got.cif
#   From: 2010.03.12/outbox.cif.g09.slc.cpg/sg46_13_cif.got.tgz:25288.got - 2010.04.14 02:56:35.
