data_PCOD8191859
_publ_section_title
;
Structure prediction by ZEFSAII (Michael W. Deem and Ramdas Pophale) SiO2 
 PCOD8191859
Probable space group: I M A 2
;
_chemical_formula_sum "Si O2"
_cell_formula_units_Z 56
_cell_length_a 8.963973
_cell_length_b 23.796044
_cell_length_c 13.479264
_cell_angle_alpha 90.000000
_cell_angle_beta 90.000000
_cell_angle_gamma 90.000000
_cell_volume 2875.222659
_symmetry_space_group_name_H-M "I M A 2"
_symmetry_group_IT_number 46
_symmetry_cell_setting 'orthorhombic'
loop_
_space_group_symop_operation_xyz
x,y,z
-x,-y,z
1/2-x,y,z
1/2+x,-y,z
1/2+x,1/2+y,1/2+z
1/2-x,1/2-y,1/2+z
-x,1/2+y,1/2+z
x,1/2-y,1/2+z
loop_
_atom_site_type_symbol
_atom_site_label
_atom_site_fract_x
_atom_site_fract_y
_atom_site_fract_z
Si Si1 0.424533 0.556269 0.265680
Si Si2 0.074819 0.338573 0.793044
Si Si3 0.923511 0.769897 0.486971
Si Si4 0.921917 0.369001 0.086947
Si Si5 0.575049 0.056667 0.989492
Si Si6 0.923447 0.440207 0.895573
Si Si7 0.573662 0.171248 0.089485
O O1 0.500000 0.500000 0.224804
O O2 0.250000 0.545662 0.260896
O O3 0.468796 0.607819 0.194618
O O4 0.479235 0.569669 0.377195
O O5 0.250000 0.349245 0.782418
O O6 0.039770 0.292472 0.877252
O O7 0.996011 0.397410 0.817427
O O8 0.007390 0.313756 0.692087
O O9 0.750000 0.757180 0.501529
O O10 0.972760 0.816167 0.567328
O O11 0.016850 0.713321 0.504224
O O12 0.750000 0.349108 0.083865
O O13 0.949378 0.417989 0.006747
O O14 0.750000 0.047067 0.991781
O O15 0.500000 0.000000 0.030996
O O16 0.527187 0.108398 0.058161
O O17 0.750000 0.445903 0.869406
O O18 0.000000 0.500000 0.883537
O O19 0.750000 0.177682 0.101370
#
# Coordination Sequence:
#
# PCOD8191859 Si02
#       7
#     8   8   8   8   8   8   8
#     4   9  17  31  51  78 111 145 182 222 268 321
#     4  10  22  40  59  81 111 145 185 233 279 328
#     4  10  22  39  58  82 111 142 182 230 277 327
#     4   9  18  32  52  79 112 149 186 226 274 328
#     4   9  20  37  56  80 109 141 178 221 267 318
#     4  10  19  32  52  80 113 149 189 231 280 334
#     4  11  23  39  60  84 111 145 183 223 274 334
#
# _framework density 19.476751
#
# number of rings (size 3 to 8) (size 9 to 14) (size 15 to 20)
#    0.000    2.286    0.000    2.143    0.000    5.714 
#    0.000    2.857    0.000    0.000    0.000    0.000 
#    0.000    0.000    0.000    0.000    0.000    0.000 
#
# Total GULP energy -347298.388949 kJ/mol
# GULP energy per Si atom -12403.513891 kJ/mol
# Density = 1.943242 g / cm^3
# Si number density = 19.476751 Si / 1000 Ang^3
#
#
#
# Elastic Constant Matrix: (Units=GPa)
#
#
# Indices 1 2 3 4 5 6 
#
# 1 85.5253 58.8783 42.5258 0.0000 0.0000 0.0000
# 2 58.8783 123.5326 51.0663 -0.0001 0.0000 0.0000
# 3 42.5258 51.0663 89.0356 -0.0005 0.0001 0.0001
# 4 0.0000 -0.0001 -0.0005 22.6133 0.0000 0.0000
# 5 0.0000 0.0000 0.0001 0.0000 28.6674 0.0000
# 6 0.0000 0.0000 0.0001 0.0000 0.0000 39.3394
#
#
#
# Elastic Compliance Matrix: (Units=1/GPa)
#
#
# Indices 1 2 3 4 5 6 
#
# 1 0.019014 -0.006958 -0.005091 0.000000 0.000000 0.000000
# 2 -0.006958 0.013157 -0.004223 0.000000 0.000000 0.000000
# 3 -0.005091 -0.004223 0.016085 0.000000 0.000000 0.000000
# 4 0.000000 0.000000 0.000000 0.044222 0.000000 0.000000
# 5 0.000000 0.000000 0.000000 0.000000 0.034883 0.000000
# 6 0.000000 0.000000 0.000000 0.000000 0.000000 0.025420
#
#
# Mechanical properties :
#
#
# Convention : Reuss Voigt Hill
#
# Bulk Modulus (GPa) = 63.64333 67.00382 65.32357
# Shear Modulus (GPa) = 26.23832 27.83223 27.03528
#
# Velocity S-wave (km/s) = 3.67435 3.78431 3.72974
# Velocity P-wave (km/s) = 7.12381 7.31924 7.22219
#
# Compressibility (1/GPa) = 0.01571257
#
# Stress axis : x y z
#
# Youngs Moduli (GPa) = 52.59333 76.00514 62.16979
#
# Poissons Ratio (x) = 0.52884 0.31649
# Poissons Ratio (y) = 0.36594 0.26254
# Poissons Ratio (z) = 0.26774 0.32096
#
# Static dielectric constant tensor:
#      x y z
#    x 3.534200 0.000000 0.000000 
#    y 0.000000 3.475660 0.000000 
#    z 0.000000 0.000000 3.606140 
# 
# 
# High freq. dielectric constant tensor:
#      x y z
#    x 1.761870 0.000000 0.000000 
#    y 0.000000 1.755680 0.000000 
#    z 0.000000 0.000000 1.756950 
# 
# From -- ./inp_files/14134.got.cif
#   From: 2010.03.12/outbox.cif.g09.slc.cpg/sg46_8_cif.got.tgz:14134.got - 2010.04.14 02:56:35.
