data_PCOD8191243
_publ_section_title
;
Structure prediction by ZEFSAII (Michael W. Deem and Ramdas Pophale) SiO2 
 PCOD8191243
Probable space group: I M A 2
;
_chemical_formula_sum "Si O2"
_cell_formula_units_Z 56
_cell_length_a 14.339410
_cell_length_b 19.420334
_cell_length_c 10.235093
_cell_angle_alpha 90.000000
_cell_angle_beta 90.000000
_cell_angle_gamma 90.000000
_cell_volume 2850.229105
_symmetry_space_group_name_H-M "I M A 2"
_symmetry_group_IT_number 46
_symmetry_cell_setting 'orthorhombic'
loop_
_space_group_symop_operation_xyz
x,y,z
-x,-y,z
1/2-x,y,z
1/2+x,-y,z
1/2+x,1/2+y,1/2+z
1/2-x,1/2-y,1/2+z
-x,1/2+y,1/2+z
x,1/2-y,1/2+z
loop_
_atom_site_type_symbol
_atom_site_label
_atom_site_fract_x
_atom_site_fract_y
_atom_site_fract_z
Si Si1 0.098435 0.966102 0.375000
Si Si2 0.536646 0.604576 0.528257
Si Si3 0.645204 0.029185 0.087556
Si Si4 0.988412 0.736124 0.693599
Si Si5 0.856139 0.845647 0.782510
Si Si6 0.531151 0.324388 0.953901
Si Si7 0.850773 0.599545 0.011782
O O1 0.151760 0.951856 0.240311
O O2 0.094221 0.893293 0.452404
O O3 0.149728 0.020148 0.467746
O O4 0.000000 0.000000 0.336309
O O5 0.430593 0.576468 0.512643
O O6 0.612141 0.549102 0.574084
O O7 0.537699 0.662147 0.638313
O O8 0.569330 0.634616 0.391435
O O9 0.750000 0.038544 0.028375
O O10 0.890245 0.772925 0.724101
O O11 0.048579 0.724157 0.826750
O O12 0.047935 0.780930 0.587220
O O13 0.750000 0.839367 0.835065
O O14 0.864816 0.902563 0.668558
O O15 0.424602 0.350872 0.942291
O O16 0.750000 0.631933 0.978602
#
# Coordination Sequence:
#
# PCOD8191243 Si02
#       7
#     8   8   8   8   8   8   8
#     4  10  17  35  57  84 114 152 196 247 300 347
#     4  11  21  40  60  85 127 158 196 250 310 353
#     4  11  22  37  63  91 115 155 206 251 304 364
#     4  11  20  37  58  82 119 163 197 237 297 360
#     4  10  22  37  56  89 124 163 198 238 304 373
#     4  10  20  34  57  83 116 157 197 235 294 365
#     4   9  19  35  56  86 118 148 196 248 296 355
#
# _framework density 19.647542999999999
#
# number of rings (size 3 to 8) (size 9 to 14) (size 15 to 20)
#    0.000    1.714    4.286    1.714    0.000    1.714 
#   12.857    0.000    0.000    4.286    0.000    0.000 
#    0.000    0.000    0.000    0.000    0.000    0.000 
#
# Total GULP energy -347055.738400 kJ/mol
# GULP energy per Si atom -12394.847800 kJ/mol
# Density = 1.960282 g / cm^3
# Si number density = 19.647543 Si / 1000 Ang^3
#
#
#
# Elastic Constant Matrix: (Units=GPa)
#
#
# Indices 1 2 3 4 5 6 
#
# 1 94.8490 27.0159 17.2541 0.0000 0.0000 0.0000
# 2 27.0159 94.4849 28.3464 0.0000 0.0000 0.0000
# 3 17.2541 28.3464 76.3788 0.0000 0.0000 0.0000
# 4 0.0000 0.0000 0.0000 34.3746 0.0000 0.0000
# 5 0.0000 0.0000 0.0000 0.0000 15.0338 0.0000
# 6 0.0000 0.0000 0.0000 0.0000 0.0000 16.7789
#
#
#
# Elastic Compliance Matrix: (Units=1/GPa)
#
#
# Indices 1 2 3 4 5 6 
#
# 1 0.011643 -0.002858 -0.001569 0.000000 0.000000 0.000000
# 2 -0.002858 0.012611 -0.004035 0.000000 0.000000 0.000000
# 3 -0.001569 -0.004035 0.014945 0.000000 0.000000 0.000000
# 4 0.000000 0.000000 0.000000 0.029091 0.000000 0.000000
# 5 0.000000 0.000000 0.000000 0.000000 0.066517 0.000000
# 6 0.000000 0.000000 0.000000 0.000000 0.000000 0.059599
#
#
# Mechanical properties :
#
#
# Convention : Reuss Voigt Hill
#
# Bulk Modulus (GPa) = 44.89529 45.66061 45.27795
# Shear Modulus (GPa) = 22.85667 26.11055 24.48361
#
# Velocity S-wave (km/s) = 3.41447 3.64943 3.53390
# Velocity P-wave (km/s) = 6.20038 6.40688 6.30448
#
# Compressibility (1/GPa) = 0.02227405
#
# Stress axis : x y z
#
# Youngs Moduli (GPa) = 85.89116 79.29330 66.91385
#
# Poissons Ratio (x) = 0.22663 0.10501
# Poissons Ratio (y) = 0.24549 0.26998
# Poissons Ratio (z) = 0.13479 0.31993
#
# Static dielectric constant tensor:
#      x y z
#    x 3.383180 0.000000 0.000000 
#    y 0.000000 3.698560 0.000000 
#    z 0.000000 0.000000 3.628570 
# 
# 
# High freq. dielectric constant tensor:
#      x y z
#    x 1.734700 0.000000 0.000000 
#    y 0.000000 1.767450 0.000000 
#    z 0.000000 0.000000 1.765470 
# 
# From -- ./inp_files/5954.got.cif
#   From: 2010.03.12/outbox.cif.g09.slc.cpg/sg46_3_cif.got.tgz:5954.got - 2010.04.14 02:56:35.
