data_PCOD8191695
_publ_section_title
;
Structure prediction by ZEFSAII (Michael W. Deem and Ramdas Pophale) SiO2 
 PCOD8191695
Probable space group: I M A 2
;
_chemical_formula_sum "Si O2"
_cell_formula_units_Z 60
_cell_length_a 13.056054
_cell_length_b 24.611333
_cell_length_c 11.330753
_cell_angle_alpha 90.000000
_cell_angle_beta 90.000000
_cell_angle_gamma 90.000000
_cell_volume 3640.875653
_symmetry_space_group_name_H-M "I M A 2"
_symmetry_group_IT_number 46
_symmetry_cell_setting 'orthorhombic'
loop_
_space_group_symop_operation_xyz
x,y,z
-x,-y,z
1/2-x,y,z
1/2+x,-y,z
1/2+x,1/2+y,1/2+z
1/2-x,1/2-y,1/2+z
-x,1/2+y,1/2+z
x,1/2-y,1/2+z
loop_
_atom_site_type_symbol
_atom_site_label
_atom_site_fract_x
_atom_site_fract_y
_atom_site_fract_z
Si Si1 0.966926 0.362674 0.556930
Si Si2 0.133580 0.819041 0.829430
Si Si3 0.000000 0.500000 0.329093
Si Si4 0.630424 0.094864 0.409172
Si Si5 0.370111 0.960467 0.178212
Si Si6 0.629579 0.559243 0.523744
Si Si7 0.869083 0.197959 0.263857
Si Si8 0.631345 0.419563 0.170046
O O1 0.940691 0.338941 0.430822
O O2 0.905309 0.418723 0.576931
O O3 0.942288 0.318543 0.655953
O O4 0.086746 0.380613 0.554334
O O5 0.250000 0.818741 0.876666
O O6 0.099075 0.758559 0.796177
O O7 0.121739 0.857995 0.717047
O O8 0.922575 0.535815 0.406383
O O9 0.933580 0.460570 0.247866
O O10 0.750000 0.084703 0.421142
O O11 0.583518 0.055218 0.307117
O O12 0.609468 0.157658 0.373481
O O13 0.583511 0.081344 0.537396
O O14 0.250000 0.952959 0.186787
O O15 0.399262 0.021132 0.136933
O O16 0.750000 0.562307 0.502371
O O17 0.750000 0.194107 0.224276
O O18 0.750000 0.438111 0.172797
#
# Coordination Sequence:
#
# PCOD8191695 Si02
#       8
#     8   8   4   8   8   8   8   8
#     4  11  18  32  49  74 105 131 170 205 256 304
#     4  10  19  30  50  76 103 133 164 202 251 303
#     4  12  20  36  48  76 100 134 170 208 254 304
#     4   8  16  31  47  70 104 133 161 199 248 302
#     4   9  16  30  52  76 102 132 165 208 257 301
#     4  11  21  33  53  76 101 129 171 220 258 304
#     4   9  19  31  50  77 104 134 164 204 250 302
#     4  10  20  33  49  72 104 137 166 201 248 308
#
# _framework density 16.479552000000002
#
# number of rings (size 3 to 8) (size 9 to 14) (size 15 to 20)
#    0.000    2.133    2.667    2.400    1.867    2.133 
#    4.800    0.000    0.000    0.800    0.000    0.000 
#    0.000    0.000    0.000    0.000    0.000    0.000 
#
# Total GULP energy -371880.726800 kJ/mol
# GULP energy per Si atom -12396.024227 kJ/mol
# Density = 1.644204 g / cm^3
# Si number density = 16.479552 Si / 1000 Ang^3
#
#
#
# Elastic Constant Matrix: (Units=GPa)
#
#
# Indices 1 2 3 4 5 6 
#
# 1 59.4802 53.2738 53.1268 0.0000 0.0000 0.0000
# 2 53.2738 100.2095 55.6850 0.0001 0.0000 0.0000
# 3 53.1268 55.6850 120.5647 0.0007 -0.0003 0.0000
# 4 0.0000 0.0001 0.0007 19.4101 -0.0001 0.0000
# 5 0.0000 0.0000 -0.0003 -0.0001 20.8580 0.0000
# 6 0.0000 0.0000 0.0000 0.0000 0.0000 26.0260
#
#
#
# Elastic Compliance Matrix: (Units=1/GPa)
#
#
# Indices 1 2 3 4 5 6 
#
# 1 0.040025 -0.015441 -0.010506 0.000000 0.000000 0.000000
# 2 -0.015441 0.019381 -0.002148 0.000000 0.000000 0.000000
# 3 -0.010506 -0.002148 0.013915 0.000000 0.000000 0.000000
# 4 0.000000 0.000000 0.000000 0.051520 0.000000 0.000000
# 5 0.000000 0.000000 0.000000 0.000000 0.047943 0.000000
# 6 0.000000 0.000000 0.000000 0.000000 0.000000 0.038423
#
#
# Mechanical properties :
#
#
# Convention : Reuss Voigt Hill
#
# Bulk Modulus (GPa) = 58.36270 67.15839 62.76055
# Shear Modulus (GPa) = 18.30788 21.13674 19.72231
#
# Velocity S-wave (km/s) = 3.33670 3.58523 3.46320
# Velocity P-wave (km/s) = 7.09485 7.61443 7.35923
#
# Compressibility (1/GPa) = 0.01713423
#
# Stress axis : x y z
#
# Youngs Moduli (GPa) = 24.98433 51.59675 71.86237
#
# Poissons Ratio (x) = 0.79668 0.75495
# Poissons Ratio (y) = 0.38577 0.15433
# Poissons Ratio (z) = 0.26247 0.11081
#
# Static dielectric constant tensor:
#      x y z
#    x 2.935110 0.000000 0.000000 
#    y 0.000000 3.176000 0.000000 
#    z 0.000000 0.000000 3.337000 
# 
# 
# High freq. dielectric constant tensor:
#      x y z
#    x 1.602340 0.000000 0.000000 
#    y 0.000000 1.628890 0.000000 
#    z 0.000000 0.000000 1.641650 
# 
# From -- ./inp_files/11433.got.cif
#   From: 2010.03.12/outbox.cif.g09.slc.cpg/sg46_6_cif.got.tgz:11433.got - 2010.04.14 02:56:35.
