data_PCOD8191954
_publ_section_title
;
Structure prediction by ZEFSAII (Michael W. Deem and Ramdas Pophale) SiO2 
 PCOD8191954
Probable space group: I M A 2
;
_chemical_formula_sum "Si O2"
_cell_formula_units_Z 64
_cell_length_a 8.779038
_cell_length_b 27.609754
_cell_length_c 14.548916
_cell_angle_alpha 90.000000
_cell_angle_beta 90.000000
_cell_angle_gamma 90.000000
_cell_volume 3526.469260
_symmetry_space_group_name_H-M "I M A 2"
_symmetry_group_IT_number 46
_symmetry_cell_setting 'orthorhombic'
loop_
_space_group_symop_operation_xyz
x,y,z
-x,-y,z
1/2-x,y,z
1/2+x,-y,z
1/2+x,1/2+y,1/2+z
1/2-x,1/2-y,1/2+z
-x,1/2+y,1/2+z
x,1/2-y,1/2+z
loop_
_atom_site_type_symbol
_atom_site_label
_atom_site_fract_x
_atom_site_fract_y
_atom_site_fract_z
Si Si1 0.574822 0.781146 0.242120
Si Si2 0.927181 0.677044 0.433280
Si Si3 0.929037 0.132330 0.554215
Si Si4 0.929854 0.051761 0.239840
Si Si5 0.071624 0.778623 0.431964
Si Si6 0.068987 0.052316 0.431137
Si Si7 0.425878 0.370508 0.616325
Si Si8 0.072832 0.171320 0.727305
O O1 0.750000 0.782718 0.272919
O O2 0.476984 0.795234 0.330614
O O3 0.537440 0.818938 0.162373
O O4 0.533535 0.727474 0.206770
O O5 0.750000 0.689502 0.433193
O O6 0.965134 0.635622 0.508222
O O7 0.976400 0.658790 0.332174
O O8 0.006069 0.727004 0.461214
O O9 0.750000 0.123076 0.543216
O O10 0.985455 0.180714 0.502858
O O11 0.019872 0.087173 0.513159
O O12 0.972699 0.137509 0.661238
O O13 0.750000 0.046792 0.252609
O O14 0.003152 0.071976 0.334131
O O15 0.966763 0.088178 0.157110
O O16 0.000000 0.000000 0.214256
O O17 0.250000 0.774274 0.435277
O O18 0.250000 0.049044 0.424371
O O19 0.000000 0.000000 0.452485
O O20 0.250000 0.385183 0.631542
O O21 0.250000 0.160199 0.710356
#
# Coordination Sequence:
#
# PCOD8191954 Si02
#       8
#     8   8   8   8   8   8   8   8
#     4   9  18  31  49  73 103 137 174 211 254 307
#     4   9  19  35  53  72 101 138 178 219 258 302
#     4  11  22  34  50  76 106 138 174 213 256 306
#     4  11  22  37  56  80 109 137 166 205 252 307
#     4  10  20  31  46  71 105 139 173 212 256 303
#     4  11  22  38  59  81 106 135 166 206 254 307
#     4  10  19  33  54  78 102 135 175 215 258 306
#     4   9  18  33  51  73 100 137 179 217 255 298
#
# _framework density 18.148464000000001
#
# number of rings (size 3 to 8) (size 9 to 14) (size 15 to 20)
#    0.000    2.000    0.000    6.000    0.000    8.000 
#    0.000    0.000    0.000    0.750    0.000    3.500 
#    0.000    0.000    0.000    0.000    0.000    0.000 
#
# Total GULP energy -396872.241482 kJ/mol
# GULP energy per Si atom -12402.257546 kJ/mol
# Density = 1.810716 g / cm^3
# Si number density = 18.148464 Si / 1000 Ang^3
#
#
#
# Elastic Constant Matrix: (Units=GPa)
#
#
# Indices 1 2 3 4 5 6 
#
# 1 87.0187 46.0330 39.2229 0.0000 0.0000 0.0000
# 2 46.0330 79.3407 64.6665 0.0003 0.0000 0.0000
# 3 39.2229 64.6665 113.2879 0.0004 -0.0003 -0.0001
# 4 0.0000 0.0003 0.0004 28.6761 -0.0002 0.0000
# 5 0.0000 0.0000 -0.0003 -0.0002 27.4669 0.0000
# 6 0.0000 0.0000 -0.0001 0.0000 0.0000 28.9080
#
#
#
# Elastic Compliance Matrix: (Units=1/GPa)
#
#
# Indices 1 2 3 4 5 6 
#
# 1 0.016594 -0.009247 -0.000467 0.000000 0.000000 0.000000
# 2 -0.009247 0.028723 -0.013194 0.000000 0.000000 0.000000
# 3 -0.000467 -0.013194 0.016520 0.000000 0.000000 0.000000
# 4 0.000000 0.000000 0.000000 0.034872 0.000000 0.000000
# 5 0.000000 0.000000 0.000000 0.000000 0.036407 0.000000
# 6 0.000000 0.000000 0.000000 0.000000 0.000000 0.034593
#
#
# Mechanical properties :
#
#
# Convention : Reuss Voigt Hill
#
# Bulk Modulus (GPa) = 62.41818 64.38802 63.40310
# Shear Modulus (GPa) = 22.84519 25.65852 24.25186
#
# Velocity S-wave (km/s) = 3.55180 3.76415 3.65951
# Velocity P-wave (km/s) = 7.16157 7.37884 7.27102
#
# Compressibility (1/GPa) = 0.01602097
#
# Stress axis : x y z
#
# Youngs Moduli (GPa) = 60.26266 34.81574 60.53341
#
# Poissons Ratio (x) = 0.32195 0.02825
# Poissons Ratio (y) = 0.55727 0.79866
# Poissons Ratio (z) = 0.02812 0.45935
#
# Static dielectric constant tensor:
#      x y z
#    x 3.299560 0.000000 0.000000 
#    y 0.000000 3.206640 0.000000 
#    z 0.000000 0.000000 3.500970 
# 
# 
# High freq. dielectric constant tensor:
#      x y z
#    x 1.705580 0.000000 0.000000 
#    y 0.000000 1.682610 0.000000 
#    z 0.000000 0.000000 1.703490 
# 
# From -- ./inp_files/14477.got.cif
#   From: 2010.03.12/outbox.cif.g09.slc.cpg/sg46_8_cif.got.tgz:14477.got - 2010.04.14 02:56:35.
