data_PCOD8191239
_publ_section_title
;
Structure prediction by ZEFSAII (Michael W. Deem and Ramdas Pophale) SiO2 
 PCOD8191239
Probable space group: I M A 2
;
_chemical_formula_sum "Si O2"
_cell_formula_units_Z 44
_cell_length_a 22.182776
_cell_length_b 6.980102
_cell_length_c 14.109150
_cell_angle_alpha 90.000000
_cell_angle_beta 90.000000
_cell_angle_gamma 90.000000
_cell_volume 2184.633120
_symmetry_space_group_name_H-M "I M A 2"
_symmetry_group_IT_number 46
_symmetry_cell_setting 'orthorhombic'
loop_
_space_group_symop_operation_xyz
x,y,z
-x,-y,z
1/2-x,y,z
1/2+x,-y,z
1/2+x,1/2+y,1/2+z
1/2-x,1/2-y,1/2+z
-x,1/2+y,1/2+z
x,1/2-y,1/2+z
loop_
_atom_site_type_symbol
_atom_site_label
_atom_site_fract_x
_atom_site_fract_y
_atom_site_fract_z
Si Si1 0.381277 0.741051 0.745170
Si Si2 0.626974 0.281188 0.960888
Si Si3 0.750000 0.415914 0.716786
Si Si4 0.880471 0.925404 0.618279
Si Si5 0.250000 0.284604 0.096030
Si Si6 0.250000 0.533733 0.926508
Si Si7 0.068451 0.013997 0.090785
O O1 0.398850 0.717827 0.854636
O O2 0.310781 0.710630 0.715684
O O3 0.422562 0.588239 0.691332
O O4 0.399595 0.954335 0.711242
O O5 0.697493 0.320041 0.954144
O O6 0.600813 0.452300 0.025272
O O7 0.612261 0.077814 0.010736
O O8 0.750000 0.561530 0.627172
O O9 0.750000 0.531436 0.816768
O O10 0.809818 0.884946 0.634790
O O11 0.917505 0.733909 0.607756
O O12 0.250000 0.329624 0.982312
O O13 0.000000 0.000000 0.055547
#
# Coordination Sequence:
#
# PCOD8191239 Si02
#       7
#     8   8   4   8   4   4   8
#     4  10  21  40  61  91 121 160 195 251 301 363
#     4   9  21  40  61  88 124 155 199 249 303 359
#     4  10  17  35  61  88 128 151 196 246 305 373
#     4  10  21  38  62  89 122 153 201 244 301 359
#     4  10  17  34  59  91 116 161 184 246 309 358
#     4   8  18  35  60  91 120 156 194 242 312 369
#     4  11  24  42  59  87 118 160 207 249 297 353
#
# _framework density 20.14068
#
# number of rings (size 3 to 8) (size 9 to 14) (size 15 to 20)
#    0.000    2.182    1.818    0.545    0.000    7.273 
#    9.818    0.000    0.000    0.000    0.000    0.000 
#    0.000    0.000    0.000    0.000    0.000    0.000 
#
# Total GULP energy -272615.973696 kJ/mol
# GULP energy per Si atom -12391.635168 kJ/mol
# Density = 2.009484 g / cm^3
# Si number density = 20.140680 Si / 1000 Ang^3
#
#
#
# Elastic Constant Matrix: (Units=GPa)
#
#
# Indices 1 2 3 4 5 6 
#
# 1 66.3273 33.4981 29.2385 0.0000 0.0000 0.0000
# 2 33.4981 147.2631 61.2444 0.0000 0.0000 0.0000
# 3 29.2385 61.2444 131.9001 0.0000 0.0000 0.0000
# 4 0.0000 0.0000 0.0000 24.9889 0.0000 0.0000
# 5 0.0000 0.0000 0.0000 0.0000 35.1007 0.0000
# 6 0.0000 0.0000 0.0000 0.0000 0.0000 7.6395
#
#
#
# Elastic Compliance Matrix: (Units=1/GPa)
#
#
# Indices 1 2 3 4 5 6 
#
# 1 0.017697 -0.002967 -0.002545 0.000000 0.000000 0.000000
# 2 -0.002967 0.008913 -0.003481 0.000000 0.000000 0.000000
# 3 -0.002545 -0.003481 0.009762 0.000000 0.000000 0.000000
# 4 0.000000 0.000000 0.000000 0.040018 0.000000 0.000000
# 5 0.000000 0.000000 0.000000 0.000000 0.028489 0.000000
# 6 0.000000 0.000000 0.000000 0.000000 0.000000 0.130899
#
#
# Mechanical properties :
#
#
# Convention : Reuss Voigt Hill
#
# Bulk Modulus (GPa) = 54.38953 65.93915 60.16434
# Shear Modulus (GPa) = 19.23865 28.31312 23.77588
#
# Velocity S-wave (km/s) = 3.09401 3.75342 3.43955
# Velocity P-wave (km/s) = 6.31088 7.18294 6.76099
#
# Compressibility (1/GPa) = 0.01838589
#
# Stress axis : x y z
#
# Youngs Moduli (GPa) = 56.50595 112.19411 102.43843
#
# Poissons Ratio (x) = 0.33289 0.26074
# Poissons Ratio (y) = 0.16766 0.35657
# Poissons Ratio (z) = 0.14382 0.39053
#
# Static dielectric constant tensor:
#      x y z
#    x 3.334280 0.000000 0.000000 
#    y 0.000000 3.570530 0.000000 
#    z 0.000000 0.000000 3.827590 
# 
# 
# High freq. dielectric constant tensor:
#      x y z
#    x 1.770670 0.000000 0.000000 
#    y 0.000000 1.781770 0.000000 
#    z 0.000000 0.000000 1.786550 
# 
# From -- ./inp_files/17520.got.cif
#   From: 2010.03.12/outbox.cif.g09.slc.cpg/sg46_9_cif.got.tgz:17520.got - 2010.04.14 02:56:35.
