data_PCOD8191155
_publ_section_title
;
Structure prediction by ZEFSAII (Michael W. Deem and Ramdas Pophale) SiO2 
 PCOD8191155
Probable space group: I M A 2
;
_chemical_formula_sum "Si O2"
_cell_formula_units_Z 60
_cell_length_a 24.559399
_cell_length_b 26.333505
_cell_length_c 5.282842
_cell_angle_alpha 90.000000
_cell_angle_beta 90.000000
_cell_angle_gamma 90.000000
_cell_volume 3416.599119
_symmetry_space_group_name_H-M "I M A 2"
_symmetry_group_IT_number 46
_symmetry_cell_setting 'orthorhombic'
loop_
_space_group_symop_operation_xyz
x,y,z
-x,-y,z
1/2-x,y,z
1/2+x,-y,z
1/2+x,1/2+y,1/2+z
1/2-x,1/2-y,1/2+z
-x,1/2+y,1/2+z
x,1/2-y,1/2+z
loop_
_atom_site_type_symbol
_atom_site_label
_atom_site_fract_x
_atom_site_fract_y
_atom_site_fract_z
Si Si1 0.359416 0.309170 0.816070
Si Si2 0.938539 0.480313 0.349209
Si Si3 0.559981 0.976477 0.348959
Si Si4 0.969788 0.638373 0.839592
Si Si5 0.539611 0.364017 0.339612
Si Si6 0.866952 0.282999 0.345973
Si Si7 0.750000 0.219676 0.758938
Si Si8 0.186407 0.302880 0.316083
O O1 0.423831 0.318618 0.817295
O O2 0.331611 0.334062 0.565978
O O3 0.347664 0.249251 0.814109
O O4 0.330989 0.333998 0.064958
O O5 0.908923 0.499150 0.607155
O O6 0.936137 0.420167 0.324367
O O7 0.000000 0.500000 0.378793
O O8 0.909273 0.506473 0.107044
O O9 0.558781 0.916197 0.322388
O O10 0.500000 0.000000 0.378003
O O11 0.011101 0.645638 0.608279
O O12 0.998583 0.645441 0.108843
O O13 0.589364 0.326395 0.308553
O O14 0.874232 0.258377 0.623035
O O15 0.806775 0.309292 0.319934
O O16 0.750000 0.266580 0.960658
O O17 0.250000 0.290308 0.318162
#
# Coordination Sequence:
#
# PCOD8191155 Si02
#       8
#     8   8   8   8   8   8   4   8
#     4  10  20  32  48  76  95 128 168 210 263 293
#     4  10  16  30  49  67  94 132 181 207 235 280
#     4  10  16  30  48  66  93 135 171 202 244 274
#     4  12  21  32  47  72 114 135 160 210 244 324
#     4  12  21  33  50  73 105 148 171 201 248 319
#     4  10  21  38  51  77 101 137 182 206 260 292
#     4   8  16  34  60  68  94 124 166 238 242 284
#     4  10  19  38  57  68  92 129 182 227 249 286
#
# _framework density 17.561323000000002
#
# number of rings (size 3 to 8) (size 9 to 14) (size 15 to 20)
#    0.000    1.600    5.333    3.600    0.000    0.000 
#   14.400    0.000    0.000    0.000    0.000    0.000 
#   16.000    0.000    0.000    0.000    0.000    0.000 
#
# Total GULP energy -371722.879474 kJ/mol
# GULP energy per Si atom -12390.762649 kJ/mol
# Density = 1.752135 g / cm^3
# Si number density = 17.561323 Si / 1000 Ang^3
#
#
#
# Elastic Constant Matrix: (Units=GPa)
#
#
# Indices 1 2 3 4 5 6 
#
# 1 70.3921 38.8239 17.9602 0.0000 0.0000 0.0000
# 2 38.8239 51.8376 5.1919 0.0000 0.0000 0.0000
# 3 17.9602 5.1919 149.5545 0.0000 0.0000 0.0000
# 4 0.0000 0.0000 0.0000 16.7081 0.0000 0.0000
# 5 0.0000 0.0000 0.0000 0.0000 20.1219 0.0000
# 6 0.0000 0.0000 0.0000 0.0000 0.0000 -0.7009
#
#
#
# Elastic Compliance Matrix: (Units=1/GPa)
#
#
# Indices 1 2 3 4 5 6 
#
# 1 0.025009 -0.018494 -0.002361 0.000000 0.000000 0.000000
# 2 -0.018494 0.033034 0.001074 0.000000 0.000000 0.000000
# 3 -0.002361 0.001074 0.006933 0.000000 0.000000 0.000000
# 4 0.000000 0.000000 0.000000 0.059851 0.000000 0.000000
# 5 0.000000 0.000000 0.000000 0.000000 0.049697 0.000000
# 6 0.000000 0.000000 0.000000 0.000000 0.000000 -1.426762
#
#
# Mechanical properties :
#
#
# Convention : Reuss Voigt Hill
#
# Bulk Modulus (GPa) = 39.34849 43.97071 41.65960
# Shear Modulus (GPa) = -4.15212 21.21305 8.53047
#
# Velocity S-wave (km/s) = -1.53931 3.47932 2.20637
# Velocity P-wave (km/s) = 4.39268 6.42134 5.50133
#
# Compressibility (1/GPa) = 0.02541393
#
# Stress axis : x y z
#
# Youngs Moduli (GPa) = 39.98620 30.27147 144.24175
#
# Poissons Ratio (x) = 0.55983 0.34060
# Poissons Ratio (y) = 0.73950 -0.15493
# Poissons Ratio (z) = 0.09442 -0.03252
#
# Static dielectric constant tensor:
#      x y z
#    x 2.997630 0.000000 0.000000 
#    y 0.000000 2.948310 0.000000 
#    z 0.000000 0.000000 5.771280 
# 
# 
# High freq. dielectric constant tensor:
#      x y z
#    x 1.636550 0.000000 0.000000 
#    y 0.000000 1.637010 0.000000 
#    z 0.000000 0.000000 1.727410 
# 
# From -- ./inp_files/2162.got.cif
#   From: 2010.03.12/outbox.cif.g09.slc.cpg/sg46_2_cif.got.tgz:2162.got - 2010.04.14 02:56:35.
