data_PCOD8191766
_publ_section_title
;
Structure prediction by ZEFSAII (Michael W. Deem and Ramdas Pophale) SiO2 
 PCOD8191766
Probable space group: I M A 2
;
_chemical_formula_sum "Si O2"
_cell_formula_units_Z 56
_cell_length_a 9.039969
_cell_length_b 23.829210
_cell_length_c 13.446321
_cell_angle_alpha 90.000000
_cell_angle_beta 90.000000
_cell_angle_gamma 90.000000
_cell_volume 2896.543537
_symmetry_space_group_name_H-M "I M A 2"
_symmetry_group_IT_number 46
_symmetry_cell_setting 'orthorhombic'
loop_
_space_group_symop_operation_xyz
x,y,z
-x,-y,z
1/2-x,y,z
1/2+x,-y,z
1/2+x,1/2+y,1/2+z
1/2-x,1/2-y,1/2+z
-x,1/2+y,1/2+z
x,1/2-y,1/2+z
loop_
_atom_site_type_symbol
_atom_site_label
_atom_site_fract_x
_atom_site_fract_y
_atom_site_fract_z
Si Si1 0.579513 0.828498 0.350690
Si Si2 0.076820 0.941344 0.667329
Si Si3 0.422043 0.336236 0.079685
Si Si4 0.423245 0.056646 0.030885
Si Si5 0.577842 0.944035 0.257533
Si Si6 0.581104 0.380022 0.368712
Si Si7 0.576738 0.228443 0.747085
O O1 0.750000 0.818915 0.319675
O O2 0.555145 0.817120 0.466570
O O3 0.530418 0.891950 0.325774
O O4 0.476981 0.787988 0.286450
O O5 0.250000 0.945223 0.643142
O O6 0.049260 0.924746 0.781678
O O7 0.005857 0.894701 0.596207
O O8 0.000000 0.000000 0.643819
O O9 0.250000 0.344482 0.105854
O O10 0.490363 0.286780 0.146392
O O11 0.250000 0.049263 0.018098
O O12 0.477504 0.107946 0.962847
O O13 0.500000 0.000000 0.992368
O O14 0.469653 0.069304 0.144150
O O15 0.750000 0.956043 0.264302
O O16 0.500000 0.000000 0.298168
O O17 0.750000 0.383670 0.403951
O O18 0.541776 0.318029 0.330513
O O19 0.750000 0.230235 0.722115
#
# Coordination Sequence:
#
# PCOD8191766 Si02
#       7
#     8   8   8   8   8   8   8
#     4  10  22  40  61  84 110 143 183 226 275 329
#     4  10  20  34  53  79 112 149 188 231 280 333
#     4  10  21  38  59  82 111 146 184 230 280 331
#     4  10  19  31  51  77 107 143 180 221 269 320
#     4   9  20  38  56  79 110 141 178 222 268 321
#     4   9  19  34  51  75 108 143 181 224 268 319
#     4  10  22  39  58  82 112 145 183 228 275 329
#
# _framework density 19.333387999999999
#
# number of rings (size 3 to 8) (size 9 to 14) (size 15 to 20)
#    0.000    2.286    0.000    3.000    0.000    8.571 
#    0.000    5.714    0.000    0.000    0.000    0.000 
#    0.000    0.000    0.000    0.000    0.000    0.000 
#
# Total GULP energy -347312.507079 kJ/mol
# GULP energy per Si atom -12404.018110 kJ/mol
# Density = 1.928938 g / cm^3
# Si number density = 19.333388 Si / 1000 Ang^3
#
#
#
# Elastic Constant Matrix: (Units=GPa)
#
#
# Indices 1 2 3 4 5 6 
#
# 1 99.5870 54.1133 46.9820 0.0000 0.0000 0.0000
# 2 54.1133 113.8699 47.7059 0.0002 0.0000 0.0000
# 3 46.9820 47.7059 79.6909 0.0006 -0.0002 0.0000
# 4 0.0000 0.0002 0.0006 24.9613 -0.0001 0.0000
# 5 0.0000 0.0000 -0.0002 -0.0001 22.7886 0.0000
# 6 0.0000 0.0000 0.0000 0.0000 0.0000 37.5544
#
#
#
# Elastic Compliance Matrix: (Units=1/GPa)
#
#
# Indices 1 2 3 4 5 6 
#
# 1 0.015632 -0.004762 -0.006365 0.000000 0.000000 0.000000
# 2 -0.004762 0.013172 -0.005078 0.000000 0.000000 0.000000
# 3 -0.006365 -0.005078 0.019341 0.000000 0.000000 0.000000
# 4 0.000000 0.000000 0.000000 0.040062 0.000000 0.000000
# 5 0.000000 0.000000 0.000000 0.000000 0.043882 0.000000
# 6 0.000000 0.000000 0.000000 0.000000 0.000000 0.026628
#
#
# Mechanical properties :
#
#
# Convention : Reuss Voigt Hill
#
# Bulk Modulus (GPa) = 63.55269 65.63890 64.59579
# Shear Modulus (GPa) = 25.46186 26.68396 26.07291
#
# Velocity S-wave (km/s) = 3.63297 3.71914 3.67631
# Velocity P-wave (km/s) = 7.10924 7.24344 7.17665
#
# Compressibility (1/GPa) = 0.01573498
#
# Stress axis : x y z
#
# Youngs Moduli (GPa) = 63.97188 75.91649 51.70363
#
# Poissons Ratio (x) = 0.36151 0.32910
# Poissons Ratio (y) = 0.30463 0.26255
# Poissons Ratio (z) = 0.40719 0.38551
#
# Static dielectric constant tensor:
#      x y z
#    x 3.557730 0.000000 0.000000 
#    y 0.000000 3.459960 0.000000 
#    z 0.000000 0.000000 3.447660 
# 
# 
# High freq. dielectric constant tensor:
#      x y z
#    x 1.758660 0.000000 0.000000 
#    y 0.000000 1.750250 0.000000 
#    z 0.000000 0.000000 1.746720 
# 
# From -- ./inp_files/14147.got.cif
#   From: 2010.03.12/outbox.cif.g09.slc.cpg/sg46_8_cif.got.tgz:14147.got - 2010.04.14 02:56:35.
