data_PCOD8191183
_publ_section_title
;
Structure prediction by ZEFSAII (Michael W. Deem and Ramdas Pophale) SiO2 
 PCOD8191183
Probable space group: I M A 2
;
_chemical_formula_sum "Si O2"
_cell_formula_units_Z 40
_cell_length_a 8.830239
_cell_length_b 15.706238
_cell_length_c 18.543827
_cell_angle_alpha 90.000000
_cell_angle_beta 90.000000
_cell_angle_gamma 90.000000
_cell_volume 2571.840313
_symmetry_space_group_name_H-M "I M A 2"
_symmetry_group_IT_number 46
_symmetry_cell_setting 'orthorhombic'
loop_
_space_group_symop_operation_xyz
x,y,z
-x,-y,z
1/2-x,y,z
1/2+x,-y,z
1/2+x,1/2+y,1/2+z
1/2-x,1/2-y,1/2+z
-x,1/2+y,1/2+z
x,1/2-y,1/2+z
loop_
_atom_site_type_symbol
_atom_site_label
_atom_site_fract_x
_atom_site_fract_y
_atom_site_fract_z
Si Si1 0.578000 0.753933 0.421860
Si Si2 0.428121 0.590112 0.157493
Si Si3 0.429147 0.915148 0.921384
Si Si4 0.577326 0.652137 0.289791
Si Si5 0.572434 0.410579 0.993667
O O1 0.750000 0.760093 0.450166
O O2 0.498184 0.670640 0.458533
O O3 0.573383 0.741882 0.334245
O O4 0.488810 0.838863 0.440595
O O5 0.500000 0.500000 0.178699
O O6 0.250000 0.586048 0.168422
O O7 0.500434 0.660677 0.211036
O O8 0.471121 0.614336 0.075643
O O9 0.250000 0.915647 0.929952
O O10 0.481063 0.915679 0.837230
O O11 0.500000 0.000000 0.958115
O O12 0.750000 0.620135 0.282034
O O13 0.500000 0.500000 0.971406
O O14 0.750000 0.419279 0.983622
#
# Coordination Sequence:
#
# PCOD8191183 Si02
#       5
#     8   8   8   8   8
#     4   9  19  32  46  67  93 124 161 198 235 282
#     4  10  19  29  44  67  95 126 157 190 235 286
#     4  10  17  27  43  64  92 122 151 188 231 277
#     4   9  18  29  43  65  93 123 154 189 231 278
#     4  10  20  33  49  69  95 129 163 198 238 282
#
# _framework density 15.553065
#
# number of rings (size 3 to 8) (size 9 to 14) (size 15 to 20)
#    1.200    1.200    0.000    4.200    0.000    2.400 
#    0.000    0.000    0.000    0.000    0.000    1.400 
#    0.000    3.200    0.000    0.000    0.000    0.000 
#
# Total GULP energy -247789.343699 kJ/mol
# GULP energy per Si atom -12389.467185 kJ/mol
# Density = 1.551767 g / cm^3
# Si number density = 15.553065 Si / 1000 Ang^3
#
#
#
# Elastic Constant Matrix: (Units=GPa)
#
#
# Indices 1 2 3 4 5 6 
#
# 1 104.2436 48.4924 25.9901 0.0000 0.0000 0.0000
# 2 48.4924 107.1832 37.6910 0.0000 0.0000 0.0000
# 3 25.9901 37.6910 49.3839 0.0000 0.0000 0.0000
# 4 0.0000 0.0000 0.0000 18.7089 0.0000 0.0000
# 5 0.0000 0.0000 0.0000 0.0000 20.4840 0.0000
# 6 0.0000 0.0000 0.0000 0.0000 0.0000 29.8388
#
#
#
# Elastic Compliance Matrix: (Units=1/GPa)
#
#
# Indices 1 2 3 4 5 6 
#
# 1 0.012485 -0.004563 -0.003089 0.000000 0.000000 0.000000
# 2 -0.004563 0.014420 -0.008604 0.000000 0.000000 0.000000
# 3 -0.003089 -0.008604 0.028442 0.000000 0.000000 0.000000
# 4 0.000000 0.000000 0.000000 0.053450 0.000000 0.000000
# 5 0.000000 0.000000 0.000000 0.000000 0.048819 0.000000
# 6 0.000000 0.000000 0.000000 0.000000 0.000000 0.033513
#
#
# Mechanical properties :
#
#
# Convention : Reuss Voigt Hill
#
# Bulk Modulus (GPa) = 43.79016 53.90643 48.84830
# Shear Modulus (GPa) = 21.62137 23.71549 22.66843
#
# Velocity S-wave (km/s) = 3.73254 3.90912 3.82185
# Velocity P-wave (km/s) = 6.84049 7.42360 7.13800
#
# Compressibility (1/GPa) = 0.02283618
#
# Stress axis : x y z
#
# Youngs Moduli (GPa) = 80.09339 69.34930 35.15924
#
# Poissons Ratio (x) = 0.31641 0.10859
# Poissons Ratio (y) = 0.36543 0.30252
# Poissons Ratio (z) = 0.24738 0.59670
#
# Static dielectric constant tensor:
#      x y z
#    x 3.060070 0.000000 0.000000 
#    y 0.000000 2.771560 0.000000 
#    z 0.000000 0.000000 2.766310 
# 
# 
# High freq. dielectric constant tensor:
#      x y z
#    x 1.621110 0.000000 0.000000 
#    y 0.000000 1.573100 0.000000 
#    z 0.000000 0.000000 1.557690 
# 
# From -- ./inp_files/18072.got.cif
#   From: 2010.03.12/outbox.cif.g09.slc.cpg/sg46_10_cif.got.tgz:18072.got - 2010.04.14 02:56:35.
