data_PCOD8191060
_publ_section_title
;
Structure prediction by ZEFSAII (Michael W. Deem and Ramdas Pophale) SiO2 
 PCOD8191060
Probable space group: I B A 2
;
_chemical_formula_sum "Si O2"
_cell_formula_units_Z 40
_cell_length_a 9.217508
_cell_length_b 9.960371
_cell_length_c 19.821401
_cell_angle_alpha 90.000000
_cell_angle_beta 90.000000
_cell_angle_gamma 90.000000
_cell_volume 1819.798849
_symmetry_space_group_name_H-M "I B A 2"
_symmetry_group_IT_number 45
_symmetry_cell_setting 'orthorhombic'
loop_
_space_group_symop_operation_xyz
x,y,z
-x,-y,z
-x,y,1/2+z
x,-y,1/2+z
1/2+x,1/2+y,1/2+z
1/2-x,1/2-y,1/2+z
1/2-x,1/2+y,z
1/2+x,1/2-y,z
loop_
_atom_site_type_symbol
_atom_site_label
_atom_site_fract_x
_atom_site_fract_y
_atom_site_fract_z
Si Si1 0.958895 0.152122 0.443710
Si Si2 0.159729 0.484691 0.789991
Si Si3 0.107337 0.387222 0.640270
Si Si4 0.793722 0.738785 0.361888
Si Si5 0.566501 0.642579 0.597477
O O1 0.793998 0.183817 0.426025
O O2 0.983095 0.183824 0.522410
O O3 0.046753 0.248899 0.393220
O O4 0.000000 0.000000 0.428546
O O5 0.158203 0.439257 0.712961
O O6 0.224805 0.634626 0.799465
O O7 0.249465 0.383757 0.835460
O O8 0.000000 0.500000 0.820253
O O9 0.257513 0.361384 0.600244
O O10 0.000000 0.500000 0.607035
O O11 0.009323 0.252516 0.646178
O O12 0.500000 0.500000 0.619080
#
# Coordination Sequence:
#
# PCOD8191060 Si02
#       5
#     8   8   8   8   8
#     4  11  24  43  68 103 135 179 233 291 358 414
#     4  11  26  42  69 104 138 182 234 284 359 422
#     4  11  26  47  69 107 142 185 241 293 363 429
#     4  12  23  44  68  99 140 177 228 290 350 426
#     4  11  25  46  72 101 141 189 242 298 358 427
#
# _framework density 21.980450000000001
#
# number of rings (size 3 to 8) (size 9 to 14) (size 15 to 20)
#    0.000    0.800    4.000    2.400    8.400    1.600 
#    3.600    0.000    0.000    0.000    0.000    0.000 
#    0.000    0.000    0.000    0.000    0.000    0.000 
#
# Total GULP energy -247920.336454 kJ/mol
# GULP energy per Si atom -12396.016823 kJ/mol
# Density = 2.193042 g / cm^3
# Si number density = 21.980450 Si / 1000 Ang^3
#
#
#
# Elastic Constant Matrix: (Units=GPa)
#
#
# Indices 1 2 3 4 5 6 
#
# 1 120.1997 45.5137 22.2789 0.0000 0.0000 0.0000
# 2 45.5137 137.1723 46.1751 0.0000 0.0000 0.0000
# 3 22.2789 46.1751 90.7183 0.0000 0.0000 0.0000
# 4 0.0000 0.0000 0.0000 28.9441 0.0000 0.0000
# 5 0.0000 0.0000 0.0000 0.0000 34.3084 0.0000
# 6 0.0000 0.0000 0.0000 0.0000 0.0000 38.2711
#
#
#
# Elastic Compliance Matrix: (Units=1/GPa)
#
#
# Indices 1 2 3 4 5 6 
#
# 1 0.009574 -0.002878 -0.000886 0.000000 0.000000 0.000000
# 2 -0.002878 0.009663 -0.004211 0.000000 0.000000 0.000000
# 3 -0.000886 -0.004211 0.013384 0.000000 0.000000 0.000000
# 4 0.000000 0.000000 0.000000 0.034549 0.000000 0.000000
# 5 0.000000 0.000000 0.000000 0.000000 0.029147 0.000000
# 6 0.000000 0.000000 0.000000 0.000000 0.000000 0.026129
#
#
# Mechanical properties :
#
#
# Convention : Reuss Voigt Hill
#
# Bulk Modulus (GPa) = 59.99117 64.00285 61.99701
# Shear Modulus (GPa) = 34.73316 35.91290 35.32303
#
# Velocity S-wave (km/s) = 3.97947 4.04648 4.01311
# Velocity P-wave (km/s) = 6.96183 7.14236 7.05267
#
# Compressibility (1/GPa) = 0.01666912
#
# Stress axis : x y z
#
# Youngs Moduli (GPa) = 104.45431 103.49022 74.71418
#
# Poissons Ratio (x) = 0.29787 0.06620
# Poissons Ratio (y) = 0.30064 0.31465
# Poissons Ratio (z) = 0.09256 0.43584
#
# Static dielectric constant tensor:
#      x y z
#    x 3.951880 0.000000 0.000000 
#    y 0.000000 4.194310 0.000000 
#    z 0.000000 0.000000 3.617650 
# 
# 
# High freq. dielectric constant tensor:
#      x y z
#    x 1.875780 0.000000 0.000000 
#    y 0.000000 1.879800 0.000000 
#    z 0.000000 0.000000 1.849900 
# 
# From -- ./inp_files/8793.got.cif
#   From: 2010.03.12/outbox.cif.g09.slc.cpg/sg45_5_cif.got.tgz:8793.got - 2010.04.14 02:50:11.
