data_PCOD8191072
_publ_section_title
;
Structure prediction by ZEFSAII (Michael W. Deem and Ramdas Pophale) SiO2 
 PCOD8191072
Probable space group: I B A 2
;
_chemical_formula_sum "Si O2"
_cell_formula_units_Z 48
_cell_length_a 16.814522
_cell_length_b 9.891359
_cell_length_c 13.327403
_cell_angle_alpha 90.000000
_cell_angle_beta 90.000000
_cell_angle_gamma 90.000000
_cell_volume 2216.593323
_symmetry_space_group_name_H-M "I B A 2"
_symmetry_group_IT_number 45
_symmetry_cell_setting 'orthorhombic'
loop_
_space_group_symop_operation_xyz
x,y,z
-x,-y,z
-x,y,1/2+z
x,-y,1/2+z
1/2+x,1/2+y,1/2+z
1/2-x,1/2-y,1/2+z
1/2-x,1/2+y,z
1/2+x,1/2-y,z
loop_
_atom_site_type_symbol
_atom_site_label
_atom_site_fract_x
_atom_site_fract_y
_atom_site_fract_z
Si Si1 0.000000 0.500000 0.448501
Si Si2 0.749951 0.304410 0.304182
Si Si3 0.654037 0.627953 0.996580
Si Si4 0.437824 0.225110 0.309615
Si Si5 0.254050 0.957561 0.174520
Si Si6 0.500000 0.500000 0.393996
Si Si7 0.899874 0.379856 0.112461
O O1 0.985629 0.364909 0.387557
O O2 0.927494 0.532057 0.520096
O O3 0.700934 0.296561 0.407271
O O4 0.843732 0.293099 0.329219
O O5 0.732014 0.188485 0.223163
O O6 0.714203 0.443444 0.257050
O O7 0.573688 0.550898 0.962858
O O8 0.710550 0.532324 0.065603
O O9 0.637346 0.741397 0.077403
O O10 0.466939 0.379394 0.323782
O O11 0.462162 0.169791 0.198675
O O12 0.339915 0.023019 0.167816
#
# Coordination Sequence:
#
# PCOD8191072 Si02
#       7
#     4   8   8   8   8   4   8
#     4  12  24  46  70 102 144 192 230 296 354 446
#     4  11  26  44  75 102 140 192 242 299 350 425
#     4  12  26  47  70 109 144 185 240 295 369 423
#     4  11  25  48  69 108 144 187 244 291 367 424
#     4  11  24  47  72 105 138 186 244 298 346 430
#     4  12  28  46  76 108 152 192 226 316 362 434
#     4  11  26  44  71 102 140 190 241 287 361 426
#
# _framework density 21.654851000000001
#
# number of rings (size 3 to 8) (size 9 to 14) (size 15 to 20)
#    0.000    0.667    5.000    2.500    9.333    3.333 
#    0.000    0.000    0.000    0.000    0.000    0.000 
#    0.000    0.000    0.000    0.000    0.000    0.000 
#
# Total GULP energy -297344.544075 kJ/mol
# GULP energy per Si atom -12389.356003 kJ/mol
# Density = 2.160556 g / cm^3
# Si number density = 21.654851 Si / 1000 Ang^3
#
#
#
# Elastic Constant Matrix: (Units=GPa)
#
#
# Indices 1 2 3 4 5 6 
#
# 1 57.8408 17.3648 23.7674 0.0000 0.0000 0.0000
# 2 17.3648 95.4277 31.2997 0.0000 0.0000 0.0000
# 3 23.7674 31.2997 127.1734 0.0000 0.0000 0.0000
# 4 0.0000 0.0000 0.0000 46.1709 0.0000 0.0000
# 5 0.0000 0.0000 0.0000 0.0000 13.2859 0.0000
# 6 0.0000 0.0000 0.0000 0.0000 0.0000 33.3546
#
#
#
# Elastic Compliance Matrix: (Units=1/GPa)
#
#
# Indices 1 2 3 4 5 6 
#
# 1 0.019273 -0.002530 -0.002979 0.000000 0.000000 0.000000
# 2 -0.002530 0.011731 -0.002415 0.000000 0.000000 0.000000
# 3 -0.002979 -0.002415 0.009014 0.000000 0.000000 0.000000
# 4 0.000000 0.000000 0.000000 0.021659 0.000000 0.000000
# 5 0.000000 0.000000 0.000000 0.000000 0.075268 0.000000
# 6 0.000000 0.000000 0.000000 0.000000 0.000000 0.029981
#
#
# Mechanical properties :
#
#
# Convention : Reuss Voigt Hill
#
# Bulk Modulus (GPa) = 41.37160 47.25619 44.31389
# Shear Modulus (GPa) = 26.20135 32.42959 29.31547
#
# Velocity S-wave (km/s) = 3.48221 3.87404 3.68334
# Velocity P-wave (km/s) = 5.94258 6.47153 6.21269
#
# Compressibility (1/GPa) = 0.02417117
#
# Stress axis : x y z
#
# Youngs Moduli (GPa) = 51.88735 85.24106 110.93459
#
# Poissons Ratio (x) = 0.21565 0.33050
# Poissons Ratio (y) = 0.13127 0.26785
# Poissons Ratio (z) = 0.15458 0.20582
#
# Static dielectric constant tensor:
#      x y z
#    x 3.977810 0.000000 0.000000 
#    y 0.000000 4.229780 0.000000 
#    z 0.000000 0.000000 4.216010 
# 
# 
# High freq. dielectric constant tensor:
#      x y z
#    x 1.840850 0.000000 0.000000 
#    y 0.000000 1.865440 0.000000 
#    z 0.000000 0.000000 1.871900 
# 
# From -- ./inp_files/6763.got.cif
#   From: 2010.03.12/outbox.cif.g09.slc.cpg/sg45_4_cif.got.tgz:6763.got - 2010.04.14 02:50:11.
