data_PCOD8191343
_publ_section_title
;
Structure prediction by ZEFSAII (Michael W. Deem and Ramdas Pophale) SiO2 
 PCOD8191343
Probable space group: I M A 2
;
_chemical_formula_sum "Si O2"
_cell_formula_units_Z 64
_cell_length_a 8.765251
_cell_length_b 18.389743
_cell_length_c 21.199731
_cell_angle_alpha 90.000000
_cell_angle_beta 90.000000
_cell_angle_gamma 90.000000
_cell_volume 3417.199760
_symmetry_space_group_name_H-M "I M A 2"
_symmetry_group_IT_number 46
_symmetry_cell_setting 'orthorhombic'
loop_
_space_group_symop_operation_xyz
x,y,z
-x,-y,z
1/2-x,y,z
1/2+x,-y,z
1/2+x,1/2+y,1/2+z
1/2-x,1/2-y,1/2+z
-x,1/2+y,1/2+z
x,1/2-y,1/2+z
loop_
_atom_site_type_symbol
_atom_site_label
_atom_site_fract_x
_atom_site_fract_y
_atom_site_fract_z
Si Si1 0.072929 0.572132 0.741180
Si Si2 0.417670 0.065232 0.792919
Si Si3 0.931263 0.868067 0.116891
Si Si4 0.575281 0.275938 0.798049
Si Si5 0.068783 0.576117 0.489952
Si Si6 0.078391 0.315339 0.394483
Si Si7 0.568569 0.573960 0.152759
Si Si8 0.431679 0.777216 0.661166
O O1 0.250000 0.561493 0.723585
O O2 0.053654 0.637773 0.790350
O O3 0.000000 0.500000 0.772584
O O4 0.976899 0.587308 0.678505
O O5 0.250000 0.036418 0.780310
O O6 0.422397 0.137619 0.831614
O O7 0.492767 0.076553 0.724660
O O8 0.500000 0.000000 0.830575
O O9 0.750000 0.864525 0.109779
O O10 0.003032 0.911532 0.058978
O O11 0.999899 0.787163 0.118703
O O12 0.750000 0.253511 0.806978
O O13 0.491502 0.258055 0.864689
O O14 0.514245 0.235162 0.734268
O O15 0.250000 0.570178 0.490561
O O16 0.000000 0.500000 0.463512
O O17 0.021020 0.645485 0.447551
O O18 0.250000 0.302595 0.420245
O O19 0.500000 0.500000 0.120783
O O20 0.750000 0.576043 0.143438
O O21 0.495151 0.649170 0.127784
O O22 0.250000 0.774193 0.656812
#
# Coordination Sequence:
#
# PCOD8191343 Si02
#       8
#     8   8   8   8   8   8   8   8
#     4  10  20  35  55  82 111 141 176 218 271 324
#     4   9  18  28  41  63  93 130 170 208 247 295
#     4  11  22  37  57  79 105 140 181 225 272 321
#     4   9  19  33  50  74 105 139 175 215 263 319
#     4  12  25  41  57  77 107 143 185 227 267 313
#     4  11  21  34  51  74 103 138 179 219 261 310
#     4  10  18  29  44  69 101 137 174 214 261 312
#     4  10  19  33  52  76 105 138 177 222 271 323
#
# _framework density 18.728785999999999
#
# number of rings (size 3 to 8) (size 9 to 14) (size 15 to 20)
#    0.000    1.750    1.250    5.250    0.000    5.000 
#    0.000    0.000    0.000    0.000    0.000    0.875 
#    0.000    2.000    0.000    0.000    0.000    0.000 
#
# Total GULP energy -396596.856664 kJ/mol
# GULP energy per Si atom -12393.651771 kJ/mol
# Density = 1.868616 g / cm^3
# Si number density = 18.728786 Si / 1000 Ang^3
#
#
#
# Elastic Constant Matrix: (Units=GPa)
#
#
# Indices 1 2 3 4 5 6 
#
# 1 122.7491 44.2999 25.8791 0.0000 0.0000 0.0000
# 2 44.2999 116.5270 16.2384 0.0000 0.0000 0.0000
# 3 25.8791 16.2384 45.6993 0.0000 0.0000 0.0000
# 4 0.0000 0.0000 0.0000 18.8359 0.0000 0.0000
# 5 0.0000 0.0000 0.0000 0.0000 62.4797 0.0000
# 6 0.0000 0.0000 0.0000 0.0000 0.0000 36.5552
#
#
#
# Elastic Compliance Matrix: (Units=1/GPa)
#
#
# Indices 1 2 3 4 5 6 
#
# 1 0.010313 -0.003269 -0.004679 0.000000 0.000000 0.000000
# 2 -0.003269 0.010065 -0.001725 0.000000 0.000000 0.000000
# 3 -0.004679 -0.001725 0.025145 0.000000 0.000000 0.000000
# 4 0.000000 0.000000 0.000000 0.053090 0.000000 0.000000
# 5 0.000000 0.000000 0.000000 0.000000 0.016005 0.000000
# 6 0.000000 0.000000 0.000000 0.000000 0.000000 0.027356
#
#
# Mechanical properties :
#
#
# Convention : Reuss Voigt Hill
#
# Bulk Modulus (GPa) = 38.20131 50.86780 44.53455
# Shear Modulus (GPa) = 29.40415 36.81138 33.10777
#
# Velocity S-wave (km/s) = 3.96662 4.43820 4.20902
# Velocity P-wave (km/s) = 6.43585 7.31319 6.88850
#
# Compressibility (1/GPa) = 0.02617712
#
# Stress axis : x y z
#
# Youngs Moduli (GPa) = 96.96784 99.35670 39.76990
#
# Poissons Ratio (x) = 0.32476 0.18607
# Poissons Ratio (y) = 0.31695 0.06862
# Poissons Ratio (z) = 0.45367 0.17142
#
# Static dielectric constant tensor:
#      x y z
#    x 3.229970 0.000000 0.000000 
#    y 0.000000 3.719040 0.000000 
#    z 0.000000 0.000000 3.028280 
# 
# 
# High freq. dielectric constant tensor:
#      x y z
#    x 1.740140 0.000000 0.000000 
#    y 0.000000 1.735120 0.000000 
#    z 0.000000 0.000000 1.673770 
# 
# From -- ./inp_files/23287.got.cif
#   From: 2010.03.12/outbox.cif.g09.slc.cpg/sg46_12_cif.got.tgz:23287.got - 2010.04.14 02:56:35.
