data_PCOD8191626
_publ_section_title
;
Structure prediction by ZEFSAII (Michael W. Deem and Ramdas Pophale) SiO2 
 PCOD8191626
Probable space group: I M A 2
;
_chemical_formula_sum "Si O2"
_cell_formula_units_Z 44
_cell_length_a 16.344211
_cell_length_b 6.846805
_cell_length_c 16.505448
_cell_angle_alpha 90.000000
_cell_angle_beta 90.000000
_cell_angle_gamma 90.000000
_cell_volume 1847.052484
_symmetry_space_group_name_H-M "I M A 2"
_symmetry_group_IT_number 46
_symmetry_cell_setting 'orthorhombic'
loop_
_space_group_symop_operation_xyz
x,y,z
-x,-y,z
1/2-x,y,z
1/2+x,-y,z
1/2+x,1/2+y,1/2+z
1/2-x,1/2-y,1/2+z
-x,1/2+y,1/2+z
x,1/2-y,1/2+z
loop_
_atom_site_type_symbol
_atom_site_label
_atom_site_fract_x
_atom_site_fract_y
_atom_site_fract_z
Si Si1 0.412898 0.828398 0.600030
Si Si2 0.500000 0.000000 0.906155
Si Si3 0.880012 0.356278 0.285791
Si Si4 0.250000 0.588139 0.849108
Si Si5 0.750000 0.749134 0.107971
Si Si6 0.750000 0.677292 0.292537
Si Si7 0.421207 0.239677 0.041136
Si Si8 0.250000 0.681231 0.035253
O O1 0.408748 0.882096 0.693931
O O2 0.493276 0.692717 0.589374
O O3 0.332324 0.710765 0.568105
O O4 0.416394 0.023256 0.543098
O O5 0.545523 0.154095 0.848158
O O6 0.435784 0.135697 0.955074
O O7 0.828726 0.158864 0.298498
O O8 0.829098 0.548103 0.308580
O O9 0.250000 0.354551 0.856743
O O10 0.250000 0.676579 0.938791
O O11 0.750000 0.770984 0.203864
O O12 0.664757 0.846303 0.075959
O O13 0.750000 0.525007 0.081452
#
# Coordination Sequence:
#
# PCOD8191626 Si02
#       8
#     8   4   8   4   4   4   8   4
#     4  10  20  43  71  92 143 192 234 281 371 425
#     4  12  26  40  66 106 146 176 248 308 368 432
#     4  11  24  46  67 105 142 190 235 305 361 439
#     4  11  26  40  72 107 139 183 248 292 371 433
#     4  10  21  41  69  94 134 192 240 281 367 429
#     4  11  23  45  72 100 139 193 234 298 367 434
#     4  10  22  39  66 101 130 188 229 294 352 430
#     4  10  18  38  67  99 132 186 228 293 351 426
#
# _framework density 23.821736999999999
#
# number of rings (size 3 to 8) (size 9 to 14) (size 15 to 20)
#    0.000    1.455    3.636    2.727    5.091    2.182 
#    0.000    2.727    0.000    0.000    0.000    0.000 
#    0.000    0.000    0.000    0.000    0.000    0.000 
#
# Total GULP energy -272580.315706 kJ/mol
# GULP energy per Si atom -12390.014350 kJ/mol
# Density = 2.376752 g / cm^3
# Si number density = 23.821737 Si / 1000 Ang^3
#
#
#
# Elastic Constant Matrix: (Units=GPa)
#
#
# Indices 1 2 3 4 5 6 
#
# 1 207.5401 3.1149 41.1477 0.0000 0.0000 0.0000
# 2 3.1149 75.0382 16.2454 0.0000 0.0000 0.0000
# 3 41.1477 16.2454 105.8762 0.0000 0.0000 0.0000
# 4 0.0000 0.0000 0.0000 21.1412 0.0000 0.0000
# 5 0.0000 0.0000 0.0000 0.0000 38.3276 0.0000
# 6 0.0000 0.0000 0.0000 0.0000 0.0000 -11.6838
#
#
#
# Elastic Compliance Matrix: (Units=1/GPa)
#
#
# Indices 1 2 3 4 5 6 
#
# 1 0.005224 0.000230 -0.002066 0.000000 0.000000 0.000000
# 2 0.000230 0.013795 -0.002206 0.000000 0.000000 0.000000
# 3 -0.002066 -0.002206 0.010586 0.000000 0.000000 0.000000
# 4 0.000000 0.000000 0.000000 0.047301 0.000000 0.000000
# 5 0.000000 0.000000 0.000000 0.000000 0.026091 0.000000
# 6 0.000000 0.000000 0.000000 0.000000 0.000000 -0.085588
#
#
# Mechanical properties :
#
#
# Convention : Reuss Voigt Hill
#
# Bulk Modulus (GPa) = 46.46347 56.60784 51.53565
# Shear Modulus (GPa) = 153.06339 31.42008 92.24173
#
# Velocity S-wave (km/s) = 8.02453 3.63570 6.22942
# Velocity P-wave (km/s) = 10.26667 6.43732 8.56865
#
# Compressibility (1/GPa) = 0.02152228
#
# Stress axis : x y z
#
# Youngs Moduli (GPa) = 191.40745 72.49209 94.46137
#
# Poissons Ratio (x) = -0.01670 0.19514
# Poissons Ratio (y) = -0.04409 0.20840
# Poissons Ratio (z) = 0.39540 0.15993
#
# Static dielectric constant tensor:
#      x y z
#    x 7.268580 0.000000 0.000000 
#    y 0.000000 3.904570 0.000000 
#    z 0.000000 0.000000 4.076240 
# 
# 
# High freq. dielectric constant tensor:
#      x y z
#    x 1.973180 0.000000 0.000000 
#    y 0.000000 1.921270 0.000000 
#    z 0.000000 0.000000 1.934760 
# 
# From -- ./inp_files/16476.got.cif
#   From: 2010.03.12/outbox.cif.g09.slc.cpg/sg46_9_cif.got.tgz:16476.got - 2010.04.14 02:56:35.
