data_PCOD8191447
_publ_section_title
;
Structure prediction by ZEFSAII (Michael W. Deem and Ramdas Pophale) SiO2 
 PCOD8191447
Probable space group: I M A 2
;
_chemical_formula_sum "Si O2"
_cell_formula_units_Z 64
_cell_length_a 8.840480
_cell_length_b 29.777812
_cell_length_c 14.401468
_cell_angle_alpha 90.000000
_cell_angle_beta 90.000000
_cell_angle_gamma 90.000000
_cell_volume 3791.188632
_symmetry_space_group_name_H-M "I M A 2"
_symmetry_group_IT_number 46
_symmetry_cell_setting 'orthorhombic'
loop_
_space_group_symop_operation_xyz
x,y,z
-x,-y,z
1/2-x,y,z
1/2+x,-y,z
1/2+x,1/2+y,1/2+z
1/2-x,1/2-y,1/2+z
-x,1/2+y,1/2+z
x,1/2-y,1/2+z
loop_
_atom_site_type_symbol
_atom_site_label
_atom_site_fract_x
_atom_site_fract_y
_atom_site_fract_z
Si Si1 0.073080 0.454551 0.236060
Si Si2 0.428351 0.545788 0.434380
Si Si3 0.926875 0.798217 0.161944
Si Si4 0.082057 0.675641 0.335574
Si Si5 0.076992 0.360743 0.165862
Si Si6 0.419594 0.720649 0.844580
Si Si7 0.075361 0.863618 0.030251
Si Si8 0.571369 0.214974 0.553667
O O1 0.250000 0.462173 0.254408
O O2 0.046796 0.414446 0.161575
O O3 0.000000 0.500000 0.194490
O O4 0.995881 0.442159 0.333928
O O5 0.500000 0.500000 0.473953
O O6 0.250000 0.540269 0.422949
O O7 0.468414 0.585071 0.507097
O O8 0.750000 0.791005 0.157249
O O9 0.976841 0.804102 0.268992
O O10 0.972892 0.844846 0.113009
O O11 0.001618 0.755314 0.112717
O O12 0.250000 0.655203 0.315320
O O13 0.083855 0.727877 0.314674
O O14 0.039633 0.667543 0.441975
O O15 0.956271 0.653168 0.271562
O O16 0.250000 0.349194 0.142107
O O17 0.969850 0.333597 0.096004
O O18 0.250000 0.700474 0.841312
O O19 0.488734 0.715174 0.947781
O O20 0.250000 0.859528 0.059619
O O21 0.750000 0.222137 0.555605
#
# Coordination Sequence:
#
# PCOD8191447 Si02
#       8
#     8   8   8   8   8   8   8   8
#     4  10  20  32  48  72 104 137 170 209 254 304
#     4  10  19  31  50  74 102 136 172 211 255 302
#     4  12  24  34  51  77 104 134 168 214 261 298
#     4  10  18  31  51  71  99 139 177 209 243 294
#     4  11  22  33  48  76 106 134 170 214 258 299
#     4  10  21  37  54  71  97 136 178 214 247 295
#     4  10  20  35  52  72 100 139 180 209 246 304
#     4  11  22  37  55  73  98 137 177 210 248 303
#
# _framework density 16.881249
#
# number of rings (size 3 to 8) (size 9 to 14) (size 15 to 20)
#    0.000    1.500    3.750    3.375    0.000    4.000 
#    0.000    0.000    0.000    0.000    0.000    0.875 
#    0.000    6.000    0.000    0.000    0.000    0.000 
#
# Total GULP energy -396788.604448 kJ/mol
# GULP energy per Si atom -12399.643889 kJ/mol
# Density = 1.684283 g / cm^3
# Si number density = 16.881249 Si / 1000 Ang^3
#
#
#
# Elastic Constant Matrix: (Units=GPa)
#
#
# Indices 1 2 3 4 5 6 
#
# 1 84.3098 37.5504 35.3104 -0.0009 0.0004 0.0000
# 2 37.5504 91.8142 34.1167 -0.0010 0.0003 -0.0001
# 3 35.3104 34.1167 78.8237 -0.0033 0.0008 -0.0003
# 4 -0.0009 -0.0010 -0.0033 24.3899 0.0004 -0.0001
# 5 0.0004 0.0003 0.0008 0.0004 16.3389 -0.0002
# 6 0.0000 -0.0001 -0.0003 -0.0001 -0.0002 26.7300
#
#
#
# Elastic Compliance Matrix: (Units=1/GPa)
#
#
# Indices 1 2 3 4 5 6 
#
# 1 0.016114 -0.004657 -0.005203 0.000000 0.000000 0.000000
# 2 -0.004657 0.014325 -0.004114 0.000000 0.000000 0.000000
# 3 -0.005203 -0.004114 0.016798 0.000002 -0.000001 0.000000
# 4 0.000000 0.000000 0.000002 0.041001 -0.000001 0.000000
# 5 0.000000 0.000000 -0.000001 -0.000001 0.061204 0.000000
# 6 0.000000 0.000000 0.000000 0.000000 0.000000 0.037411
#
#
# Mechanical properties :
#
#
# Convention : Reuss Voigt Hill
#
# Bulk Modulus (GPa) = 51.84273 52.10030 51.97151
# Shear Modulus (GPa) = 22.60089 23.35644 22.97866
#
# Velocity S-wave (km/s) = 3.66295 3.72368 3.69344
# Velocity P-wave (km/s) = 6.97614 7.02976 7.00300
#
# Compressibility (1/GPa) = 0.01928911
#
# Stress axis : x y z
#
# Youngs Moduli (GPa) = 62.05655 69.80837 59.53128
#
# Poissons Ratio (x) = 0.32511 0.30974
# Poissons Ratio (y) = 0.28901 0.24491
# Poissons Ratio (z) = 0.32288 0.28719
#
# Static dielectric constant tensor:
#      x y z
#    x 3.216480 0.000000 0.000000 
#    y 0.000000 3.258970 0.000000 
#    z 0.000000 0.000000 3.046390 
# 
# 
# High freq. dielectric constant tensor:
#      x y z
#    x 1.657870 0.000000 0.000000 
#    y 0.000000 1.643800 0.000000 
#    z 0.000000 0.000000 1.622820 
# 
# From -- ./inp_files/14756.got.cif
#   From: 2010.03.12/outbox.cif.g09.slc.cpg/sg46_8_cif.got.tgz:14756.got - 2010.04.14 02:56:35.
