data_PCOD8191276
_publ_section_title
;
Structure prediction by ZEFSAII (Michael W. Deem and Ramdas Pophale) SiO2 
 PCOD8191276
Probable space group: I M A 2
;
_chemical_formula_sum "Si O2"
_cell_formula_units_Z 64
_cell_length_a 8.854410
_cell_length_b 18.532203
_cell_length_c 26.264644
_cell_angle_alpha 90.000000
_cell_angle_beta 90.000000
_cell_angle_gamma 90.000000
_cell_volume 4309.810703
_symmetry_space_group_name_H-M "I M A 2"
_symmetry_group_IT_number 46
_symmetry_cell_setting 'orthorhombic'
loop_
_space_group_symop_operation_xyz
x,y,z
-x,-y,z
1/2-x,y,z
1/2+x,-y,z
1/2+x,1/2+y,1/2+z
1/2-x,1/2-y,1/2+z
-x,1/2+y,1/2+z
x,1/2-y,1/2+z
loop_
_atom_site_type_symbol
_atom_site_label
_atom_site_fract_x
_atom_site_fract_y
_atom_site_fract_z
Si Si1 0.073353 0.077324 0.322630
Si Si2 0.927112 0.424871 0.009389
Si Si3 0.430474 0.578482 0.318252
Si Si4 0.574025 0.791922 0.861023
Si Si5 0.071825 0.662409 0.218046
Si Si6 0.071332 0.924991 0.623910
Si Si7 0.422113 0.160934 0.424817
Si Si8 0.573417 0.297586 0.773499
O O1 0.250000 0.068863 0.317381
O O2 0.026519 0.114621 0.375679
O O3 0.015861 0.126800 0.275440
O O4 0.000000 0.000000 0.318562
O O5 0.750000 0.435246 0.006379
O O6 0.000000 0.500000 0.991191
O O7 0.975732 0.359944 0.972738
O O8 0.980068 0.404694 0.066675
O O9 0.500000 0.500000 0.324016
O O10 0.250000 0.576271 0.323918
O O11 0.504779 0.627390 0.363652
O O12 0.486892 0.612045 0.264375
O O13 0.750000 0.792466 0.843852
O O14 0.559585 0.746897 0.913903
O O15 0.468592 0.750021 0.821859
O O16 0.250000 0.655660 0.219146
O O17 0.009433 0.635027 0.163575
O O18 0.026758 0.747022 0.225163
O O19 0.250000 0.932712 0.627023
O O20 0.000000 0.000000 0.641194
O O21 0.250000 0.142037 0.438309
O O22 0.750000 0.315130 0.773776
#
# Coordination Sequence:
#
# PCOD8191276 Si02
#       8
#     8   8   8   8   8   8   8   8
#     4  10  19  29  41  59  81 107 136 167 200 238
#     4  10  19  28  41  58  79 106 136 170 203 233
#     4  10  18  27  41  61  83 109 137 167 199 236
#     4   9  17  29  42  57  78 105 134 167 202 238
#     4   8  15  27  42  58  79 107 138 166 197 234
#     4   9  17  29  41  57  80 106 136 169 200 232
#     4   9  18  30  43  57  77 105 136 167 201 237
#     4   9  16  27  42  59  79 105 133 165 201 238
#
# _framework density 14.84984
#
# number of rings (size 3 to 8) (size 9 to 14) (size 15 to 20)
#    0.000    2.750    0.000    4.125    0.000    4.500 
#    0.000    3.125    0.000    0.000    0.000    0.000 
#    0.000    1.000    0.000    8.750    0.000    3.125 
#
# Total GULP energy -396542.968233 kJ/mol
# GULP energy per Si atom -12391.967757 kJ/mol
# Density = 1.481604 g / cm^3
# Si number density = 14.849840 Si / 1000 Ang^3
#
#
#
# Elastic Constant Matrix: (Units=GPa)
#
#
# Indices 1 2 3 4 5 6 
#
# 1 48.9536 39.6539 29.2458 0.0000 0.0000 0.0000
# 2 39.6539 119.2698 51.7627 0.0000 0.0000 0.0000
# 3 29.2458 51.7627 70.1297 0.0000 0.0000 0.0000
# 4 0.0000 0.0000 0.0000 31.1566 0.0000 0.0000
# 5 0.0000 0.0000 0.0000 0.0000 13.9963 0.0000
# 6 0.0000 0.0000 0.0000 0.0000 0.0000 27.2760
#
#
#
# Elastic Compliance Matrix: (Units=1/GPa)
#
#
# Indices 1 2 3 4 5 6 
#
# 1 0.030553 -0.006810 -0.007715 0.000000 0.000000 0.000000
# 2 -0.006810 0.013854 -0.007386 0.000000 0.000000 0.000000
# 3 -0.007715 -0.007386 0.022928 0.000000 0.000000 0.000000
# 4 0.000000 0.000000 0.000000 0.032096 0.000000 0.000000
# 5 0.000000 0.000000 0.000000 0.000000 0.071448 0.000000
# 6 0.000000 0.000000 0.000000 0.000000 0.000000 0.036662
#
#
# Mechanical properties :
#
#
# Convention : Reuss Voigt Hill
#
# Bulk Modulus (GPa) = 42.52825 53.29752 47.91289
# Shear Modulus (GPa) = 19.29023 22.33182 20.81102
#
# Velocity S-wave (km/s) = 3.60810 3.88215 3.74763
# Velocity P-wave (km/s) = 6.78667 7.48757 7.14572
#
# Compressibility (1/GPa) = 0.02351378
#
# Stress axis : x y z
#
# Youngs Moduli (GPa) = 32.73045 72.18288 43.61482
#
# Poissons Ratio (x) = 0.49154 0.33649
# Poissons Ratio (y) = 0.22288 0.32212
# Poissons Ratio (z) = 0.25252 0.53312
#
# Static dielectric constant tensor:
#      x y z
#    x 2.908010 0.000000 0.000000 
#    y 0.000000 3.047260 0.000000 
#    z 0.000000 0.000000 2.898990 
# 
# 
# High freq. dielectric constant tensor:
#      x y z
#    x 1.574840 0.000000 0.000000 
#    y 0.000000 1.562670 0.000000 
#    z 0.000000 0.000000 1.529830 
# 
# From -- ./inp_files/23308.got.cif
#   From: 2010.03.12/outbox.cif.g09.slc.cpg/sg46_12_cif.got.tgz:23308.got - 2010.04.14 02:56:35.
