data_PCOD8191145
_publ_section_title
;
Structure prediction by ZEFSAII (Michael W. Deem and Ramdas Pophale) SiO2 
 PCOD8191145
Probable space group: I M A 2
;
_chemical_formula_sum "Si O2"
_cell_formula_units_Z 48
_cell_length_a 28.256616
_cell_length_b 23.189709
_cell_length_c 4.887040
_cell_angle_alpha 90.000000
_cell_angle_beta 90.000000
_cell_angle_gamma 90.000000
_cell_volume 3202.295037
_symmetry_space_group_name_H-M "I M A 2"
_symmetry_group_IT_number 46
_symmetry_cell_setting 'orthorhombic'
loop_
_space_group_symop_operation_xyz
x,y,z
-x,-y,z
1/2-x,y,z
1/2+x,-y,z
1/2+x,1/2+y,1/2+z
1/2-x,1/2-y,1/2+z
-x,1/2+y,1/2+z
x,1/2-y,1/2+z
loop_
_atom_site_type_symbol
_atom_site_label
_atom_site_fract_x
_atom_site_fract_y
_atom_site_fract_z
Si Si1 0.973164 0.288577 0.619840
Si Si2 0.046962 0.037515 0.469309
Si Si3 0.018304 0.099402 0.949660
Si Si4 0.611940 0.366343 0.695743
Si Si5 0.696174 0.211410 0.336394
Si Si6 0.081965 0.568371 0.220989
O O1 0.979117 0.232773 0.429244
O O2 0.921077 0.315650 0.571880
O O3 0.014297 0.335261 0.555981
O O4 0.045862 0.094456 0.662004
O O5 0.088781 0.995122 0.581477
O O6 0.049069 0.059827 0.159475
O O7 0.000000 0.000000 0.510376
O O8 0.966007 0.073736 0.900362
O O9 0.663291 0.343132 0.776008
O O10 0.620329 0.414945 0.456797
O O11 0.584304 0.388099 0.965375
O O12 0.750000 0.189762 0.300609
O O13 0.685896 0.234267 0.639840
#
# Coordination Sequence:
#
# PCOD8191145 Si02
#       6
#     8   8   8   8   8   8
#     4  11  19  27  37  52  73  97 125 157 194 229
#     4  10  16  27  40  53  72  93 118 149 187 236
#     4  10  18  27  38  53  72  97 122 149 188 233
#     4  11  19  30  42  59  78  97 126 166 209 246
#     4  10  20  33  47  61  78 105 137 168 209 258
#     4  10  19  28  42  60  75  95 122 157 203 244
#
# _framework density 14.989250999999999
#
# number of rings (size 3 to 8) (size 9 to 14) (size 15 to 20)
#    0.000    1.667    0.000   11.500    0.000    0.000 
#    0.000    0.000    0.000    0.000    0.000    0.000 
#    0.000    0.000    0.000    0.000    0.000    0.000 
#
# Total GULP energy -297360.141174 kJ/mol
# GULP energy per Si atom -12390.005882 kJ/mol
# Density = 1.495514 g / cm^3
# Si number density = 14.989251 Si / 1000 Ang^3
#
#
#
# Elastic Constant Matrix: (Units=GPa)
#
#
# Indices 1 2 3 4 5 6 
#
# 1 24.9142 23.4728 10.8495 0.0000 0.0000 0.0000
# 2 23.4728 52.0366 16.5334 0.0000 0.0000 0.0000
# 3 10.8495 16.5334 81.7542 0.0000 0.0000 0.0000
# 4 0.0000 0.0000 0.0000 33.4328 0.0000 0.0000
# 5 0.0000 0.0000 0.0000 0.0000 13.7045 0.0000
# 6 0.0000 0.0000 0.0000 0.0000 0.0000 17.2914
#
#
#
# Elastic Compliance Matrix: (Units=1/GPa)
#
#
# Indices 1 2 3 4 5 6 
#
# 1 0.070543 -0.030827 -0.003127 0.000000 0.000000 0.000000
# 2 -0.030827 0.034008 -0.002787 0.000000 0.000000 0.000000
# 3 -0.003127 -0.002787 0.013210 0.000000 0.000000 0.000000
# 4 0.000000 0.000000 0.000000 0.029911 0.000000 0.000000
# 5 0.000000 0.000000 0.000000 0.000000 0.072969 0.000000
# 6 0.000000 0.000000 0.000000 0.000000 0.000000 0.057832
#
#
# Mechanical properties :
#
#
# Convention : Reuss Voigt Hill
#
# Bulk Modulus (GPa) = 22.58383 28.93517 25.75950
# Shear Modulus (GPa) = 13.63456 20.07570 16.85513
#
# Velocity S-wave (km/s) = 3.01927 3.66367 3.35697
# Velocity P-wave (km/s) = 5.22054 6.10266 5.67875
#
# Compressibility (1/GPa) = 0.04427947
#
# Stress axis : x y z
#
# Youngs Moduli (GPa) = 14.17573 29.40474 75.69817
#
# Poissons Ratio (x) = 0.90646 0.23674
# Poissons Ratio (y) = 0.43700 0.21093
# Poissons Ratio (z) = 0.04433 0.08194
#
# Static dielectric constant tensor:
#      x y z
#    x 2.493000 0.000000 0.000000 
#    y 0.000000 3.076660 0.000000 
#    z 0.000000 0.000000 3.225120 
# 
# 
# High freq. dielectric constant tensor:
#      x y z
#    x 1.491050 0.000000 0.000000 
#    y 0.000000 1.562380 0.000000 
#    z 0.000000 0.000000 1.609710 
# 
# From -- ./inp_files/2769.got.cif
#   From: 2010.03.12/outbox.cif.g09.slc.cpg/sg46_2_cif.got.tgz:2769.got - 2010.04.14 02:56:35.
