data_PCOD8191634
_publ_section_title
;
Structure prediction by ZEFSAII (Michael W. Deem and Ramdas Pophale) SiO2 
 PCOD8191634
Probable space group: I M A 2
;
_chemical_formula_sum "Si O2"
_cell_formula_units_Z 64
_cell_length_a 13.843590
_cell_length_b 34.281988
_cell_length_c 8.994820
_cell_angle_alpha 90.000000
_cell_angle_beta 90.000000
_cell_angle_gamma 90.000000
_cell_volume 4268.813722
_symmetry_space_group_name_H-M "I M A 2"
_symmetry_group_IT_number 46
_symmetry_cell_setting 'orthorhombic'
loop_
_space_group_symop_operation_xyz
x,y,z
-x,-y,z
1/2-x,y,z
1/2+x,-y,z
1/2+x,1/2+y,1/2+z
1/2-x,1/2-y,1/2+z
-x,1/2+y,1/2+z
x,1/2-y,1/2+z
loop_
_atom_site_type_symbol
_atom_site_label
_atom_site_fract_x
_atom_site_fract_y
_atom_site_fract_z
Si Si1 0.856243 0.982756 0.641220
Si Si2 0.864861 0.211991 0.649844
Si Si3 0.638904 0.366536 0.642065
Si Si4 0.364861 0.711992 0.484503
Si Si5 0.542518 0.438940 0.493152
Si Si6 0.856244 0.982758 0.993264
Si Si7 0.457478 0.938941 0.641284
Si Si8 0.638903 0.133460 0.492321
O O1 0.750000 0.973370 0.574487
O O2 0.852878 0.984117 0.817241
O O3 0.932446 0.949464 0.593917
O O4 0.889790 0.025470 0.587356
O O5 0.750000 0.214184 0.651051
O O6 0.907489 0.249999 0.567170
O O7 0.899325 0.173524 0.563535
O O8 0.905830 0.210839 0.817174
O O9 0.750000 0.374557 0.596693
O O10 0.600680 0.326473 0.570832
O O11 0.572280 0.400718 0.580921
O O12 0.627122 0.363126 0.817193
O O13 0.250000 0.714184 0.483284
O O14 0.432447 0.449463 0.540542
O O15 0.610206 0.474527 0.547106
O O16 0.551992 0.431632 0.317218
O O17 0.750000 0.973374 0.060003
O O18 0.427714 0.900722 0.553488
O O19 0.750000 0.125441 0.537693
#
# Coordination Sequence:
#
# PCOD8191634 Si02
#       8
#     8   8   8   8   8   8   8   8
#     4   8  14  25  41  60  81 104 132 168 207 244
#     4   9  16  26  40  57  78 105 135 164 195 234
#     4  10  19  28  38  55  81 110 137 167 202 237
#     4   9  16  26  40  57  78 105 135 164 195 234
#     4   9  16  26  42  61  78 102 137 171 202 239
#     4   8  14  25  41  60  81 104 132 168 207 244
#     4   9  16  26  42  61  78 102 137 171 202 239
#     4  10  19  28  38  55  81 110 137 167 202 237
#
# _framework density 14.992455
#
# number of rings (size 3 to 8) (size 9 to 14) (size 15 to 20)
#    0.000    3.000    0.000    3.750    0.000    5.500 
#    0.000    2.500    0.000    2.250    0.000    0.000 
#    0.000    1.000    0.000    2.750    0.000    4.000 
#
# Total GULP energy -396664.550507 kJ/mol
# GULP energy per Si atom -12395.767203 kJ/mol
# Density = 1.495833 g / cm^3
# Si number density = 14.992455 Si / 1000 Ang^3
#
#
#
# Elastic Constant Matrix: (Units=GPa)
#
#
# Indices 1 2 3 4 5 6 
#
# 1 87.4513 52.9294 26.7143 0.0009 -0.0001 0.0009
# 2 52.9294 140.1980 53.3140 -0.0046 0.0019 0.0006
# 3 26.7143 53.3140 68.7784 -0.0322 0.0228 0.0061
# 4 0.0009 -0.0046 -0.0322 29.0262 0.0069 0.0020
# 5 -0.0001 0.0019 0.0228 0.0069 11.5969 -0.0026
# 6 0.0009 0.0006 0.0061 0.0020 -0.0026 19.0806
#
#
#
# Elastic Compliance Matrix: (Units=1/GPa)
#
#
# Indices 1 2 3 4 5 6 
#
# 1 0.015021 -0.004895 -0.002040 -0.000003 0.000005 0.000000
# 2 -0.004895 0.011709 -0.007175 -0.000006 0.000012 0.000002
# 3 -0.002040 -0.007175 0.020894 0.000022 -0.000040 -0.000006
# 4 -0.000003 -0.000006 0.000022 0.034452 -0.000021 -0.000004
# 5 0.000005 0.000012 -0.000040 -0.000021 0.086230 0.000012
# 6 0.000000 0.000002 -0.000006 -0.000004 0.000012 0.052409
#
#
# Mechanical properties :
#
#
# Convention : Reuss Voigt Hill
#
# Bulk Modulus (GPa) = 51.53704 62.48256 57.00980
# Shear Modulus (GPa) = 19.57685 22.83873 21.20779
#
# Velocity S-wave (km/s) = 3.61748 3.90724 3.76515
# Velocity P-wave (km/s) = 7.20404 7.88174 7.55050
#
# Compressibility (1/GPa) = 0.01940352
#
# Stress axis : x y z
#
# Youngs Moduli (GPa) = 66.57430 85.40099 47.86128
#
# Poissons Ratio (x) = 0.41805 0.09762
# Poissons Ratio (y) = 0.32589 0.34342
# Poissons Ratio (z) = 0.13579 0.61278
#
# Static dielectric constant tensor:
#      x y z
#    x 2.964220 0.000000 0.000010 
#    y 0.000000 2.910300 0.000000 
#    z 0.000010 0.000000 2.764260 
# 
# 
# High freq. dielectric constant tensor:
#      x y z
#    x 1.531930 0.000000 0.000000 
#    y 0.000000 1.575200 0.000000 
#    z 0.000000 0.000000 1.563440 
# 
# From -- ./inp_files/6203.got.cif
#   From: 2010.03.12/outbox.cif.g09.slc.cpg/sg46_4_cif.got.tgz:6203.got - 2010.04.14 02:56:35.
