data_PCOD8191204
_publ_section_title
;
Structure prediction by ZEFSAII (Michael W. Deem and Ramdas Pophale) SiO2 
 PCOD8191204
Probable space group: I M A 2
;
_chemical_formula_sum "Si O2"
_cell_formula_units_Z 64
_cell_length_a 8.991520
_cell_length_b 30.201580
_cell_length_c 14.369071
_cell_angle_alpha 90.000000
_cell_angle_beta 90.000000
_cell_angle_gamma 90.000000
_cell_volume 3902.037772
_symmetry_space_group_name_H-M "I M A 2"
_symmetry_group_IT_number 46
_symmetry_cell_setting 'orthorhombic'
loop_
_space_group_symop_operation_xyz
x,y,z
-x,-y,z
1/2-x,y,z
1/2+x,-y,z
1/2+x,1/2+y,1/2+z
1/2-x,1/2-y,1/2+z
-x,1/2+y,1/2+z
x,1/2-y,1/2+z
loop_
_atom_site_type_symbol
_atom_site_label
_atom_site_fract_x
_atom_site_fract_y
_atom_site_fract_z
Si Si1 0.084159 0.824879 0.843960
Si Si2 0.924745 0.716203 0.621429
Si Si3 0.575009 0.455198 0.241766
Si Si4 0.417110 0.724120 0.813752
Si Si5 0.923038 0.868546 0.006392
Si Si6 0.573666 0.297084 0.013740
Si Si7 0.424237 0.545505 0.457384
Si Si8 0.922571 0.132548 0.653231
O O1 0.250000 0.843347 0.869289
O O2 0.077973 0.772819 0.857118
O O3 0.046568 0.834048 0.737319
O O4 0.961249 0.847993 0.906532
O O5 0.750000 0.724108 0.613824
O O6 0.968944 0.667369 0.584391
O O7 0.970940 0.717395 0.729295
O O8 0.002122 0.753670 0.559731
O O9 0.500000 0.500000 0.206545
O O10 0.750000 0.460298 0.229934
O O11 0.536105 0.444910 0.349323
O O12 0.507855 0.415540 0.177685
O O13 0.250000 0.712453 0.779799
O O14 0.464932 0.695746 0.904632
O O15 0.750000 0.879841 0.010048
O O16 0.012758 0.914316 0.020221
O O17 0.750000 0.291972 0.029541
O O18 0.511904 0.342079 0.063128
O O19 0.500000 0.500000 0.490329
O O20 0.250000 0.541109 0.474200
O O21 0.750000 0.124049 0.637949
#
# Coordination Sequence:
#
# PCOD8191204 Si02
#       8
#     8   8   8   8   8   8   8   8
#     4  10  17  29  49  70  95 129 165 203 246 289
#     4  11  23  34  47  70 102 135 165 203 250 296
#     4   9  17  29  45  67  96 126 156 191 236 287
#     4  10  20  33  51  71  94 128 171 213 247 290
#     4  11  22  33  46  70 101 135 170 202 241 295
#     4  10  19  33  53  73  94 126 170 212 247 292
#     4  10  19  32  50  72  98 130 164 202 248 297
#     4   9  16  29  47  69  95 125 160 198 241 286
#
# _framework density 16.401686999999999
#
# number of rings (size 3 to 8) (size 9 to 14) (size 15 to 20)
#    0.000    2.000    3.750    1.125    0.000    3.000 
#    0.000    0.625    0.000    0.000    0.000    0.875 
#    0.000    4.000    0.000    0.000    0.000    0.000 
#
# Total GULP energy -396656.105456 kJ/mol
# GULP energy per Si atom -12395.503296 kJ/mol
# Density = 1.636436 g / cm^3
# Si number density = 16.401687 Si / 1000 Ang^3
#
#
#
# Elastic Constant Matrix: (Units=GPa)
#
#
# Indices 1 2 3 4 5 6 
#
# 1 49.8788 39.0254 23.8131 -0.0003 -0.0002 0.0000
# 2 39.0254 102.3779 37.2090 -0.0005 -0.0003 0.0000
# 3 23.8131 37.2090 59.2943 -0.0006 -0.0006 0.0000
# 4 -0.0003 -0.0005 -0.0006 25.5871 -0.0002 0.0000
# 5 -0.0002 -0.0003 -0.0006 -0.0002 17.8649 -0.0001
# 6 0.0000 0.0000 0.0000 0.0000 -0.0001 26.1835
#
#
#
# Elastic Compliance Matrix: (Units=1/GPa)
#
#
# Indices 1 2 3 4 5 6 
#
# 1 0.030324 -0.009241 -0.006380 0.000000 0.000000 0.000000
# 2 -0.009241 0.015470 -0.005997 0.000000 0.000000 0.000000
# 3 -0.006380 -0.005997 0.023190 0.000000 0.000001 0.000000
# 4 0.000000 0.000000 0.000000 0.039082 0.000000 0.000000
# 5 0.000000 0.000000 0.000001 0.000000 0.055976 0.000000
# 6 0.000000 0.000000 0.000000 0.000000 0.000000 0.038192
#
#
# Mechanical properties :
#
#
# Convention : Reuss Voigt Hill
#
# Bulk Modulus (GPa) = 38.83444 45.73843 42.28644
# Shear Modulus (GPa) = 19.68107 21.36066 20.52086
#
# Velocity S-wave (km/s) = 3.46778 3.61272 3.54099
# Velocity P-wave (km/s) = 6.30575 6.73419 6.52349
#
# Compressibility (1/GPa) = 0.02575034
#
# Stress axis : x y z
#
# Youngs Moduli (GPa) = 32.97690 64.64291 43.12167
#
# Poissons Ratio (x) = 0.59734 0.27510
# Poissons Ratio (y) = 0.30473 0.25858
# Poissons Ratio (z) = 0.21038 0.38763
#
# Static dielectric constant tensor:
#      x y z
#    x 2.978800 0.000000 0.000000 
#    y 0.000000 3.290140 0.000000 
#    z 0.000000 0.000000 3.003590 
# 
# 
# High freq. dielectric constant tensor:
#      x y z
#    x 1.620900 0.000000 0.000000 
#    y 0.000000 1.629840 0.000000 
#    z 0.000000 0.000000 1.603650 
# 
# From -- ./inp_files/14767.got.cif
#   From: 2010.03.12/outbox.cif.g09.slc.cpg/sg46_8_cif.got.tgz:14767.got - 2010.04.14 02:56:35.
