data_PCOD8191307
_publ_section_title
;
Structure prediction by ZEFSAII (Michael W. Deem and Ramdas Pophale) SiO2 
 PCOD8191307
Probable space group: I M A 2
;
_chemical_formula_sum "Si O2"
_cell_formula_units_Z 56
_cell_length_a 8.489669
_cell_length_b 22.240622
_cell_length_c 17.749657
_cell_angle_alpha 90.000000
_cell_angle_beta 90.000000
_cell_angle_gamma 90.000000
_cell_volume 3351.410701
_symmetry_space_group_name_H-M "I M A 2"
_symmetry_group_IT_number 46
_symmetry_cell_setting 'orthorhombic'
loop_
_space_group_symop_operation_xyz
x,y,z
-x,-y,z
1/2-x,y,z
1/2+x,-y,z
1/2+x,1/2+y,1/2+z
1/2-x,1/2-y,1/2+z
-x,1/2+y,1/2+z
x,1/2-y,1/2+z
loop_
_atom_site_type_symbol
_atom_site_label
_atom_site_fract_x
_atom_site_fract_y
_atom_site_fract_z
Si Si1 0.934362 0.311745 0.737300
Si Si2 0.433716 0.285933 0.588408
Si Si3 0.564547 0.280135 0.430448
Si Si4 0.566428 0.684893 0.280651
Si Si5 0.933706 0.434340 0.003241
Si Si6 0.567229 0.340868 0.131099
Si Si7 0.935202 0.651881 0.882288
O O1 0.750000 0.298471 0.746171
O O2 0.977472 0.327732 0.650912
O O3 0.036803 0.253084 0.755880
O O4 0.989995 0.360773 0.799037
O O5 0.250000 0.297098 0.596479
O O6 0.490494 0.307044 0.506424
O O7 0.471351 0.215527 0.598767
O O8 0.750000 0.279199 0.438147
O O9 0.512502 0.324367 0.362511
O O10 0.507678 0.211978 0.418195
O O11 0.750000 0.670705 0.286410
O O12 0.488173 0.642793 0.216301
O O13 0.750000 0.435881 0.984013
O O14 0.968207 0.398067 0.079611
O O15 0.000000 0.500000 0.017104
O O16 0.024316 0.405003 0.933332
O O17 0.750000 0.322840 0.130943
O O18 0.750000 0.660205 0.875549
#
# Coordination Sequence:
#
# PCOD8191307 Si02
#       7
#     8   8   8   8   8   8   8
#     4  10  18  29  44  63  89 120 153 187 228 277
#     4  11  19  28  44  67  93 122 156 190 228 275
#     4  11  19  29  44  65  93 124 156 188 229 278
#     4  10  18  28  43  64  88 117 153 189 227 274
#     4  11  23  36  51  69  92 122 162 202 240 279
#     4  10  19  32  47  63  88 121 154 191 235 278
#     4  11  20  32  48  65  89 120 156 195 236 277
#
# _framework density 16.709381
#
# number of rings (size 3 to 8) (size 9 to 14) (size 15 to 20)
#    0.000    1.429    1.429   10.714    0.000    1.714 
#    0.000    0.000    0.000    0.000    0.000    0.000 
#    0.000    1.143    0.000    9.714    0.000    6.571 
#
# Total GULP energy -347159.167892 kJ/mol
# GULP energy per Si atom -12398.541710 kJ/mol
# Density = 1.667135 g / cm^3
# Si number density = 16.709381 Si / 1000 Ang^3
#
#
#
# Elastic Constant Matrix: (Units=GPa)
#
#
# Indices 1 2 3 4 5 6 
#
# 1 93.2635 13.1114 -8.2520 0.0001 0.0000 0.0000
# 2 13.1114 37.2506 13.0219 0.0001 0.0000 0.0000
# 3 -8.2520 13.0219 -22.4707 0.0003 0.0000 0.0000
# 4 0.0001 0.0001 0.0003 -13.3313 0.0000 0.0000
# 5 0.0000 0.0000 0.0000 0.0000 33.3023 0.0000
# 6 0.0000 0.0000 0.0000 0.0000 0.0000 16.6377
#
#
#
# Elastic Compliance Matrix: (Units=1/GPa)
#
#
# Indices 1 2 3 4 5 6 
#
# 1 0.010555 -0.001962 -0.005013 0.000000 0.000000 0.000000
# 2 -0.001962 0.022688 0.013868 0.000000 0.000000 0.000000
# 3 -0.005013 0.013868 -0.034625 -0.000001 0.000000 0.000000
# 4 0.000000 0.000000 -0.000001 -0.075011 0.000000 0.000000
# 5 0.000000 0.000000 0.000000 0.000000 0.030028 0.000000
# 6 0.000000 0.000000 0.000000 0.000000 0.000000 0.060105
#
#
# Mechanical properties :
#
#
# Convention : Reuss Voigt Hill
#
# Bulk Modulus (GPa) = 80.62331 15.97848 48.30089
# Shear Modulus (GPa) = 1223.08783 13.33255 618.21019
#
# Velocity S-wave (km/s) = 27.08442 2.82779 19.25568
# Velocity P-wave (km/s) = 32.03815 4.49947 22.87671
#
# Compressibility (1/GPa) = 0.01240336
#
# Stress axis : x y z
#
# Youngs Moduli (GPa) = 94.74521 44.07648 -28.88125
#
# Poissons Ratio (x) = 0.08650 -0.14479
# Poissons Ratio (y) = 0.18594 0.40054
# Poissons Ratio (z) = 0.47498 -0.61127
#
# Static dielectric constant tensor:
#      x y z
#    x 3.271540 0.000000 0.000000 
#    y 0.000000 2.698870 0.000000 
#    z 0.000000 0.000000 4.324840 
# 
# 
# High freq. dielectric constant tensor:
#      x y z
#    x 1.669560 0.000000 0.000000 
#    y 0.000000 1.556650 0.000000 
#    z 0.000000 0.000000 1.670650 
# 
# From -- ./inp_files/18604.got.cif
#   From: 2010.03.12/outbox.cif.g09.slc.cpg/sg46_10_cif.got.tgz:18604.got - 2010.04.14 02:56:35.
