data_PCOD8191138
_publ_section_title
;
Structure prediction by ZEFSAII (Michael W. Deem and Ramdas Pophale) SiO2 
 PCOD8191138
Probable space group: I M A 2
;
_chemical_formula_sum "Si O2"
_cell_formula_units_Z 40
_cell_length_a 18.920083
_cell_length_b 15.081757
_cell_length_c 8.291723
_cell_angle_alpha 90.000000
_cell_angle_beta 90.000000
_cell_angle_gamma 90.000000
_cell_volume 2366.027356
_symmetry_space_group_name_H-M "I M A 2"
_symmetry_group_IT_number 46
_symmetry_cell_setting 'orthorhombic'
loop_
_space_group_symop_operation_xyz
x,y,z
-x,-y,z
1/2-x,y,z
1/2+x,-y,z
1/2+x,1/2+y,1/2+z
1/2-x,1/2-y,1/2+z
-x,1/2+y,1/2+z
x,1/2-y,1/2+z
loop_
_atom_site_type_symbol
_atom_site_label
_atom_site_fract_x
_atom_site_fract_y
_atom_site_fract_z
Si Si1 0.250000 0.715038 0.467070
Si Si2 0.250000 0.616795 0.138549
Si Si3 0.099559 0.654083 0.506222
Si Si4 0.469663 0.132706 0.604036
Si Si5 0.986595 0.208863 0.296340
Si Si6 0.895794 0.463530 0.213599
O O1 0.250000 0.689833 0.279762
O O2 0.250000 0.822562 0.478521
O O3 0.180514 0.674413 0.552383
O O4 0.182095 0.554041 0.146635
O O5 0.070456 0.736263 0.400686
O O6 0.054393 0.644887 0.670226
O O7 0.096175 0.562269 0.403305
O O8 0.462014 0.150737 0.412038
O O9 0.461980 0.224314 0.700863
O O10 0.549094 0.095565 0.615683
O O11 0.412093 0.066660 0.680405
#
# Coordination Sequence:
#
# PCOD8191138 Si02
#       6
#     4   4   8   8   8   8
#     4  10  16  24  42  68  98 124 146 168 217 284
#     4  10  18  28  46  68  94 128 150 178 225 278
#     4   9  16  26  43  69  95 123 150 182 224 279
#     4   9  17  31  46  65  89 118 156 196 229 271
#     4   9  16  28  46  63  86 120 160 191 224 269
#     4   9  18  30  45  67  96 119 148 191 233 272
#
# _framework density 16.905975000000002
#
# number of rings (size 3 to 8) (size 9 to 14) (size 15 to 20)
#    0.000    2.800    0.000    4.800    0.000    0.000 
#    0.000   12.000    0.000    1.200    0.000    0.000 
#    0.000    0.000    0.000    0.000    0.000    0.800 
#
# Total GULP energy -247879.409021 kJ/mol
# GULP energy per Si atom -12393.970451 kJ/mol
# Density = 1.686750 g / cm^3
# Si number density = 16.905975 Si / 1000 Ang^3
#
#
#
# Elastic Constant Matrix: (Units=GPa)
#
#
# Indices 1 2 3 4 5 6 
#
# 1 84.6145 48.7037 34.8368 0.0000 0.0000 0.0000
# 2 48.7037 82.3314 51.3735 0.0000 0.0000 0.0000
# 3 34.8368 51.3735 97.2850 0.0000 0.0000 0.0000
# 4 0.0000 0.0000 0.0000 23.4961 0.0000 0.0000
# 5 0.0000 0.0000 0.0000 0.0000 19.0775 0.0000
# 6 0.0000 0.0000 0.0000 0.0000 0.0000 16.7227
#
#
#
# Elastic Compliance Matrix: (Units=1/GPa)
#
#
# Indices 1 2 3 4 5 6 
#
# 1 0.018018 -0.009892 -0.001228 0.000000 0.000000 0.000000
# 2 -0.009892 0.023546 -0.008892 0.000000 0.000000 0.000000
# 3 -0.001228 -0.008892 0.015414 0.000000 0.000000 0.000000
# 4 0.000000 0.000000 0.000000 0.042560 0.000000 0.000000
# 5 0.000000 0.000000 0.000000 0.000000 0.052418 0.000000
# 6 0.000000 0.000000 0.000000 0.000000 0.000000 0.059799
#
#
# Mechanical properties :
#
#
# Convention : Reuss Voigt Hill
#
# Bulk Modulus (GPa) = 58.98304 59.33987 59.16146
# Shear Modulus (GPa) = 19.42263 20.48036 19.95150
#
# Velocity S-wave (km/s) = 3.39316 3.48433 3.43905
# Velocity P-wave (km/s) = 7.09338 7.16684 7.13020
#
# Compressibility (1/GPa) = 0.01695403
#
# Stress axis : x y z
#
# Youngs Moduli (GPa) = 55.50031 42.46973 64.87446
#
# Poissons Ratio (x) = 0.42012 0.07968
# Poissons Ratio (y) = 0.54902 0.57685
# Poissons Ratio (z) = 0.06817 0.37763
#
# Static dielectric constant tensor:
#      x y z
#    x 2.973020 0.000000 0.000000 
#    y 0.000000 3.059170 0.000000 
#    z 0.000000 0.000000 3.302970 
# 
# 
# High freq. dielectric constant tensor:
#      x y z
#    x 1.623090 0.000000 0.000000 
#    y 0.000000 1.623050 0.000000 
#    z 0.000000 0.000000 1.655140 
# 
# From -- ./inp_files/6499.got.cif
#   From: 2010.03.12/outbox.cif.g09.slc.cpg/sg46_4_cif.got.tgz:6499.got - 2010.04.14 02:56:35.
