data_PCOD8191451
_publ_section_title
;
Structure prediction by ZEFSAII (Michael W. Deem and Ramdas Pophale) SiO2 
 PCOD8191451
Probable space group: I M A 2
;
_chemical_formula_sum "Si O2"
_cell_formula_units_Z 64
_cell_length_a 8.702447
_cell_length_b 18.533087
_cell_length_c 21.686093
_cell_angle_alpha 90.000000
_cell_angle_beta 90.000000
_cell_angle_gamma 90.000000
_cell_volume 3497.602634
_symmetry_space_group_name_H-M "I M A 2"
_symmetry_group_IT_number 46
_symmetry_cell_setting 'orthorhombic'
loop_
_space_group_symop_operation_xyz
x,y,z
-x,-y,z
1/2-x,y,z
1/2+x,-y,z
1/2+x,1/2+y,1/2+z
1/2-x,1/2-y,1/2+z
-x,1/2+y,1/2+z
x,1/2-y,1/2+z
loop_
_atom_site_type_symbol
_atom_site_label
_atom_site_fract_x
_atom_site_fract_y
_atom_site_fract_z
Si Si1 0.426680 0.224598 0.069990
Si Si2 0.929337 0.573531 0.936567
Si Si3 0.428402 0.874804 0.907084
Si Si4 0.568452 0.077887 0.770502
Si Si5 0.570795 0.572784 0.528044
Si Si6 0.429214 0.782010 0.448973
Si Si7 0.926918 0.664557 0.165123
Si Si8 0.071319 0.568714 0.069052
O O1 0.250000 0.225709 0.048183
O O2 0.490303 0.142488 0.066186
O O3 0.439461 0.251879 0.141634
O O4 0.514177 0.274705 0.019927
O O5 0.750000 0.571493 0.923965
O O6 0.000000 0.500000 0.906359
O O7 0.996358 0.649989 0.911925
O O8 0.968409 0.575805 0.008473
O O9 0.250000 0.887103 0.921916
O O10 0.474128 0.905225 0.840684
O O11 0.469110 0.789850 0.910398
O O12 0.525904 0.919382 0.956377
O O13 0.750000 0.077392 0.758404
O O14 0.491907 0.143918 0.732095
O O15 0.500000 0.000000 0.751538
O O16 0.500000 0.500000 0.556487
O O17 0.750000 0.564611 0.533962
O O18 0.250000 0.797662 0.452769
O O19 0.750000 0.638355 0.160143
O O20 0.043313 0.632367 0.115656
O O21 0.250000 0.561187 0.051616
O O22 0.000000 0.500000 0.104872
#
# Coordination Sequence:
#
# PCOD8191451 Si02
#       8
#     8   8   8   8   8   8   8   8
#     4   9  19  33  49  70  99 131 165 205 251 305
#     4  11  20  30  44  67  98 131 165 202 245 296
#     4   9  20  36  54  75 101 134 172 215 256 302
#     4  11  23  38  53  73 102 137 178 216 251 294
#     4  10  19  32  52  78 104 132 163 204 256 308
#     4  10  18  31  51  74  99 129 166 209 260 307
#     4  11  21  34  50  69  97 132 170 211 252 295
#     4  11  20  30  44  64  91 128 166 202 241 287
#
# _framework density 18.298248000000001
#
# number of rings (size 3 to 8) (size 9 to 14) (size 15 to 20)
#    0.000    1.750    1.250    5.250    0.000    3.500 
#    0.000    0.000    0.000    0.000    0.000    0.875 
#    0.000    4.000    0.000    0.000    0.000    0.125 
#
# Total GULP energy -396512.830088 kJ/mol
# GULP energy per Si atom -12391.025940 kJ/mol
# Density = 1.825660 g / cm^3
# Si number density = 18.298248 Si / 1000 Ang^3
#
#
#
# Elastic Constant Matrix: (Units=GPa)
#
#
# Indices 1 2 3 4 5 6 
#
# 1 85.4996 37.8442 13.6613 0.0000 0.0000 0.0000
# 2 37.8442 122.5739 24.8220 0.0000 0.0000 0.0000
# 3 13.6613 24.8220 54.3689 0.0000 0.0000 0.0000
# 4 0.0000 0.0000 0.0000 22.5426 0.0000 0.0000
# 5 0.0000 0.0000 0.0000 0.0000 19.4294 0.0000
# 6 0.0000 0.0000 0.0000 0.0000 0.0000 30.0818
#
#
#
# Elastic Compliance Matrix: (Units=1/GPa)
#
#
# Indices 1 2 3 4 5 6 
#
# 1 0.013682 -0.003888 -0.001663 0.000000 0.000000 0.000000
# 2 -0.003888 0.010094 -0.003632 0.000000 0.000000 0.000000
# 3 -0.001663 -0.003632 0.020469 0.000000 0.000000 0.000000
# 4 0.000000 0.000000 0.000000 0.044360 0.000000 0.000000
# 5 0.000000 0.000000 0.000000 0.000000 0.051469 0.000000
# 6 0.000000 0.000000 0.000000 0.000000 0.000000 0.033243
#
#
# Mechanical properties :
#
#
# Convention : Reuss Voigt Hill
#
# Bulk Modulus (GPa) = 38.63894 46.12195 42.38044
# Shear Modulus (GPa) = 24.96151 26.81841 25.88996
#
# Velocity S-wave (km/s) = 3.69744 3.83250 3.76558
# Velocity P-wave (km/s) = 6.27616 6.69660 6.48979
#
# Compressibility (1/GPa) = 0.02588063
#
# Stress axis : x y z
#
# Youngs Moduli (GPa) = 73.08635 99.06834 48.85499
#
# Poissons Ratio (x) = 0.38514 0.08125
# Poissons Ratio (y) = 0.28413 0.17742
# Poissons Ratio (z) = 0.12155 0.35977
#
# Static dielectric constant tensor:
#      x y z
#    x 3.411600 0.000000 0.000000 
#    y 0.000000 4.160720 0.000000 
#    z 0.000000 0.000000 3.005040 
# 
# 
# High freq. dielectric constant tensor:
#      x y z
#    x 1.721460 0.000000 0.000000 
#    y 0.000000 1.724590 0.000000 
#    z 0.000000 0.000000 1.649320 
# 
# From -- ./inp_files/21411.got.cif
#   From: 2010.03.12/outbox.cif.g09.slc.cpg/sg46_11_cif.got.tgz:21411.got - 2010.04.14 02:56:35.
