data_PCOD8191533
_publ_section_title
;
Structure prediction by ZEFSAII (Michael W. Deem and Ramdas Pophale) SiO2 
 PCOD8191533
Probable space group: I M A 2
;
_chemical_formula_sum "Si O2"
_cell_formula_units_Z 56
_cell_length_a 8.710820
_cell_length_b 19.050310
_cell_length_c 17.769539
_cell_angle_alpha 90.000000
_cell_angle_beta 90.000000
_cell_angle_gamma 90.000000
_cell_volume 2948.745205
_symmetry_space_group_name_H-M "I M A 2"
_symmetry_group_IT_number 46
_symmetry_cell_setting 'orthorhombic'
loop_
_space_group_symop_operation_xyz
x,y,z
-x,-y,z
1/2-x,y,z
1/2+x,-y,z
1/2+x,1/2+y,1/2+z
1/2-x,1/2-y,1/2+z
-x,1/2+y,1/2+z
x,1/2-y,1/2+z
loop_
_atom_site_type_symbol
_atom_site_label
_atom_site_fract_x
_atom_site_fract_y
_atom_site_fract_z
Si Si1 0.922328 0.290755 0.315010
Si Si2 0.433614 0.576996 0.780688
Si Si3 0.419501 0.431908 0.329296
Si Si4 0.568647 0.196679 0.582225
Si Si5 0.921647 0.162963 0.420258
Si Si6 0.930001 0.798918 0.190437
Si Si7 0.420207 0.068339 0.652900
O O1 0.750000 0.296618 0.280876
O O2 0.922134 0.240076 0.385939
O O3 0.978038 0.364537 0.347501
O O4 0.036231 0.261621 0.251482
O O5 0.500000 0.500000 0.767041
O O6 0.250000 0.576085 0.780015
O O7 0.497449 0.607697 0.860922
O O8 0.488364 0.628152 0.713427
O O9 0.500000 0.500000 0.366193
O O10 0.250000 0.422657 0.364726
O O11 0.404667 0.443720 0.240887
O O12 0.750000 0.208512 0.576725
O O13 0.497260 0.170963 0.501706
O O14 0.493137 0.269961 0.610376
O O15 0.527433 0.135600 0.640765
O O16 0.750000 0.135658 0.434541
O O17 0.750000 0.812303 0.184654
O O18 0.250000 0.079010 0.617635
O O19 0.500000 0.000000 0.615480
#
# Coordination Sequence:
#
# PCOD8191533 Si02
#       7
#     8   8   8   8   8   8   8
#     4  10  18  33  54  75 101 134 173 219 264 311
#     4  10  20  38  60  84 111 144 184 230 279 330
#     4  10  19  30  47  72 102 132 167 207 251 301
#     4  11  20  34  54  77 108 145 180 220 268 319
#     4   8  19  35  53  78 107 140 178 216 266 327
#     4  11  21  34  53  80 108 140 182 226 268 319
#     4  10  20  32  46  70 104 137 172 208 248 301
#
# _framework density 18.991128
#
# number of rings (size 3 to 8) (size 9 to 14) (size 15 to 20)
#    0.000    2.000    1.429    4.286    0.000    1.714 
#    0.000   10.000    0.000    0.857    0.000    4.000 
#    0.000    0.000    0.000    0.000    0.000    0.000 
#
# Total GULP energy -347071.277138 kJ/mol
# GULP energy per Si atom -12395.402755 kJ/mol
# Density = 1.894790 g / cm^3
# Si number density = 18.991128 Si / 1000 Ang^3
#
#
#
# Elastic Constant Matrix: (Units=GPa)
#
#
# Indices 1 2 3 4 5 6 
#
# 1 101.1559 38.7582 18.7856 0.0000 0.0000 0.0000
# 2 38.7582 140.3448 22.5820 0.0000 0.0000 0.0000
# 3 18.7856 22.5820 47.7658 0.0000 0.0000 0.0000
# 4 0.0000 0.0000 0.0000 14.7819 0.0000 0.0000
# 5 0.0000 0.0000 0.0000 0.0000 12.6392 0.0000
# 6 0.0000 0.0000 0.0000 0.0000 0.0000 32.4217
#
#
#
# Elastic Compliance Matrix: (Units=1/GPa)
#
#
# Indices 1 2 3 4 5 6 
#
# 1 0.011510 -0.002652 -0.003273 0.000000 0.000000 0.000000
# 2 -0.002652 0.008323 -0.002892 0.000000 0.000000 0.000000
# 3 -0.003273 -0.002892 0.023590 0.000000 0.000000 0.000000
# 4 0.000000 0.000000 0.000000 0.067650 0.000000 0.000000
# 5 0.000000 0.000000 0.000000 0.000000 0.079119 0.000000
# 6 0.000000 0.000000 0.000000 0.000000 0.000000 0.030844
#
#
# Mechanical properties :
#
#
# Convention : Reuss Voigt Hill
#
# Bulk Modulus (GPa) = 38.77592 49.94642 44.36117
# Shear Modulus (GPa) = 20.22126 25.91128 23.06627
#
# Velocity S-wave (km/s) = 3.26663 3.69777 3.48887
# Velocity P-wave (km/s) = 5.88983 6.67745 6.29596
#
# Compressibility (1/GPa) = 0.02578920
#
# Stress axis : x y z
#
# Youngs Moduli (GPa) = 86.88382 120.14917 42.39121
#
# Poissons Ratio (x) = 0.31863 0.13874
# Poissons Ratio (y) = 0.23041 0.12259
# Poissons Ratio (z) = 0.28436 0.34745
#
# Static dielectric constant tensor:
#      x y z
#    x 3.551550 0.000000 0.000000 
#    y 0.000000 3.512500 0.000000 
#    z 0.000000 0.000000 3.295720 
# 
# 
# High freq. dielectric constant tensor:
#      x y z
#    x 1.739420 0.000000 0.000000 
#    y 0.000000 1.740810 0.000000 
#    z 0.000000 0.000000 1.697060 
# 
# From -- ./inp_files/21235.got.cif
#   From: 2010.03.12/outbox.cif.g09.slc.cpg/sg46_11_cif.got.tgz:21235.got - 2010.04.14 02:56:35.
