data_PCOD8191058
_publ_section_title
;
Structure prediction by ZEFSAII (Michael W. Deem and Ramdas Pophale) SiO2 
 PCOD8191058
Probable space group: I B A 2
;
_chemical_formula_sum "Si O2"
_cell_formula_units_Z 48
_cell_length_a 8.393837
_cell_length_b 16.170177
_cell_length_c 14.627013
_cell_angle_alpha 90.000000
_cell_angle_beta 90.000000
_cell_angle_gamma 90.000000
_cell_volume 1985.321988
_symmetry_space_group_name_H-M "I B A 2"
_symmetry_group_IT_number 45
_symmetry_cell_setting 'orthorhombic'
loop_
_space_group_symop_operation_xyz
x,y,z
-x,-y,z
-x,y,1/2+z
x,-y,1/2+z
1/2+x,1/2+y,1/2+z
1/2-x,1/2-y,1/2+z
1/2-x,1/2+y,z
1/2+x,1/2-y,z
loop_
_atom_site_type_symbol
_atom_site_label
_atom_site_fract_x
_atom_site_fract_y
_atom_site_fract_z
Si Si1 0.616775 0.922884 0.502460
Si Si2 0.131079 0.207083 0.172075
Si Si3 0.183073 0.670144 0.990484
Si Si4 0.286284 0.628675 0.674394
Si Si5 0.822219 0.831283 0.370395
Si Si6 0.119506 0.925626 0.363851
O O1 0.504847 0.840882 0.509131
O O2 0.738805 0.928432 0.588153
O O3 0.724535 0.910054 0.411455
O O4 0.500000 0.000000 0.498400
O O5 0.142431 0.305985 0.186645
O O6 0.216270 0.169882 0.262538
O O7 0.949483 0.178958 0.155707
O O8 0.230210 0.177656 0.085934
O O9 0.217665 0.748001 0.925125
O O10 0.243281 0.584996 0.940104
O O11 0.303631 0.569877 0.762597
O O12 0.012579 0.843175 0.376349
O O13 0.000000 0.000000 0.381843
#
# Coordination Sequence:
#
# PCOD8191058 Si02
#       6
#     8   8   8   8   8   8
#     4  12  27  44  70 109 153 188 239 306 378 446
#     4  11  24  42  75 104 139 186 255 310 353 440
#     4  12  24  43  74 103 142 194 244 306 361 448
#     4  11  24  44  71 106 143 189 247 302 375 432
#     4  11  24  45  71 103 140 192 249 303 363 441
#     4  11  25  46  72 105 148 192 239 304 380 442
#
# _framework density 24.177439
#
# number of rings (size 3 to 8) (size 9 to 14) (size 15 to 20)
#    0.000    0.667    3.333    4.000    2.333    4.000 
#    0.000    3.333    0.000    0.000    0.000    0.000 
#    0.000    0.000    0.000    0.000    0.000    0.000 
#
# Total GULP energy -297549.575728 kJ/mol
# GULP energy per Si atom -12397.898989 kJ/mol
# Density = 2.412241 g / cm^3
# Si number density = 24.177439 Si / 1000 Ang^3
#
#
#
# Elastic Constant Matrix: (Units=GPa)
#
#
# Indices 1 2 3 4 5 6 
#
# 1 106.7909 23.4429 68.8058 0.0000 0.0000 0.0000
# 2 23.4429 60.8489 41.5915 0.0000 0.0000 0.0000
# 3 68.8058 41.5915 191.3999 0.0000 0.0000 0.0000
# 4 0.0000 0.0000 0.0000 25.3994 0.0000 0.0000
# 5 0.0000 0.0000 0.0000 0.0000 47.0506 0.0000
# 6 0.0000 0.0000 0.0000 0.0000 0.0000 23.4342
#
#
#
# Elastic Compliance Matrix: (Units=1/GPa)
#
#
# Indices 1 2 3 4 5 6 
#
# 1 0.012397 -0.002032 -0.004015 0.000000 0.000000 0.000000
# 2 -0.002032 0.019634 -0.003536 0.000000 0.000000 0.000000
# 3 -0.004015 -0.003536 0.007436 0.000000 0.000000 0.000000
# 4 0.000000 0.000000 0.000000 0.039371 0.000000 0.000000
# 5 0.000000 0.000000 0.000000 0.000000 0.021254 0.000000
# 6 0.000000 0.000000 0.000000 0.000000 0.000000 0.042673
#
#
# Mechanical properties :
#
#
# Convention : Reuss Voigt Hill
#
# Bulk Modulus (GPa) = 49.25734 69.63557 59.44645
# Shear Modulus (GPa) = 29.63880 34.19013 31.91446
#
# Velocity S-wave (km/s) = 3.50506 3.76458 3.63714
# Velocity P-wave (km/s) = 6.06615 6.91089 6.50225
#
# Compressibility (1/GPa) = 0.02030154
#
# Stress axis : x y z
#
# Youngs Moduli (GPa) = 80.66448 50.93228 134.47318
#
# Poissons Ratio (x) = 0.10348 0.53992
# Poissons Ratio (y) = 0.16389 0.47551
# Poissons Ratio (z) = 0.32387 0.18010
#
# Static dielectric constant tensor:
#      x y z
#    x 4.724520 0.000000 0.000000 
#    y 0.000000 4.198170 0.000000 
#    z 0.000000 0.000000 4.465100 
# 
# 
# High freq. dielectric constant tensor:
#      x y z
#    x 1.973830 0.000000 0.000000 
#    y 0.000000 1.948750 0.000000 
#    z 0.000000 0.000000 1.970920 
# 
# From -- ./inp_files/5605.got.cif
#   From: 2010.03.12/outbox.cif.g09.slc.cpg/sg45_3_cif.got.tgz:5605.got - 2010.04.14 02:50:11.
