data_PCOD8191282
_publ_section_title
;
Structure prediction by ZEFSAII (Michael W. Deem and Ramdas Pophale) SiO2 
 PCOD8191282
Probable space group: I M A 2
;
_chemical_formula_sum "Si O2"
_cell_formula_units_Z 64
_cell_length_a 18.005543
_cell_length_b 12.493178
_cell_length_c 18.424133
_cell_angle_alpha 90.000000
_cell_angle_beta 90.000000
_cell_angle_gamma 90.000000
_cell_volume 4144.443381
_symmetry_space_group_name_H-M "I M A 2"
_symmetry_group_IT_number 46
_symmetry_cell_setting 'orthorhombic'
loop_
_space_group_symop_operation_xyz
x,y,z
-x,-y,z
1/2-x,y,z
1/2+x,-y,z
1/2+x,1/2+y,1/2+z
1/2-x,1/2-y,1/2+z
-x,1/2+y,1/2+z
x,1/2-y,1/2+z
loop_
_atom_site_type_symbol
_atom_site_label
_atom_site_fract_x
_atom_site_fract_y
_atom_site_fract_z
Si Si1 0.000000 0.176384 0.422190
Si Si2 0.949845 0.234774 0.572707
Si Si3 0.166267 0.950491 0.576843
Si Si4 0.117798 0.500000 0.922190
Si Si5 0.442575 0.905734 0.184259
Si Si6 0.333733 0.049508 0.267537
Si Si7 0.057425 0.094266 0.660121
Si Si8 0.949845 0.734774 0.771673
O O1 0.067140 0.099840 0.446832
O O2 0.029709 0.250182 0.356436
O O3 0.970291 0.250182 0.487944
O O4 0.932862 0.099839 0.397548
O O5 0.880857 0.156737 0.587345
O O6 0.927217 0.349282 0.606612
O O7 0.023916 0.185006 0.607882
O O8 0.250000 0.931412 0.604125
O O9 0.168607 0.976941 0.491461
O O10 0.132108 0.047376 0.624355
O O11 0.168607 0.476941 0.852919
O O12 0.476084 0.814993 0.236498
O O13 0.500000 0.000000 0.170772
O O14 0.367892 0.952623 0.220025
O O15 0.250000 0.068588 0.240255
O O16 0.380857 0.156736 0.257034
O O17 0.072784 0.150718 0.737768
O O18 0.000000 0.000000 0.673609
#
# Coordination Sequence:
#
# PCOD8191282 Si02
#       8
#     8   8   8   8   8   8   8   8
#     4   9  14  26  47  66  86 116 151 196 227 260
#     4   9  17  29  47  64  88 116 155 185 227 268
#     4  10  18  27  43  68  95 120 146 184 232 278
#     4   9  15  26  42  66  94 116 146 190 236 274
#     4   9  17  31  45  64  88 118 148 188 223 267
#     4  10  18  27  43  68  95 120 146 184 232 278
#     4   9  17  31  45  64  88 118 148 188 223 267
#     4   9  17  29  47  64  88 116 155 185 227 268
#
# _framework density 15.442361999999999
#
# number of rings (size 3 to 8) (size 9 to 14) (size 15 to 20)
#    0.000    2.750    2.500    0.375    0.000    1.000 
#    0.000    0.625    0.000    0.000    0.000    0.000 
#    0.000   11.500    0.000    0.000    0.000    0.000 
#
# Total GULP energy -396622.166289 kJ/mol
# GULP energy per Si atom -12394.442697 kJ/mol
# Density = 1.540721 g / cm^3
# Si number density = 15.442362 Si / 1000 Ang^3
#
#
#
# Elastic Constant Matrix: (Units=GPa)
#
#
# Indices 1 2 3 4 5 6 
#
# 1 84.7361 10.5136 23.3624 0.0000 0.0000 0.0000
# 2 10.5136 45.6054 35.9717 0.0000 0.0000 0.0000
# 3 23.3624 35.9717 78.8700 0.0000 0.0000 0.0000
# 4 0.0000 0.0000 0.0000 31.6795 0.0000 0.0000
# 5 0.0000 0.0000 0.0000 0.0000 14.9902 0.0000
# 6 0.0000 0.0000 0.0000 0.0000 0.0000 6.4656
#
#
#
# Elastic Compliance Matrix: (Units=1/GPa)
#
#
# Indices 1 2 3 4 5 6 
#
# 1 0.012851 0.000062 -0.003835 0.000000 0.000000 0.000000
# 2 0.000062 0.034248 -0.015639 0.000000 0.000000 0.000000
# 3 -0.003835 -0.015639 0.020948 0.000000 0.000000 0.000000
# 4 0.000000 0.000000 0.000000 0.031566 0.000000 0.000000
# 5 0.000000 0.000000 0.000000 0.000000 0.066710 0.000000
# 6 0.000000 0.000000 0.000000 0.000000 0.000000 0.154664
#
#
# Mechanical properties :
#
#
# Convention : Reuss Voigt Hill
#
# Bulk Modulus (GPa) = 34.21844 38.76741 36.49292
# Shear Modulus (GPa) = 13.52995 19.91800 16.72398
#
# Velocity S-wave (km/s) = 2.96321 3.59531 3.29446
# Velocity P-wave (km/s) = 5.82361 6.51108 6.17691
#
# Compressibility (1/GPa) = 0.02922401
#
# Stress axis : x y z
#
# Youngs Moduli (GPa) = 77.81516 29.19892 47.73808
#
# Poissons Ratio (x) = -0.00182 0.18308
# Poissons Ratio (y) = -0.00485 0.74655
# Poissons Ratio (z) = 0.29843 0.45663
#
# Static dielectric constant tensor:
#      x y z
#    x 2.761490 0.000000 0.000000 
#    y 0.000000 2.803790 0.000000 
#    z 0.000000 0.000000 3.028310 
# 
# 
# High freq. dielectric constant tensor:
#      x y z
#    x 1.578230 0.000000 0.000000 
#    y 0.000000 1.565950 0.000000 
#    z 0.000000 0.000000 1.591020 
# 
# From -- ./inp_files/20039.got.cif
#   From: 2010.03.12/outbox.cif.g09.slc.cpg/sg46_11_cif.got.tgz:20039.got - 2010.04.14 02:56:35.
