data_PCOD8191097
_publ_section_title
;
Structure prediction by ZEFSAII (Michael W. Deem and Ramdas Pophale) SiO2 
 PCOD8191097
Probable space group: I B A 2
;
_chemical_formula_sum "Si O2"
_cell_formula_units_Z 40
_cell_length_a 9.276157
_cell_length_b 9.656767
_cell_length_c 20.181819
_cell_angle_alpha 90.000000
_cell_angle_beta 90.000000
_cell_angle_gamma 90.000000
_cell_volume 1807.840662
_symmetry_space_group_name_H-M "I B A 2"
_symmetry_group_IT_number 45
_symmetry_cell_setting 'orthorhombic'
loop_
_space_group_symop_operation_xyz
x,y,z
-x,-y,z
-x,y,1/2+z
x,-y,1/2+z
1/2+x,1/2+y,1/2+z
1/2-x,1/2-y,1/2+z
1/2-x,1/2+y,z
1/2+x,1/2-y,z
loop_
_atom_site_type_symbol
_atom_site_label
_atom_site_fract_x
_atom_site_fract_y
_atom_site_fract_z
Si Si1 0.260975 0.751592 0.752210
Si Si2 0.985630 0.659849 0.338322
Si Si3 0.702943 0.922165 0.029970
Si Si4 0.165108 0.004014 0.166032
Si Si5 0.081121 0.302329 0.980955
O O1 0.176861 0.695691 0.816901
O O2 0.417910 0.794777 0.776619
O O3 0.278901 0.641035 0.694100
O O4 0.177003 0.883094 0.723695
O O5 0.000000 0.500000 0.353211
O O6 0.028048 0.733091 0.406847
O O7 0.728643 0.962525 0.105789
O O8 0.838473 0.835215 0.004287
O O9 0.558439 0.828990 0.027217
O O10 0.683768 0.061258 0.985476
O O11 0.000000 0.000000 0.141774
#
# Coordination Sequence:
#
# PCOD8191097 Si02
#       5
#     8   8   8   8   8
#     4  12  26  45  74 103 141 191 231 295 355 420
#     4  12  24  46  73 104 148 180 240 296 355 425
#     4  11  26  46  72 103 145 184 239 292 354 425
#     4  12  27  46  70 106 142 187 240 289 357 427
#     4  11  26  48  72 109 140 191 235 297 362 418
#
# _framework density 22.125843
#
# number of rings (size 3 to 8) (size 9 to 14) (size 15 to 20)
#    0.000    0.400    6.000    2.400    5.600    3.200 
#    0.000    0.000    0.000    0.000    0.000    0.000 
#    0.000    0.000    0.000    0.000    0.000    0.000 
#
# Total GULP energy -248128.929487 kJ/mol
# GULP energy per Si atom -12406.446474 kJ/mol
# Density = 2.207548 g / cm^3
# Si number density = 22.125843 Si / 1000 Ang^3
#
#
#
# Elastic Constant Matrix: (Units=GPa)
#
#
# Indices 1 2 3 4 5 6 
#
# 1 98.7932 20.5865 44.4831 0.0000 0.0000 0.0000
# 2 20.5865 61.4258 25.1360 0.0000 0.0000 0.0000
# 3 44.4831 25.1360 118.2619 0.0000 0.0000 0.0000
# 4 0.0000 0.0000 0.0000 -14.5844 0.0000 0.0000
# 5 0.0000 0.0000 0.0000 0.0000 40.7193 0.0000
# 6 0.0000 0.0000 0.0000 0.0000 0.0000 38.8158
#
#
#
# Elastic Compliance Matrix: (Units=1/GPa)
#
#
# Indices 1 2 3 4 5 6 
#
# 1 0.012523 -0.002486 -0.004182 0.000000 0.000000 0.000000
# 2 -0.002486 0.018324 -0.002960 0.000000 0.000000 0.000000
# 3 -0.004182 -0.002960 0.010658 0.000000 0.000000 0.000000
# 4 0.000000 0.000000 0.000000 -0.068566 0.000000 0.000000
# 5 0.000000 0.000000 0.000000 0.000000 0.024558 0.000000
# 6 0.000000 0.000000 0.000000 0.000000 0.000000 0.025763
#
#
# Mechanical properties :
#
#
# Convention : Reuss Voigt Hill
#
# Bulk Modulus (GPa) = 44.94374 50.98801 47.96587
# Shear Modulus (GPa) = 100.13700 25.54183 62.83942
#
# Velocity S-wave (km/s) = 6.73470 3.40132 5.33503
# Velocity P-wave (km/s) = 8.99065 6.20644 7.72501
#
# Compressibility (1/GPa) = 0.02225004
#
# Stress axis : x y z
#
# Youngs Moduli (GPa) = 79.85185 54.57317 93.82664
#
# Poissons Ratio (x) = 0.13565 0.39240
# Poissons Ratio (y) = 0.19849 0.27770
# Poissons Ratio (z) = 0.33395 0.16152
#
# Static dielectric constant tensor:
#      x y z
#    x 4.048480 0.000000 0.000000 
#    y 0.000000 4.040520 0.000000 
#    z 0.000000 0.000000 3.866000 
# 
# 
# High freq. dielectric constant tensor:
#      x y z
#    x 1.879760 0.000000 0.000000 
#    y 0.000000 1.875970 0.000000 
#    z 0.000000 0.000000 1.874710 
# 
# From -- ./inp_files/7425.got.cif
#   From: 2010.03.12/outbox.cif.g09.slc.cpg/sg45_4_cif.got.tgz:7425.got - 2010.04.14 02:50:11.
