data_PCOD8191251
_publ_section_title
;
Structure prediction by ZEFSAII (Michael W. Deem and Ramdas Pophale) SiO2 
 PCOD8191251
Probable space group: I M A 2
;
_chemical_formula_sum "Si O2"
_cell_formula_units_Z 64
_cell_length_a 8.985971
_cell_length_b 26.464506
_cell_length_c 18.432128
_cell_angle_alpha 90.000000
_cell_angle_beta 90.000000
_cell_angle_gamma 90.000000
_cell_volume 4383.331152
_symmetry_space_group_name_H-M "I M A 2"
_symmetry_group_IT_number 46
_symmetry_cell_setting 'orthorhombic'
loop_
_space_group_symop_operation_xyz
x,y,z
-x,-y,z
1/2-x,y,z
1/2+x,-y,z
1/2+x,1/2+y,1/2+z
1/2-x,1/2-y,1/2+z
-x,1/2+y,1/2+z
x,1/2-y,1/2+z
loop_
_atom_site_type_symbol
_atom_site_label
_atom_site_fract_x
_atom_site_fract_y
_atom_site_fract_z
Si Si1 0.573182 0.247250 0.132760
Si Si2 0.925412 0.751170 0.980030
Si Si3 0.584146 0.299427 0.857140
Si Si4 0.072367 0.448629 0.480852
Si Si5 0.075779 0.349630 0.395838
Si Si6 0.573823 0.349500 0.717158
Si Si7 0.927804 0.051273 0.135425
Si Si8 0.914059 0.304330 0.270355
O O1 0.750000 0.245635 0.122572
O O2 0.511544 0.193423 0.162520
O O3 0.527277 0.291928 0.189188
O O4 0.497098 0.259562 0.057204
O O5 0.750000 0.750023 0.988073
O O6 0.983411 0.805107 0.948869
O O7 0.975986 0.706209 0.926003
O O8 0.750000 0.313957 0.884554
O O9 0.518953 0.341209 0.800439
O O10 0.591503 0.247961 0.812707
O O11 0.250000 0.454309 0.489168
O O12 0.026896 0.403684 0.426895
O O13 0.000000 0.500000 0.449426
O O14 0.999439 0.436155 0.558013
O O15 0.250000 0.344760 0.390483
O O16 0.015156 0.344151 0.313890
O O17 0.750000 0.343528 0.717755
O O18 0.524172 0.404507 0.690257
O O19 0.750000 0.046077 0.127723
O O20 0.000000 0.000000 0.166670
O O21 0.750000 0.328300 0.266030
#
# Coordination Sequence:
#
# PCOD8191251 Si02
#       8
#     8   8   8   8   8   8   8   8
#     4   9  16  27  41  58  78 103 134 165 191 224
#     4  10  18  26  37  58  83 106 130 158 193 235
#     4   8  14  27  42  55  73 100 131 164 194 225
#     4  10  19  30  41  56  78 105 135 167 197 228
#     4   9  18  29  40  55  79 106 132 161 197 234
#     4   8  15  27  43  58  74 101 138 168 193 226
#     4  10  18  28  41  58  79 104 133 167 200 231
#     4   8  15  26  41  58  75  97 130 164 193 227
#
# _framework density 14.600768
#
# number of rings (size 3 to 8) (size 9 to 14) (size 15 to 20)
#    0.000    3.000    0.000    4.125    0.000    2.000 
#    0.000    3.750    0.000    0.000    0.000    0.000 
#    0.000    1.000    0.000    9.000    0.000    5.375 
#
# Total GULP energy -396582.650018 kJ/mol
# GULP energy per Si atom -12393.207813 kJ/mol
# Density = 1.456754 g / cm^3
# Si number density = 14.600768 Si / 1000 Ang^3
#
#
#
# Elastic Constant Matrix: (Units=GPa)
#
#
# Indices 1 2 3 4 5 6 
#
# 1 46.2979 31.9614 38.2202 0.0000 0.0000 0.0000
# 2 31.9614 87.5793 61.4626 0.0000 0.0000 0.0000
# 3 38.2202 61.4626 118.7283 -0.0002 0.0000 0.0000
# 4 0.0000 0.0000 -0.0002 27.1901 0.0000 0.0000
# 5 0.0000 0.0000 0.0000 0.0000 21.1075 0.0000
# 6 0.0000 0.0000 0.0000 0.0000 0.0000 18.0661
#
#
#
# Elastic Compliance Matrix: (Units=1/GPa)
#
#
# Indices 1 2 3 4 5 6 
#
# 1 0.031912 -0.006968 -0.006666 0.000000 0.000000 0.000000
# 2 -0.006968 0.019455 -0.007828 0.000000 0.000000 0.000000
# 3 -0.006666 -0.007828 0.014621 0.000000 0.000000 0.000000
# 4 0.000000 0.000000 0.000000 0.036778 0.000000 0.000000
# 5 0.000000 0.000000 0.000000 0.000000 0.047377 0.000000
# 6 0.000000 0.000000 0.000000 0.000000 0.000000 0.055352
#
#
# Mechanical properties :
#
#
# Convention : Reuss Voigt Hill
#
# Bulk Modulus (GPa) = 43.35772 57.32154 50.33963
# Shear Modulus (GPa) = 19.52303 21.33680 20.42991
#
# Velocity S-wave (km/s) = 3.66064 3.82691 3.74469
# Velocity P-wave (km/s) = 6.90123 7.67277 7.29721
#
# Compressibility (1/GPa) = 0.02306394
#
# Stress axis : x y z
#
# Youngs Moduli (GPa) = 31.33569 51.40066 68.39548
#
# Poissons Ratio (x) = 0.35817 0.45591
# Poissons Ratio (y) = 0.21835 0.53541
# Poissons Ratio (z) = 0.20888 0.40237
#
# Static dielectric constant tensor:
#      x y z
#    x 2.808350 0.000000 0.000000 
#    y 0.000000 2.846160 0.000000 
#    z 0.000000 0.000000 2.944700 
# 
# 
# High freq. dielectric constant tensor:
#      x y z
#    x 1.555030 0.000000 0.000000 
#    y 0.000000 1.526740 0.000000 
#    z 0.000000 0.000000 1.549160 
# 
# From -- ./inp_files/18676.got.cif
#   From: 2010.03.12/outbox.cif.g09.slc.cpg/sg46_10_cif.got.tgz:18676.got - 2010.04.14 02:56:35.
