data_PCOD8191928
_publ_section_title
;
Structure prediction by ZEFSAII (Michael W. Deem and Ramdas Pophale) SiO2 
 PCOD8191928
Probable space group: I M A 2
;
_chemical_formula_sum "Si O2"
_cell_formula_units_Z 64
_cell_length_a 9.082814
_cell_length_b 24.743742
_cell_length_c 15.069373
_cell_angle_alpha 90.000000
_cell_angle_beta 90.000000
_cell_angle_gamma 90.000000
_cell_volume 3386.733176
_symmetry_space_group_name_H-M "I M A 2"
_symmetry_group_IT_number 46
_symmetry_cell_setting 'orthorhombic'
loop_
_space_group_symop_operation_xyz
x,y,z
-x,-y,z
1/2-x,y,z
1/2+x,-y,z
1/2+x,1/2+y,1/2+z
1/2-x,1/2-y,1/2+z
-x,1/2+y,1/2+z
x,1/2-y,1/2+z
loop_
_atom_site_type_symbol
_atom_site_label
_atom_site_fract_x
_atom_site_fract_y
_atom_site_fract_z
Si Si1 0.919020 0.895109 0.458760
Si Si2 0.581567 0.129282 0.786321
Si Si3 0.420141 0.276138 0.999371
Si Si4 0.574383 0.444187 0.795776
Si Si5 0.418690 0.767490 0.677666
Si Si6 0.922708 0.330741 0.470986
Si Si7 0.077870 0.647559 0.666124
Si Si8 0.578061 0.943072 0.647946
O O1 0.750000 0.911276 0.438823
O O2 0.944239 0.831200 0.443874
O O3 0.960579 0.909682 0.559749
O O4 0.025781 0.928414 0.394850
O O5 0.750000 0.111594 0.769211
O O6 0.557056 0.191657 0.758446
O O7 0.476511 0.089112 0.734174
O O8 0.541805 0.127657 0.891152
O O9 0.250000 0.261298 0.006914
O O10 0.480071 0.286913 0.097646
O O11 0.502142 0.226904 0.951447
O O12 0.500000 0.500000 0.766868
O O13 0.750000 0.449648 0.793716
O O14 0.509510 0.399312 0.727446
O O15 0.250000 0.767642 0.644113
O O16 0.462006 0.706424 0.706855
O O17 0.750000 0.318940 0.476461
O O18 0.980941 0.355623 0.564224
O O19 0.250000 0.637334 0.666178
O O20 0.750000 0.952696 0.659147
O O21 0.500000 0.000000 0.642614
#
# Coordination Sequence:
#
# PCOD8191928 Si02
#       8
#     8   8   8   8   8   8   8   8
#     4  10  22  38  55  81 115 149 185 227 277 337
#     4  10  20  34  58  87 114 148 190 233 279 333
#     4  10  19  33  52  81 117 150 183 221 276 333
#     4  11  23  38  59  81 108 145 190 238 283 332
#     4   9  17  32  54  81 111 143 185 226 269 331
#     4   9  19  36  58  83 115 150 189 233 275 334
#     4   8  17  35  56  80 110 145 185 231 277 326
#     4  11  23  40  59  80 114 152 190 234 282 337
#
# _framework density 18.897265999999998
#
# number of rings (size 3 to 8) (size 9 to 14) (size 15 to 20)
#    0.000    2.250    1.250    2.250    1.750    3.500 
#    0.000    5.625    0.000    1.500    0.000    0.000 
#    0.000    0.000    0.000    0.000    0.000    0.000 
#
# Total GULP energy -396754.006899 kJ/mol
# GULP energy per Si atom -12398.562716 kJ/mol
# Density = 1.885426 g / cm^3
# Si number density = 18.897266 Si / 1000 Ang^3
#
#
#
# Elastic Constant Matrix: (Units=GPa)
#
#
# Indices 1 2 3 4 5 6 
#
# 1 72.3867 46.3799 37.0489 -0.0001 0.0000 0.0000
# 2 46.3799 94.6892 31.1942 -0.0002 0.0001 0.0000
# 3 37.0489 31.1942 72.1625 -0.0007 0.0004 0.0000
# 4 -0.0001 -0.0002 -0.0007 28.5780 0.0000 0.0000
# 5 0.0000 0.0001 0.0004 0.0000 20.8292 0.0000
# 6 0.0000 0.0000 0.0000 0.0000 0.0000 32.4301
#
#
#
# Elastic Compliance Matrix: (Units=1/GPa)
#
#
# Indices 1 2 3 4 5 6 
#
# 1 0.023803 -0.008901 -0.008373 0.000000 0.000000 0.000000
# 2 -0.008901 0.015643 -0.002192 0.000000 0.000000 0.000000
# 3 -0.008373 -0.002192 0.019104 0.000000 0.000000 0.000000
# 4 0.000000 0.000000 0.000000 0.034992 0.000000 0.000000
# 5 0.000000 0.000000 0.000000 0.000000 0.048009 0.000000
# 6 0.000000 0.000000 0.000000 0.000000 0.000000 0.030836
#
#
# Mechanical properties :
#
#
# Convention : Reuss Voigt Hill
#
# Bulk Modulus (GPa) = 50.97429 52.05380 51.51405
# Shear Modulus (GPa) = 22.95068 24.67517 23.81293
#
# Velocity S-wave (km/s) = 3.48874 3.61744 3.55368
# Velocity P-wave (km/s) = 6.57734 6.71218 6.64510
#
# Compressibility (1/GPa) = 0.01961773
#
# Stress axis : x y z
#
# Youngs Moduli (GPa) = 42.01135 63.92756 52.34448
#
# Poissons Ratio (x) = 0.56899 0.43829
# Poissons Ratio (y) = 0.37393 0.11476
# Poissons Ratio (z) = 0.35177 0.14015
#
# Static dielectric constant tensor:
#      x y z
#    x 3.326050 0.000000 0.000000 
#    y 0.000000 3.551170 0.000000 
#    z 0.000000 0.000000 3.520430 
# 
# 
# High freq. dielectric constant tensor:
#      x y z
#    x 1.722290 0.000000 0.000000 
#    y 0.000000 1.730840 0.000000 
#    z 0.000000 0.000000 1.729370 
# 
# From -- ./inp_files/14471.got.cif
#   From: 2010.03.12/outbox.cif.g09.slc.cpg/sg46_8_cif.got.tgz:14471.got - 2010.04.14 02:56:35.
