data_PCOD8191409
_publ_section_title
;
Structure prediction by ZEFSAII (Michael W. Deem and Ramdas Pophale) SiO2 
 PCOD8191409
Probable space group: I M A 2
;
_chemical_formula_sum "Si O2"
_cell_formula_units_Z 56
_cell_length_a 8.982097
_cell_length_b 18.995621
_cell_length_c 17.982215
_cell_angle_alpha 90.000000
_cell_angle_beta 90.000000
_cell_angle_gamma 90.000000
_cell_volume 3068.134701
_symmetry_space_group_name_H-M "I M A 2"
_symmetry_group_IT_number 46
_symmetry_cell_setting 'orthorhombic'
loop_
_space_group_symop_operation_xyz
x,y,z
-x,-y,z
1/2-x,y,z
1/2+x,-y,z
1/2+x,1/2+y,1/2+z
1/2-x,1/2-y,1/2+z
-x,1/2+y,1/2+z
x,1/2-y,1/2+z
loop_
_atom_site_type_symbol
_atom_site_label
_atom_site_fract_x
_atom_site_fract_y
_atom_site_fract_z
Si Si1 0.571997 0.923375 0.794550
Si Si2 0.916189 0.433153 0.650417
Si Si3 0.414949 0.295492 0.813394
Si Si4 0.574392 0.204987 0.076429
Si Si5 0.412273 0.173193 0.927589
Si Si6 0.581679 0.431683 0.826787
Si Si7 0.926042 0.196893 0.702914
O O1 0.750000 0.927690 0.787384
O O2 0.525409 0.890017 0.874680
O O3 0.512385 0.873906 0.727187
O O4 0.500000 0.000000 0.786842
O O5 0.750000 0.438189 0.619494
O O6 0.992588 0.361290 0.622103
O O7 0.920472 0.435173 0.738463
O O8 0.000000 0.500000 0.615781
O O9 0.250000 0.313153 0.779787
O O10 0.391450 0.240998 0.878239
O O11 0.488992 0.363623 0.851144
O O12 0.526302 0.263661 0.752404
O O13 0.750000 0.200506 0.076631
O O14 0.530986 0.278684 0.118191
O O15 0.521380 0.197047 0.992437
O O16 0.250000 0.151350 0.959799
O O17 0.500000 0.500000 0.860790
O O18 0.750000 0.427903 0.857727
O O19 0.750000 0.184169 0.712247
#
# Coordination Sequence:
#
# PCOD8191409 Si02
#       7
#     8   8   8   8   8   8   8
#     4  10  21  38  58  83 110 142 184 228 276 330
#     4   9  18  31  44  68 101 132 166 202 239 293
#     4  10  19  33  51  74 102 134 175 219 259 310
#     4  10  20  34  51  75 107 141 179 217 263 319
#     4   9  21  36  51  75 106 138 177 217 263 321
#     4  10  18  30  48  72 101 131 166 207 253 300
#     4  10  19  34  55  79 106 138 178 226 270 318
#
# _framework density 18.252133000000001
#
# number of rings (size 3 to 8) (size 9 to 14) (size 15 to 20)
#    0.000    2.286    1.429    2.571    0.000    6.286 
#    0.000    2.857    0.000    0.857    0.000    6.000 
#    0.000    0.000    0.000    0.000    0.000    0.000 
#
# Total GULP energy -346967.639465 kJ/mol
# GULP energy per Si atom -12391.701409 kJ/mol
# Density = 1.821059 g / cm^3
# Si number density = 18.252133 Si / 1000 Ang^3
#
#
#
# Elastic Constant Matrix: (Units=GPa)
#
#
# Indices 1 2 3 4 5 6 
#
# 1 79.9268 46.7192 23.9739 0.0000 0.0000 0.0000
# 2 46.7192 117.9602 31.9215 0.0000 0.0000 0.0000
# 3 23.9739 31.9215 64.3720 0.0000 0.0000 0.0000
# 4 0.0000 0.0000 0.0000 13.4938 0.0000 0.0000
# 5 0.0000 0.0000 0.0000 0.0000 32.1759 0.0000
# 6 0.0000 0.0000 0.0000 0.0000 0.0000 32.2892
#
#
#
# Elastic Compliance Matrix: (Units=1/GPa)
#
#
# Indices 1 2 3 4 5 6 
#
# 1 0.016915 -0.005769 -0.003439 0.000000 0.000000 0.000000
# 2 -0.005769 0.011759 -0.003683 0.000000 0.000000 0.000000
# 3 -0.003439 -0.003683 0.018642 0.000000 0.000000 0.000000
# 4 0.000000 0.000000 0.000000 0.074108 0.000000 0.000000
# 5 0.000000 0.000000 0.000000 0.000000 0.031079 0.000000
# 6 0.000000 0.000000 0.000000 0.000000 0.000000 0.030970
#
#
# Mechanical properties :
#
#
# Convention : Reuss Voigt Hill
#
# Bulk Modulus (GPa) = 46.43653 51.94315 49.18984
# Shear Modulus (GPa) = 23.10199 26.23472 24.66835
#
# Velocity S-wave (km/s) = 3.56155 3.79535 3.68031
# Velocity P-wave (km/s) = 6.51228 6.90845 6.71329
#
# Compressibility (1/GPa) = 0.02153477
#
# Stress axis : x y z
#
# Youngs Moduli (GPa) = 59.11951 85.04311 53.64329
#
# Poissons Ratio (x) = 0.49059 0.18448
# Poissons Ratio (y) = 0.34104 0.19755
# Poissons Ratio (z) = 0.20331 0.31318
#
# Static dielectric constant tensor:
#      x y z
#    x 2.916020 0.000000 0.000000 
#    y 0.000000 3.572460 0.000000 
#    z 0.000000 0.000000 3.152780 
# 
# 
# High freq. dielectric constant tensor:
#      x y z
#    x 1.716620 0.000000 0.000000 
#    y 0.000000 1.712940 0.000000 
#    z 0.000000 0.000000 1.665560 
# 
# From -- ./inp_files/18464.got.cif
#   From: 2010.03.12/outbox.cif.g09.slc.cpg/sg46_10_cif.got.tgz:18464.got - 2010.04.14 02:56:35.
