data_PCOD8191981
_publ_section_title
;
Structure prediction by ZEFSAII (Michael W. Deem and Ramdas Pophale) SiO2 
 PCOD8191981
Probable space group: I M A 2
;
_chemical_formula_sum "Si O2"
_cell_formula_units_Z 64
_cell_length_a 8.786955
_cell_length_b 18.615379
_cell_length_c 20.938908
_cell_angle_alpha 90.000000
_cell_angle_beta 90.000000
_cell_angle_gamma 90.000000
_cell_volume 3425.029478
_symmetry_space_group_name_H-M "I M A 2"
_symmetry_group_IT_number 46
_symmetry_cell_setting 'orthorhombic'
loop_
_space_group_symop_operation_xyz
x,y,z
-x,-y,z
1/2-x,y,z
1/2+x,-y,z
1/2+x,1/2+y,1/2+z
1/2-x,1/2-y,1/2+z
-x,1/2+y,1/2+z
x,1/2-y,1/2+z
loop_
_atom_site_type_symbol
_atom_site_label
_atom_site_fract_x
_atom_site_fract_y
_atom_site_fract_z
Si Si1 0.571281 0.836062 0.948780
Si Si2 0.428381 0.169760 0.449145
Si Si3 0.575195 0.424812 0.700768
Si Si4 0.571801 0.577613 0.067321
Si Si5 0.570516 0.078413 0.339191
Si Si6 0.930063 0.420958 0.333504
Si Si7 0.928808 0.921992 0.707445
Si Si8 0.929415 0.420858 0.562467
O O1 0.750000 0.849166 0.939070
O O2 0.528552 0.752765 0.951525
O O3 0.479433 0.871090 0.891290
O O4 0.517527 0.869348 0.014972
O O5 0.250000 0.157557 0.441648
O O6 0.489449 0.132649 0.514122
O O7 0.509586 0.135535 0.388788
O O8 0.500000 0.500000 0.691435
O O9 0.750000 0.441796 0.708329
O O10 0.522349 0.390194 0.768408
O O11 0.543686 0.384464 0.633339
O O12 0.500000 0.500000 0.056318
O O13 0.750000 0.565608 0.060746
O O14 0.535182 0.611881 0.137621
O O15 0.750000 0.071326 0.347586
O O16 0.500000 0.000000 0.351161
O O17 0.750000 0.427572 0.331659
O O18 0.000000 0.500000 0.342715
O O19 0.990251 0.383033 0.267647
O O20 0.750000 0.925581 0.721089
O O21 0.000000 0.000000 0.705434
O O22 0.750000 0.425055 0.546219
O O23 0.000000 0.500000 0.556679
#
# Coordination Sequence:
#
# PCOD8191981 Si02
#       8
#     8   8   8   8   8   8   8   8
#     4  11  23  38  53  72 103 140 177 216 258 305
#     4  10  22  38  53  73 104 141 179 217 257 303
#     4   8  16  30  50  77 106 133 164 208 256 303
#     4   9  18  33  54  79 105 134 169 210 255 304
#     4  10  19  33  55  81 108 138 174 214 257 305
#     4  11  21  35  56  80 105 133 170 212 257 309
#     4   9  16  29  51  78 106 132 164 208 256 303
#     4  10  19  34  56  80 105 133 169 211 257 308
#
# _framework density 18.685970000000001
#
# number of rings (size 3 to 8) (size 9 to 14) (size 15 to 20)
#    0.000    2.250    0.000    4.125    0.000    4.000 
#    0.000    1.250    0.000    4.500    0.000    0.000 
#    0.000    0.000    0.000    0.000    0.000    0.000 
#
# Total GULP energy -396478.496470 kJ/mol
# GULP energy per Si atom -12389.953015 kJ/mol
# Density = 1.864344 g / cm^3
# Si number density = 18.685970 Si / 1000 Ang^3
#
#
#
# Elastic Constant Matrix: (Units=GPa)
#
#
# Indices 1 2 3 4 5 6 
#
# 1 78.4508 42.7865 56.8984 0.0000 0.0000 0.0000
# 2 42.7865 85.4463 70.6181 0.0000 0.0000 0.0000
# 3 56.8984 70.6181 180.1456 0.0000 0.0000 0.0000
# 4 0.0000 0.0000 0.0000 -5.1154 0.0000 0.0000
# 5 0.0000 0.0000 0.0000 0.0000 32.5915 0.0000
# 6 0.0000 0.0000 0.0000 0.0000 0.0000 22.8014
#
#
#
# Elastic Compliance Matrix: (Units=1/GPa)
#
#
# Indices 1 2 3 4 5 6 
#
# 1 0.018791 -0.006663 -0.003323 0.000000 0.000000 0.000000
# 2 -0.006663 0.019675 -0.005608 0.000000 0.000000 0.000000
# 3 -0.003323 -0.005608 0.008799 0.000000 0.000000 0.000000
# 4 0.000000 0.000000 0.000000 -0.195488 0.000000 0.000000
# 5 0.000000 0.000000 0.000000 0.000000 0.030683 0.000000
# 6 0.000000 0.000000 0.000000 0.000000 0.000000 0.043857
#
#
# Mechanical properties :
#
#
# Convention : Reuss Voigt Hill
#
# Bulk Modulus (GPa) = 62.20361 76.07205 69.13783
# Shear Modulus (GPa) = -134.63709 21.63814 -56.49948
#
# Velocity S-wave (km/s) = -8.49758 3.40661 -5.50472
# Velocity P-wave (km/s) = 7.93205 7.50150 1.82275
#
# Compressibility (1/GPa) = 0.01607624
#
# Stress axis : x y z
#
# Youngs Moduli (GPa) = 53.21707 50.82713 113.64848
#
# Poissons Ratio (x) = 0.33866 0.37767
# Poissons Ratio (y) = 0.35458 0.63735
# Poissons Ratio (z) = 0.17685 0.28504
#
# Static dielectric constant tensor:
#      x y z
#    x 3.428030 0.000000 0.000000 
#    y 0.000000 3.213650 0.000000 
#    z 0.000000 0.000000 4.473090 
# 
# 
# High freq. dielectric constant tensor:
#      x y z
#    x 1.735190 0.000000 0.000000 
#    y 0.000000 1.678480 0.000000 
#    z 0.000000 0.000000 1.759110 
# 
# From -- ./inp_files/21326.got.cif
#   From: 2010.03.12/outbox.cif.g09.slc.cpg/sg46_11_cif.got.tgz:21326.got - 2010.04.14 02:56:35.
