data_PCOD8191730
_publ_section_title
;
Structure prediction by ZEFSAII (Michael W. Deem and Ramdas Pophale) SiO2 
 PCOD8191730
Probable space group: I M A 2
;
_chemical_formula_sum "Si O2"
_cell_formula_units_Z 64
_cell_length_a 9.058460
_cell_length_b 23.108344
_cell_length_c 18.844089
_cell_angle_alpha 90.000000
_cell_angle_beta 90.000000
_cell_angle_gamma 90.000000
_cell_volume 3944.557959
_symmetry_space_group_name_H-M "I M A 2"
_symmetry_group_IT_number 46
_symmetry_cell_setting 'orthorhombic'
loop_
_space_group_symop_operation_xyz
x,y,z
-x,-y,z
1/2-x,y,z
1/2+x,-y,z
1/2+x,1/2+y,1/2+z
1/2-x,1/2-y,1/2+z
-x,1/2+y,1/2+z
x,1/2-y,1/2+z
loop_
_atom_site_type_symbol
_atom_site_label
_atom_site_fract_x
_atom_site_fract_y
_atom_site_fract_z
Si Si1 0.923440 0.768068 0.059780
Si Si2 0.077684 0.061229 0.569009
Si Si3 0.581126 0.224632 0.352586
Si Si4 0.578506 0.749139 0.218067
Si Si5 0.423002 0.559081 0.350714
Si Si6 0.921715 0.617579 0.220734
Si Si7 0.922168 0.167482 0.944426
Si Si8 0.422381 0.659238 0.990939
O O1 0.750000 0.759396 0.045939
O O2 0.956864 0.778721 0.142673
O O3 0.006832 0.710292 0.036741
O O4 0.984727 0.823440 0.016586
O O5 0.250000 0.053874 0.552773
O O6 0.048922 0.091780 0.643643
O O7 0.004394 0.099493 0.507212
O O8 0.000000 0.000000 0.569051
O O9 0.750000 0.231096 0.331236
O O10 0.494415 0.212681 0.279947
O O11 0.525034 0.284545 0.387737
O O12 0.555520 0.172065 0.407273
O O13 0.750000 0.748185 0.233004
O O14 0.519048 0.683255 0.220123
O O15 0.500000 0.500000 0.374410
O O16 0.250000 0.548861 0.340976
O O17 0.485457 0.580402 0.276039
O O18 0.456734 0.604619 0.413178
O O19 0.750000 0.613823 0.241364
O O20 0.750000 0.176404 0.962048
O O21 0.250000 0.655068 0.010369
#
# Coordination Sequence:
#
# PCOD8191730 Si02
#       8
#     8   8   8   8   8   8   8   8
#     4  10  19  32  50  73  99 127 163 204 246 295
#     4  11  22  36  51  71  99 133 173 209 245 289
#     4   9  18  32  49  71  97 126 163 201 244 294
#     4  10  19  31  48  74 102 129 162 200 242 293
#     4  11  22  35  50  70  98 132 173 209 244 290
#     4  10  20  34  48  69 101 134 171 205 237 286
#     4   9  19  34  48  69  97 127 164 205 245 291
#     4  10  20  34  50  71  98 129 166 206 247 292
#
# _framework density 16.224883999999999
#
# number of rings (size 3 to 8) (size 9 to 14) (size 15 to 20)
#    0.000    2.000    2.500    2.625    0.000    6.500 
#    0.000    0.000    0.000    0.000    0.000    0.875 
#    0.000    4.000    0.000    0.000    0.000    0.000 
#
# Total GULP energy -396854.208965 kJ/mol
# GULP energy per Si atom -12401.694030 kJ/mol
# Density = 1.618796 g / cm^3
# Si number density = 16.224884 Si / 1000 Ang^3
#
#
#
# Elastic Constant Matrix: (Units=GPa)
#
#
# Indices 1 2 3 4 5 6 
#
# 1 83.0837 34.8521 56.4730 0.0000 0.0000 0.0000
# 2 34.8521 40.7866 32.9876 0.0000 0.0000 0.0000
# 3 56.4730 32.9876 104.3080 0.0000 0.0000 0.0000
# 4 0.0000 0.0000 0.0000 21.5517 0.0000 0.0000
# 5 0.0000 0.0000 0.0000 0.0000 29.7118 0.0000
# 6 0.0000 0.0000 0.0000 0.0000 0.0000 28.3068
#
#
#
# Elastic Compliance Matrix: (Units=1/GPa)
#
#
# Indices 1 2 3 4 5 6 
#
# 1 0.023258 -0.013020 -0.008474 0.000000 0.000000 0.000000
# 2 -0.013020 0.040233 -0.005675 0.000000 0.000000 0.000000
# 3 -0.008474 -0.005675 0.015970 0.000000 0.000000 0.000000
# 4 0.000000 0.000000 0.000000 0.046400 0.000000 0.000000
# 5 0.000000 0.000000 0.000000 0.000000 0.033657 0.000000
# 6 0.000000 0.000000 0.000000 0.000000 0.000000 0.035327
#
#
# Mechanical properties :
#
#
# Convention : Reuss Voigt Hill
#
# Bulk Modulus (GPa) = 39.80478 52.97818 46.39148
# Shear Modulus (GPa) = 19.41323 22.83844 21.12583
#
# Velocity S-wave (km/s) = 3.46281 3.75589 3.61233
# Velocity P-wave (km/s) = 6.36981 7.17860 6.78627
#
# Compressibility (1/GPa) = 0.02512261
#
# Stress axis : x y z
#
# Youngs Moduli (GPa) = 42.99637 24.85523 62.61856
#
# Poissons Ratio (x) = 0.32361 0.53065
# Poissons Ratio (y) = 0.55981 0.35534
# Poissons Ratio (z) = 0.36437 0.14105
#
# Static dielectric constant tensor:
#      x y z
#    x 3.152050 0.000000 0.000000 
#    y 0.000000 3.037380 0.000000 
#    z 0.000000 0.000000 3.095060 
# 
# 
# High freq. dielectric constant tensor:
#      x y z
#    x 1.635360 0.000000 0.000000 
#    y 0.000000 1.598530 0.000000 
#    z 0.000000 0.000000 1.617920 
# 
# From -- ./inp_files/14436.got.cif
#   From: 2010.03.12/outbox.cif.g09.slc.cpg/sg46_8_cif.got.tgz:14436.got - 2010.04.14 02:56:35.
