data_PCOD8191748
_publ_section_title
;
Structure prediction by ZEFSAII (Michael W. Deem and Ramdas Pophale) SiO2 
 PCOD8191748
Probable space group: I M A 2
;
_chemical_formula_sum "Si O2"
_cell_formula_units_Z 64
_cell_length_a 8.761641
_cell_length_b 32.767036
_cell_length_c 10.530894
_cell_angle_alpha 90.000000
_cell_angle_beta 90.000000
_cell_angle_gamma 90.000000
_cell_volume 3023.346015
_symmetry_space_group_name_H-M "I M A 2"
_symmetry_group_IT_number 46
_symmetry_cell_setting 'orthorhombic'
loop_
_space_group_symop_operation_xyz
x,y,z
-x,-y,z
1/2-x,y,z
1/2+x,-y,z
1/2+x,1/2+y,1/2+z
1/2-x,1/2-y,1/2+z
-x,1/2+y,1/2+z
x,1/2-y,1/2+z
loop_
_atom_site_type_symbol
_atom_site_label
_atom_site_fract_x
_atom_site_fract_y
_atom_site_fract_z
Si Si1 0.574284 0.563834 0.670090
Si Si2 0.429053 0.769317 0.179554
Si Si3 0.069166 0.873494 0.540892
Si Si4 0.932323 0.212869 0.455806
Si Si5 0.423050 0.537917 0.416916
Si Si6 0.570525 0.457814 0.927259
Si Si7 0.424709 0.152518 0.073039
Si Si8 0.923462 0.125718 0.823527
O O1 0.750000 0.554106 0.701533
O O2 0.526763 0.542336 0.541018
O O3 0.467491 0.545904 0.779073
O O4 0.546458 0.612093 0.655089
O O5 0.250000 0.762845 0.184082
O O6 0.492503 0.765731 0.325024
O O7 0.463834 0.814263 0.130566
O O8 0.499601 0.736491 0.079950
O O9 0.250000 0.877735 0.534484
O O10 0.013065 0.834615 0.457598
O O11 0.000065 0.916897 0.494073
O O12 0.018438 0.862492 0.684072
O O13 0.750000 0.214496 0.459638
O O14 0.500000 0.500000 0.341320
O O15 0.250000 0.528784 0.456900
O O16 0.431638 0.576832 0.326999
O O17 0.500000 0.500000 0.982653
O O18 0.750000 0.460293 0.948114
O O19 0.250000 0.166949 0.080629
O O20 0.466086 0.146015 0.925695
O O21 0.750000 0.140802 0.848777
#
# Coordination Sequence:
#
# PCOD8191748 Si02
#       8
#     8   8   8   8   8   8   8   8
#     4  10  20  35  54  77 107 145 187 234 287 344
#     4  10  20  35  59  90 117 150 192 239 286 340
#     4   9  19  36  57  81 113 149 191 240 287 338
#     4   9  19  34  58  91 119 147 192 243 290 333
#     4  10  19  31  49  76 106 139 181 230 286 342
#     4  11  22  36  56  82 112 147 190 239 291 348
#     4  10  21  36  56  83 116 149 185 232 292 351
#     4   9  19  35  57  80 104 146 194 237 282 336
#
# _framework density 21.168600000000001
#
# number of rings (size 3 to 8) (size 9 to 14) (size 15 to 20)
#    0.000    2.250    0.000    2.625    1.750    3.500 
#    0.000    1.875    0.000    2.250    0.000    0.000 
#    0.000    0.000    0.000    0.000    0.000    0.000 
#
# Total GULP energy -396666.446040 kJ/mol
# GULP energy per Si atom -12395.826439 kJ/mol
# Density = 2.112042 g / cm^3
# Si number density = 21.168600 Si / 1000 Ang^3
#
#
#
# Elastic Constant Matrix: (Units=GPa)
#
#
# Indices 1 2 3 4 5 6 
#
# 1 28.8841 20.0988 9.5725 0.0002 -0.0011 -0.0002
# 2 20.0988 119.1569 50.4711 0.0060 -0.0010 0.0001
# 3 9.5725 50.4711 107.2699 0.0063 -0.0018 0.0003
# 4 0.0002 0.0060 0.0063 22.2931 -0.0011 0.0002
# 5 -0.0011 -0.0010 -0.0018 -0.0011 12.0726 0.0012
# 6 -0.0002 0.0001 0.0003 0.0002 0.0012 27.6047
#
#
#
# Elastic Compliance Matrix: (Units=1/GPa)
#
#
# Indices 1 2 3 4 5 6 
#
# 1 0.039245 -0.006415 -0.000484 0.000002 0.000003 0.000000
# 2 -0.006415 0.011530 -0.004852 -0.000002 0.000000 0.000000
# 3 -0.000484 -0.004852 0.011649 -0.000002 0.000001 0.000000
# 4 0.000002 -0.000002 -0.000002 0.044857 0.000004 0.000000
# 5 0.000003 0.000000 0.000001 0.000004 0.082832 -0.000004
# 6 0.000000 0.000000 0.000000 0.000000 -0.000004 0.036226
#
#
# Mechanical properties :
#
#
# Convention : Reuss Voigt Hill
#
# Bulk Modulus (GPa) = 25.69291 46.17733 35.93512
# Shear Modulus (GPa) = 19.02488 24.07199 21.54844
#
# Velocity S-wave (km/s) = 3.00114 3.37583 3.19398
# Velocity P-wave (km/s) = 4.91658 6.08740 5.53304
#
# Compressibility (1/GPa) = 0.03892125
#
# Stress axis : x y z
#
# Youngs Moduli (GPa) = 25.48088 86.73349 85.84791
#
# Poissons Ratio (x) = 0.55637 0.04155
# Poissons Ratio (y) = 0.16345 0.41656
# Poissons Ratio (z) = 0.01233 0.42086
#
# Static dielectric constant tensor:
#      x y z
#    x 3.466050 0.000000 0.000000 
#    y 0.000000 4.100940 0.000000 
#    z 0.000000 0.000000 3.885240 
# 
# 
# High freq. dielectric constant tensor:
#      x y z
#    x 1.790900 0.000000 0.000000 
#    y 0.000000 1.842450 0.000000 
#    z 0.000000 0.000000 1.826400 
# 
# From -- ./inp_files/9757.got.cif
#   From: 2010.03.12/outbox.cif.g09.slc.cpg/sg46_5_cif.got.tgz:9757.got - 2010.04.14 02:56:35.
