data_PCOD8191370
_publ_section_title
;
Structure prediction by ZEFSAII (Michael W. Deem and Ramdas Pophale) SiO2 
 PCOD8191370
Probable space group: I M A 2
;
_chemical_formula_sum "Si O2"
_cell_formula_units_Z 64
_cell_length_a 9.486199
_cell_length_b 24.498279
_cell_length_c 13.597199
_cell_angle_alpha 90.000000
_cell_angle_beta 90.000000
_cell_angle_gamma 90.000000
_cell_volume 3159.928537
_symmetry_space_group_name_H-M "I M A 2"
_symmetry_group_IT_number 46
_symmetry_cell_setting 'orthorhombic'
loop_
_space_group_symop_operation_xyz
x,y,z
-x,-y,z
1/2-x,y,z
1/2+x,-y,z
1/2+x,1/2+y,1/2+z
1/2-x,1/2-y,1/2+z
-x,1/2+y,1/2+z
x,1/2-y,1/2+z
loop_
_atom_site_type_symbol
_atom_site_label
_atom_site_fract_x
_atom_site_fract_y
_atom_site_fract_z
Si Si1 0.909573 0.127093 0.191680
Si Si2 0.406764 0.452145 0.003051
Si Si3 0.586876 0.166658 0.712133
Si Si4 0.412186 0.727877 0.810249
Si Si5 0.588190 0.052109 0.016488
Si Si6 0.585085 0.053412 0.791068
Si Si7 0.414269 0.657425 0.992650
Si Si8 0.597247 0.545101 0.779887
O O1 0.750000 0.109063 0.217514
O O2 0.927326 0.191627 0.210140
O O3 0.949564 0.105788 0.082409
O O4 0.015109 0.101965 0.272022
O O5 0.500000 0.500000 0.056065
O O6 0.250000 0.446181 0.052452
O O7 0.491648 0.396184 0.000843
O O8 0.380530 0.471428 0.892037
O O9 0.750000 0.162225 0.740934
O O10 0.517167 0.213492 0.782753
O O11 0.524363 0.105838 0.730863
O O12 0.569778 0.185813 0.599182
O O13 0.250000 0.738210 0.834781
O O14 0.474984 0.698265 0.907933
O O15 0.750000 0.035755 0.028529
O O16 0.500000 0.000000 0.051978
O O17 0.553101 0.067284 0.904599
O O18 0.750000 0.042653 0.771301
O O19 0.500000 0.000000 0.756634
O O20 0.250000 0.641910 0.971423
O O21 0.500000 0.500000 0.725163
O O22 0.750000 0.548143 0.727247
#
# Coordination Sequence:
#
# PCOD8191370 Si02
#       8
#     8   8   8   8   8   8   8   8
#     4  10  18  29  47  72 104 139 176 213 258 311
#     4  10  20  33  51  76 108 144 182 221 267 321
#     4   9  19  34  55  83 107 134 175 219 264 316
#     4   9  18  32  51  77 107 136 171 217 262 308
#     4   9  18  30  47  72 101 136 172 213 258 305
#     4   9  18  35  56  77 103 132 170 217 265 313
#     4  10  19  34  56  79 107 142 180 224 270 318
#     4  10  19  29  44  68 100 139 177 214 257 308
#
# _framework density 20.253622
#
# number of rings (size 3 to 8) (size 9 to 14) (size 15 to 20)
#    0.000    2.500    1.250    1.125    0.000    4.000 
#    0.000    6.875    0.000    3.000    0.000    1.750 
#    0.000    0.000    0.000    0.000    0.000    0.000 
#
# Total GULP energy -396433.091794 kJ/mol
# GULP energy per Si atom -12388.534119 kJ/mol
# Density = 2.020752 g / cm^3
# Si number density = 20.253622 Si / 1000 Ang^3
#
#
#
# Elastic Constant Matrix: (Units=GPa)
#
#
# Indices 1 2 3 4 5 6 
#
# 1 82.4592 41.7698 13.0532 0.0000 0.0000 0.0000
# 2 41.7698 150.1152 50.2873 0.0001 0.0000 0.0000
# 3 13.0532 50.2873 84.1163 0.0002 0.0000 0.0001
# 4 0.0000 0.0001 0.0002 23.0660 0.0000 0.0000
# 5 0.0000 0.0000 0.0000 0.0000 13.4747 0.0000
# 6 0.0000 0.0000 0.0001 0.0000 0.0000 21.8290
#
#
#
# Elastic Compliance Matrix: (Units=1/GPa)
#
#
# Indices 1 2 3 4 5 6 
#
# 1 0.014120 -0.003995 0.000197 0.000000 0.000000 0.000000
# 2 -0.003995 0.009460 -0.005036 0.000000 0.000000 0.000000
# 3 0.000197 -0.005036 0.014868 0.000000 0.000000 0.000000
# 4 0.000000 0.000000 0.000000 0.043354 0.000000 0.000000
# 5 0.000000 0.000000 0.000000 0.000000 0.074213 0.000000
# 6 0.000000 0.000000 0.000000 0.000000 0.000000 0.045811
#
#
# Mechanical properties :
#
#
# Convention : Reuss Voigt Hill
#
# Bulk Modulus (GPa) = 48.12037 58.54571 53.33304
# Shear Modulus (GPa) = 22.08297 25.77930 23.93113
#
# Velocity S-wave (km/s) = 3.30558 3.57154 3.44113
# Velocity P-wave (km/s) = 6.19513 6.78063 6.49448
#
# Compressibility (1/GPa) = 0.02078122
#
# Stress axis : x y z
#
# Youngs Moduli (GPa) = 70.82359 105.70832 67.25797
#
# Poissons Ratio (x) = 0.42229 -0.01326
# Poissons Ratio (y) = 0.28293 0.33868
# Poissons Ratio (z) = -0.01396 0.53230
#
# Static dielectric constant tensor:
#      x y z
#    x 3.605820 0.000000 0.000000 
#    y 0.000000 3.731290 0.000000 
#    z 0.000000 0.000000 3.750980 
# 
# 
# High freq. dielectric constant tensor:
#      x y z
#    x 1.756140 0.000000 0.000000 
#    y 0.000000 1.780150 0.000000 
#    z 0.000000 0.000000 1.790190 
# 
# From -- ./inp_files/14556.got.cif
#   From: 2010.03.12/outbox.cif.g09.slc.cpg/sg46_8_cif.got.tgz:14556.got - 2010.04.14 02:56:35.
