data_PCOD8191480
_publ_section_title
;
Structure prediction by ZEFSAII (Michael W. Deem and Ramdas Pophale) SiO2 
 PCOD8191480
Probable space group: I M A 2
;
_chemical_formula_sum "Si O2"
_cell_formula_units_Z 56
_cell_length_a 8.745118
_cell_length_b 22.432447
_cell_length_c 17.799598
_cell_angle_alpha 90.000000
_cell_angle_beta 90.000000
_cell_angle_gamma 90.000000
_cell_volume 3491.825387
_symmetry_space_group_name_H-M "I M A 2"
_symmetry_group_IT_number 46
_symmetry_cell_setting 'orthorhombic'
loop_
_space_group_symop_operation_xyz
x,y,z
-x,-y,z
1/2-x,y,z
1/2+x,-y,z
1/2+x,1/2+y,1/2+z
1/2-x,1/2-y,1/2+z
-x,1/2+y,1/2+z
x,1/2-y,1/2+z
loop_
_atom_site_type_symbol
_atom_site_label
_atom_site_fract_x
_atom_site_fract_y
_atom_site_fract_z
Si Si1 0.918285 0.823373 0.995100
Si Si2 0.430117 0.935479 0.274510
Si Si3 0.918355 0.688585 0.049286
Si Si4 0.429383 0.151678 0.390058
Si Si5 0.068321 0.215831 0.841532
Si Si6 0.928229 0.272033 0.190610
Si Si7 0.566908 0.646975 0.652123
O O1 0.750000 0.850857 0.985702
O O2 0.996342 0.824299 0.912204
O O3 0.905487 0.754946 0.018464
O O4 0.997506 0.857885 0.065383
O O5 0.250000 0.939824 0.265975
O O6 0.471973 0.897627 0.347839
O O7 0.497976 0.906998 0.198789
O O8 0.500000 0.000000 0.285206
O O9 0.750000 0.667959 0.076672
O O10 0.033952 0.685303 0.119615
O O11 0.972721 0.648088 0.978857
O O12 0.250000 0.139066 0.377963
O O13 0.473751 0.215422 0.355691
O O14 0.250000 0.207437 0.834063
O O15 0.982535 0.194298 0.766331
O O16 0.750000 0.258541 0.192711
O O17 0.018534 0.209906 0.187329
O O18 0.750000 0.644389 0.653763
#
# Coordination Sequence:
#
# PCOD8191480 Si02
#       7
#     8   8   8   8   8   8   8
#     4   7  13  25  43  63  80 109 149 180 214 263
#     4  12  24  35  48  67  89 117 154 192 230 269
#     4   8  15  28  44  61  82 115 151 180 218 268
#     4   9  17  31  49  64  83 115 152 189 228 267
#     4   9  15  26  44  63  87 119 150 180 217 267
#     4  11  19  25  38  65  94 121 150 182 220 263
#     4  10  18  32  48  61  83 116 151 190 229 267
#
# _framework density 16.037458000000001
#
# number of rings (size 3 to 8) (size 9 to 14) (size 15 to 20)
#    0.000    2.571    1.429    5.571    0.000    0.571 
#    0.000    6.429    0.000    0.000    0.000    0.000 
#    0.000    1.143    0.000    5.429    0.000    4.714 
#
# Total GULP energy -346887.808349 kJ/mol
# GULP energy per Si atom -12388.850298 kJ/mol
# Density = 1.600096 g / cm^3
# Si number density = 16.037458 Si / 1000 Ang^3
#
#
#
# Elastic Constant Matrix: (Units=GPa)
#
#
# Indices 1 2 3 4 5 6 
#
# 1 77.2601 21.3073 43.0435 0.0000 0.0000 0.0000
# 2 21.3073 38.7625 30.3568 0.0000 0.0000 0.0000
# 3 43.0435 30.3568 138.9677 -0.0001 0.0001 0.0000
# 4 0.0000 0.0000 -0.0001 14.8432 0.0000 0.0000
# 5 0.0000 0.0000 0.0001 0.0000 15.5889 0.0000
# 6 0.0000 0.0000 0.0000 0.0000 0.0000 16.4690
#
#
#
# Elastic Compliance Matrix: (Units=1/GPa)
#
#
# Indices 1 2 3 4 5 6 
#
# 1 0.016802 -0.006225 -0.003844 0.000000 0.000000 0.000000
# 2 -0.006225 0.033429 -0.005374 0.000000 0.000000 0.000000
# 3 -0.003844 -0.005374 0.009561 0.000000 0.000000 0.000000
# 4 0.000000 0.000000 0.000000 0.067371 0.000000 0.000000
# 5 0.000000 0.000000 0.000000 0.000000 0.064148 0.000000
# 6 0.000000 0.000000 0.000000 0.000000 0.000000 0.060720
#
#
# Mechanical properties :
#
#
# Convention : Reuss Voigt Hill
#
# Bulk Modulus (GPa) = 34.59730 49.37841 41.98786
# Shear Modulus (GPa) = 17.09094 20.06573 18.57833
#
# Velocity S-wave (km/s) = 3.26803 3.54104 3.40727
# Velocity P-wave (km/s) = 5.98829 6.89745 6.45889
#
# Compressibility (1/GPa) = 0.02890399
#
# Stress axis : x y z
#
# Youngs Moduli (GPa) = 59.51719 29.91431 104.59583
#
# Poissons Ratio (x) = 0.18622 0.40210
# Poissons Ratio (y) = 0.37050 0.56212
# Poissons Ratio (z) = 0.22880 0.16077
#
# Static dielectric constant tensor:
#      x y z
#    x 2.887860 0.000000 0.000000 
#    y 0.000000 2.557290 0.000000 
#    z 0.000000 0.000000 3.631740 
# 
# 
# High freq. dielectric constant tensor:
#      x y z
#    x 1.604830 0.000000 0.000000 
#    y 0.000000 1.540940 0.000000 
#    z 0.000000 0.000000 1.641420 
# 
# From -- ./inp_files/18469.got.cif
#   From: 2010.03.12/outbox.cif.g09.slc.cpg/sg46_10_cif.got.tgz:18469.got - 2010.04.14 02:56:35.
