data_PCOD8191277
_publ_section_title
;
Structure prediction by ZEFSAII (Michael W. Deem and Ramdas Pophale) SiO2 
 PCOD8191277
Probable space group: I M A 2
;
_chemical_formula_sum "Si O2"
_cell_formula_units_Z 64
_cell_length_a 8.854291
_cell_length_b 18.434999
_cell_length_c 26.224764
_cell_angle_alpha 90.000000
_cell_angle_beta 90.000000
_cell_angle_gamma 90.000000
_cell_volume 4280.637957
_symmetry_space_group_name_H-M "I M A 2"
_symmetry_group_IT_number 46
_symmetry_cell_setting 'orthorhombic'
loop_
_space_group_symop_operation_xyz
x,y,z
-x,-y,z
1/2-x,y,z
1/2+x,-y,z
1/2+x,1/2+y,1/2+z
1/2-x,1/2-y,1/2+z
-x,1/2+y,1/2+z
x,1/2-y,1/2+z
loop_
_atom_site_type_symbol
_atom_site_label
_atom_site_fract_x
_atom_site_fract_y
_atom_site_fract_z
Si Si1 0.427511 0.832567 0.155900
Si Si2 0.073966 0.922150 0.757608
Si Si3 0.928615 0.423402 0.558343
Si Si4 0.578282 0.074523 0.251396
Si Si5 0.074020 0.293181 0.207954
Si Si6 0.428128 0.076680 0.952700
Si Si7 0.921328 0.155613 0.864231
Si Si8 0.421524 0.782279 0.298432
O O1 0.250000 0.820711 0.162159
O O2 0.470496 0.864839 0.101110
O O3 0.486071 0.887855 0.199926
O O4 0.507406 0.754159 0.161061
O O5 0.250000 0.929746 0.747695
O O6 0.039182 0.888588 0.813103
O O7 0.004881 0.871642 0.712993
O O8 0.000000 0.000000 0.754084
O O9 0.750000 0.433196 0.551974
O O10 0.000000 0.500000 0.574379
O O11 0.000279 0.395585 0.505539
O O12 0.750000 0.054131 0.241595
O O13 0.558581 0.130378 0.299428
O O14 0.500000 0.000000 0.265769
O O15 0.250000 0.305065 0.199310
O O16 0.043236 0.248804 0.259435
O O17 0.250000 0.067797 0.958932
O O18 0.464298 0.134612 0.908864
O O19 0.500000 0.000000 0.936628
O O20 0.750000 0.139219 0.881791
O O21 0.943821 0.242142 0.852812
O O22 0.250000 0.763836 0.278703
#
# Coordination Sequence:
#
# PCOD8191277 Si02
#       8
#     8   8   8   8   8   8   8   8
#     4   9  18  31  44  58  81 113 144 173 207 246
#     4  10  19  30  44  62  86 113 142 175 209 248
#     4  10  19  31  46  62  83 111 143 178 213 248
#     4   9  16  26  40  60  84 109 137 168 204 242
#     4  10  18  27  42  62  83 108 139 173 208 247
#     4  11  21  31  43  60  84 110 139 176 212 248
#     4   9  17  30  46  60  78 109 144 175 208 247
#     4   8  16  30  43  56  80 111 140 172 208 246
#
# _framework density 14.951043
#
# number of rings (size 3 to 8) (size 9 to 14) (size 15 to 20)
#    0.000    2.500    0.000    6.000    0.000    6.500 
#    0.000    0.000    0.000    0.000    0.000    0.000 
#    0.000    1.000    0.000    6.750    0.000    4.875 
#
# Total GULP energy -396629.333788 kJ/mol
# GULP energy per Si atom -12394.666681 kJ/mol
# Density = 1.491701 g / cm^3
# Si number density = 14.951043 Si / 1000 Ang^3
#
#
#
# Elastic Constant Matrix: (Units=GPa)
#
#
# Indices 1 2 3 4 5 6 
#
# 1 87.4260 48.8611 40.0392 0.0000 0.0000 0.0000
# 2 48.8611 110.6950 51.8365 0.0000 0.0000 0.0000
# 3 40.0392 51.8365 77.8213 0.0000 0.0000 0.0000
# 4 0.0000 0.0000 0.0000 26.7663 0.0000 0.0000
# 5 0.0000 0.0000 0.0000 0.0000 19.9388 0.0000
# 6 0.0000 0.0000 0.0000 0.0000 0.0000 26.6237
#
#
#
# Elastic Compliance Matrix: (Units=1/GPa)
#
#
# Indices 1 2 3 4 5 6 
#
# 1 0.016567 -0.004827 -0.005309 0.000000 0.000000 0.000000
# 2 -0.004827 0.014535 -0.007199 0.000000 0.000000 0.000000
# 3 -0.005309 -0.007199 0.020376 0.000000 0.000000 0.000000
# 4 0.000000 0.000000 0.000000 0.037360 0.000000 0.000000
# 5 0.000000 0.000000 0.000000 0.000000 0.050153 0.000000
# 6 0.000000 0.000000 0.000000 0.000000 0.000000 0.037561
#
#
# Mechanical properties :
#
#
# Convention : Reuss Voigt Hill
#
# Bulk Modulus (GPa) = 59.48628 61.93508 60.71068
# Shear Modulus (GPa) = 23.06008 23.67944 23.36976
#
# Velocity S-wave (km/s) = 3.93157 3.98401 3.95788
# Velocity P-wave (km/s) = 7.77711 7.91697 7.84735
#
# Compressibility (1/GPa) = 0.01681060
#
# Stress axis : x y z
#
# Youngs Moduli (GPa) = 60.36043 68.79773 49.07681
#
# Poissons Ratio (x) = 0.33207 0.26053
# Poissons Ratio (y) = 0.29135 0.35328
# Poissons Ratio (z) = 0.32044 0.49524
#
# Static dielectric constant tensor:
#      x y z
#    x 2.892800 0.000000 0.000000 
#    y 0.000000 2.987980 0.000000 
#    z 0.000000 0.000000 2.722940 
# 
# 
# High freq. dielectric constant tensor:
#      x y z
#    x 1.581060 0.000000 0.000000 
#    y 0.000000 1.564130 0.000000 
#    z 0.000000 0.000000 1.535280 
# 
# From -- ./inp_files/24409.got.cif
#   From: 2010.03.12/outbox.cif.g09.slc.cpg/sg46_13_cif.got.tgz:24409.got - 2010.04.14 02:56:35.
