data_PCOD8191322
_publ_section_title
;
Structure prediction by ZEFSAII (Michael W. Deem and Ramdas Pophale) SiO2 
 PCOD8191322
Probable space group: I M A 2
;
_chemical_formula_sum "Si O2"
_cell_formula_units_Z 64
_cell_length_a 9.373715
_cell_length_b 29.717130
_cell_length_c 14.152981
_cell_angle_alpha 90.000000
_cell_angle_beta 90.000000
_cell_angle_gamma 90.000000
_cell_volume 3942.453075
_symmetry_space_group_name_H-M "I M A 2"
_symmetry_group_IT_number 46
_symmetry_cell_setting 'orthorhombic'
loop_
_space_group_symop_operation_xyz
x,y,z
-x,-y,z
1/2-x,y,z
1/2+x,-y,z
1/2+x,1/2+y,1/2+z
1/2-x,1/2-y,1/2+z
-x,1/2+y,1/2+z
x,1/2-y,1/2+z
loop_
_atom_site_type_symbol
_atom_site_label
_atom_site_fract_x
_atom_site_fract_y
_atom_site_fract_z
Si Si1 0.416564 0.455375 0.191940
Si Si2 0.411403 0.721495 0.562998
Si Si3 0.913441 0.127734 0.739037
Si Si4 0.584068 0.796297 0.236700
Si Si5 0.418230 0.782289 0.845009
Si Si6 0.092843 0.822460 0.549661
Si Si7 0.586860 0.636500 0.895007
Si Si8 0.414771 0.456428 0.970990
O O1 0.500000 0.500000 0.223182
O O2 0.250000 0.460530 0.216077
O O3 0.482472 0.414687 0.253937
O O4 0.441647 0.446154 0.081100
O O5 0.250000 0.703401 0.575277
O O6 0.516265 0.694928 0.633466
O O7 0.460952 0.716647 0.454981
O O8 0.423098 0.773321 0.595358
O O9 0.750000 0.113940 0.760733
O O10 0.961510 0.168880 0.805215
O O11 0.931684 0.141307 0.630389
O O12 0.750000 0.783259 0.227252
O O13 0.505089 0.756694 0.292960
O O14 0.565665 0.844280 0.289833
O O15 0.250000 0.772654 0.830418
O O16 0.250000 0.827463 0.504887
O O17 0.983675 0.828056 0.465261
O O18 0.750000 0.634957 0.925967
O O19 0.526366 0.585913 0.909342
O O20 0.500000 0.500000 0.936590
O O21 0.250000 0.466214 0.950524
#
# Coordination Sequence:
#
# PCOD8191322 Si02
#       8
#     8   8   8   8   8   8   8   8
#     4  10  19  31  48  70  97 130 160 196 240 290
#     4  10  20  35  51  68  96 133 170 208 244 282
#     4  10  19  31  47  71  98 127 164 202 242 286
#     4  11  22  32  48  72 100 131 164 204 247 293
#     4  10  20  35  52  70  96 131 170 208 244 285
#     4  10  18  28  48  71  94 128 166 202 235 279
#     4  10  20  33  46  68 100 132 161 197 243 289
#     4   9  18  31  46  66  94 124 157 193 235 285
#
# _framework density 16.233547999999999
#
# number of rings (size 3 to 8) (size 9 to 14) (size 15 to 20)
#    0.000    2.000    3.750    0.750    0.000    3.000 
#    0.000    0.000    0.000    0.000    0.000    0.875 
#    0.000    4.000    0.000    0.000    0.000    0.000 
#
# Total GULP energy -396752.143997 kJ/mol
# GULP energy per Si atom -12398.504500 kJ/mol
# Density = 1.619660 g / cm^3
# Si number density = 16.233548 Si / 1000 Ang^3
#
#
#
# Elastic Constant Matrix: (Units=GPa)
#
#
# Indices 1 2 3 4 5 6 
#
# 1 72.9817 45.4444 37.4891 0.0004 -0.0003 0.0000
# 2 45.4444 93.4047 29.9168 0.0005 -0.0004 0.0000
# 3 37.4891 29.9168 63.0954 0.0013 -0.0005 0.0000
# 4 0.0004 0.0005 0.0013 22.0982 0.0000 0.0000
# 5 -0.0003 -0.0004 -0.0005 0.0000 21.6588 0.0001
# 6 0.0000 0.0000 0.0000 0.0000 0.0001 26.8932
#
#
#
# Elastic Compliance Matrix: (Units=1/GPa)
#
#
# Indices 1 2 3 4 5 6 
#
# 1 0.024365 -0.008510 -0.010442 0.000000 0.000000 0.000000
# 2 -0.008510 0.015595 -0.002338 0.000000 0.000000 0.000000
# 3 -0.010442 -0.002338 0.023162 -0.000001 0.000000 0.000000
# 4 0.000000 0.000000 -0.000001 0.045253 0.000000 0.000000
# 5 0.000000 0.000000 0.000000 0.000000 0.046171 0.000000
# 6 0.000000 0.000000 0.000000 0.000000 0.000000 0.037184
#
#
# Mechanical properties :
#
#
# Convention : Reuss Voigt Hill
#
# Bulk Modulus (GPa) = 48.68035 50.57583 49.62809
# Shear Modulus (GPa) = 20.73346 21.90548 21.31947
#
# Velocity S-wave (km/s) = 3.57767 3.67740 3.62788
# Velocity P-wave (km/s) = 6.86432 7.01810 6.94164
#
# Compressibility (1/GPa) = 0.02054217
#
# Stress axis : x y z
#
# Youngs Moduli (GPa) = 41.04306 64.12176 43.17441
#
# Poissons Ratio (x) = 0.54566 0.45082
# Poissons Ratio (y) = 0.34927 0.10096
# Poissons Ratio (z) = 0.42856 0.14994
#
# Static dielectric constant tensor:
#      x y z
#    x 3.114120 0.000000 0.000000 
#    y 0.000000 3.081340 0.000000 
#    z 0.000000 0.000000 2.899630 
# 
# 
# High freq. dielectric constant tensor:
#      x y z
#    x 1.628590 0.000000 0.000000 
#    y 0.000000 1.615320 0.000000 
#    z 0.000000 0.000000 1.595470 
# 
# From -- ./inp_files/14726.got.cif
#   From: 2010.03.12/outbox.cif.g09.slc.cpg/sg46_8_cif.got.tgz:14726.got - 2010.04.14 02:56:35.
