data_PCOD8191122
_publ_section_title
;
Structure prediction by ZEFSAII (Michael W. Deem and Ramdas Pophale) SiO2 
 PCOD8191122
Probable space group: I B A 2
;
_chemical_formula_sum "Si O2"
_cell_formula_units_Z 32
_cell_length_a 19.217055
_cell_length_b 8.487168
_cell_length_c 7.902166
_cell_angle_alpha 90.000000
_cell_angle_beta 90.000000
_cell_angle_gamma 90.000000
_cell_volume 1288.830428
_symmetry_space_group_name_H-M "I B A 2"
_symmetry_group_IT_number 45
_symmetry_cell_setting 'orthorhombic'
loop_
_space_group_symop_operation_xyz
x,y,z
-x,-y,z
-x,y,1/2+z
x,-y,1/2+z
1/2+x,1/2+y,1/2+z
1/2-x,1/2-y,1/2+z
1/2-x,1/2+y,z
1/2+x,1/2-y,z
loop_
_atom_site_type_symbol
_atom_site_label
_atom_site_fract_x
_atom_site_fract_y
_atom_site_fract_z
Si Si1 0.549978 0.849879 0.750000
Si Si2 0.183446 0.083750 0.761605
Si Si3 0.187505 0.758242 0.891961
Si Si4 0.042567 0.857077 0.451234
O O1 0.623031 0.861794 0.852532
O O2 0.511350 0.694707 0.810172
O O3 0.562541 0.800922 0.556377
O O4 0.500000 0.000000 0.766510
O O5 0.179323 0.165940 0.578731
O O6 0.243561 0.154301 0.880103
O O7 0.112249 0.089380 0.862323
O O8 0.194629 0.894628 0.748455
O O9 0.000000 0.000000 0.545105
#
# Coordination Sequence:
#
# PCOD8191122 Si02
#       4
#     8   8   8   8
#     4  12  27  47  75 114 157 202 261 324 388 463
#     4  12  27  50  81 112 154 204 261 320 391 468
#     4  12  27  51  79 114 155 203 260 322 392 466
#     4  12  25  47  77 110 152 208 260 317 389 469
#
# _framework density 24.828711999999999
#
# number of rings (size 3 to 8) (size 9 to 14) (size 15 to 20)
#    0.000    0.000    2.500    7.500    3.500    0.000 
#    4.500    1.250    0.000    0.000    0.000    0.000 
#    0.000    0.000    0.000    0.000    0.000    0.000 
#
# Total GULP energy -198250.562191 kJ/mol
# GULP energy per Si atom -12390.660137 kJ/mol
# Density = 2.477220 g / cm^3
# Si number density = 24.828712 Si / 1000 Ang^3
#
#
#
# Elastic Constant Matrix: (Units=GPa)
#
#
# Indices 1 2 3 4 5 6 
#
# 1 192.5320 57.0833 46.5856 0.0000 0.0000 0.0000
# 2 57.0833 99.5202 46.6010 0.0000 0.0000 0.0000
# 3 46.5856 46.6010 86.6789 0.0000 0.0000 0.0000
# 4 0.0000 0.0000 0.0000 29.1020 0.0000 0.0000
# 5 0.0000 0.0000 0.0000 0.0000 17.7243 0.0000
# 6 0.0000 0.0000 0.0000 0.0000 0.0000 56.0461
#
#
#
# Elastic Compliance Matrix: (Units=1/GPa)
#
#
# Indices 1 2 3 4 5 6 
#
# 1 0.006506 -0.002799 -0.001992 0.000000 0.000000 0.000000
# 2 -0.002799 0.014633 -0.006363 0.000000 0.000000 0.000000
# 3 -0.001992 -0.006363 0.016028 0.000000 0.000000 0.000000
# 4 0.000000 0.000000 0.000000 0.034362 0.000000 0.000000
# 5 0.000000 0.000000 0.000000 0.000000 0.056420 0.000000
# 6 0.000000 0.000000 0.000000 0.000000 0.000000 0.017842
#
#
# Mechanical properties :
#
#
# Convention : Reuss Voigt Hill
#
# Bulk Modulus (GPa) = 67.29519 75.47455 71.38487
# Shear Modulus (GPa) = 28.89314 35.80521 32.34917
#
# Velocity S-wave (km/s) = 3.41500 3.80160 3.61348
# Velocity P-wave (km/s) = 6.53546 7.05221 6.79875
#
# Compressibility (1/GPa) = 0.01485990
#
# Stress axis : x y z
#
# Youngs Moduli (GPa) = 153.71100 68.33818 62.39028
#
# Poissons Ratio (x) = 0.19128 0.12426
# Poissons Ratio (y) = 0.43023 0.39698
# Poissons Ratio (z) = 0.30615 0.43483
#
# Static dielectric constant tensor:
#      x y z
#    x 5.138020 0.000000 0.000000 
#    y 0.000000 4.555490 0.000000 
#    z 0.000000 0.000000 4.612940 
# 
# 
# High freq. dielectric constant tensor:
#      x y z
#    x 2.006230 0.000000 0.000000 
#    y 0.000000 1.992430 0.000000 
#    z 0.000000 0.000000 1.992900 
# 
# From -- ./inp_files/891.got.cif
#   From: 2010.03.12/outbox.cif.g09.slc.cpg/sg45_1_cif.got.tgz:891.got - 2010.04.14 02:50:11.
