data_PCOD8191135
_publ_section_title
;
Structure prediction by ZEFSAII (Michael W. Deem and Ramdas Pophale) SiO2 
 PCOD8191135
Probable space group: I M A 2
;
_chemical_formula_sum "Si O2"
_cell_formula_units_Z 64
_cell_length_a 18.079317
_cell_length_b 7.614505
_cell_length_c 21.186539
_cell_angle_alpha 90.000000
_cell_angle_beta 90.000000
_cell_angle_gamma 90.000000
_cell_volume 2916.645944
_symmetry_space_group_name_H-M "I M A 2"
_symmetry_group_IT_number 46
_symmetry_cell_setting 'orthorhombic'
loop_
_space_group_symop_operation_xyz
x,y,z
-x,-y,z
1/2-x,y,z
1/2+x,-y,z
1/2+x,1/2+y,1/2+z
1/2-x,1/2-y,1/2+z
-x,1/2+y,1/2+z
x,1/2-y,1/2+z
loop_
_atom_site_type_symbol
_atom_site_label
_atom_site_fract_x
_atom_site_fract_y
_atom_site_fract_z
Si Si1 0.415593 0.955872 0.029450
Si Si2 0.663682 0.094388 0.282382
Si Si3 0.166207 0.533573 0.406987
Si Si4 0.168080 0.547818 0.916228
Si Si5 0.084407 0.544127 0.035313
Si Si6 0.586833 0.459214 0.282382
Si Si7 0.833793 0.033573 0.657776
Si Si8 0.331920 0.547818 0.648535
O O1 0.400722 0.750000 0.032382
O O2 0.387469 0.033041 0.096624
O O3 0.500000 0.000000 0.019798
O O4 0.371471 0.040831 0.970913
O O5 0.750000 0.165574 0.282382
O O6 0.650559 0.975433 0.345369
O O7 0.604497 0.251941 0.282382
O O8 0.650559 0.975433 0.219394
O O9 0.250000 0.464009 0.404390
O O10 0.162574 0.743106 0.408604
O O11 0.122918 0.458654 0.345887
O O12 0.250000 0.493831 0.938472
O O13 0.112530 0.466959 0.968139
O O14 0.128530 0.459168 0.093849
O O15 0.000000 0.500000 0.044966
O O16 0.500000 0.500000 0.282382
O O17 0.622917 0.541346 0.218876
O O18 0.750000 0.964010 0.660374
O O19 0.837427 0.243105 0.656159
O O20 0.250000 0.493832 0.626291
#
# Coordination Sequence:
#
# PCOD8191135 Si02
#       8
#     8   8   8   8   8   8   8   8
#     4  10  19  30  45  67  93 117 145 184 228 267
#     4   8  14  26  43  63  86 111 145 188 224 256
#     4   9  16  27  43  62  85 116 154 188 215 254
#     4   8  14  26  45  65  84 111 148 187 221 256
#     4  10  19  30  45  67  93 117 145 184 228 267
#     4  10  16  22  36  63  94 115 136 176 231 270
#     4   9  16  27  43  62  85 116 154 188 215 254
#     4   8  14  26  45  65  84 111 148 187 221 256
#
# _framework density 21.943014000000002
#
# number of rings (size 3 to 8) (size 9 to 14) (size 15 to 20)
#    0.000    3.000    0.000    4.125    0.000    3.000 
#    0.000    0.625    0.000    3.000    0.000    0.000 
#    0.000    4.000    0.000    0.000    0.000    0.000 
#
# Total GULP energy -396493.984240 kJ/mol
# GULP energy per Si atom -12390.437007 kJ/mol
# Density = 2.189307 g / cm^3
# Si number density = 21.943014 Si / 1000 Ang^3
#
#
#
# Elastic Constant Matrix: (Units=GPa)
#
#
# Indices 1 2 3 4 5 6 
#
# 1 190.6270 0.5411 115.2190 0.0000 0.0000 0.0000
# 2 0.5411 13.1049 1.0708 0.0000 0.0000 0.0000
# 3 115.2190 1.0708 255.7043 0.0000 0.0000 0.0000
# 4 0.0000 0.0000 0.0000 -1.5476 0.0000 0.0000
# 5 0.0000 0.0000 0.0000 0.0000 38.2798 0.0000
# 6 0.0000 0.0000 0.0000 0.0000 0.0000 8.3070
#
#
#
# Elastic Compliance Matrix: (Units=1/GPa)
#
#
# Indices 1 2 3 4 5 6 
#
# 1 0.007209 -0.000032 -0.003248 0.000000 0.000000 0.000000
# 2 -0.000032 0.076334 -0.000305 0.000000 0.000000 0.000000
# 3 -0.003248 -0.000305 0.005376 0.000000 0.000000 0.000000
# 4 0.000000 0.000000 0.000000 -0.646161 0.000000 0.000000
# 5 0.000000 0.000000 0.000000 0.000000 0.026123 0.000000
# 6 0.000000 0.000000 0.000000 0.000000 0.000000 0.120380
#
#
# Mechanical properties :
#
#
# Convention : Reuss Voigt Hill
#
# Bulk Modulus (GPa) = 12.23281 77.01088 44.62184
# Shear Modulus (GPa) = -13.28663 31.84819 9.28078
#
# Velocity S-wave (km/s) = -2.46337 3.81386 2.05880
# Velocity P-wave (km/s) = 1.58241 7.38689 5.10206
#
# Compressibility (1/GPa) = 0.08174738
#
# Stress axis : x y z
#
# Youngs Moduli (GPa) = 138.70962 13.10036 186.02125
#
# Poissons Ratio (x) = 0.00042 0.60426
# Poissons Ratio (y) = 0.00447 0.05676
# Poissons Ratio (z) = 0.45058 0.00400
#
# Static dielectric constant tensor:
#      x y z
#    x 3.764860 0.000000 0.000000 
#    y 0.000000 3.133170 0.000000 
#    z 0.000000 0.000000 4.928610 
# 
# 
# High freq. dielectric constant tensor:
#      x y z
#    x 1.855120 0.000000 0.000000 
#    y 0.000000 1.788320 0.000000 
#    z 0.000000 0.000000 1.899010 
# 
# From -- ./inp_files/23710.got.cif
#   From: 2010.03.12/outbox.cif.g09.slc.cpg/sg46_12_cif.got.tgz:23710.got - 2010.04.14 02:56:35.
