data_PCOD8191380
_publ_section_title
;
Structure prediction by ZEFSAII (Michael W. Deem and Ramdas Pophale) SiO2 
 PCOD8191380
Probable space group: I M A 2
;
_chemical_formula_sum "Si O2"
_cell_formula_units_Z 64
_cell_length_a 8.777570
_cell_length_b 30.102812
_cell_length_c 14.324124
_cell_angle_alpha 90.000000
_cell_angle_beta 90.000000
_cell_angle_gamma 90.000000
_cell_volume 3784.856689
_symmetry_space_group_name_H-M "I M A 2"
_symmetry_group_IT_number 46
_symmetry_cell_setting 'orthorhombic'
loop_
_space_group_symop_operation_xyz
x,y,z
-x,-y,z
1/2-x,y,z
1/2+x,-y,z
1/2+x,1/2+y,1/2+z
1/2-x,1/2-y,1/2+z
-x,1/2+y,1/2+z
x,1/2-y,1/2+z
loop_
_atom_site_type_symbol
_atom_site_label
_atom_site_fract_x
_atom_site_fract_y
_atom_site_fract_z
Si Si1 0.081112 0.823744 0.635700
Si Si2 0.924974 0.871269 0.476194
Si Si3 0.925682 0.276821 0.649260
Si Si4 0.578011 0.371186 0.328180
Si Si5 0.569733 0.546054 0.259279
Si Si6 0.427211 0.202625 0.333761
Si Si7 0.069776 0.954212 0.557179
Si Si8 0.568936 0.286337 0.438211
O O1 0.250000 0.825227 0.588881
O O2 0.047359 0.774693 0.672676
O O3 0.075850 0.856733 0.721410
O O4 0.955042 0.837621 0.561331
O O5 0.750000 0.886276 0.478802
O O6 0.965017 0.844547 0.382109
O O7 0.029672 0.914993 0.484676
O O8 0.750000 0.290560 0.657921
O O9 0.986891 0.286968 0.545370
O O10 0.019972 0.303572 0.726812
O O11 0.750000 0.382356 0.360485
O O12 0.475636 0.415600 0.333494
O O13 0.507587 0.331934 0.391838
O O14 0.500000 0.500000 0.296827
O O15 0.750000 0.542044 0.251387
O O16 0.501813 0.557136 0.157558
O O17 0.250000 0.213302 0.338362
O O18 0.510180 0.242935 0.385636
O O19 0.250000 0.958679 0.567850
O O20 0.000000 0.000000 0.517854
O O21 0.750000 0.284349 0.430354
#
# Coordination Sequence:
#
# PCOD8191380 Si02
#       8
#     8   8   8   8   8   8   8   8
#     4  10  18  29  50  73  99 134 172 213 250 291
#     4  11  22  34  48  72 103 138 174 208 249 301
#     4  10  20  35  53  72  98 136 178 217 254 298
#     4  10  19  32  49  74 103 134 172 211 252 299
#     4  11  21  33  50  73 102 135 168 206 251 304
#     4  11  23  34  49  74 105 137 171 214 258 300
#     4  11  21  34  52  74 101 133 166 207 253 302
#     4  10  20  35  54  74  99 135 178 216 252 301
#
# _framework density 16.909490000000002
#
# number of rings (size 3 to 8) (size 9 to 14) (size 15 to 20)
#    0.000    1.500    3.750    3.750    0.000    3.000 
#    0.000    0.000    0.000    0.000    0.000    0.875 
#    0.000    6.000    0.000    0.000    0.000    0.000 
#
# Total GULP energy -396798.504943 kJ/mol
# GULP energy per Si atom -12399.953279 kJ/mol
# Density = 1.687100 g / cm^3
# Si number density = 16.909490 Si / 1000 Ang^3
#
#
#
# Elastic Constant Matrix: (Units=GPa)
#
#
# Indices 1 2 3 4 5 6 
#
# 1 84.2401 46.2904 27.5115 -0.0001 -0.0001 -0.0001
# 2 46.2904 99.4543 29.0476 -0.0006 0.0000 -0.0002
# 3 27.5115 29.0476 69.5855 0.0003 -0.0003 -0.0001
# 4 -0.0001 -0.0006 0.0003 24.0385 -0.0002 0.0001
# 5 -0.0001 0.0000 -0.0003 -0.0002 20.4379 0.0001
# 6 -0.0001 -0.0002 -0.0001 0.0001 0.0001 26.6408
#
#
#
# Elastic Compliance Matrix: (Units=1/GPa)
#
#
# Indices 1 2 3 4 5 6 
#
# 1 0.016809 -0.006700 -0.003849 0.000000 0.000000 0.000000
# 2 -0.006700 0.014121 -0.003246 0.000000 0.000000 0.000000
# 3 -0.003849 -0.003246 0.017248 0.000000 0.000000 0.000000
# 4 0.000000 0.000000 0.000000 0.041600 0.000000 0.000000
# 5 0.000000 0.000000 0.000000 0.000000 0.048929 0.000000
# 6 0.000000 0.000000 0.000000 0.000000 0.000000 0.037536
#
#
# Mechanical properties :
#
#
# Convention : Reuss Voigt Hill
#
# Bulk Modulus (GPa) = 48.57009 50.99765 49.78387
# Shear Modulus (GPa) = 23.73092 24.25213 23.99153
#
# Velocity S-wave (km/s) = 3.75027 3.79123 3.77081
# Velocity P-wave (km/s) = 6.89483 7.02775 6.96161
#
# Compressibility (1/GPa) = 0.02058880
#
# Stress axis : x y z
#
# Youngs Moduli (GPa) = 59.49065 70.81555 57.97905
#
# Poissons Ratio (x) = 0.47444 0.22317
# Poissons Ratio (y) = 0.39856 0.18820
# Poissons Ratio (z) = 0.22899 0.22986
#
# Static dielectric constant tensor:
#      x y z
#    x 3.183270 0.000000 0.000000 
#    y 0.000000 3.289540 0.000000 
#    z 0.000000 0.000000 3.060630 
# 
# 
# High freq. dielectric constant tensor:
#      x y z
#    x 1.655210 0.000000 0.000000 
#    y 0.000000 1.650600 0.000000 
#    z 0.000000 0.000000 1.619300 
# 
# From -- ./inp_files/14765.got.cif
#   From: 2010.03.12/outbox.cif.g09.slc.cpg/sg46_8_cif.got.tgz:14765.got - 2010.04.14 02:56:35.
