data_PCOD8191960
_publ_section_title
;
Structure prediction by ZEFSAII (Michael W. Deem and Ramdas Pophale) SiO2 
 PCOD8191960
Probable space group: I M A 2
;
_chemical_formula_sum "Si O2"
_cell_formula_units_Z 56
_cell_length_a 8.778546
_cell_length_b 24.016132
_cell_length_c 13.686170
_cell_angle_alpha 90.000000
_cell_angle_beta 90.000000
_cell_angle_gamma 90.000000
_cell_volume 2885.410324
_symmetry_space_group_name_H-M "I M A 2"
_symmetry_group_IT_number 46
_symmetry_cell_setting 'orthorhombic'
loop_
_space_group_symop_operation_xyz
x,y,z
-x,-y,z
1/2-x,y,z
1/2+x,-y,z
1/2+x,1/2+y,1/2+z
1/2-x,1/2-y,1/2+z
-x,1/2+y,1/2+z
x,1/2-y,1/2+z
loop_
_atom_site_type_symbol
_atom_site_label
_atom_site_fract_x
_atom_site_fract_y
_atom_site_fract_z
Si Si1 0.573619 0.341588 0.507540
Si Si2 0.430947 0.883501 0.293433
Si Si3 0.571431 0.226690 0.188845
Si Si4 0.569702 0.941992 0.113069
Si Si5 0.427411 0.837274 0.783770
Si Si6 0.929660 0.941685 0.466719
Si Si7 0.571686 0.557777 0.189604
O O1 0.750000 0.357099 0.527282
O O2 0.527253 0.289554 0.577581
O O3 0.473775 0.395325 0.533555
O O4 0.544500 0.322874 0.397162
O O5 0.250000 0.889403 0.293264
O O6 0.485501 0.822140 0.260858
O O7 0.499987 0.928413 0.218958
O O8 0.497089 0.893233 0.401313
O O9 0.750000 0.233190 0.202209
O O10 0.501081 0.286162 0.220749
O O11 0.750000 0.946579 0.121401
O O12 0.500000 0.000000 0.075814
O O13 0.250000 0.846824 0.761587
O O14 0.515067 0.893268 0.758635
O O15 0.750000 0.943680 0.451885
O O16 0.976347 0.929056 0.578237
O O17 0.000000 0.000000 0.432215
O O18 0.500000 0.500000 0.225790
O O19 0.750000 0.551519 0.200221
#
# Coordination Sequence:
#
# PCOD8191960 Si02
#       7
#     8   8   8   8   8   8   8
#     4   9  19  36  55  79 111 142 179 224 266 315
#     4  10  19  33  54  80 111 145 182 223 266 316
#     4   8  17  34  55  80 109 141 178 219 262 314
#     4  11  21  34  53  77 108 145 184 225 272 322
#     4  10  20  36  60  84 107 141 180 221 269 318
#     4  10  20  34  52  77 109 144 182 223 270 321
#     4  10  22  39  57  79 109 142 179 225 270 320
#
# _framework density 19.407983000000002
#
# number of rings (size 3 to 8) (size 9 to 14) (size 15 to 20)
#    0.000    2.286    0.000    3.857    0.000    4.000 
#    0.000    6.429    0.000    0.000    0.000    0.000 
#    0.000    0.000    0.000    0.000    0.000    0.000 
#
# Total GULP energy -347235.555644 kJ/mol
# GULP energy per Si atom -12401.269844 kJ/mol
# Density = 1.936381 g / cm^3
# Si number density = 19.407983 Si / 1000 Ang^3
#
#
#
# Elastic Constant Matrix: (Units=GPa)
#
#
# Indices 1 2 3 4 5 6 
#
# 1 77.9046 36.5165 32.0056 0.0000 0.0000 0.0000
# 2 36.5165 133.5235 61.9040 0.0000 0.0000 0.0000
# 3 32.0056 61.9040 99.1501 0.0000 0.0000 0.0000
# 4 0.0000 0.0000 0.0000 27.2673 0.0000 0.0000
# 5 0.0000 0.0000 0.0000 0.0000 28.9357 0.0000
# 6 0.0000 0.0000 0.0000 0.0000 0.0000 24.5596
#
#
#
# Elastic Compliance Matrix: (Units=1/GPa)
#
#
# Indices 1 2 3 4 5 6 
#
# 1 0.015458 -0.002694 -0.003308 0.000000 0.000000 0.000000
# 2 -0.002694 0.011010 -0.006004 0.000000 0.000000 0.000000
# 3 -0.003308 -0.006004 0.014902 0.000000 0.000000 0.000000
# 4 0.000000 0.000000 0.000000 0.036674 0.000000 0.000000
# 5 0.000000 0.000000 0.000000 0.000000 0.034559 0.000000
# 6 0.000000 0.000000 0.000000 0.000000 0.000000 0.040717
#
#
# Mechanical properties :
#
#
# Convention : Reuss Voigt Hill
#
# Bulk Modulus (GPa) = 57.61110 63.49226 60.55168
# Shear Modulus (GPa) = 27.30471 28.16267 27.73369
#
# Velocity S-wave (km/s) = 3.75491 3.81345 3.78429
# Velocity P-wave (km/s) = 6.96762 7.22325 7.09659
#
# Compressibility (1/GPa) = 0.01735777
#
# Stress axis : x y z
#
# Youngs Moduli (GPa) = 64.69182 90.82845 67.10380
#
# Poissons Ratio (x) = 0.24468 0.22197
# Poissons Ratio (y) = 0.17427 0.40291
# Poissons Ratio (z) = 0.21399 0.54536
#
# Static dielectric constant tensor:
#      x y z
#    x 3.394680 0.000000 0.000000 
#    y 0.000000 3.613950 0.000000 
#    z 0.000000 0.000000 3.575680 
# 
# 
# High freq. dielectric constant tensor:
#      x y z
#    x 1.743900 0.000000 0.000000 
#    y 0.000000 1.753760 0.000000 
#    z 0.000000 0.000000 1.754960 
# 
# From -- ./inp_files/14162.got.cif
#   From: 2010.03.12/outbox.cif.g09.slc.cpg/sg46_8_cif.got.tgz:14162.got - 2010.04.14 02:56:35.
