data_PCOD8191396
_publ_section_title
;
Structure prediction by ZEFSAII (Michael W. Deem and Ramdas Pophale) SiO2 
 PCOD8191396
Probable space group: I M A 2
;
_chemical_formula_sum "Si O2"
_cell_formula_units_Z 48
_cell_length_a 9.487145
_cell_length_b 27.985500
_cell_length_c 9.943669
_cell_angle_alpha 90.000000
_cell_angle_beta 90.000000
_cell_angle_gamma 90.000000
_cell_volume 2640.068943
_symmetry_space_group_name_H-M "I M A 2"
_symmetry_group_IT_number 46
_symmetry_cell_setting 'orthorhombic'
loop_
_space_group_symop_operation_xyz
x,y,z
-x,-y,z
1/2-x,y,z
1/2+x,-y,z
1/2+x,1/2+y,1/2+z
1/2-x,1/2-y,1/2+z
-x,1/2+y,1/2+z
x,1/2-y,1/2+z
loop_
_atom_site_type_symbol
_atom_site_label
_atom_site_fract_x
_atom_site_fract_y
_atom_site_fract_z
Si Si1 0.591206 0.887895 0.992260
Si Si2 0.417685 0.049502 0.233394
Si Si3 0.581446 0.711782 0.397251
Si Si4 0.081954 0.204447 0.591137
Si Si5 0.916184 0.898333 0.503887
Si Si6 0.591635 0.956730 0.748553
O O1 0.750000 0.879849 0.043549
O O2 0.520241 0.836004 0.970301
O O3 0.586802 0.912773 0.848981
O O4 0.520511 0.921851 0.104485
O O5 0.250000 0.038849 0.225011
O O6 0.457158 0.084148 0.356424
O O7 0.500000 0.000000 0.246552
O O8 0.750000 0.709141 0.394455
O O9 0.525643 0.755949 0.485960
O O10 0.526770 0.715355 0.242737
O O11 0.250000 0.204458 0.590300
O O12 0.020738 0.153961 0.536975
O O13 0.750000 0.895122 0.524742
O O14 0.974089 0.937695 0.608783
O O15 0.750000 0.975916 0.730537
O O16 0.500000 0.000000 0.805501
#
# Coordination Sequence:
#
# PCOD8191396 Si02
#       6
#     8   8   8   8   8   8
#     4   9  17  29  43  62  91 122 150 186 231 272
#     4  10  20  32  47  67  93 125 158 190 227 270
#     4   9  16  25  39  61  89 120 151 182 223 277
#     4   9  16  25  39  61  89 120 151 182 223 277
#     4   9  17  29  43  62  91 122 150 186 231 272
#     4  10  18  30  47  65  89 121 152 186 227 268
#
# _framework density 18.181342999999998
#
# number of rings (size 3 to 8) (size 9 to 14) (size 15 to 20)
#    0.000    2.667    1.667    1.000    2.333    0.000 
#    0.000    0.000    0.000    0.000    0.000    0.000 
#    0.000    8.000    0.000    0.000    0.000    0.000 
#
# Total GULP energy -297452.609261 kJ/mol
# GULP energy per Si atom -12393.858719 kJ/mol
# Density = 1.813996 g / cm^3
# Si number density = 18.181343 Si / 1000 Ang^3
#
#
#
# Elastic Constant Matrix: (Units=GPa)
#
#
# Indices 1 2 3 4 5 6 
#
# 1 18.7038 26.1789 15.9446 0.0011 -0.0004 -0.0003
# 2 26.1789 142.3766 57.7866 0.0017 -0.0002 0.0002
# 3 15.9446 57.7866 124.6504 0.0073 -0.0005 0.0026
# 4 0.0011 0.0017 0.0073 35.7618 -0.0004 -0.0001
# 5 -0.0004 -0.0002 -0.0005 -0.0004 7.2845 0.0005
# 6 -0.0003 0.0002 0.0026 -0.0001 0.0005 13.3440
#
#
#
# Elastic Compliance Matrix: (Units=1/GPa)
#
#
# Indices 1 2 3 4 5 6 
#
# 1 0.073472 -0.011942 -0.003862 -0.000001 0.000004 0.000002
# 2 -0.011942 0.010592 -0.003383 0.000001 -0.000001 0.000000
# 3 -0.003862 -0.003383 0.010085 -0.000002 0.000000 -0.000002
# 4 -0.000001 0.000001 -0.000002 0.027963 0.000001 0.000000
# 5 0.000004 -0.000001 0.000000 0.000001 0.137278 -0.000005
# 6 0.000002 0.000000 -0.000002 0.000000 -0.000005 0.074940
#
#
# Mechanical properties :
#
#
# Convention : Reuss Voigt Hill
#
# Bulk Modulus (GPa) = 17.92910 53.95012 35.93961
# Shear Modulus (GPa) = 12.77807 23.66611 18.22209
#
# Velocity S-wave (km/s) = 2.65394 3.61178 3.16925
# Velocity P-wave (km/s) = 4.39020 6.86520 5.76216
#
# Compressibility (1/GPa) = 0.05577526
#
# Stress axis : x y z
#
# Youngs Moduli (GPa) = 13.61068 94.40688 99.15937
#
# Poissons Ratio (x) = 1.12739 0.38295
# Poissons Ratio (y) = 0.16254 0.33546
# Poissons Ratio (z) = 0.05256 0.31938
#
# Static dielectric constant tensor:
#      x y z
#    x 2.632330 0.000000 0.000000 
#    y 0.000000 3.519660 0.000000 
#    z 0.000000 0.000000 3.557190 
# 
# 
# High freq. dielectric constant tensor:
#      x y z
#    x 1.612250 0.000000 0.000000 
#    y 0.000000 1.720590 0.000000 
#    z 0.000000 0.000000 1.723280 
# 
# From -- ./inp_files/3930.got.cif
#   From: 2010.03.12/outbox.cif.g09.slc.cpg/sg46_2_cif.got.tgz:3930.got - 2010.04.14 02:56:35.
