data_PCOD8191868
_publ_section_title
;
Structure prediction by ZEFSAII (Michael W. Deem and Ramdas Pophale) SiO2 
 PCOD8191868
Probable space group: I M A 2
;
_chemical_formula_sum "Si O2"
_cell_formula_units_Z 64
_cell_length_a 8.930085
_cell_length_b 16.205409
_cell_length_c 22.428195
_cell_angle_alpha 90.000000
_cell_angle_beta 90.000000
_cell_angle_gamma 90.000000
_cell_volume 3245.711487
_symmetry_space_group_name_H-M "I M A 2"
_symmetry_group_IT_number 46
_symmetry_cell_setting 'orthorhombic'
loop_
_space_group_symop_operation_xyz
x,y,z
-x,-y,z
1/2-x,y,z
1/2+x,-y,z
1/2+x,1/2+y,1/2+z
1/2-x,1/2-y,1/2+z
-x,1/2+y,1/2+z
x,1/2-y,1/2+z
loop_
_atom_site_type_symbol
_atom_site_label
_atom_site_fract_x
_atom_site_fract_y
_atom_site_fract_z
Si Si1 0.912854 0.701250 0.996100
Si Si2 0.427080 0.915436 0.287546
Si Si3 0.421937 0.921530 0.421849
Si Si4 0.081165 0.384419 0.454510
Si Si5 0.575785 0.738362 0.624215
Si Si6 0.071747 0.584393 0.328650
Si Si7 0.073081 0.735152 0.241959
Si Si8 0.072450 0.920183 0.076742
O O1 0.750000 0.658231 0.987334
O O2 0.906845 0.787837 0.963527
O O3 0.047200 0.654390 0.964727
O O4 0.949470 0.705711 0.066060
O O5 0.250000 0.925056 0.281742
O O6 0.483723 0.905790 0.355500
O O7 0.479051 0.828748 0.258225
O O8 0.500000 0.000000 0.260221
O O9 0.250000 0.939726 0.418426
O O10 0.500000 0.000000 0.451462
O O11 0.250000 0.422121 0.452535
O O12 0.993049 0.405271 0.394668
O O13 0.988268 0.420337 0.509382
O O14 0.750000 0.715642 0.631572
O O15 0.513098 0.787997 0.681056
O O16 0.479778 0.655789 0.616717
O O17 0.250000 0.575107 0.331140
O O18 0.026118 0.665664 0.290366
O O19 0.000000 0.500000 0.301087
O O20 0.250000 0.732055 0.231925
O O21 0.250000 0.924405 0.076811
O O22 0.000000 0.000000 0.108430
#
# Coordination Sequence:
#
# PCOD8191868 Si02
#       8
#     8   8   8   8   8   8   8   8
#     4   9  19  35  54  78 108 140 177 222 271 328
#     4   9  19  35  55  83 115 145 180 221 268 327
#     4  10  19  32  53  80 110 141 175 218 270 327
#     4  10  20  35  56  84 116 147 181 224 279 340
#     4  10  22  39  57  79 107 141 185 232 277 330
#     4  11  23  39  59  84 114 149 193 241 289 341
#     4  10  22  40  59  80 111 151 193 236 282 335
#     4  11  21  35  56  82 114 148 182 222 273 332
#
# _framework density 19.718326000000001
#
# number of rings (size 3 to 8) (size 9 to 14) (size 15 to 20)
#    0.000    2.000    0.000    4.500    0.000    6.500 
#    0.000    1.875    0.000    1.500    0.000    0.000 
#    0.000    0.000    0.000    0.000    0.000    0.000 
#
# Total GULP energy -396670.791796 kJ/mol
# GULP energy per Si atom -12395.962244 kJ/mol
# Density = 1.967345 g / cm^3
# Si number density = 19.718326 Si / 1000 Ang^3
#
#
#
# Elastic Constant Matrix: (Units=GPa)
#
#
# Indices 1 2 3 4 5 6 
#
# 1 93.8457 29.6089 34.5702 0.0000 0.0000 0.0000
# 2 29.6089 81.0523 35.1015 0.0000 0.0000 0.0000
# 3 34.5702 35.1015 79.8695 0.0000 0.0000 0.0000
# 4 0.0000 0.0000 0.0000 -24.4529 0.0000 0.0000
# 5 0.0000 0.0000 0.0000 0.0000 37.2885 0.0000
# 6 0.0000 0.0000 0.0000 0.0000 0.0000 35.8481
#
#
#
# Elastic Compliance Matrix: (Units=1/GPa)
#
#
# Indices 1 2 3 4 5 6 
#
# 1 0.013207 -0.002901 -0.004442 0.000000 0.000000 0.000000
# 2 -0.002901 0.015875 -0.005721 0.000000 0.000000 0.000000
# 3 -0.004442 -0.005721 0.016957 0.000000 0.000000 0.000000
# 4 0.000000 0.000000 0.000000 -0.040895 0.000000 0.000000
# 5 0.000000 0.000000 0.000000 0.000000 0.026818 0.000000
# 6 0.000000 0.000000 0.000000 0.000000 0.000000 0.027896
#
#
# Mechanical properties :
#
#
# Convention : Reuss Voigt Hill
#
# Bulk Modulus (GPa) = 50.22118 50.36986 50.29552
# Shear Modulus (GPa) = 53.98205 20.10253 37.04229
#
# Velocity S-wave (km/s) = 5.23794 3.19640 4.33895
# Velocity P-wave (km/s) = 7.88073 6.26281 7.11789
#
# Compressibility (1/GPa) = 0.01991192
#
# Stress axis : x y z
#
# Youngs Moduli (GPa) = 75.71585 62.99115 58.97180
#
# Poissons Ratio (x) = 0.18275 0.26192
# Poissons Ratio (y) = 0.21967 0.33739
# Poissons Ratio (z) = 0.33629 0.36039
#
# Static dielectric constant tensor:
#      x y z
#    x 3.513500 0.000000 0.000000 
#    y 0.000000 3.888740 0.000000 
#    z 0.000000 0.000000 3.545110 
# 
# 
# High freq. dielectric constant tensor:
#      x y z
#    x 1.775360 0.000000 0.000000 
#    y 0.000000 1.766360 0.000000 
#    z 0.000000 0.000000 1.760610 
# 
# From -- ./inp_files/23151.got.cif
#   From: 2010.03.12/outbox.cif.g09.slc.cpg/sg46_12_cif.got.tgz:23151.got - 2010.04.14 02:56:35.
