data_PCOD8191753
_publ_section_title
;
Structure prediction by ZEFSAII (Michael W. Deem and Ramdas Pophale) SiO2 
 PCOD8191753
Probable space group: I M A 2
;
_chemical_formula_sum "Si O2"
_cell_formula_units_Z 56
_cell_length_a 8.694100
_cell_length_b 19.039228
_cell_length_c 17.683212
_cell_angle_alpha 90.000000
_cell_angle_beta 90.000000
_cell_angle_gamma 90.000000
_cell_volume 2927.083553
_symmetry_space_group_name_H-M "I M A 2"
_symmetry_group_IT_number 46
_symmetry_cell_setting 'orthorhombic'
loop_
_space_group_symop_operation_xyz
x,y,z
-x,-y,z
1/2-x,y,z
1/2+x,-y,z
1/2+x,1/2+y,1/2+z
1/2-x,1/2-y,1/2+z
-x,1/2+y,1/2+z
x,1/2-y,1/2+z
loop_
_atom_site_type_symbol
_atom_site_label
_atom_site_fract_x
_atom_site_fract_y
_atom_site_fract_z
Si Si1 0.929277 0.193614 0.706470
Si Si2 0.920832 0.931406 0.455150
Si Si3 0.931472 0.711171 0.595353
Si Si4 0.429973 0.713482 0.956991
Si Si5 0.430488 0.166899 0.864839
Si Si6 0.420593 0.431613 0.132063
Si Si7 0.069517 0.075918 0.005046
O O1 0.750000 0.208981 0.710207
O O2 0.012506 0.266921 0.680025
O O3 0.985428 0.160736 0.785177
O O4 0.970177 0.134849 0.645011
O O5 0.750000 0.919925 0.420230
O O6 0.903080 0.943628 0.543737
O O7 0.032262 0.866626 0.437950
O O8 0.000000 0.000000 0.418048
O O9 0.750000 0.723060 0.586768
O O10 0.975491 0.631014 0.572213
O O11 0.018087 0.765764 0.540931
O O12 0.250000 0.727865 0.946259
O O13 0.528671 0.757633 0.897788
O O14 0.250000 0.160784 0.852113
O O15 0.488008 0.106814 0.924120
O O16 0.500000 0.500000 0.169555
O O17 0.250000 0.420368 0.167846
O O18 0.250000 0.066600 0.002371
O O19 0.000000 0.000000 0.022591
#
# Coordination Sequence:
#
# PCOD8191753 Si02
#       7
#     8   8   8   8   8   8   8
#     4  12  23  35  54  82 112 146 188 233 281 334
#     4  10  19  31  50  75 105 139 175 215 262 313
#     4  10  20  36  56  80 109 147 187 227 279 337
#     4  11  20  33  54  80 107 137 180 230 273 323
#     4  10  22  39  56  77 110 150 186 225 280 341
#     4  10  20  33  50  73 107 144 178 216 260 314
#     4   9  20  37  60  85 111 145 188 232 281 336
#
# _framework density 19.131671000000001
#
# number of rings (size 3 to 8) (size 9 to 14) (size 15 to 20)
#    0.000    1.714    1.429    5.143    0.000    5.143 
#    0.000    1.429    0.000    0.857    0.000    4.000 
#    0.000    0.000    0.000    0.000    0.000    0.000 
#
# Total GULP energy -347100.216674 kJ/mol
# GULP energy per Si atom -12396.436310 kJ/mol
# Density = 1.908813 g / cm^3
# Si number density = 19.131671 Si / 1000 Ang^3
#
#
#
# Elastic Constant Matrix: (Units=GPa)
#
#
# Indices 1 2 3 4 5 6 
#
# 1 71.0226 30.2213 21.2884 0.0000 0.0000 0.0000
# 2 30.2213 132.1932 22.4106 0.0000 0.0000 0.0000
# 3 21.2884 22.4106 38.7376 0.0000 0.0000 0.0000
# 4 0.0000 0.0000 0.0000 14.8319 0.0000 0.0000
# 5 0.0000 0.0000 0.0000 0.0000 23.5954 0.0000
# 6 0.0000 0.0000 0.0000 0.0000 0.0000 35.0033
#
#
#
# Elastic Compliance Matrix: (Units=1/GPa)
#
#
# Indices 1 2 3 4 5 6 
#
# 1 0.017657 -0.002652 -0.008169 0.000000 0.000000 0.000000
# 2 -0.002652 0.008786 -0.003625 0.000000 0.000000 0.000000
# 3 -0.008169 -0.003625 0.032402 0.000000 0.000000 0.000000
# 4 0.000000 0.000000 0.000000 0.067422 0.000000 0.000000
# 5 0.000000 0.000000 0.000000 0.000000 0.042381 0.000000
# 6 0.000000 0.000000 0.000000 0.000000 0.000000 0.028569
#
#
# Mechanical properties :
#
#
# Convention : Reuss Voigt Hill
#
# Bulk Modulus (GPa) = 33.38768 43.31045 38.34907
# Shear Modulus (GPa) = 21.17808 25.88831 23.53320
#
# Velocity S-wave (km/s) = 3.33072 3.68253 3.51103
# Velocity P-wave (km/s) = 5.68164 6.38503 6.04357
#
# Compressibility (1/GPa) = 0.02995116
#
# Stress axis : x y z
#
# Youngs Moduli (GPa) = 56.63451 113.82375 30.86264
#
# Poissons Ratio (x) = 0.30183 0.25213
# Poissons Ratio (y) = 0.15018 0.11189
# Poissons Ratio (z) = 0.46267 0.41265
#
# Static dielectric constant tensor:
#      x y z
#    x 3.639930 0.000000 0.000000 
#    y 0.000000 3.657810 0.000000 
#    z 0.000000 0.000000 3.381010 
# 
# 
# High freq. dielectric constant tensor:
#      x y z
#    x 1.756230 0.000000 0.000000 
#    y 0.000000 1.745300 0.000000 
#    z 0.000000 0.000000 1.703850 
# 
# From -- ./inp_files/18481.got.cif
#   From: 2010.03.12/outbox.cif.g09.slc.cpg/sg46_10_cif.got.tgz:18481.got - 2010.04.14 02:56:35.
