data_PCOD8191944
_publ_section_title
;
Structure prediction by ZEFSAII (Michael W. Deem and Ramdas Pophale) SiO2 
 PCOD8191944
Probable space group: I M A 2
;
_chemical_formula_sum "Si O2"
_cell_formula_units_Z 64
_cell_length_a 9.269804
_cell_length_b 19.431899
_cell_length_c 20.382108
_cell_angle_alpha 90.000000
_cell_angle_beta 90.000000
_cell_angle_gamma 90.000000
_cell_volume 3671.426976
_symmetry_space_group_name_H-M "I M A 2"
_symmetry_group_IT_number 46
_symmetry_cell_setting 'orthorhombic'
loop_
_space_group_symop_operation_xyz
x,y,z
-x,-y,z
1/2-x,y,z
1/2+x,-y,z
1/2+x,1/2+y,1/2+z
1/2-x,1/2-y,1/2+z
-x,1/2+y,1/2+z
x,1/2-y,1/2+z
loop_
_atom_site_type_symbol
_atom_site_label
_atom_site_fract_x
_atom_site_fract_y
_atom_site_fract_z
Si Si1 0.083202 0.933652 0.034590
Si Si2 0.082585 0.213704 0.596653
Si Si3 0.920668 0.287373 0.481756
Si Si4 0.081964 0.289071 0.352223
Si Si5 0.918704 0.566096 0.295795
Si Si6 0.082792 0.300326 0.725216
Si Si7 0.582849 0.934569 0.645709
Si Si8 0.080264 0.931731 0.186693
O O1 0.250000 0.949893 0.025696
O O2 0.044569 0.920023 0.110325
O O3 0.035074 0.866633 0.994344
O O4 0.000000 0.000000 0.006839
O O5 0.250000 0.225209 0.578782
O O6 0.043481 0.252382 0.663802
O O7 0.046349 0.133254 0.604393
O O8 0.982213 0.240282 0.539054
O O9 0.750000 0.277916 0.480085
O O10 0.988854 0.262772 0.413454
O O11 0.250000 0.285409 0.370347
O O12 0.034727 0.366864 0.336085
O O13 0.046480 0.241035 0.290825
O O14 0.750000 0.552536 0.301537
O O15 0.965739 0.578047 0.220617
O O16 0.000000 0.500000 0.325802
O O17 0.250000 0.322362 0.722580
O O18 0.983246 0.367526 0.726328
O O19 0.750000 0.952098 0.642431
O O20 0.500000 0.000000 0.615161
O O21 0.250000 0.938427 0.200161
O O22 0.000000 0.000000 0.212225
#
# Coordination Sequence:
#
# PCOD8191944 Si02
#       8
#     8   8   8   8   8   8   8   8
#     4   9  19  33  49  72 104 140 177 216 255 308
#     4  10  19  34  57  80 104 139 179 219 266 318
#     4  11  23  37  51  76 110 141 179 224 267 312
#     4  10  21  37  54  75 106 145 183 217 262 319
#     4   9  17  31  50  74 106 141 177 215 254 306
#     4  10  19  34  57  81 105 137 179 224 267 315
#     4   9  17  31  52  80 108 136 172 215 261 311
#     4  10  19  33  53  80 110 139 174 218 268 317
#
# _framework density 17.431913999999999
#
# number of rings (size 3 to 8) (size 9 to 14) (size 15 to 20)
#    0.000    2.250    2.500    0.750    0.000    3.500 
#    0.000    2.500    0.000    0.750    0.000    3.500 
#    0.000    0.000    0.000    0.000    0.000    0.000 
#
# Total GULP energy -396877.751189 kJ/mol
# GULP energy per Si atom -12402.429725 kJ/mol
# Density = 1.739224 g / cm^3
# Si number density = 17.431914 Si / 1000 Ang^3
#
#
#
# Elastic Constant Matrix: (Units=GPa)
#
#
# Indices 1 2 3 4 5 6 
#
# 1 75.5846 64.0499 52.4764 0.0000 0.0000 0.0000
# 2 64.0499 116.4618 53.5599 0.0000 0.0000 0.0000
# 3 52.4764 53.5599 97.9638 0.0000 0.0000 0.0000
# 4 0.0000 0.0000 0.0000 19.0605 0.0000 0.0000
# 5 0.0000 0.0000 0.0000 0.0000 22.8591 0.0000
# 6 0.0000 0.0000 0.0000 0.0000 0.0000 36.5203
#
#
#
# Elastic Compliance Matrix: (Units=1/GPa)
#
#
# Indices 1 2 3 4 5 6 
#
# 1 0.030182 -0.012242 -0.009475 0.000000 0.000000 0.000000
# 2 -0.012242 0.016436 -0.002429 0.000000 0.000000 0.000000
# 3 -0.009475 -0.002429 0.016611 0.000000 0.000000 0.000000
# 4 0.000000 0.000000 0.000000 0.052464 0.000000 0.000000
# 5 0.000000 0.000000 0.000000 0.000000 0.043746 0.000000
# 6 0.000000 0.000000 0.000000 0.000000 0.000000 0.027382
#
#
# Mechanical properties :
#
#
# Convention : Reuss Voigt Hill
#
# Bulk Modulus (GPa) = 66.93907 70.02029 68.47968
# Shear Modulus (GPa) = 20.82554 23.68291 22.25422
#
# Velocity S-wave (km/s) = 3.46016 3.68991 3.57688
# Velocity P-wave (km/s) = 7.37884 7.64258 7.51187
#
# Compressibility (1/GPa) = 0.01493896
#
# Stress axis : x y z
#
# Youngs Moduli (GPa) = 33.13282 60.84293 60.20151
#
# Poissons Ratio (x) = 0.74481 0.57038
# Poissons Ratio (y) = 0.40560 0.14620
# Poissons Ratio (z) = 0.31392 0.14776
#
# Static dielectric constant tensor:
#      x y z
#    x 3.171470 0.000000 0.000000 
#    y 0.000000 3.331920 0.000000 
#    z 0.000000 0.000000 3.014110 
# 
# 
# High freq. dielectric constant tensor:
#      x y z
#    x 1.672870 0.000000 0.000000 
#    y 0.000000 1.676640 0.000000 
#    z 0.000000 0.000000 1.649990 
# 
# From -- ./inp_files/18550.got.cif
#   From: 2010.03.12/outbox.cif.g09.slc.cpg/sg46_10_cif.got.tgz:18550.got - 2010.04.14 02:56:35.
