data_PCOD8191174
_publ_section_title
;
Structure prediction by ZEFSAII (Michael W. Deem and Ramdas Pophale) SiO2 
 PCOD8191174
Probable space group: I M A 2
;
_chemical_formula_sum "Si O2"
_cell_formula_units_Z 64
_cell_length_a 14.020180
_cell_length_b 14.346970
_cell_length_c 15.564713
_cell_angle_alpha 90.000000
_cell_angle_beta 90.000000
_cell_angle_gamma 90.000000
_cell_volume 3130.796911
_symmetry_space_group_name_H-M "I M A 2"
_symmetry_group_IT_number 46
_symmetry_cell_setting 'orthorhombic'
loop_
_space_group_symop_operation_xyz
x,y,z
-x,-y,z
1/2-x,y,z
1/2+x,-y,z
1/2+x,1/2+y,1/2+z
1/2-x,1/2-y,1/2+z
-x,1/2+y,1/2+z
x,1/2-y,1/2+z
loop_
_atom_site_type_symbol
_atom_site_label
_atom_site_fract_x
_atom_site_fract_y
_atom_site_fract_z
Si Si1 0.357959 0.544845 0.830080
Si Si2 0.144981 0.106587 0.934938
Si Si3 0.859581 0.381155 0.020538
Si Si4 0.541352 0.644589 0.804398
Si Si5 0.637134 0.496102 0.182441
Si Si6 0.142703 0.187408 0.743398
Si Si7 0.361017 0.586954 0.358877
Si Si8 0.014196 0.767088 0.952739
O O1 0.250000 0.567346 0.799583
O O2 0.369751 0.563258 0.931529
O O3 0.434370 0.609796 0.779809
O O4 0.382104 0.438412 0.808620
O O5 0.250000 0.120416 0.976565
O O6 0.143078 0.149091 0.840084
O O7 0.064750 0.160846 0.992008
O O8 0.121161 0.996881 0.926930
O O9 0.750000 0.353299 0.038016
O O10 0.921651 0.285659 0.023597
O O11 0.898737 0.448252 0.095446
O O12 0.576102 0.721105 0.734827
O O13 0.541617 0.688642 0.899255
O O14 0.750000 0.498779 0.191108
O O15 0.601962 0.604060 0.183016
O O16 0.597516 0.440265 0.265147
O O17 0.250000 0.215418 0.716262
O O18 0.250000 0.612316 0.353957
O O19 0.416185 0.678245 0.388193
#
# Coordination Sequence:
#
# PCOD8191174 Si02
#       8
#     8   8   8   8   8   8   8   8
#     4   9  17  29  45  65  95 133 166 209 262 307
#     4   8  15  26  41  65  97 130 173 219 262 300
#     4   9  17  29  46  71 105 143 172 205 258 323
#     4   9  17  27  43  64  98 120 169 213 257 302
#     4   8  15  28  46  70 106 143 173 203 253 319
#     4   8  13  24  44  67  92 129 170 209 251 301
#     4   9  16  27  45  70 102 134 169 217 268 315
#     4  10  17  26  45  67 101 130 175 216 267 306
#
# _framework density 20.442080000000001
#
# number of rings (size 3 to 8) (size 9 to 14) (size 15 to 20)
#    0.000    3.250    0.000    2.625    0.000    1.000 
#    0.000    0.000   33.000    0.000    0.000    1.750 
#   15.000    0.750    3.750   31.750    1.500    0.000 
#
# Total GULP energy -396524.975743 kJ/mol
# GULP energy per Si atom -12391.405492 kJ/mol
# Density = 2.039555 g / cm^3
# Si number density = 20.442080 Si / 1000 Ang^3
#
#
#
# Elastic Constant Matrix: (Units=GPa)
#
#
# Indices 1 2 3 4 5 6 
#
# 1 108.1771 54.2801 34.4846 0.0000 0.0000 0.0000
# 2 54.2801 125.7733 49.4573 0.0000 0.0000 0.0000
# 3 34.4846 49.4573 41.5894 0.0000 0.0000 0.0000
# 4 0.0000 0.0000 0.0000 27.9018 0.0000 0.0000
# 5 0.0000 0.0000 0.0000 0.0000 9.4012 0.0000
# 6 0.0000 0.0000 0.0000 0.0000 0.0000 31.5427
#
#
#
# Elastic Compliance Matrix: (Units=1/GPa)
#
#
# Indices 1 2 3 4 5 6 
#
# 1 0.012995 -0.002576 -0.007712 0.000000 0.000000 0.000000
# 2 -0.002576 0.015445 -0.016231 0.000000 0.000000 0.000000
# 3 -0.007712 -0.016231 0.049741 0.000000 0.000000 0.000000
# 4 0.000000 0.000000 0.000000 0.035840 0.000000 0.000000
# 5 0.000000 0.000000 0.000000 0.000000 0.106369 0.000000
# 6 0.000000 0.000000 0.000000 0.000000 0.000000 0.031703
#
#
# Mechanical properties :
#
#
# Convention : Reuss Voigt Hill
#
# Bulk Modulus (GPa) = 39.77240 61.33152 50.55196
# Shear Modulus (GPa) = 15.94839 22.92368 19.43603
#
# Velocity S-wave (km/s) = 2.79619 3.35236 3.08683
# Velocity P-wave (km/s) = 5.47022 6.71209 6.12272
#
# Compressibility (1/GPa) = 0.02514307
#
# Stress axis : x y z
#
# Youngs Moduli (GPa) = 76.95314 64.74651 20.10422
#
# Poissons Ratio (x) = 0.16676 0.15504
# Poissons Ratio (y) = 0.19820 0.32631
# Poissons Ratio (z) = 0.59347 1.05090
#
# Static dielectric constant tensor:
#      x y z
#    x 4.075910 0.000000 0.000000 
#    y 0.000000 3.977750 0.000000 
#    z 0.000000 0.000000 3.115910 
# 
# 
# High freq. dielectric constant tensor:
#      x y z
#    x 1.815580 0.000000 0.000000 
#    y 0.000000 1.806630 0.000000 
#    z 0.000000 0.000000 1.719820 
# 
# From -- ./inp_files/19719.got.cif
#   From: 2010.03.12/outbox.cif.g09.slc.cpg/sg46_10_cif.got.tgz:19719.got - 2010.04.14 02:56:35.
