data_PCOD8191352
_publ_section_title
;
Structure prediction by ZEFSAII (Michael W. Deem and Ramdas Pophale) SiO2 
 PCOD8191352
Probable space group: I M A 2
;
_chemical_formula_sum "Si O2"
_cell_formula_units_Z 64
_cell_length_a 9.535833
_cell_length_b 23.923329
_cell_length_c 13.287257
_cell_angle_alpha 90.000000
_cell_angle_beta 90.000000
_cell_angle_gamma 90.000000
_cell_volume 3031.206927
_symmetry_space_group_name_H-M "I M A 2"
_symmetry_group_IT_number 46
_symmetry_cell_setting 'orthorhombic'
loop_
_space_group_symop_operation_xyz
x,y,z
-x,-y,z
1/2-x,y,z
1/2+x,-y,z
1/2+x,1/2+y,1/2+z
1/2-x,1/2-y,1/2+z
-x,1/2+y,1/2+z
x,1/2-y,1/2+z
loop_
_atom_site_type_symbol
_atom_site_label
_atom_site_fract_x
_atom_site_fract_y
_atom_site_fract_z
Si Si1 0.907179 0.128605 0.261520
Si Si2 0.401641 0.453350 0.071547
Si Si3 0.586622 0.170743 0.758414
Si Si4 0.408097 0.728902 0.891322
Si Si5 0.411853 0.946442 0.079337
Si Si6 0.586744 0.053856 0.850597
Si Si7 0.581677 0.673927 0.067993
Si Si8 0.598785 0.544931 0.843955
O O1 0.750000 0.106892 0.286695
O O2 0.918062 0.194483 0.284896
O O3 0.946713 0.108364 0.148407
O O4 0.019033 0.103657 0.340011
O O5 0.500000 0.500000 0.125823
O O6 0.250000 0.453396 0.126966
O O7 0.464893 0.391139 0.066227
O O8 0.378035 0.473981 0.957872
O O9 0.750000 0.174361 0.726431
O O10 0.560721 0.207334 0.859431
O O11 0.543314 0.106657 0.781954
O O12 0.487508 0.196141 0.671118
O O13 0.250000 0.723142 0.935582
O O14 0.518043 0.708134 0.974507
O O15 0.250000 0.963144 0.087858
O O16 0.500000 0.000000 0.115344
O O17 0.451573 0.930231 0.965442
O O18 0.750000 0.040012 0.839416
O O19 0.500000 0.000000 0.814252
O O20 0.750000 0.681048 0.066732
O O21 0.500000 0.500000 0.786437
O O22 0.750000 0.548535 0.789351
#
# Coordination Sequence:
#
# PCOD8191352 Si02
#       8
#     8   8   8   8   8   8   8   8
#     4  10  19  31  51  80 113 151 193 238 290 344
#     4   9  19  33  51  78 112 153 195 237 288 345
#     4  10  23  42  65  92 117 153 200 246 297 354
#     4  10  22  40  62  87 117 155 200 248 295 351
#     4   9  18  32  51  79 113 150 190 235 288 345
#     4   9  19  38  63  88 118 152 191 243 299 354
#     4  11  23  41  62  88 122 158 197 247 303 358
#     4  10  18  29  45  70 107 150 192 234 279 337
#
# _framework density 21.113702
#
# number of rings (size 3 to 8) (size 9 to 14) (size 15 to 20)
#    0.000    2.250    1.250    1.125    0.000    5.500 
#    0.000    6.250    0.000    3.000    0.000    0.000 
#    0.000    0.000    0.000    0.000    0.000    0.000 
#
# Total GULP energy -396535.761823 kJ/mol
# GULP energy per Si atom -12391.742557 kJ/mol
# Density = 2.106565 g / cm^3
# Si number density = 21.113702 Si / 1000 Ang^3
#
#
#
# Elastic Constant Matrix: (Units=GPa)
#
#
# Indices 1 2 3 4 5 6 
#
# 1 111.0846 48.7143 41.5656 -0.0001 0.0001 0.0000
# 2 48.7143 99.7410 29.5979 -0.0001 0.0000 0.0000
# 3 41.5656 29.5979 92.8456 0.0006 -0.0002 0.0000
# 4 -0.0001 -0.0001 0.0006 20.5971 0.0000 0.0000
# 5 0.0001 0.0000 -0.0002 0.0000 22.2848 0.0000
# 6 0.0000 0.0000 0.0000 0.0000 0.0000 29.7925
#
#
#
# Elastic Compliance Matrix: (Units=1/GPa)
#
#
# Indices 1 2 3 4 5 6 
#
# 1 0.012731 -0.005000 -0.004106 0.000000 0.000000 0.000000
# 2 -0.005000 0.013037 -0.001918 0.000000 0.000000 0.000000
# 3 -0.004106 -0.001918 0.013220 0.000000 0.000000 0.000000
# 4 0.000000 0.000000 0.000000 0.048551 0.000000 0.000000
# 5 0.000000 0.000000 0.000000 0.000000 0.044874 0.000000
# 6 0.000000 0.000000 0.000000 0.000000 0.000000 0.033565
#
#
# Mechanical properties :
#
#
# Convention : Reuss Voigt Hill
#
# Bulk Modulus (GPa) = 59.02545 60.38076 59.70310
# Shear Modulus (GPa) = 25.81706 26.78778 26.30242
#
# Velocity S-wave (km/s) = 3.50060 3.56580 3.53335
# Velocity P-wave (km/s) = 6.66000 6.75376 6.70704
#
# Compressibility (1/GPa) = 0.01694184
#
# Stress axis : x y z
#
# Youngs Moduli (GPa) = 78.54940 76.70558 75.64319
#
# Poissons Ratio (x) = 0.38349 0.31056
# Poissons Ratio (y) = 0.39271 0.14507
# Poissons Ratio (z) = 0.32250 0.14710
#
# Static dielectric constant tensor:
#      x y z
#    x 4.041840 0.000000 0.000000 
#    y 0.000000 3.713830 0.000000 
#    z 0.000000 0.000000 3.652670 
# 
# 
# High freq. dielectric constant tensor:
#      x y z
#    x 1.826620 0.000000 0.000000 
#    y 0.000000 1.812690 0.000000 
#    z 0.000000 0.000000 1.819910 
# 
# From -- ./inp_files/14552.got.cif
#   From: 2010.03.12/outbox.cif.g09.slc.cpg/sg46_8_cif.got.tgz:14552.got - 2010.04.14 02:56:35.
