data_PCOD8191739
_publ_section_title
;
Structure prediction by ZEFSAII (Michael W. Deem and Ramdas Pophale) SiO2 
 PCOD8191739
Probable space group: I M A 2
;
_chemical_formula_sum "Si O2"
_cell_formula_units_Z 64
_cell_length_a 8.796325
_cell_length_b 23.148509
_cell_length_c 19.112859
_cell_angle_alpha 90.000000
_cell_angle_beta 90.000000
_cell_angle_gamma 90.000000
_cell_volume 3891.794914
_symmetry_space_group_name_H-M "I M A 2"
_symmetry_group_IT_number 46
_symmetry_cell_setting 'orthorhombic'
loop_
_space_group_symop_operation_xyz
x,y,z
-x,-y,z
1/2-x,y,z
1/2+x,-y,z
1/2+x,1/2+y,1/2+z
1/2-x,1/2-y,1/2+z
-x,1/2+y,1/2+z
x,1/2-y,1/2+z
loop_
_atom_site_type_symbol
_atom_site_label
_atom_site_fract_x
_atom_site_fract_y
_atom_site_fract_z
Si Si1 0.927931 0.060691 0.246010
Si Si2 0.571479 0.882850 0.382148
Si Si3 0.573387 0.236405 0.027591
Si Si4 0.929959 0.062370 0.519428
Si Si5 0.429819 0.341279 0.104523
Si Si6 0.076419 0.830741 0.161016
Si Si7 0.571404 0.772415 0.735595
Si Si8 0.072804 0.247885 0.887201
O O1 0.750000 0.053526 0.261660
O O2 0.958670 0.102816 0.179749
O O3 0.008165 0.085611 0.314255
O O4 0.000000 0.000000 0.224658
O O5 0.750000 0.894901 0.388126
O O6 0.489476 0.909372 0.448752
O O7 0.533964 0.815296 0.378879
O O8 0.750000 0.253812 0.028820
O O9 0.522825 0.218786 0.949636
O O10 0.473719 0.291449 0.049682
O O11 0.539206 0.182554 0.079508
O O12 0.750000 0.058030 0.516921
O O13 0.982342 0.100384 0.585773
O O14 0.000000 0.000000 0.530148
O O15 0.250000 0.351646 0.099786
O O16 0.485199 0.322293 0.182425
O O17 0.250000 0.815475 0.177021
O O18 0.981455 0.790473 0.212128
O O19 0.750000 0.769169 0.732329
O O20 0.520097 0.784147 0.815513
O O21 0.250000 0.238314 0.902293
#
# Coordination Sequence:
#
# PCOD8191739 Si02
#       8
#     8   8   8   8   8   8   8   8
#     4  11  22  35  50  69  97 132 171 208 245 287
#     4  11  21  34  50  70 101 134 170 204 236 283
#     4  10  19  31  49  72  98 128 161 200 247 293
#     4  12  24  37  52  70  97 132 171 206 243 286
#     4  10  19  33  51  72  97 127 162 202 245 288
#     4   9  19  33  48  69  96 126 162 204 245 288
#     4   9  18  32  51  72  97 127 160 198 241 290
#     4  10  19  31  49  74 102 132 163 197 239 290
#
# _framework density 16.444853999999999
#
# number of rings (size 3 to 8) (size 9 to 14) (size 15 to 20)
#    0.000    1.750    2.500    3.000    0.000    2.500 
#    0.000    0.000    0.000    0.000    0.000    0.875 
#    0.000    4.000    0.000    0.000    0.000    0.000 
#
# Total GULP energy -396779.551031 kJ/mol
# GULP energy per Si atom -12399.360970 kJ/mol
# Density = 1.640742 g / cm^3
# Si number density = 16.444854 Si / 1000 Ang^3
#
#
#
# Elastic Constant Matrix: (Units=GPa)
#
#
# Indices 1 2 3 4 5 6 
#
# 1 67.9261 42.3949 47.6521 0.0000 0.0000 0.0000
# 2 42.3949 71.2246 52.2171 0.0000 0.0000 0.0000
# 3 47.6521 52.2171 119.7117 0.0000 0.0000 0.0000
# 4 0.0000 0.0000 0.0000 21.5232 0.0000 0.0000
# 5 0.0000 0.0000 0.0000 0.0000 20.7281 0.0000
# 6 0.0000 0.0000 0.0000 0.0000 0.0000 21.2790
#
#
#
# Elastic Compliance Matrix: (Units=1/GPa)
#
#
# Indices 1 2 3 4 5 6 
#
# 1 0.025433 -0.011344 -0.005176 0.000000 0.000000 0.000000
# 2 -0.011344 0.025700 -0.006695 0.000000 0.000000 0.000000
# 3 -0.005176 -0.006695 0.013334 0.000000 0.000000 0.000000
# 4 0.000000 0.000000 0.000000 0.046461 0.000000 0.000000
# 5 0.000000 0.000000 0.000000 0.000000 0.048244 0.000000
# 6 0.000000 0.000000 0.000000 0.000000 0.000000 0.046995
#
#
# Mechanical properties :
#
#
# Convention : Reuss Voigt Hill
#
# Bulk Modulus (GPa) = 55.43704 60.37673 57.90689
# Shear Modulus (GPa) = 19.33425 20.47928 19.90677
#
# Velocity S-wave (km/s) = 3.43257 3.53275 3.48302
# Velocity P-wave (km/s) = 7.03521 7.30991 7.17387
#
# Compressibility (1/GPa) = 0.01803848
#
# Stress axis : x y z
#
# Youngs Moduli (GPa) = 39.31920 38.90976 74.99740
#
# Poissons Ratio (x) = 0.44139 0.38816
# Poissons Ratio (y) = 0.44603 0.50209
# Poissons Ratio (z) = 0.20350 0.26049
#
# Static dielectric constant tensor:
#      x y z
#    x 3.200320 0.000000 0.000000 
#    y 0.000000 3.071460 0.000000 
#    z 0.000000 0.000000 3.476250 
# 
# 
# High freq. dielectric constant tensor:
#      x y z
#    x 1.645720 0.000000 0.000000 
#    y 0.000000 1.604040 0.000000 
#    z 0.000000 0.000000 1.634060 
# 
# From -- ./inp_files/18619.got.cif
#   From: 2010.03.12/outbox.cif.g09.slc.cpg/sg46_10_cif.got.tgz:18619.got - 2010.04.14 02:56:35.
