data_PCOD8191212
_publ_section_title
;
Structure prediction by ZEFSAII (Michael W. Deem and Ramdas Pophale) SiO2 
 PCOD8191212
Probable space group: I M A 2
;
_chemical_formula_sum "Si O2"
_cell_formula_units_Z 48
_cell_length_a 18.331648
_cell_length_b 14.329047
_cell_length_c 9.714917
_cell_angle_alpha 90.000000
_cell_angle_beta 90.000000
_cell_angle_gamma 90.000000
_cell_volume 2551.866268
_symmetry_space_group_name_H-M "I M A 2"
_symmetry_group_IT_number 46
_symmetry_cell_setting 'orthorhombic'
loop_
_space_group_symop_operation_xyz
x,y,z
-x,-y,z
1/2-x,y,z
1/2+x,-y,z
1/2+x,1/2+y,1/2+z
1/2-x,1/2-y,1/2+z
-x,1/2+y,1/2+z
x,1/2-y,1/2+z
loop_
_atom_site_type_symbol
_atom_site_label
_atom_site_fract_x
_atom_site_fract_y
_atom_site_fract_z
Si Si1 0.568790 0.634774 0.146550
Si Si2 0.953315 0.745350 0.889128
Si Si3 0.667061 0.331564 0.978509
Si Si4 0.448812 0.588765 0.780653
Si Si5 0.916018 0.143005 0.987577
Si Si6 0.905673 0.429908 0.200177
O O1 0.595076 0.696073 0.279177
O O2 0.607752 0.535255 0.150780
O O3 0.481586 0.616666 0.148895
O O4 0.591542 0.685670 0.002860
O O5 0.002444 0.680637 0.791722
O O6 0.002959 0.815969 0.975946
O O7 0.750000 0.339685 0.928635
O O8 0.617509 0.402190 0.888227
O O9 0.644023 0.223859 0.974540
O O10 0.658298 0.366614 0.135859
O O11 0.500000 0.500000 0.813236
O O12 0.412546 0.585152 0.629351
O O13 0.901326 0.070029 0.865110
#
# Coordination Sequence:
#
# PCOD8191212 Si02
#       6
#     8   8   8   8   8   8
#     4  10  18  30  51  74 111 137 183 231 287 338
#     4  10  17  30  46  75 108 144 178 225 289 337
#     4  11  22  38  56  79 115 160 193 228 291 364
#     4  11  21  33  52  83 118 150 192 242 289 340
#     4  10  20  32  49  77 110 148 189 229 284 342
#     4  10  20  32  50  77 106 148 186 232 278 340
#
# _framework density 18.809761999999999
#
# number of rings (size 3 to 8) (size 9 to 14) (size 15 to 20)
#    0.000    1.667    5.000    3.000    4.667    2.667 
#    0.000    0.000    0.000    0.000    0.000    4.667 
#    0.000    0.000    0.000    0.000    0.000    0.000 
#
# Total GULP energy -297502.339169 kJ/mol
# GULP energy per Si atom -12395.930799 kJ/mol
# Density = 1.876695 g / cm^3
# Si number density = 18.809762 Si / 1000 Ang^3
#
#
#
# Elastic Constant Matrix: (Units=GPa)
#
#
# Indices 1 2 3 4 5 6 
#
# 1 50.4388 15.0646 4.0622 0.0000 0.0000 0.0000
# 2 15.0646 78.6257 26.1393 0.0000 0.0000 0.0000
# 3 4.0622 26.1393 103.0100 0.0000 0.0000 0.0000
# 4 0.0000 0.0000 0.0000 36.6101 0.0000 0.0000
# 5 0.0000 0.0000 0.0000 0.0000 10.1200 0.0000
# 6 0.0000 0.0000 0.0000 0.0000 0.0000 13.7603
#
#
#
# Elastic Compliance Matrix: (Units=1/GPa)
#
#
# Indices 1 2 3 4 5 6 
#
# 1 0.021034 -0.004100 0.000211 0.000000 0.000000 0.000000
# 2 -0.004100 0.014690 -0.003566 0.000000 0.000000 0.000000
# 3 0.000211 -0.003566 0.010604 0.000000 0.000000 0.000000
# 4 0.000000 0.000000 0.000000 0.027315 0.000000 0.000000
# 5 0.000000 0.000000 0.000000 0.000000 0.098815 0.000000
# 6 0.000000 0.000000 0.000000 0.000000 0.000000 0.072673
#
#
# Mechanical properties :
#
#
# Convention : Reuss Voigt Hill
#
# Bulk Modulus (GPa) = 31.82948 35.84519 33.83733
# Shear Modulus (GPa) = 18.48345 24.55196 21.51770
#
# Velocity S-wave (km/s) = 3.13813 3.61678 3.38592
# Velocity P-wave (km/s) = 5.48534 6.04480 5.77185
#
# Compressibility (1/GPa) = 0.03141742
#
# Stress axis : x y z
#
# Youngs Moduli (GPa) = 47.54295 68.07560 94.30105
#
# Poissons Ratio (x) = 0.27912 -0.01990
# Poissons Ratio (y) = 0.19493 0.33626
# Poissons Ratio (z) = -0.01003 0.24275
#
# Static dielectric constant tensor:
#      x y z
#    x 2.796420 0.000000 0.000000 
#    y 0.000000 3.507100 0.000000 
#    z 0.000000 0.000000 3.672540 
# 
# 
# High freq. dielectric constant tensor:
#      x y z
#    x 1.644920 0.000000 0.000000 
#    y 0.000000 1.732420 0.000000 
#    z 0.000000 0.000000 1.754850 
# 
# From -- ./inp_files/6617.got.cif
#   From: 2010.03.12/outbox.cif.g09.slc.cpg/sg46_4_cif.got.tgz:6617.got - 2010.04.14 02:56:35.
