data_PCOD8191492
_publ_section_title
;
Structure prediction by ZEFSAII (Michael W. Deem and Ramdas Pophale) SiO2 
 PCOD8191492
Probable space group: I M A 2
;
_chemical_formula_sum "Si O2"
_cell_formula_units_Z 64
_cell_length_a 8.814002
_cell_length_b 29.908544
_cell_length_c 14.298846
_cell_angle_alpha 90.000000
_cell_angle_beta 90.000000
_cell_angle_gamma 90.000000
_cell_volume 3769.375512
_symmetry_space_group_name_H-M "I M A 2"
_symmetry_group_IT_number 46
_symmetry_cell_setting 'orthorhombic'
loop_
_space_group_symop_operation_xyz
x,y,z
-x,-y,z
1/2-x,y,z
1/2+x,-y,z
1/2+x,1/2+y,1/2+z
1/2-x,1/2-y,1/2+z
-x,1/2+y,1/2+z
x,1/2-y,1/2+z
loop_
_atom_site_type_symbol
_atom_site_label
_atom_site_fract_x
_atom_site_fract_y
_atom_site_fract_z
Si Si1 0.072476 0.365008 0.573110
Si Si2 0.930449 0.215183 0.962059
Si Si3 0.074290 0.635303 0.935328
Si Si4 0.572022 0.454460 0.839560
Si Si5 0.581418 0.324376 0.740750
Si Si6 0.579101 0.221485 0.750105
Si Si7 0.929395 0.453409 0.624382
Si Si8 0.072698 0.200728 0.567580
O O1 0.250000 0.365849 0.551604
O O2 0.989814 0.331263 0.503142
O O3 0.043619 0.349350 0.679364
O O4 0.002320 0.414418 0.560901
O O5 0.750000 0.217173 0.968517
O O6 0.986416 0.216695 0.854626
O O7 0.991702 0.257591 0.018341
O O8 0.250000 0.634476 0.965421
O O9 0.016598 0.586145 0.905180
O O10 0.047561 0.669113 0.849567
O O11 0.974288 0.653866 0.020111
O O12 0.500000 0.500000 0.878165
O O13 0.750000 0.459709 0.845473
O O14 0.523738 0.444995 0.732564
O O15 0.750000 0.344279 0.717567
O O16 0.577424 0.272580 0.717223
O O17 0.750000 0.202343 0.745373
O O18 0.474118 0.195578 0.676228
O O19 0.750000 0.454476 0.610124
O O20 0.000000 0.500000 0.589511
O O21 0.250000 0.208530 0.559549
#
# Coordination Sequence:
#
# PCOD8191492 Si02
#       8
#     8   8   8   8   8   8   8   8
#     4  12  23  33  49  78 108 140 175 214 262 312
#     4  11  22  38  56  73  98 138 181 217 254 306
#     4  10  19  35  53  72 100 141 182 211 249 308
#     4   9  18  31  50  74 102 136 173 213 257 303
#     4  10  18  32  52  72 100 140 181 216 250 298
#     4  10  21  37  56  72  96 139 182 218 256 302
#     4  10  19  34  52  75 105 139 175 214 259 309
#     4  12  24  34  50  78 107 135 169 217 266 308
#
# _framework density 16.978940000000001
#
# number of rings (size 3 to 8) (size 9 to 14) (size 15 to 20)
#    0.000    1.500    3.750    3.000    0.000    2.500 
#    0.000    0.000    0.000    0.000    0.000    0.875 
#    0.000    4.000    0.000    0.000    0.000    0.000 
#
# Total GULP energy -396837.860017 kJ/mol
# GULP energy per Si atom -12401.183126 kJ/mol
# Density = 1.694030 g / cm^3
# Si number density = 16.978940 Si / 1000 Ang^3
#
#
#
# Elastic Constant Matrix: (Units=GPa)
#
#
# Indices 1 2 3 4 5 6 
#
# 1 78.9021 34.9834 32.7857 0.0001 0.0001 0.0000
# 2 34.9834 102.0144 32.1926 0.0002 0.0001 0.0000
# 3 32.7857 32.1926 72.9154 0.0012 0.0003 0.0001
# 4 0.0001 0.0002 0.0012 25.0825 0.0001 0.0000
# 5 0.0001 0.0001 0.0003 0.0001 13.6578 0.0001
# 6 0.0000 0.0000 0.0001 0.0000 0.0001 29.2950
#
#
#
# Elastic Compliance Matrix: (Units=1/GPa)
#
#
# Indices 1 2 3 4 5 6 
#
# 1 0.016844 -0.003934 -0.005837 0.000000 0.000000 0.000000
# 2 -0.003934 0.012308 -0.003665 0.000000 0.000000 0.000000
# 3 -0.005837 -0.003665 0.017957 -0.000001 0.000000 0.000000
# 4 0.000000 0.000000 -0.000001 0.039868 0.000000 0.000000
# 5 0.000000 0.000000 0.000000 0.000000 0.073218 0.000000
# 6 0.000000 0.000000 0.000000 0.000000 0.000000 0.034136
#
#
# Mechanical properties :
#
#
# Convention : Reuss Voigt Hill
#
# Bulk Modulus (GPa) = 49.41460 50.41727 49.91593
# Shear Modulus (GPa) = 21.93476 23.86507 22.89991
#
# Velocity S-wave (km/s) = 3.59817 3.75316 3.67648
# Velocity P-wave (km/s) = 6.81389 6.96707 6.89091
#
# Compressibility (1/GPa) = 0.02023694
#
# Stress axis : x y z
#
# Youngs Moduli (GPa) = 59.37003 81.24587 55.68834
#
# Poissons Ratio (x) = 0.31964 0.32503
# Poissons Ratio (y) = 0.23358 0.20411
# Poissons Ratio (z) = 0.34652 0.29778
#
# Static dielectric constant tensor:
#      x y z
#    x 3.138700 0.000000 0.000000 
#    y 0.000000 3.258180 0.000000 
#    z 0.000000 0.000000 3.082750 
# 
# 
# High freq. dielectric constant tensor:
#      x y z
#    x 1.655060 0.000000 0.000000 
#    y 0.000000 1.649220 0.000000 
#    z 0.000000 0.000000 1.627990 
# 
# From -- ./inp_files/14762.got.cif
#   From: 2010.03.12/outbox.cif.g09.slc.cpg/sg46_8_cif.got.tgz:14762.got - 2010.04.14 02:56:35.
