data_PCOD8191900
_publ_section_title
;
Structure prediction by ZEFSAII (Michael W. Deem and Ramdas Pophale) SiO2 
 PCOD8191900
Probable space group: I M A 2
;
_chemical_formula_sum "Si O2"
_cell_formula_units_Z 48
_cell_length_a 17.635511
_cell_length_b 15.642078
_cell_length_c 8.871855
_cell_angle_alpha 90.000000
_cell_angle_beta 90.000000
_cell_angle_gamma 90.000000
_cell_volume 2447.354776
_symmetry_space_group_name_H-M "I M A 2"
_symmetry_group_IT_number 46
_symmetry_cell_setting 'orthorhombic'
loop_
_space_group_symop_operation_xyz
x,y,z
-x,-y,z
1/2-x,y,z
1/2+x,-y,z
1/2+x,1/2+y,1/2+z
1/2-x,1/2-y,1/2+z
-x,1/2+y,1/2+z
x,1/2-y,1/2+z
loop_
_atom_site_type_symbol
_atom_site_label
_atom_site_fract_x
_atom_site_fract_y
_atom_site_fract_z
Si Si1 0.585617 0.662817 0.050790
Si Si2 0.083971 0.327395 0.402879
Si Si3 0.920917 0.159115 0.416070
Si Si4 0.090439 0.511997 0.387346
Si Si5 0.922525 0.172378 0.062004
Si Si6 0.338923 0.513460 0.071761
O O1 0.570742 0.683803 0.225359
O O2 0.641308 0.583393 0.027110
O O3 0.627240 0.744405 0.970135
O O4 0.505437 0.640289 0.974826
O O5 0.125564 0.418782 0.433346
O O6 0.005556 0.326039 0.491790
O O7 0.924207 0.176603 0.239754
O O8 0.882595 0.241807 0.497758
O O9 0.868214 0.077145 0.442856
O O10 0.116571 0.583789 0.507145
O O11 0.120458 0.541454 0.225848
O O12 0.000000 0.500000 0.375927
O O13 0.250000 0.522554 0.091227
#
# Coordination Sequence:
#
# PCOD8191900 Si02
#       6
#     8   8   8   8   8   8
#     4  10  19  34  57  83 110 141 177 220 267 317
#     4   9  17  30  54  84 111 135 170 218 266 314
#     4  11  20  34  57  83 110 140 175 222 270 318
#     4   9  18  36  59  84 109 136 175 221 269 323
#     4  10  19  32  58  89 110 133 174 222 271 322
#     4  11  23  38  53  75 108 149 187 221 263 314
#
# _framework density 19.613012000000001
#
# number of rings (size 3 to 8) (size 9 to 14) (size 15 to 20)
#    0.000    2.000    0.000    8.500    0.000    5.333 
#    0.000    7.500    0.000    0.000    0.000    0.000 
#    0.000    0.000    0.000    0.000    0.000    0.000 
#
# Total GULP energy -297449.402245 kJ/mol
# GULP energy per Si atom -12393.725094 kJ/mol
# Density = 1.956837 g / cm^3
# Si number density = 19.613012 Si / 1000 Ang^3
#
#
#
# Elastic Constant Matrix: (Units=GPa)
#
#
# Indices 1 2 3 4 5 6 
#
# 1 40.0069 15.4873 16.7343 0.0000 0.0000 0.0000
# 2 15.4873 105.1076 65.4794 0.0000 0.0000 0.0000
# 3 16.7343 65.4794 150.6746 0.0000 0.0000 0.0000
# 4 0.0000 0.0000 0.0000 40.5198 0.0000 0.0000
# 5 0.0000 0.0000 0.0000 0.0000 5.7061 0.0000
# 6 0.0000 0.0000 0.0000 0.0000 0.0000 0.0314
#
#
#
# Elastic Compliance Matrix: (Units=1/GPa)
#
#
# Indices 1 2 3 4 5 6 
#
# 1 0.026833 -0.002876 -0.001730 0.000000 0.000000 0.000000
# 2 -0.002876 0.013354 -0.005484 0.000000 0.000000 0.000000
# 3 -0.001730 -0.005484 0.009212 0.000000 0.000000 0.000000
# 4 0.000000 0.000000 0.000000 0.024679 0.000000 0.000000
# 5 0.000000 0.000000 0.000000 0.000000 0.175250 0.000000
# 6 0.000000 0.000000 0.000000 0.000000 0.000000 31.847843
#
#
# Mechanical properties :
#
#
# Convention : Reuss Voigt Hill
#
# Bulk Modulus (GPa) = 34.22446 54.57678 44.40062
# Shear Modulus (GPa) = 0.15563 22.45733 11.30648
#
# Velocity S-wave (km/s) = 0.28200 3.38749 2.40360
# Velocity P-wave (km/s) = 4.19449 6.57171 5.51276
#
# Compressibility (1/GPa) = 0.02921887
#
# Stress axis : x y z
#
# Youngs Moduli (GPa) = 37.26791 74.88279 108.55150
#
# Poissons Ratio (x) = 0.21534 0.18783
# Poissons Ratio (y) = 0.10717 0.59530
# Poissons Ratio (z) = 0.06449 0.41066
#
# Static dielectric constant tensor:
#      x y z
#    x 2.964720 0.000000 0.000000 
#    y 0.000000 4.696170 0.000000 
#    z 0.000000 0.000000 3.626490 
# 
# 
# High freq. dielectric constant tensor:
#      x y z
#    x 1.694530 0.000000 0.000000 
#    y 0.000000 1.799850 0.000000 
#    z 0.000000 0.000000 1.769050 
# 
# From -- ./inp_files/5716.got.cif
#   From: 2010.03.12/outbox.cif.g09.slc.cpg/sg46_3_cif.got.tgz:5716.got - 2010.04.14 02:56:35.
