data_PCOD8191713
_publ_section_title
;
Structure prediction by ZEFSAII (Michael W. Deem and Ramdas Pophale) SiO2 
 PCOD8191713
Probable space group: I M A 2
;
_chemical_formula_sum "Si O2"
_cell_formula_units_Z 64
_cell_length_a 14.613980
_cell_length_b 27.610252
_cell_length_c 8.855992
_cell_angle_alpha 90.000000
_cell_angle_beta 90.000000
_cell_angle_gamma 90.000000
_cell_volume 3573.354430
_symmetry_space_group_name_H-M "I M A 2"
_symmetry_group_IT_number 46
_symmetry_cell_setting 'orthorhombic'
loop_
_space_group_symop_operation_xyz
x,y,z
-x,-y,z
1/2-x,y,z
1/2+x,-y,z
1/2+x,1/2+y,1/2+z
1/2-x,1/2-y,1/2+z
-x,1/2+y,1/2+z
x,1/2-y,1/2+z
loop_
_atom_site_type_symbol
_atom_site_label
_atom_site_fract_x
_atom_site_fract_y
_atom_site_fract_z
Si Si1 0.150757 0.930083 0.246270
Si Si2 0.647909 0.530968 0.234436
Si Si3 0.854080 0.700621 0.235916
Si Si4 0.963291 0.615149 0.088461
Si Si5 0.852997 0.069677 0.590842
Si Si6 0.960729 0.887660 0.237211
Si Si7 0.645874 0.801779 0.090938
Si Si8 0.597820 0.979639 0.066051
O O1 0.250000 0.903896 0.228345
O O2 0.136436 0.947916 0.418057
O O3 0.069410 0.893267 0.201930
O O4 0.154691 0.977611 0.142909
O O5 0.750000 0.543234 0.177756
O O6 0.579019 0.565390 0.147350
O O7 0.623379 0.475432 0.198202
O O8 0.645487 0.539328 0.414323
O O9 0.750000 0.687252 0.188423
O O10 0.923187 0.660384 0.176803
O O11 0.883707 0.751653 0.166822
O O12 0.863500 0.704447 0.413705
O O13 0.072787 0.612157 0.120444
O O14 0.941071 0.621145 0.912568
O O15 0.750000 0.089336 0.623194
O O16 0.924259 0.842339 0.144490
O O17 0.908418 0.935904 0.184991
O O18 0.750000 0.815577 0.136990
O O19 0.500000 0.000000 0.018412
#
# Coordination Sequence:
#
# PCOD8191713 Si02
#       8
#     8   8   8   8   8   8   8   8
#     4   9  18  34  52  71  99 134 170 208 247 291
#     4  11  21  31  46  71 102 136 171 207 247 292
#     4  10  21  37  56  78 102 130 161 198 246 296
#     4  11  20  33  52  74 101 132 166 207 247 294
#     4   9  19  34  51  71  98 134 172 207 247 291
#     4  10  21  33  51  76 100 131 169 204 248 296
#     4  10  21  37  56  77 103 130 160 199 244 295
#     4  10  19  31  47  70 101 135 170 208 247 291
#
# _framework density 17.910342
#
# number of rings (size 3 to 8) (size 9 to 14) (size 15 to 20)
#    0.000    2.000    0.000    4.125    0.000    7.000 
#    0.000    0.000    0.000    0.750    0.000    0.000 
#    0.000    0.000    0.000    0.000    0.000    0.000 
#
# Total GULP energy -396815.098890 kJ/mol
# GULP energy per Si atom -12400.471840 kJ/mol
# Density = 1.786958 g / cm^3
# Si number density = 17.910342 Si / 1000 Ang^3
#
#
#
# Elastic Constant Matrix: (Units=GPa)
#
#
# Indices 1 2 3 4 5 6 
#
# 1 110.4463 61.2355 33.9832 -0.0001 0.0005 0.0008
# 2 61.2355 90.4291 29.5437 -0.0015 -0.0002 0.0001
# 3 33.9832 29.5437 67.9380 -0.0094 0.0004 -0.0020
# 4 -0.0001 -0.0015 -0.0094 34.6088 -0.0009 -0.0013
# 5 0.0005 -0.0002 0.0004 -0.0009 25.2699 -0.0002
# 6 0.0008 0.0001 -0.0020 -0.0013 -0.0002 19.9513
#
#
#
# Elastic Compliance Matrix: (Units=1/GPa)
#
#
# Indices 1 2 3 4 5 6 
#
# 1 0.015237 -0.009124 -0.003654 -0.000001 0.000000 -0.000001
# 2 -0.009124 0.018354 -0.003417 0.000000 0.000000 0.000000
# 3 -0.003654 -0.003417 0.018033 0.000005 0.000000 0.000002
# 4 -0.000001 0.000000 0.000005 0.028894 0.000001 0.000002
# 5 0.000000 0.000000 0.000000 0.000001 0.039573 0.000000
# 6 -0.000001 0.000000 0.000002 0.000002 0.000000 0.050122
#
#
# Mechanical properties :
#
#
# Convention : Reuss Voigt Hill
#
# Bulk Modulus (GPa) = 51.99450 57.59314 54.79382
# Shear Modulus (GPa) = 23.92170 25.56941 24.74555
#
# Velocity S-wave (km/s) = 3.65860 3.78250 3.72107
# Velocity P-wave (km/s) = 6.85132 7.16258 7.00868
#
# Compressibility (1/GPa) = 0.01923280
#
# Stress axis : x y z
#
# Youngs Moduli (GPa) = 65.62793 54.48533 55.45373
#
# Poissons Ratio (x) = 0.49715 0.20263
# Poissons Ratio (y) = 0.59882 0.18949
# Poissons Ratio (z) = 0.23980 0.18618
#
# Static dielectric constant tensor:
#      x y z
#    x 3.494640 0.000000 0.000000 
#    y 0.000000 3.121550 -0.000010 
#    z 0.000000 -0.000010 3.383190 
# 
# 
# High freq. dielectric constant tensor:
#      x y z
#    x 1.699570 0.000000 0.000000 
#    y 0.000000 1.663690 0.000000 
#    z 0.000000 0.000000 1.706120 
# 
# From -- ./inp_files/6079.got.cif
#   From: 2010.03.12/outbox.cif.g09.slc.cpg/sg46_4_cif.got.tgz:6079.got - 2010.04.14 02:56:35.
