data_PCOD8191611
_publ_section_title
;
Structure prediction by ZEFSAII (Michael W. Deem and Ramdas Pophale) SiO2 
 PCOD8191611
Probable space group: I M A 2
;
_chemical_formula_sum "Si O2"
_cell_formula_units_Z 40
_cell_length_a 15.935049
_cell_length_b 13.568051
_cell_length_c 8.723507
_cell_angle_alpha 90.000000
_cell_angle_beta 90.000000
_cell_angle_gamma 90.000000
_cell_volume 1886.088141
_symmetry_space_group_name_H-M "I M A 2"
_symmetry_group_IT_number 46
_symmetry_cell_setting 'orthorhombic'
loop_
_space_group_symop_operation_xyz
x,y,z
-x,-y,z
1/2-x,y,z
1/2+x,-y,z
1/2+x,1/2+y,1/2+z
1/2-x,1/2-y,1/2+z
-x,1/2+y,1/2+z
x,1/2-y,1/2+z
loop_
_atom_site_type_symbol
_atom_site_label
_atom_site_fract_x
_atom_site_fract_y
_atom_site_fract_z
Si Si1 0.585138 0.369658 0.996150
Si Si2 0.250000 0.198521 0.670174
Si Si3 0.905347 0.580107 0.090098
Si Si4 0.347502 0.709708 0.301685
Si Si5 0.908555 0.009991 0.925663
Si Si6 0.750000 0.891218 0.006195
O O1 0.605651 0.312972 0.838668
O O2 0.611796 0.484488 0.982932
O O3 0.486764 0.360897 0.034309
O O4 0.639855 0.314407 0.124371
O O5 0.329394 0.155282 0.580003
O O6 0.250000 0.170295 0.847912
O O7 0.250000 0.316302 0.649314
O O8 0.918805 0.541477 0.261339
O O9 0.250000 0.719794 0.337656
O O10 0.386063 0.624279 0.408267
O O11 0.833773 0.957434 0.019457
O O12 0.000000 0.000000 0.009092
#
# Coordination Sequence:
#
# PCOD8191611 Si02
#       6
#     8   4   8   8   8   4
#     4  10  21  36  58  84 114 146 192 229 281 334
#     4  10  22  34  61  82 112 148 191 230 279 330
#     4   9  19  37  58  81 110 154 192 224 269 344
#     4  11  21  35  58  86 112 148 187 234 282 334
#     4  10  18  36  59  81 109 148 192 230 268 335
#     4  10  22  38  57  88 108 150 193 232 279 334
#
# _framework density 21.207915
#
# number of rings (size 3 to 8) (size 9 to 14) (size 15 to 20)
#    0.000    2.000    5.000    0.600    8.400    0.000 
#    0.000    2.000    4.400    0.000    0.000    0.000 
#    0.000    0.000    0.000    0.000    0.000    0.000 
#
# Total GULP energy -247995.992023 kJ/mol
# GULP energy per Si atom -12399.799601 kJ/mol
# Density = 2.115964 g / cm^3
# Si number density = 21.207915 Si / 1000 Ang^3
#
#
#
# Elastic Constant Matrix: (Units=GPa)
#
#
# Indices 1 2 3 4 5 6 
#
# 1 153.4171 37.7757 6.5357 0.0000 0.0000 0.0000
# 2 37.7757 77.1503 9.4327 0.0000 0.0000 0.0000
# 3 6.5357 9.4327 14.5456 0.0000 0.0000 0.0000
# 4 0.0000 0.0000 0.0000 36.0467 0.0000 0.0000
# 5 0.0000 0.0000 0.0000 0.0000 14.0660 0.0000
# 6 0.0000 0.0000 0.0000 0.0000 0.0000 39.1554
#
#
#
# Elastic Compliance Matrix: (Units=1/GPa)
#
#
# Indices 1 2 3 4 5 6 
#
# 1 0.007427 -0.003506 -0.001063 0.000000 0.000000 0.000000
# 2 -0.003506 0.015733 -0.008627 0.000000 0.000000 0.000000
# 3 -0.001063 -0.008627 0.074822 0.000000 0.000000 0.000000
# 4 0.000000 0.000000 0.000000 0.027742 0.000000 0.000000
# 5 0.000000 0.000000 0.000000 0.000000 0.071093 0.000000
# 6 0.000000 0.000000 0.000000 0.000000 0.000000 0.025539
#
#
# Mechanical properties :
#
#
# Convention : Reuss Voigt Hill
#
# Bulk Modulus (GPa) = 13.96883 39.17791 26.57337
# Shear Modulus (GPa) = 18.34100 30.61156 24.47628
#
# Velocity S-wave (km/s) = 2.94397 3.80334 3.40091
# Velocity P-wave (km/s) = 4.26109 6.14821 5.28949
#
# Compressibility (1/GPa) = 0.07158796
#
# Stress axis : x y z
#
# Youngs Moduli (GPa) = 134.64630 63.55890 13.36509
#
# Poissons Ratio (x) = 0.22287 0.01421
# Poissons Ratio (y) = 0.47214 0.11531
# Poissons Ratio (z) = 0.14315 0.54835
#
# Static dielectric constant tensor:
#      x y z
#    x 4.100750 0.000000 0.000000 
#    y 0.000000 3.911830 0.000000 
#    z 0.000000 0.000000 3.280970 
# 
# 
# High freq. dielectric constant tensor:
#      x y z
#    x 1.850330 0.000000 0.000000 
#    y 0.000000 1.834570 0.000000 
#    z 0.000000 0.000000 1.779480 
# 
# From -- ./inp_files/5440.got.cif
#   From: 2010.03.12/outbox.cif.g09.slc.cpg/sg46_3_cif.got.tgz:5440.got - 2010.04.14 02:56:35.
