data_PCOD8191920
_publ_section_title
;
Structure prediction by ZEFSAII (Michael W. Deem and Ramdas Pophale) SiO2 
 PCOD8191920
Probable space group: I M A 2
;
_chemical_formula_sum "Si O2"
_cell_formula_units_Z 64
_cell_length_a 8.843621
_cell_length_b 27.712809
_cell_length_c 14.632640
_cell_angle_alpha 90.000000
_cell_angle_beta 90.000000
_cell_angle_gamma 90.000000
_cell_volume 3586.190526
_symmetry_space_group_name_H-M "I M A 2"
_symmetry_group_IT_number 46
_symmetry_cell_setting 'orthorhombic'
loop_
_space_group_symop_operation_xyz
x,y,z
-x,-y,z
1/2-x,y,z
1/2+x,-y,z
1/2+x,1/2+y,1/2+z
1/2-x,1/2-y,1/2+z
-x,1/2+y,1/2+z
x,1/2-y,1/2+z
loop_
_atom_site_type_symbol
_atom_site_label
_atom_site_fract_x
_atom_site_fract_y
_atom_site_fract_z
Si Si1 0.083310 0.268313 0.594500
Si Si2 0.569475 0.551516 0.840879
Si Si3 0.418385 0.228200 0.392410
Si Si4 0.929440 0.050668 0.148567
Si Si5 0.426978 0.859332 0.031303
Si Si6 0.571029 0.365014 0.952919
Si Si7 0.424757 0.679114 0.340358
Si Si8 0.923447 0.175864 0.642699
O O1 0.250000 0.275846 0.635516
O O2 0.089506 0.249531 0.492483
O O3 0.999723 0.319584 0.597823
O O4 0.999640 0.228011 0.653141
O O5 0.500000 0.500000 0.867427
O O6 0.750000 0.548301 0.836086
O O7 0.503519 0.568432 0.743250
O O8 0.518488 0.588365 0.919081
O O9 0.250000 0.214843 0.357192
O O10 0.522977 0.180640 0.390924
O O11 0.489300 0.269997 0.330372
O O12 0.750000 0.045591 0.162515
O O13 0.972137 0.088110 0.068431
O O14 0.000000 0.000000 0.117613
O O15 0.250000 0.851421 0.037758
O O16 0.483363 0.853540 0.925563
O O17 0.750000 0.373374 0.944344
O O18 0.516240 0.356779 0.058662
O O19 0.250000 0.691548 0.356687
O O20 0.447099 0.651004 0.242950
O O21 0.750000 0.186092 0.620758
#
# Coordination Sequence:
#
# PCOD8191920 Si02
#       8
#     8   8   8   8   8   8   8   8
#     4   9  17  28  44  66  95 127 162 202 240 277
#     4  11  22  37  56  77  99 124 155 198 248 298
#     4   9  17  29  44  67  96 128 164 203 242 280
#     4  10  20  35  54  76  99 125 157 198 246 298
#     4   9  18  32  51  72  97 129 165 200 240 290
#     4  10  19  33  52  74  99 131 167 203 242 290
#     4   9  17  31  49  71  99 134 170 203 238 284
#     4   9  18  31  49  71  99 134 169 201 237 281
#
# _framework density 17.846236000000001
#
# number of rings (size 3 to 8) (size 9 to 14) (size 15 to 20)
#    0.000    2.500    0.000    3.375    0.000    6.000 
#    0.000    1.250    0.000    0.750    0.000    1.750 
#    0.000    0.000    0.000    0.000    0.000    0.000 
#
# Total GULP energy -396600.943552 kJ/mol
# GULP energy per Si atom -12393.779486 kJ/mol
# Density = 1.780562 g / cm^3
# Si number density = 17.846236 Si / 1000 Ang^3
#
#
#
# Elastic Constant Matrix: (Units=GPa)
#
#
# Indices 1 2 3 4 5 6 
#
# 1 83.3094 47.0555 36.8136 0.0000 0.0000 0.0000
# 2 47.0555 107.6248 63.8274 -0.0002 0.0001 0.0000
# 3 36.8136 63.8274 106.7668 -0.0003 0.0002 0.0000
# 4 0.0000 -0.0002 -0.0003 23.9702 0.0001 0.0000
# 5 0.0000 0.0001 0.0002 0.0001 14.5999 -0.0001
# 6 0.0000 0.0000 0.0000 0.0000 -0.0001 29.9294
#
#
#
# Elastic Compliance Matrix: (Units=1/GPa)
#
#
# Indices 1 2 3 4 5 6 
#
# 1 0.016238 -0.005855 -0.002099 0.000000 0.000000 0.000000
# 2 -0.005855 0.016506 -0.007849 0.000000 0.000000 0.000000
# 3 -0.002099 -0.007849 0.014782 0.000000 0.000000 0.000000
# 4 0.000000 0.000000 0.000000 0.041719 0.000000 0.000000
# 5 0.000000 0.000000 0.000000 0.000000 0.068494 0.000000
# 6 0.000000 0.000000 0.000000 0.000000 0.000000 0.033412
#
#
# Mechanical properties :
#
#
# Convention : Reuss Voigt Hill
#
# Bulk Modulus (GPa) = 62.80968 65.89934 64.35451
# Shear Modulus (GPa) = 21.92381 23.70020 22.81201
#
# Velocity S-wave (km/s) = 3.50878 3.64816 3.57915
# Velocity P-wave (km/s) = 7.18934 7.39944 7.29515
#
# Compressibility (1/GPa) = 0.01592111
#
# Stress axis : x y z
#
# Youngs Moduli (GPa) = 61.58463 60.58308 67.64907
#
# Poissons Ratio (x) = 0.35470 0.14198
# Poissons Ratio (y) = 0.36057 0.53098
# Poissons Ratio (z) = 0.12925 0.47552
#
# Static dielectric constant tensor:
#      x y z
#    x 3.484250 0.000000 0.000000 
#    y 0.000000 3.198470 0.000000 
#    z 0.000000 0.000000 3.436250 
# 
# 
# High freq. dielectric constant tensor:
#      x y z
#    x 1.698990 0.000000 0.000000 
#    y 0.000000 1.663470 0.000000 
#    z 0.000000 0.000000 1.688780 
# 
# From -- ./inp_files/14487.got.cif
#   From: 2010.03.12/outbox.cif.g09.slc.cpg/sg46_8_cif.got.tgz:14487.got - 2010.04.14 02:56:35.
