data_PCOD8191079
_publ_section_title
;
Structure prediction by ZEFSAII (Michael W. Deem and Ramdas Pophale) SiO2 
 PCOD8191079
Probable space group: I B A 2
;
_chemical_formula_sum "Si O2"
_cell_formula_units_Z 48
_cell_length_a 18.789540
_cell_length_b 9.189465
_cell_length_c 12.282482
_cell_angle_alpha 90.000000
_cell_angle_beta 90.000000
_cell_angle_gamma 90.000000
_cell_volume 2120.764829
_symmetry_space_group_name_H-M "I B A 2"
_symmetry_group_IT_number 45
_symmetry_cell_setting 'orthorhombic'
loop_
_space_group_symop_operation_xyz
x,y,z
-x,-y,z
-x,y,1/2+z
x,-y,1/2+z
1/2+x,1/2+y,1/2+z
1/2-x,1/2-y,1/2+z
1/2-x,1/2+y,z
1/2+x,1/2-y,z
loop_
_atom_site_type_symbol
_atom_site_label
_atom_site_fract_x
_atom_site_fract_y
_atom_site_fract_z
Si Si1 0.394018 0.018681 0.367680
Si Si2 0.254667 0.966502 0.246884
Si Si3 0.500000 0.000000 0.552957
Si Si4 0.132120 0.158144 0.887761
Si Si5 0.959811 0.277714 0.717614
Si Si6 0.814246 0.783471 0.122015
Si Si7 0.000000 0.000000 0.345360
O O1 0.311165 0.979171 0.347142
O O2 0.442833 0.915709 0.294027
O O3 0.424662 0.995079 0.488906
O O4 0.404016 0.191231 0.344611
O O5 0.182253 0.899792 0.292426
O O6 0.286560 0.878425 0.144761
O O7 0.240259 0.119603 0.190793
O O8 0.504651 0.150900 0.619772
O O9 0.071981 0.032790 0.915141
O O10 0.181543 0.185638 0.993385
O O11 0.891596 0.195694 0.671601
O O12 0.000612 0.147038 0.775141
#
# Coordination Sequence:
#
# PCOD8191079 Si02
#       7
#     8   8   4   8   8   8   4
#     4  11  25  47  72 105 142 191 237 303 361 436
#     4  11  25  48  72 105 148 183 245 308 356 440
#     4  12  22  46  74 106 138 194 240 284 368 446
#     4  12  25  47  72 105 145 194 244 298 371 432
#     4  11  25  45  70 104 147 180 240 300 362 433
#     4  11  25  46  72 107 139 193 243 295 371 430
#     4  12  26  48  70 104 152 188 238 314 360 428
#
# _framework density 22.633344000000001
#
# number of rings (size 3 to 8) (size 9 to 14) (size 15 to 20)
#    0.000    0.667    5.000    2.500    2.333    0.667 
#    3.000    0.000    0.000    0.000    0.000    0.000 
#    0.000    0.000    0.000    0.000    0.000    0.000 
#
# Total GULP energy -297402.193461 kJ/mol
# GULP energy per Si atom -12391.758061 kJ/mol
# Density = 2.258183 g / cm^3
# Si number density = 22.633344 Si / 1000 Ang^3
#
#
#
# Elastic Constant Matrix: (Units=GPa)
#
#
# Indices 1 2 3 4 5 6 
#
# 1 93.3270 59.2913 25.5212 0.0000 0.0000 0.0000
# 2 59.2913 129.0505 47.7615 0.0000 0.0000 0.0000
# 3 25.5212 47.7615 87.0016 0.0000 0.0000 0.0000
# 4 0.0000 0.0000 0.0000 31.6359 0.0000 0.0000
# 5 0.0000 0.0000 0.0000 0.0000 28.5129 0.0000
# 6 0.0000 0.0000 0.0000 0.0000 0.0000 48.0633
#
#
#
# Elastic Compliance Matrix: (Units=1/GPa)
#
#
# Indices 1 2 3 4 5 6 
#
# 1 0.015174 -0.006682 -0.000783 0.000000 0.000000 0.000000
# 2 -0.006682 0.012667 -0.004994 0.000000 0.000000 0.000000
# 3 -0.000783 -0.004994 0.014465 0.000000 0.000000 0.000000
# 4 0.000000 0.000000 0.000000 0.031610 0.000000 0.000000
# 5 0.000000 0.000000 0.000000 0.000000 0.035072 0.000000
# 6 0.000000 0.000000 0.000000 0.000000 0.000000 0.020806
#
#
# Mechanical properties :
#
#
# Convention : Reuss Voigt Hill
#
# Bulk Modulus (GPa) = 57.50766 63.83636 60.67201
# Shear Modulus (GPa) = 31.15119 33.42943 32.29031
#
# Velocity S-wave (km/s) = 3.71393 3.84734 3.78123
# Velocity P-wave (km/s) = 6.62228 6.92834 6.77704
#
# Compressibility (1/GPa) = 0.01738899
#
# Stress axis : x y z
#
# Youngs Moduli (GPa) = 65.90149 78.94518 69.13144
#
# Poissons Ratio (x) = 0.52750 0.05414
# Poissons Ratio (y) = 0.44034 0.34523
# Poissons Ratio (z) = 0.05161 0.39423
#
# Static dielectric constant tensor:
#      x y z
#    x 4.225570 0.000000 0.000000 
#    y 0.000000 4.202650 0.000000 
#    z 0.000000 0.000000 3.974880 
# 
# 
# High freq. dielectric constant tensor:
#      x y z
#    x 1.904880 0.000000 0.000000 
#    y 0.000000 1.904720 0.000000 
#    z 0.000000 0.000000 1.876640 
# 
# From -- ./inp_files/5637.got.cif
#   From: 2010.03.12/outbox.cif.g09.slc.cpg/sg45_3_cif.got.tgz:5637.got - 2010.04.14 02:50:11.
