data_PCOD8191903
_publ_section_title
;
Structure prediction by ZEFSAII (Michael W. Deem and Ramdas Pophale) SiO2 
 PCOD8191903
Probable space group: I M A 2
;
_chemical_formula_sum "Si O2"
_cell_formula_units_Z 64
_cell_length_a 9.350824
_cell_length_b 23.447150
_cell_length_c 18.567339
_cell_angle_alpha 90.000000
_cell_angle_beta 90.000000
_cell_angle_gamma 90.000000
_cell_volume 4070.892287
_symmetry_space_group_name_H-M "I M A 2"
_symmetry_group_IT_number 46
_symmetry_cell_setting 'orthorhombic'
loop_
_space_group_symop_operation_xyz
x,y,z
-x,-y,z
1/2-x,y,z
1/2+x,-y,z
1/2+x,1/2+y,1/2+z
1/2-x,1/2-y,1/2+z
-x,1/2+y,1/2+z
x,1/2-y,1/2+z
loop_
_atom_site_type_symbol
_atom_site_label
_atom_site_fract_x
_atom_site_fract_y
_atom_site_fract_z
Si Si1 0.581440 0.117350 0.414660
Si Si2 0.914308 0.332607 0.142416
Si Si3 0.082852 0.942784 0.268031
Si Si4 0.912351 0.230791 0.781529
Si Si5 0.085673 0.835088 0.176952
Si Si6 0.914963 0.056279 0.560842
Si Si7 0.585615 0.765823 0.070321
Si Si8 0.585260 0.735286 0.911152
O O1 0.750000 0.130960 0.413865
O O2 0.534292 0.081023 0.345454
O O3 0.534929 0.081517 0.484408
O O4 0.499639 0.176583 0.415739
O O5 0.750000 0.316859 0.123252
O O6 0.942687 0.321669 0.227031
O O7 0.946481 0.398153 0.123950
O O8 0.013913 0.293193 0.093924
O O9 0.250000 0.956263 0.268760
O O10 0.043736 0.897188 0.206256
O O11 0.000000 0.000000 0.249069
O O12 0.750000 0.229075 0.810251
O O13 0.941920 0.290101 0.740667
O O14 0.019616 0.225318 0.848329
O O15 0.250000 0.832589 0.152455
O O16 0.989606 0.820084 0.107724
O O17 0.750000 0.039613 0.557199
O O18 0.000000 0.000000 0.580936
O O19 0.750000 0.764527 0.094533
O O20 0.570090 0.771267 0.984494
O O21 0.750000 0.721673 0.894039
#
# Coordination Sequence:
#
# PCOD8191903 Si02
#       8
#     8   8   8   8   8   8   8   8
#     4  10  19  33  48  64  94 134 168 195 225 271
#     4   9  18  33  50  68  91 125 162 195 235 283
#     4  10  20  33  48  69  95 127 166 199 232 276
#     4   9  17  31  50  68  91 122 159 197 234 283
#     4   9  18  33  50  68  92 124 161 197 234 282
#     4  10  20  32  49  69  94 129 165 198 234 275
#     4  10  20  31  46  70  97 122 155 198 241 283
#     4  11  21  30  45  72 100 126 156 194 240 285
#
# _framework density 15.721368999999999
#
# number of rings (size 3 to 8) (size 9 to 14) (size 15 to 20)
#    0.000    2.250    2.500    1.875    0.000    5.500 
#    0.000    0.000    0.000    0.000    0.000    0.875 
#    0.000    2.000    0.000    0.000    0.000    0.000 
#
# Total GULP energy -396834.854035 kJ/mol
# GULP energy per Si atom -12401.089189 kJ/mol
# Density = 1.568559 g / cm^3
# Si number density = 15.721369 Si / 1000 Ang^3
#
#
#
# Elastic Constant Matrix: (Units=GPa)
#
#
# Indices 1 2 3 4 5 6 
#
# 1 77.2825 47.1363 56.1132 0.0000 0.0000 0.0000
# 2 47.1363 101.1577 58.6493 0.0000 0.0000 0.0000
# 3 56.1132 58.6493 92.4019 0.0000 0.0000 0.0000
# 4 0.0000 0.0000 0.0000 22.3078 0.0000 0.0000
# 5 0.0000 0.0000 0.0000 0.0000 25.1262 0.0000
# 6 0.0000 0.0000 0.0000 0.0000 0.0000 28.7281
#
#
#
# Elastic Compliance Matrix: (Units=1/GPa)
#
#
# Indices 1 2 3 4 5 6 
#
# 1 0.024313 -0.004381 -0.011984 0.000000 0.000000 0.000000
# 2 -0.004381 0.016431 -0.007769 0.000000 0.000000 0.000000
# 3 -0.011984 -0.007769 0.023031 0.000000 0.000000 0.000000
# 4 0.000000 0.000000 0.000000 0.044827 0.000000 0.000000
# 5 0.000000 0.000000 0.000000 0.000000 0.039799 0.000000
# 6 0.000000 0.000000 0.000000 0.000000 0.000000 0.034809
#
#
# Mechanical properties :
#
#
# Convention : Reuss Voigt Hill
#
# Bulk Modulus (GPa) = 64.48458 66.07111 65.27784
# Shear Modulus (GPa) = 21.12859 22.49532 21.81195
#
# Velocity S-wave (km/s) = 3.66996 3.78679 3.72883
# Velocity P-wave (km/s) = 7.68533 7.82543 7.75569
#
# Compressibility (1/GPa) = 0.01550758
#
# Stress axis : x y z
#
# Youngs Moduli (GPa) = 41.13062 60.86024 43.42041
#
# Poissons Ratio (x) = 0.26663 0.52034
# Poissons Ratio (y) = 0.18019 0.33732
# Poissons Ratio (z) = 0.49290 0.47280
#
# Static dielectric constant tensor:
#      x y z
#    x 3.025350 0.000000 0.000000 
#    y 0.000000 2.858030 0.000000 
#    z 0.000000 0.000000 3.098720 
# 
# 
# High freq. dielectric constant tensor:
#      x y z
#    x 1.607980 0.000000 0.000000 
#    y 0.000000 1.579310 0.000000 
#    z 0.000000 0.000000 1.596650 
# 
# From -- ./inp_files/18628.got.cif
#   From: 2010.03.12/outbox.cif.g09.slc.cpg/sg46_10_cif.got.tgz:18628.got - 2010.04.14 02:56:35.
