data_PCOD8191018
_publ_section_title
;
Structure prediction by ZEFSAII (Michael W. Deem and Ramdas Pophale) SiO2 
 PCOD8191018
Probable space group: I B A 2
;
_chemical_formula_sum "Si O2"
_cell_formula_units_Z 48
_cell_length_a 9.658730
_cell_length_b 16.169074
_cell_length_c 13.960249
_cell_angle_alpha 90.000000
_cell_angle_beta 90.000000
_cell_angle_gamma 90.000000
_cell_volume 2180.210060
_symmetry_space_group_name_H-M "I B A 2"
_symmetry_group_IT_number 45
_symmetry_cell_setting 'orthorhombic'
loop_
_space_group_symop_operation_xyz
x,y,z
-x,-y,z
-x,y,1/2+z
x,-y,1/2+z
1/2+x,1/2+y,1/2+z
1/2-x,1/2-y,1/2+z
1/2-x,1/2+y,z
1/2+x,1/2-y,z
loop_
_atom_site_type_symbol
_atom_site_label
_atom_site_fract_x
_atom_site_fract_y
_atom_site_fract_z
Si Si1 0.353074 0.381969 0.666340
Si Si2 0.855160 0.835190 0.646424
Si Si3 0.718545 0.786682 0.998102
Si Si4 0.946602 0.416584 0.882834
Si Si5 0.675785 0.204600 0.809579
Si Si6 0.153311 0.530769 0.689211
O O1 0.517306 0.399410 0.660179
O O2 0.321716 0.320660 0.578161
O O3 0.314472 0.337578 0.767150
O O4 0.265903 0.464743 0.655901
O O5 0.871647 0.785938 0.546571
O O6 0.874621 0.772073 0.734060
O O7 0.707291 0.883216 0.642168
O O8 0.619893 0.860196 0.963309
O O9 0.801229 0.749185 0.909718
O O10 0.839821 0.451534 0.803186
O O11 0.000000 0.500000 0.936259
O O12 0.061998 0.367165 0.822035
O O13 0.000000 0.500000 0.656795
#
# Coordination Sequence:
#
# PCOD8191018 Si02
#       6
#     8   8   8   8   8   8
#     4  11  24  42  68 105 141 188 232 297 363 416
#     4  11  25  43  70 104 146 183 238 297 355 427
#     4  11  25  41  68 107 143 188 235 294 353 429
#     4  11  22  44  70 102 136 191 239 290 350 428
#     4  11  22  42  70 100 145 186 238 287 359 418
#     4  11  23  46  73  97 136 191 240 289 357 424
#
# _framework density 22.016228999999999
#
# number of rings (size 3 to 8) (size 9 to 14) (size 15 to 20)
#    0.000    1.000    5.000    2.500    2.333    3.333 
#    0.000    0.000    3.667    0.000    0.000    0.000 
#    0.000    0.000    0.000    0.000    0.000    0.000 
#
# Total GULP energy -297485.706292 kJ/mol
# GULP energy per Si atom -12395.237762 kJ/mol
# Density = 2.196612 g / cm^3
# Si number density = 22.016229 Si / 1000 Ang^3
#
#
#
# Elastic Constant Matrix: (Units=GPa)
#
#
# Indices 1 2 3 4 5 6 
#
# 1 105.3755 43.2896 14.5262 0.0000 0.0000 0.0000
# 2 43.2896 127.2461 30.2874 0.0000 0.0000 0.0000
# 3 14.5262 30.2874 103.2865 0.0000 0.0000 0.0000
# 4 0.0000 0.0000 0.0000 39.8992 0.0000 0.0000
# 5 0.0000 0.0000 0.0000 0.0000 5.9482 0.0000
# 6 0.0000 0.0000 0.0000 0.0000 0.0000 40.3754
#
#
#
# Elastic Compliance Matrix: (Units=1/GPa)
#
#
# Indices 1 2 3 4 5 6 
#
# 1 0.011054 -0.003645 -0.000486 0.000000 0.000000 0.000000
# 2 -0.003645 0.009650 -0.002317 0.000000 0.000000 0.000000
# 3 -0.000486 -0.002317 0.010430 0.000000 0.000000 0.000000
# 4 0.000000 0.000000 0.000000 0.025063 0.000000 0.000000
# 5 0.000000 0.000000 0.000000 0.000000 0.168117 0.000000
# 6 0.000000 0.000000 0.000000 0.000000 0.000000 0.024768
#
#
# Mechanical properties :
#
#
# Convention : Reuss Voigt Hill
#
# Bulk Modulus (GPa) = 54.83018 56.90160 55.86589
# Shear Modulus (GPa) = 18.65272 33.76491 26.20882
#
# Velocity S-wave (km/s) = 2.91387 3.92042 3.45401
# Velocity P-wave (km/s) = 6.02324 6.81134 6.42937
#
# Compressibility (1/GPa) = 0.01823813
#
# Stress axis : x y z
#
# Youngs Moduli (GPa) = 90.46270 103.62257 95.88080
#
# Poissons Ratio (x) = 0.37771 0.04658
# Poissons Ratio (y) = 0.32974 0.22218
# Poissons Ratio (z) = 0.04395 0.24012
#
# Static dielectric constant tensor:
#      x y z
#    x 3.833120 0.000000 0.000000 
#    y 0.000000 4.245960 0.000000 
#    z 0.000000 0.000000 4.026540 
# 
# 
# High freq. dielectric constant tensor:
#      x y z
#    x 1.853280 0.000000 0.000000 
#    y 0.000000 1.884670 0.000000 
#    z 0.000000 0.000000 1.861670 
# 
# From -- ./inp_files/5601.got.cif
#   From: 2010.03.12/outbox.cif.g09.slc.cpg/sg45_3_cif.got.tgz:5601.got - 2010.04.14 02:50:11.
