data_PCOD8191229
_publ_section_title
;
Structure prediction by ZEFSAII (Michael W. Deem and Ramdas Pophale) SiO2 
 PCOD8191229
Probable space group: I M A 2
;
_chemical_formula_sum "Si O2"
_cell_formula_units_Z 64
_cell_length_a 22.494087
_cell_length_b 17.106833
_cell_length_c 8.997487
_cell_angle_alpha 90.000000
_cell_angle_beta 90.000000
_cell_angle_gamma 90.000000
_cell_volume 3462.256299
_symmetry_space_group_name_H-M "I M A 2"
_symmetry_group_IT_number 46
_symmetry_cell_setting 'orthorhombic'
loop_
_space_group_symop_operation_xyz
x,y,z
-x,-y,z
1/2-x,y,z
1/2+x,-y,z
1/2+x,1/2+y,1/2+z
1/2-x,1/2-y,1/2+z
-x,1/2+y,1/2+z
x,1/2-y,1/2+z
loop_
_atom_site_type_symbol
_atom_site_label
_atom_site_fract_x
_atom_site_fract_y
_atom_site_fract_z
Si Si1 0.435016 0.743456 0.807620
Si Si2 0.415368 0.845746 0.564657
Si Si3 0.125506 0.251791 0.308376
Si Si4 0.411435 0.474047 0.505767
Si Si5 0.181222 0.353811 0.565975
Si Si6 0.930575 0.507813 0.176473
Si Si7 0.942998 0.835962 0.553734
Si Si8 0.025131 0.632801 0.553228
O O1 0.391436 0.792836 0.700245
O O2 0.391904 0.688303 0.908361
O O3 0.474794 0.684498 0.704611
O O4 0.468830 0.809083 0.910297
O O5 0.486315 0.829844 0.554547
O O6 0.400663 0.934986 0.592350
O O7 0.162215 0.309393 0.414903
O O8 0.170401 0.199831 0.210760
O O9 0.082140 0.198362 0.403961
O O10 0.080986 0.297304 0.202456
O O11 0.353060 0.437008 0.582101
O O12 0.397454 0.477216 0.330309
O O13 0.425414 0.562835 0.559953
O O14 0.462480 0.410564 0.540397
O O15 0.250000 0.374255 0.556436
O O16 0.921478 0.574785 0.056044
O O17 0.000000 0.500000 0.218906
#
# Coordination Sequence:
#
# PCOD8191229 Si02
#       8
#     8   8   8   8   8   8   8   8
#     4  10  20  30  48  76 109 138 173 213 252 324
#     4  10  19  28  47  69 112 133 180 201 259 314
#     4  10  22  34  53  73 101 133 190 230 253 302
#     4  11  20  35  55  73 111 141 181 214 266 317
#     4  11  24  38  55  75 102 143 185 229 267 308
#     4  10  17  32  47  72 104 142 167 216 261 311
#     4  10  19  30  48  73  95 140 174 214 265 296
#     4  10  21  34  53  80 108 142 172 213 269 315
#
# _framework density 18.485054999999999
#
# number of rings (size 3 to 8) (size 9 to 14) (size 15 to 20)
#    0.000    1.750    3.750    1.875    8.750    1.000 
#    4.500    0.000    0.000    0.000    0.000    0.875 
#    0.000    0.000    0.000    0.000    0.000    0.000 
#
# Total GULP energy -396433.644660 kJ/mol
# GULP energy per Si atom -12388.551396 kJ/mol
# Density = 1.844298 g / cm^3
# Si number density = 18.485055 Si / 1000 Ang^3
#
#
#
# Elastic Constant Matrix: (Units=GPa)
#
#
# Indices 1 2 3 4 5 6 
#
# 1 56.5541 25.4443 13.2429 0.0000 0.0000 0.0000
# 2 25.4443 142.9045 48.0710 0.0000 0.0000 0.0000
# 3 13.2429 48.0710 103.0083 0.0000 0.0000 0.0000
# 4 0.0000 0.0000 0.0000 22.8731 0.0000 0.0000
# 5 0.0000 0.0000 0.0000 0.0000 3.8003 0.0000
# 6 0.0000 0.0000 0.0000 0.0000 0.0000 18.2268
#
#
#
# Elastic Compliance Matrix: (Units=1/GPa)
#
#
# Indices 1 2 3 4 5 6 
#
# 1 0.019316 -0.003089 -0.001042 0.000000 0.000000 0.000000
# 2 -0.003089 0.008795 -0.003707 0.000000 0.000000 0.000000
# 3 -0.001042 -0.003707 0.011572 0.000000 0.000000 0.000000
# 4 0.000000 0.000000 0.000000 0.043720 0.000000 0.000000
# 5 0.000000 0.000000 0.000000 0.000000 0.263134 0.000000
# 6 0.000000 0.000000 0.000000 0.000000 0.000000 0.054864
#
#
# Mechanical properties :
#
#
# Convention : Reuss Voigt Hill
#
# Bulk Modulus (GPa) = 41.65459 52.88704 47.27081
# Shear Modulus (GPa) = 11.76254 23.36062 17.56158
#
# Velocity S-wave (km/s) = 2.52529 3.55879 3.08562
# Velocity P-wave (km/s) = 5.57547 6.74978 6.19053
#
# Compressibility (1/GPa) = 0.02400696
#
# Stress axis : x y z
#
# Youngs Moduli (GPa) = 51.77110 113.70536 86.41623
#
# Poissons Ratio (x) = 0.35121 0.09003
# Poissons Ratio (y) = 0.15991 0.32036
# Poissons Ratio (z) = 0.05394 0.42152
#
# Static dielectric constant tensor:
#      x y z
#    x 2.747170 0.000000 0.000000 
#    y 0.000000 3.956900 0.000000 
#    z 0.000000 0.000000 4.205440 
# 
# 
# High freq. dielectric constant tensor:
#      x y z
#    x 1.628690 0.000000 0.000000 
#    y 0.000000 1.743760 0.000000 
#    z 0.000000 0.000000 1.736340 
# 
# From -- ./inp_files/8016.got.cif
#   From: 2010.03.12/outbox.cif.g09.slc.cpg/sg46_5_cif.got.tgz:8016.got - 2010.04.14 02:56:35.
