data_PCOD8191015
_publ_section_title
;
Structure prediction by ZEFSAII (Michael W. Deem and Ramdas Pophale) SiO2 
 PCOD8191015
Probable space group: I B A 2
;
_chemical_formula_sum "Si O2"
_cell_formula_units_Z 64
_cell_length_a 22.714701
_cell_length_b 9.229320
_cell_length_c 14.304878
_cell_angle_alpha 90.000000
_cell_angle_beta 90.000000
_cell_angle_gamma 90.000000
_cell_volume 2998.892423
_symmetry_space_group_name_H-M "I B A 2"
_symmetry_group_IT_number 45
_symmetry_cell_setting 'orthorhombic'
loop_
_space_group_symop_operation_xyz
x,y,z
-x,-y,z
-x,y,1/2+z
x,-y,1/2+z
1/2+x,1/2+y,1/2+z
1/2-x,1/2-y,1/2+z
1/2-x,1/2+y,z
1/2+x,1/2-y,z
loop_
_atom_site_type_symbol
_atom_site_label
_atom_site_fract_x
_atom_site_fract_y
_atom_site_fract_z
Si Si1 0.737687 0.424369 0.019080
Si Si2 0.573545 0.730721 0.880179
Si Si3 0.015375 0.167827 0.023395
Si Si4 0.318127 0.922895 0.333534
Si Si5 0.375446 0.429669 0.423473
Si Si6 0.752453 0.330422 0.651910
Si Si7 0.855536 0.737433 0.760705
Si Si8 0.989805 0.828001 0.724539
O O1 0.761621 0.511089 0.108649
O O2 0.728270 0.265500 0.062616
O O3 0.775512 0.438074 0.923563
O O4 0.672270 0.485843 0.997862
O O5 0.626466 0.840684 0.875476
O O6 0.594601 0.564788 0.872896
O O7 0.527042 0.760853 0.799012
O O8 0.537454 0.756872 0.975453
O O9 0.018590 0.226138 0.128063
O O10 0.077157 0.180775 0.969355
O O11 0.000000 0.000000 0.026161
O O12 0.289828 0.826233 0.249061
O O13 0.340937 0.073277 0.290329
O O14 0.338829 0.336863 0.348769
O O15 0.685234 0.287744 0.674915
O O16 0.922603 0.773782 0.731836
O O17 0.000000 0.000000 0.739408
#
# Coordination Sequence:
#
# PCOD8191015 Si02
#       8
#     8   8   8   8   8   8   8   8
#     4  12  27  46  73 104 144 192 238 297 366 431
#     4  11  23  43  70  99 136 185 235 288 359 423
#     4   9  21  38  63 106 130 167 239 292 341 411
#     4  12  29  47  69 105 150 188 240 298 369 426
#     4  11  22  42  75 100 138 184 238 297 348 423
#     4  12  28  46  71 106 142 188 246 292 364 437
#     4  12  25  47  70 100 146 184 234 308 351 428
#     4  11  22  41  73 103 135 183 239 293 352 418
#
# _framework density 21.341211999999999
#
# number of rings (size 3 to 8) (size 9 to 14) (size 15 to 20)
#    0.000    0.750    5.000    1.875   12.250    0.500 
#    0.000    0.000    2.750    0.000    0.000    0.000 
#    0.000    0.000    0.000    0.000    0.000    0.000 
#
# Total GULP energy -396564.769124 kJ/mol
# GULP energy per Si atom -12392.649035 kJ/mol
# Density = 2.129264 g / cm^3
# Si number density = 21.341212 Si / 1000 Ang^3
#
#
#
# Elastic Constant Matrix: (Units=GPa)
#
#
# Indices 1 2 3 4 5 6 
#
# 1 108.9032 25.8369 33.0915 0.0000 0.0000 0.0000
# 2 25.8369 65.1792 26.4033 0.0000 0.0000 0.0000
# 3 33.0915 26.4033 113.5365 0.0000 0.0000 0.0000
# 4 0.0000 0.0000 0.0000 22.5670 0.0000 0.0000
# 5 0.0000 0.0000 0.0000 0.0000 27.9309 0.0000
# 6 0.0000 0.0000 0.0000 0.0000 0.0000 32.5975
#
#
#
# Elastic Compliance Matrix: (Units=1/GPa)
#
#
# Indices 1 2 3 4 5 6 
#
# 1 0.010674 -0.003280 -0.002348 0.000000 0.000000 0.000000
# 2 -0.003280 0.017946 -0.003217 0.000000 0.000000 0.000000
# 3 -0.002348 -0.003217 0.010240 0.000000 0.000000 0.000000
# 4 0.000000 0.000000 0.000000 0.044312 0.000000 0.000000
# 5 0.000000 0.000000 0.000000 0.000000 0.035803 0.000000
# 6 0.000000 0.000000 0.000000 0.000000 0.000000 0.030677
#
#
# Mechanical properties :
#
#
# Convention : Reuss Voigt Hill
#
# Bulk Modulus (GPa) = 47.23875 50.92025 49.07950
# Shear Modulus (GPa) = 28.66964 30.10488 29.38726
#
# Velocity S-wave (km/s) = 3.66921 3.75993 3.71485
# Velocity P-wave (km/s) = 6.33513 6.53921 6.43798
#
# Compressibility (1/GPa) = 0.02116906
#
# Stress axis : x y z
#
# Youngs Moduli (GPa) = 93.68394 55.72334 97.65236
#
# Poissons Ratio (x) = 0.18277 0.22932
# Poissons Ratio (y) = 0.30728 0.31419
# Poissons Ratio (z) = 0.22000 0.17928
#
# Static dielectric constant tensor:
#      x y z
#    x 3.924610 0.000000 0.000000 
#    y 0.000000 3.565300 0.000000 
#    z 0.000000 0.000000 4.177300 
# 
# 
# High freq. dielectric constant tensor:
#      x y z
#    x 1.847630 0.000000 0.000000 
#    y 0.000000 1.808430 0.000000 
#    z 0.000000 0.000000 1.858900 
# 
# From -- ./inp_files/5873.got.cif
#   From: 2010.03.12/outbox.cif.g09.slc.cpg/sg45_3_cif.got.tgz:5873.got - 2010.04.14 02:50:11.
