data_PCOD8191702
_publ_section_title
;
Structure prediction by ZEFSAII (Michael W. Deem and Ramdas Pophale) SiO2 
 PCOD8191702
Probable space group: I M A 2
;
_chemical_formula_sum "Si O2"
_cell_formula_units_Z 56
_cell_length_a 26.949764
_cell_length_b 15.037991
_cell_length_c 7.689269
_cell_angle_alpha 90.000000
_cell_angle_beta 90.000000
_cell_angle_gamma 90.000000
_cell_volume 3116.232420
_symmetry_space_group_name_H-M "I M A 2"
_symmetry_group_IT_number 46
_symmetry_cell_setting 'orthorhombic'
loop_
_space_group_symop_operation_xyz
x,y,z
-x,-y,z
1/2-x,y,z
1/2+x,-y,z
1/2+x,1/2+y,1/2+z
1/2-x,1/2-y,1/2+z
-x,1/2+y,1/2+z
x,1/2-y,1/2+z
loop_
_atom_site_type_symbol
_atom_site_label
_atom_site_fract_x
_atom_site_fract_y
_atom_site_fract_z
Si Si1 0.951122 0.167426 0.897900
Si Si2 0.805180 0.390630 0.271358
Si Si3 0.597636 0.004124 0.752105
Si Si4 0.444113 0.478688 0.904836
Si Si5 0.404450 0.656867 0.757973
Si Si6 0.805307 0.209465 0.133382
Si Si7 0.539569 0.920116 0.042331
O O1 0.937141 0.093248 0.752471
O O2 0.940039 0.265056 0.827909
O O3 0.008823 0.163459 0.963124
O O4 0.915194 0.142804 0.055749
O O5 0.750000 0.433177 0.266367
O O6 0.844372 0.470389 0.252133
O O7 0.811943 0.317071 0.118666
O O8 0.813560 0.335791 0.448467
O O9 0.583799 0.945869 0.580005
O O10 0.586112 0.942475 0.919377
O O11 0.500000 0.500000 0.956022
O O12 0.415268 0.568254 0.859812
O O13 0.441546 0.408163 0.742797
O O14 0.345871 0.675809 0.773339
O O15 0.750000 0.188545 0.207011
O O16 0.500000 0.000000 0.047950
#
# Coordination Sequence:
#
# PCOD8191702 Si02
#       7
#     8   8   8   8   8   8   8
#     4  11  20  31  47  71 103 125 172 220 249 296
#     4  10  20  32  44  66  96 129 172 220 253 287
#     4  11  19  32  50  67  91 132 170 205 254 302
#     4  11  20  33  52  68  92 130 170 205 260 310
#     4  12  19  31  48  71  97 133 176 214 248 292
#     4  10  19  31  44  63  98 137 173 214 251 282
#     4   9  18  36  46  67  98 125 165 211 251 308
#
# _framework density 17.970417000000001
#
# number of rings (size 3 to 8) (size 9 to 14) (size 15 to 20)
#    0.000    1.429    7.143    2.143    2.000    0.000 
#    0.000    0.000    0.000    0.000    0.000    0.000 
#    0.000    0.000    0.000    6.429    0.000    0.714 
#
# Total GULP energy -346966.387400 kJ/mol
# GULP energy per Si atom -12391.656693 kJ/mol
# Density = 1.792952 g / cm^3
# Si number density = 17.970417 Si / 1000 Ang^3
#
#
#
# Elastic Constant Matrix: (Units=GPa)
#
#
# Indices 1 2 3 4 5 6 
#
# 1 131.9068 23.4051 47.7954 0.0000 0.0000 0.0000
# 2 23.4051 16.3034 11.5962 0.0000 0.0000 0.0000
# 3 47.7954 11.5962 93.7456 0.0000 0.0000 0.0000
# 4 0.0000 0.0000 0.0000 16.5019 0.0000 0.0000
# 5 0.0000 0.0000 0.0000 0.0000 11.2714 0.0000
# 6 0.0000 0.0000 0.0000 0.0000 0.0000 28.5977
#
#
#
# Elastic Compliance Matrix: (Units=1/GPa)
#
#
# Indices 1 2 3 4 5 6 
#
# 1 0.011500 -0.013529 -0.004190 0.000000 0.000000 0.000000
# 2 -0.013529 0.083170 -0.003390 0.000000 0.000000 0.000000
# 3 -0.004190 -0.003390 0.013223 0.000000 0.000000 0.000000
# 4 0.000000 0.000000 0.000000 0.060599 0.000000 0.000000
# 5 0.000000 0.000000 0.000000 0.000000 0.088720 0.000000
# 6 0.000000 0.000000 0.000000 0.000000 0.000000 0.034968
#
#
# Mechanical properties :
#
#
# Convention : Reuss Voigt Hill
#
# Bulk Modulus (GPa) = 15.22652 45.28324 30.25488
# Shear Modulus (GPa) = 14.03354 21.88481 17.95917
#
# Velocity S-wave (km/s) = 2.79753 3.49352 3.16472
# Velocity P-wave (km/s) = 4.35045 6.44410 5.49785
#
# Compressibility (1/GPa) = 0.06567490
#
# Stress axis : x y z
#
# Youngs Moduli (GPa) = 86.95897 12.02350 75.62845
#
# Poissons Ratio (x) = 0.16267 0.31685
# Poissons Ratio (y) = 1.17647 0.25641
# Poissons Ratio (z) = 0.36432 0.04076
#
# Static dielectric constant tensor:
#      x y z
#    x 3.534800 0.000000 0.000000 
#    y 0.000000 3.076850 0.000000 
#    z 0.000000 0.000000 3.689230 
# 
# 
# High freq. dielectric constant tensor:
#      x y z
#    x 1.687310 0.000000 0.000000 
#    y 0.000000 1.622600 0.000000 
#    z 0.000000 0.000000 1.716190 
# 
# From -- ./inp_files/7999.got.cif
#   From: 2010.03.12/outbox.cif.g09.slc.cpg/sg46_4_cif.got.tgz:7999.got - 2010.04.14 02:56:35.
