data_PCOD8191467
_publ_section_title
;
Structure prediction by ZEFSAII (Michael W. Deem and Ramdas Pophale) SiO2 
 PCOD8191467
Probable space group: I M A 2
;
_chemical_formula_sum "Si O2"
_cell_formula_units_Z 36
_cell_length_a 14.484472
_cell_length_b 15.784656
_cell_length_c 8.843650
_cell_angle_alpha 90.000000
_cell_angle_beta 90.000000
_cell_angle_gamma 90.000000
_cell_volume 2021.944994
_symmetry_space_group_name_H-M "I M A 2"
_symmetry_group_IT_number 46
_symmetry_cell_setting 'orthorhombic'
loop_
_space_group_symop_operation_xyz
x,y,z
-x,-y,z
1/2-x,y,z
1/2+x,-y,z
1/2+x,1/2+y,1/2+z
1/2-x,1/2-y,1/2+z
-x,1/2+y,1/2+z
x,1/2-y,1/2+z
loop_
_atom_site_type_symbol
_atom_site_label
_atom_site_fract_x
_atom_site_fract_y
_atom_site_fract_z
Si Si1 0.531436 0.265094 0.385720
Si Si2 0.852460 0.336790 0.645236
Si Si3 0.250000 0.320615 0.699746
Si Si4 0.405200 0.190619 0.629484
Si Si5 0.750000 0.596210 0.002204
Si Si6 0.250000 0.991846 0.225655
O O1 0.590943 0.327746 0.490265
O O2 0.597345 0.208057 0.283567
O O3 0.472148 0.200845 0.486824
O O4 0.465075 0.322459 0.280982
O O5 0.750000 0.295924 0.626038
O O6 0.841248 0.437303 0.682622
O O7 0.342132 0.274484 0.644016
O O8 0.250000 0.418090 0.637511
O O9 0.250000 0.324330 0.883184
O O10 0.341535 0.107157 0.605563
O O11 0.750000 0.508304 0.908835
#
# Coordination Sequence:
#
# PCOD8191467 Si02
#       6
#     8   8   4   8   4   4
#     4  10  18  31  52  85 105 134 184 225 257 309
#     4   9  19  33  56  78 104 146 181 221 266 316
#     4   9  17  33  53  81 105 140 174 213 265 330
#     4  10  18  31  55  82 106 137 177 224 260 314
#     4   9  17  33  53  81 105 144 174 215 265 328
#     4   8  18  34  54  78  98 150 178 212 268 330
#
# _framework density 17.804639999999999
#
# number of rings (size 3 to 8) (size 9 to 14) (size 15 to 20)
#    1.333    1.333    2.222    0.667    0.000    0.000 
#    0.000   10.000    0.000   16.000    0.000    0.000 
#    0.000    0.000    0.000    0.000    0.000    0.000 
#
# Total GULP energy -223022.557386 kJ/mol
# GULP energy per Si atom -12390.142077 kJ/mol
# Density = 1.776412 g / cm^3
# Si number density = 17.804640 Si / 1000 Ang^3
#
#
#
# Elastic Constant Matrix: (Units=GPa)
#
#
# Indices 1 2 3 4 5 6 
#
# 1 126.8380 39.4957 66.3621 0.0000 0.0000 0.0000
# 2 39.4957 84.7754 38.3428 0.0000 0.0000 0.0000
# 3 66.3621 38.3428 120.5716 0.0000 0.0000 0.0000
# 4 0.0000 0.0000 0.0000 29.3707 0.0000 0.0000
# 5 0.0000 0.0000 0.0000 0.0000 36.1883 0.0000
# 6 0.0000 0.0000 0.0000 0.0000 0.0000 7.7550
#
#
#
# Elastic Compliance Matrix: (Units=1/GPa)
#
#
# Indices 1 2 3 4 5 6 
#
# 1 0.011675 -0.002958 -0.005485 0.000000 0.000000 0.000000
# 2 -0.002958 0.014527 -0.002991 0.000000 0.000000 0.000000
# 3 -0.005485 -0.002991 0.012264 0.000000 0.000000 0.000000
# 4 0.000000 0.000000 0.000000 0.034048 0.000000 0.000000
# 5 0.000000 0.000000 0.000000 0.000000 0.027633 0.000000
# 6 0.000000 0.000000 0.000000 0.000000 0.000000 0.128949
#
#
# Mechanical properties :
#
#
# Convention : Reuss Voigt Hill
#
# Bulk Modulus (GPa) = 64.11742 68.95402 66.53572
# Shear Modulus (GPa) = 19.44275 27.19509 23.31892
#
# Velocity S-wave (km/s) = 3.30813 3.91246 3.62292
# Velocity P-wave (km/s) = 7.11909 7.69558 7.41294
#
# Compressibility (1/GPa) = 0.01559638
#
# Stress axis : x y z
#
# Youngs Moduli (GPa) = 85.65212 68.83652 81.53860
#
# Poissons Ratio (x) = 0.20365 0.44725
# Poissons Ratio (y) = 0.25340 0.24392
# Poissons Ratio (z) = 0.46981 0.20592
#
# Static dielectric constant tensor:
#      x y z
#    x 3.450370 0.000000 0.000000 
#    y 0.000000 2.803780 0.000000 
#    z 0.000000 0.000000 3.374080 
# 
# 
# High freq. dielectric constant tensor:
#      x y z
#    x 1.702430 0.000000 0.000000 
#    y 0.000000 1.638690 0.000000 
#    z 0.000000 0.000000 1.694010 
# 
# From -- ./inp_files/5535.got.cif
#   From: 2010.03.12/outbox.cif.g09.slc.cpg/sg46_3_cif.got.tgz:5535.got - 2010.04.14 02:56:35.
