data_PCOD8191500
_publ_section_title
;
Structure prediction by ZEFSAII (Michael W. Deem and Ramdas Pophale) SiO2 
 PCOD8191500
Probable space group: I M A 2
;
_chemical_formula_sum "Si O2"
_cell_formula_units_Z 64
_cell_length_a 8.518347
_cell_length_b 23.126449
_cell_length_c 19.084205
_cell_angle_alpha 90.000000
_cell_angle_beta 90.000000
_cell_angle_gamma 90.000000
_cell_volume 3759.571542
_symmetry_space_group_name_H-M "I M A 2"
_symmetry_group_IT_number 46
_symmetry_cell_setting 'orthorhombic'
loop_
_space_group_symop_operation_xyz
x,y,z
-x,-y,z
1/2-x,y,z
1/2+x,-y,z
1/2+x,1/2+y,1/2+z
1/2-x,1/2-y,1/2+z
-x,1/2+y,1/2+z
x,1/2-y,1/2+z
loop_
_atom_site_type_symbol
_atom_site_label
_atom_site_fract_x
_atom_site_fract_y
_atom_site_fract_z
Si Si1 0.932645 0.883087 0.668720
Si Si2 0.065886 0.168469 0.883353
Si Si3 0.934111 0.436548 0.029108
Si Si4 0.065884 0.251879 0.670001
Si Si5 0.932225 0.279225 0.811904
Si Si6 0.565322 0.655753 0.935108
Si Si7 0.933824 0.063002 0.805420
Si Si8 0.434201 0.232739 0.017072
O O1 0.750000 0.894723 0.682690
O O2 0.973373 0.815855 0.673934
O O3 0.977373 0.905784 0.592700
O O4 0.030104 0.917871 0.726415
O O5 0.250000 0.177231 0.869809
O O6 0.978287 0.214576 0.834784
O O7 0.013842 0.104701 0.862430
O O8 0.024220 0.179248 0.965541
O O9 0.750000 0.438409 0.044096
O O10 0.000000 0.500000 0.018496
O O11 0.972471 0.401504 0.958153
O O12 0.250000 0.263149 0.679323
O O13 0.000117 0.276428 0.595550
O O14 0.974038 0.286282 0.730161
O O15 0.750000 0.289492 0.824294
O O16 0.026648 0.328087 0.854838
O O17 0.750000 0.645367 0.943619
O O18 0.500290 0.708308 0.983069
O O19 0.750000 0.063490 0.818002
O O20 0.000000 0.000000 0.820196
O O21 0.250000 0.241506 0.023914
#
# Coordination Sequence:
#
# PCOD8191500 Si02
#       8
#     8   8   8   8   8   8   8   8
#     4  11  21  35  53  73 104 142 181 216 252 303
#     4  10  19  34  53  74 100 134 172 215 261 309
#     4  12  24  37  53  75 105 140 180 220 260 308
#     4  10  18  32  53  76 103 140 175 208 255 312
#     4  11  21  32  49  77 107 136 171 214 262 311
#     4  10  19  36  55  74 100 136 177 218 262 308
#     4  12  24  37  52  72 101 137 179 220 260 307
#     4   8  16  31  53  75  98 129 168 208 253 307
#
# _framework density 17.023218
#
# number of rings (size 3 to 8) (size 9 to 14) (size 15 to 20)
#    0.000    1.500    2.500    5.625    0.000    0.500 
#    0.000    1.250    0.000    0.000    0.000    0.875 
#    0.000    2.000    0.000    0.000    0.000    0.000 
#
# Total GULP energy -396848.138329 kJ/mol
# GULP energy per Si atom -12401.504323 kJ/mol
# Density = 1.698447 g / cm^3
# Si number density = 17.023218 Si / 1000 Ang^3
#
#
#
# Elastic Constant Matrix: (Units=GPa)
#
#
# Indices 1 2 3 4 5 6 
#
# 1 45.2970 20.0637 25.6416 0.0000 0.0000 0.0000
# 2 20.0637 56.7873 35.8105 0.0000 0.0000 0.0000
# 3 25.6416 35.8105 114.6347 0.0000 0.0000 0.0000
# 4 0.0000 0.0000 0.0000 25.6081 0.0000 0.0000
# 5 0.0000 0.0000 0.0000 0.0000 23.5159 0.0000
# 6 0.0000 0.0000 0.0000 0.0000 0.0000 22.8643
#
#
#
# Elastic Compliance Matrix: (Units=1/GPa)
#
#
# Indices 1 2 3 4 5 6 
#
# 1 0.027491 -0.007267 -0.003879 0.000000 0.000000 0.000000
# 2 -0.007267 0.023850 -0.005825 0.000000 0.000000 0.000000
# 3 -0.003879 -0.005825 0.011411 0.000000 0.000000 0.000000
# 4 0.000000 0.000000 0.000000 0.039050 0.000000 0.000000
# 5 0.000000 0.000000 0.000000 0.000000 0.042524 0.000000
# 6 0.000000 0.000000 0.000000 0.000000 0.000000 0.043736
#
#
# Mechanical properties :
#
#
# Convention : Reuss Voigt Hill
#
# Bulk Modulus (GPa) = 34.71000 42.19452 38.45226
# Shear Modulus (GPa) = 21.58813 23.41120 22.49967
#
# Velocity S-wave (km/s) = 3.56498 3.71246 3.63947
# Velocity P-wave (km/s) = 6.11388 6.57395 6.34808
#
# Compressibility (1/GPa) = 0.02881014
#
# Stress axis : x y z
#
# Youngs Moduli (GPa) = 36.37529 41.92806 87.63653
#
# Poissons Ratio (x) = 0.30468 0.33996
# Poissons Ratio (y) = 0.26433 0.51049
# Poissons Ratio (z) = 0.14111 0.24424
#
# Static dielectric constant tensor:
#      x y z
#    x 3.165070 0.000000 0.000000 
#    y 0.000000 3.013710 0.000000 
#    z 0.000000 0.000000 3.433140 
# 
# 
# High freq. dielectric constant tensor:
#      x y z
#    x 1.660380 0.000000 0.000000 
#    y 0.000000 1.627290 0.000000 
#    z 0.000000 0.000000 1.657410 
# 
# From -- ./inp_files/18659.got.cif
#   From: 2010.03.12/outbox.cif.g09.slc.cpg/sg46_10_cif.got.tgz:18659.got - 2010.04.14 02:56:35.
