data_PCOD8191506
_publ_section_title
;
Structure prediction by ZEFSAII (Michael W. Deem and Ramdas Pophale) SiO2 
 PCOD8191506
Probable space group: I M A 2
;
_chemical_formula_sum "Si O2"
_cell_formula_units_Z 64
_cell_length_a 8.831081
_cell_length_b 13.708146
_cell_length_c 28.820912
_cell_angle_alpha 90.000000
_cell_angle_beta 90.000000
_cell_angle_gamma 90.000000
_cell_volume 3488.994693
_symmetry_space_group_name_H-M "I M A 2"
_symmetry_group_IT_number 46
_symmetry_cell_setting 'orthorhombic'
loop_
_space_group_symop_operation_xyz
x,y,z
-x,-y,z
1/2-x,y,z
1/2+x,-y,z
1/2+x,1/2+y,1/2+z
1/2-x,1/2-y,1/2+z
-x,1/2+y,1/2+z
x,1/2-y,1/2+z
loop_
_atom_site_type_symbol
_atom_site_label
_atom_site_fract_x
_atom_site_fract_y
_atom_site_fract_z
Si Si1 0.570810 0.602687 0.238190
Si Si2 0.071110 0.779587 0.186608
Si Si3 0.078096 0.250004 0.594815
Si Si4 0.926198 0.101540 0.915766
Si Si5 0.929804 0.104590 0.533471
Si Si6 0.574203 0.203707 0.821797
Si Si7 0.077908 0.279502 0.494044
Si Si8 0.925840 0.398789 0.774343
O O1 0.500000 0.500000 0.224432
O O2 0.750000 0.597393 0.234971
O O3 0.507717 0.679444 0.201270
O O4 0.523261 0.630866 0.290416
O O5 0.250000 0.764678 0.186184
O O6 0.024634 0.864666 0.222680
O O7 0.009807 0.807050 0.135590
O O8 0.250000 0.227601 0.610258
O O9 0.075572 0.316358 0.547942
O O10 0.993721 0.147350 0.582460
O O11 0.750000 0.084550 0.924275
O O12 0.956920 0.180536 0.875460
O O13 0.000000 0.000000 0.900692
O O14 0.999682 0.138921 0.963064
O O15 0.750000 0.098288 0.534727
O O16 0.985436 0.176882 0.491832
O O17 0.000000 0.000000 0.523500
O O18 0.750000 0.187999 0.808380
O O19 0.526438 0.315479 0.811389
O O20 0.250000 0.262124 0.477226
O O21 0.750000 0.417812 0.776093
O O22 0.000000 0.500000 0.788607
#
# Coordination Sequence:
#
# PCOD8191506 Si02
#       8
#     8   8   8   8   8   8   8   8
#     4  11  21  33  51  77 110 146 183 225 275 333
#     4  10  20  35  54  78 110 146 184 232 277 326
#     4   9  19  34  53  78 109 143 183 230 274 324
#     4  11  22  37  60  85 112 146 184 228 281 338
#     4  10  18  32  54  79 108 145 185 226 276 328
#     4   9  20  38  57  81 112 144 182 229 276 329
#     4   9  20  37  55  79 112 145 186 235 279 332
#     4   9  19  36  57  81 110 143 182 224 272 325
#
# _framework density 18.343392999999999
#
# number of rings (size 3 to 8) (size 9 to 14) (size 15 to 20)
#    0.750    1.500    0.000    4.500    0.000    5.000 
#    0.000    3.750    0.000    3.000    0.000    0.000 
#    0.000    0.000    0.000    0.000    0.000    0.000 
#
# Total GULP energy -396670.088905 kJ/mol
# GULP energy per Si atom -12395.940278 kJ/mol
# Density = 1.830164 g / cm^3
# Si number density = 18.343393 Si / 1000 Ang^3
#
#
#
# Elastic Constant Matrix: (Units=GPa)
#
#
# Indices 1 2 3 4 5 6 
#
# 1 128.5151 45.1391 43.9457 0.0000 0.0000 0.0000
# 2 45.1391 101.4632 41.0412 0.0000 0.0000 0.0000
# 3 43.9457 41.0412 90.9594 0.0000 0.0000 0.0000
# 4 0.0000 0.0000 0.0000 25.7339 0.0000 0.0000
# 5 0.0000 0.0000 0.0000 0.0000 25.0102 0.0000
# 6 0.0000 0.0000 0.0000 0.0000 0.0000 32.9046
#
#
#
# Elastic Compliance Matrix: (Units=1/GPa)
#
#
# Indices 1 2 3 4 5 6 
#
# 1 0.010044 -0.003065 -0.003470 0.000000 0.000000 0.000000
# 2 -0.003065 0.012991 -0.004381 0.000000 0.000000 0.000000
# 3 -0.003470 -0.004381 0.014647 0.000000 0.000000 0.000000
# 4 0.000000 0.000000 0.000000 0.038859 0.000000 0.000000
# 5 0.000000 0.000000 0.000000 0.000000 0.039984 0.000000
# 6 0.000000 0.000000 0.000000 0.000000 0.000000 0.030391
#
#
# Mechanical properties :
#
#
# Convention : Reuss Voigt Hill
#
# Bulk Modulus (GPa) = 63.08686 64.57661 63.83173
# Shear Modulus (GPa) = 28.73040 29.45051 29.09046
#
# Velocity S-wave (km/s) = 3.96189 4.01123 3.98663
# Velocity P-wave (km/s) = 7.44282 7.53220 7.48764
#
# Compressibility (1/GPa) = 0.01585116
#
# Stress axis : x y z
#
# Youngs Moduli (GPa) = 99.55984 76.97389 68.27332
#
# Poissons Ratio (x) = 0.23592 0.23689
# Poissons Ratio (y) = 0.30515 0.29910
# Poissons Ratio (z) = 0.34545 0.33722
#
# Static dielectric constant tensor:
#      x y z
#    x 3.449510 0.000000 0.000000 
#    y 0.000000 2.826860 0.000000 
#    z 0.000000 0.000000 3.292610 
# 
# 
# High freq. dielectric constant tensor:
#      x y z
#    x 1.725580 0.000000 0.000000 
#    y 0.000000 1.692630 0.000000 
#    z 0.000000 0.000000 1.699780 
# 
# From -- ./inp_files/25226.got.cif
#   From: 2010.03.12/outbox.cif.g09.slc.cpg/sg46_13_cif.got.tgz:25226.got - 2010.04.14 02:56:35.
