data_PCOD8191843
_publ_section_title
;
Structure prediction by ZEFSAII (Michael W. Deem and Ramdas Pophale) SiO2 
 PCOD8191843
Probable space group: I M A 2
;
_chemical_formula_sum "Si O2"
_cell_formula_units_Z 64
_cell_length_a 9.293654
_cell_length_b 27.564951
_cell_length_c 14.387084
_cell_angle_alpha 90.000000
_cell_angle_beta 90.000000
_cell_angle_gamma 90.000000
_cell_volume 3685.670477
_symmetry_space_group_name_H-M "I M A 2"
_symmetry_group_IT_number 46
_symmetry_cell_setting 'orthorhombic'
loop_
_space_group_symop_operation_xyz
x,y,z
-x,-y,z
1/2-x,y,z
1/2+x,-y,z
1/2+x,1/2+y,1/2+z
1/2-x,1/2-y,1/2+z
-x,1/2+y,1/2+z
x,1/2-y,1/2+z
loop_
_atom_site_type_symbol
_atom_site_label
_atom_site_fract_x
_atom_site_fract_y
_atom_site_fract_z
Si Si1 0.583589 0.131586 0.606760
Si Si2 0.915358 0.858883 0.179217
Si Si3 0.414280 0.725566 0.994760
Si Si4 0.082412 0.048202 0.287805
Si Si5 0.416243 0.176971 0.981959
Si Si6 0.086813 0.779247 0.284667
Si Si7 0.916016 0.169635 0.803509
Si Si8 0.081421 0.048794 0.502344
O O1 0.750000 0.119832 0.582408
O O2 0.539315 0.183668 0.565575
O O3 0.559485 0.133132 0.717887
O O4 0.479158 0.091473 0.565713
O O5 0.750000 0.854422 0.208291
O O6 0.978257 0.908098 0.224198
O O7 0.990918 0.811672 0.218920
O O8 0.935160 0.860155 0.067896
O O9 0.250000 0.742031 0.012573
O O10 0.514718 0.771760 0.010278
O O11 0.431425 0.704150 0.891234
O O12 0.250000 0.038780 0.270530
O O13 0.050813 0.061383 0.394940
O O14 0.000000 0.000000 0.257037
O O15 0.250000 0.186008 0.958815
O O16 0.491393 0.152649 0.892249
O O17 0.250000 0.785068 0.250494
O O18 0.036119 0.723659 0.273800
O O19 0.750000 0.170948 0.834799
O O20 0.250000 0.042202 0.521999
O O21 0.000000 0.000000 0.531548
#
# Coordination Sequence:
#
# PCOD8191843 Si02
#       8
#     8   8   8   8   8   8   8   8
#     4  10  19  32  52  74  97 128 165 203 243 289
#     4  10  20  32  47  70  99 127 157 198 243 283
#     4   9  18  32  48  69 100 132 161 197 240 287
#     4   9  19  35  52  72  99 126 153 190 237 288
#     4  10  20  32  47  68  96 131 167 202 240 282
#     4   9  17  29  47  71  97 128 163 194 230 281
#     4   9  19  34  49  68  97 131 166 204 241 278
#     4  10  20  34  53  76 102 129 156 192 240 292
#
# _framework density 17.364547999999999
#
# number of rings (size 3 to 8) (size 9 to 14) (size 15 to 20)
#    0.000    2.500    0.000    3.000    0.000    6.000 
#    0.000    0.000    0.000    0.750    0.000    3.500 
#    0.000    0.000    0.000    0.000    0.000    0.000 
#
# Total GULP energy -396836.473443 kJ/mol
# GULP energy per Si atom -12401.139795 kJ/mol
# Density = 1.732503 g / cm^3
# Si number density = 17.364548 Si / 1000 Ang^3
#
#
#
# Elastic Constant Matrix: (Units=GPa)
#
#
# Indices 1 2 3 4 5 6 
#
# 1 78.4074 46.1928 48.4055 -0.0003 0.0000 0.0001
# 2 46.1928 71.1638 52.4285 -0.0004 0.0000 0.0001
# 3 48.4055 52.4285 94.5511 -0.0023 0.0002 0.0003
# 4 -0.0003 -0.0004 -0.0023 25.9730 0.0001 0.0003
# 5 0.0000 0.0000 0.0002 0.0001 25.6616 -0.0003
# 6 0.0001 0.0001 0.0003 0.0003 -0.0003 28.3665
#
#
#
# Elastic Compliance Matrix: (Units=1/GPa)
#
#
# Indices 1 2 3 4 5 6 
#
# 1 0.022357 -0.010279 -0.005746 0.000000 0.000000 0.000000
# 2 -0.010279 0.028483 -0.010532 -0.000001 0.000000 0.000000
# 3 -0.005746 -0.010532 0.019358 0.000001 0.000000 0.000000
# 4 0.000000 -0.000001 0.000001 0.038502 0.000000 0.000000
# 5 0.000000 0.000000 0.000000 0.000000 0.038969 0.000000
# 6 0.000000 0.000000 0.000000 0.000000 0.000000 0.035253
#
#
# Mechanical properties :
#
#
# Convention : Reuss Voigt Hill
#
# Bulk Modulus (GPa) = 58.53130 59.79733 59.16431
# Shear Modulus (GPa) = 20.68436 22.47325 21.57880
#
# Velocity S-wave (km/s) = 3.45510 3.60141 3.52901
# Velocity P-wave (km/s) = 7.04964 7.19755 7.12398
#
# Compressibility (1/GPa) = 0.01708488
#
# Stress axis : x y z
#
# Youngs Moduli (GPa) = 44.72899 35.10864 51.65869
#
# Poissons Ratio (x) = 0.36087 0.29684
# Poissons Ratio (y) = 0.45975 0.54405
# Poissons Ratio (z) = 0.25702 0.36975
#
# Static dielectric constant tensor:
#      x y z
#    x 3.213990 0.000000 0.000000 
#    y 0.000000 3.072610 0.000000 
#    z 0.000000 0.000000 3.330130 
# 
# 
# High freq. dielectric constant tensor:
#      x y z
#    x 1.670900 0.000000 0.000000 
#    y 0.000000 1.645040 0.000000 
#    z 0.000000 0.000000 1.673160 
# 
# From -- ./inp_files/14450.got.cif
#   From: 2010.03.12/outbox.cif.g09.slc.cpg/sg46_8_cif.got.tgz:14450.got - 2010.04.14 02:56:35.
