data_PCOD8191564
_publ_section_title
;
Structure prediction by ZEFSAII (Michael W. Deem and Ramdas Pophale) SiO2 
 PCOD8191564
Probable space group: I M A 2
;
_chemical_formula_sum "Si O2"
_cell_formula_units_Z 64
_cell_length_a 8.687845
_cell_length_b 20.843477
_cell_length_c 19.786723
_cell_angle_alpha 90.000000
_cell_angle_beta 90.000000
_cell_angle_gamma 90.000000
_cell_volume 3583.076705
_symmetry_space_group_name_H-M "I M A 2"
_symmetry_group_IT_number 46
_symmetry_cell_setting 'orthorhombic'
loop_
_space_group_symop_operation_xyz
x,y,z
-x,-y,z
1/2-x,y,z
1/2+x,-y,z
1/2+x,1/2+y,1/2+z
1/2-x,1/2-y,1/2+z
-x,1/2+y,1/2+z
x,1/2-y,1/2+z
loop_
_atom_site_type_symbol
_atom_site_label
_atom_site_fract_x
_atom_site_fract_y
_atom_site_fract_z
Si Si1 0.431388 0.268998 0.742390
Si Si2 0.566697 0.879057 0.591019
Si Si3 0.068650 0.263733 0.594145
Si Si4 0.432412 0.433112 0.952176
Si Si5 0.069249 0.813310 0.375677
Si Si6 0.431865 0.378867 0.237979
Si Si7 0.067784 0.433817 0.375173
Si Si8 0.068024 0.191963 0.951912
O O1 0.250000 0.278911 0.754767
O O2 0.483861 0.292055 0.666909
O O3 0.525398 0.310056 0.796675
O O4 0.479020 0.194711 0.750136
O O5 0.750000 0.877503 0.589969
O O6 0.500159 0.807214 0.581029
O O7 0.506318 0.922438 0.529276
O O8 0.507709 0.904199 0.664718
O O9 0.250000 0.255598 0.598263
O O10 0.020685 0.308541 0.531255
O O11 0.500000 0.500000 0.925255
O O12 0.250000 0.435588 0.949267
O O13 0.488188 0.375801 0.905255
O O14 0.250000 0.820702 0.384343
O O15 0.013516 0.749628 0.413366
O O16 0.250000 0.383046 0.239330
O O17 0.498319 0.421595 0.299277
O O18 0.250000 0.438062 0.375837
O O19 0.011390 0.375860 0.422756
O O20 0.000000 0.500000 0.403526
O O21 0.250000 0.201622 0.941836
#
# Coordination Sequence:
#
# PCOD8191564 Si02
#       8
#     8   8   8   8   8   8   8   8
#     4   9  16  31  55  79 102 131 173 220 266 316
#     4   8  14  26  49  76 102 132 170 212 252 304
#     4   8  14  27  54  83 100 125 173 222 263 313
#     4  11  22  37  55  76 107 144 182 223 267 317
#     4  12  23  34  52  80 110 140 176 219 267 319
#     4   8  14  27  48  75 102 135 175 211 251 305
#     4  10  20  32  49  72 105 141 174 210 252 305
#     4  10  18  34  57  79 101 136 180 222 265 312
#
# _framework density 17.861744999999999
#
# number of rings (size 3 to 8) (size 9 to 14) (size 15 to 20)
#    0.000    2.500    2.500    3.000    0.000    1.000 
#    0.000    0.625    0.000    1.500    0.000    1.750 
#    0.000    0.000    0.000    0.000    0.000    0.000 
#
# Total GULP energy -396573.947631 kJ/mol
# GULP energy per Si atom -12392.935863 kJ/mol
# Density = 1.782109 g / cm^3
# Si number density = 17.861745 Si / 1000 Ang^3
#
#
#
# Elastic Constant Matrix: (Units=GPa)
#
#
# Indices 1 2 3 4 5 6 
#
# 1 42.8847 28.6504 27.7336 0.0000 0.0000 0.0000
# 2 28.6504 117.4196 65.2186 0.0000 0.0000 0.0000
# 3 27.7336 65.2186 131.4686 0.0000 0.0000 0.0000
# 4 0.0000 0.0000 0.0000 13.8091 0.0000 0.0000
# 5 0.0000 0.0000 0.0000 0.0000 5.9272 0.0000
# 6 0.0000 0.0000 0.0000 0.0000 0.0000 21.6174
#
#
#
# Elastic Compliance Matrix: (Units=1/GPa)
#
#
# Indices 1 2 3 4 5 6 
#
# 1 0.029047 -0.005085 -0.003605 0.000000 0.000000 0.000000
# 2 -0.005085 0.012646 -0.005201 0.000000 0.000000 0.000000
# 3 -0.003605 -0.005201 0.010947 0.000000 0.000000 0.000000
# 4 0.000000 0.000000 0.000000 0.072416 0.000000 0.000000
# 5 0.000000 0.000000 0.000000 0.000000 0.168714 0.000000
# 6 0.000000 0.000000 0.000000 0.000000 0.000000 0.046259
#
#
# Mechanical properties :
#
#
# Convention : Reuss Voigt Hill
#
# Bulk Modulus (GPa) = 40.22818 59.44201 49.83509
# Shear Modulus (GPa) = 13.29449 19.61544 16.45497
#
# Velocity S-wave (km/s) = 2.73115 3.31748 3.03849
# Velocity P-wave (km/s) = 5.70232 6.93004 6.34594
#
# Compressibility (1/GPa) = 0.02485820
#
# Stress axis : x y z
#
# Youngs Moduli (GPa) = 34.42704 79.07755 91.35167
#
# Poissons Ratio (x) = 0.40213 0.32931
# Poissons Ratio (y) = 0.17507 0.47508
# Poissons Ratio (z) = 0.12410 0.41125
#
# Static dielectric constant tensor:
#      x y z
#    x 2.896030 0.000000 0.000000 
#    y 0.000000 3.174760 0.000000 
#    z 0.000000 0.000000 3.897400 
# 
# 
# High freq. dielectric constant tensor:
#      x y z
#    x 1.653410 0.000000 0.000000 
#    y 0.000000 1.665620 0.000000 
#    z 0.000000 0.000000 1.704380 
# 
# From -- ./inp_files/21433.got.cif
#   From: 2010.03.12/outbox.cif.g09.slc.cpg/sg46_11_cif.got.tgz:21433.got - 2010.04.14 02:56:35.
