data_PCOD8191814
_publ_section_title
;
Structure prediction by ZEFSAII (Michael W. Deem and Ramdas Pophale) SiO2 
 PCOD8191814
Probable space group: I M A 2
;
_chemical_formula_sum "Si O2"
_cell_formula_units_Z 48
_cell_length_a 8.823884
_cell_length_b 9.596938
_cell_length_c 30.692304
_cell_angle_alpha 90.000000
_cell_angle_beta 90.000000
_cell_angle_gamma 90.000000
_cell_volume 2599.093903
_symmetry_space_group_name_H-M "I M A 2"
_symmetry_group_IT_number 46
_symmetry_cell_setting 'orthorhombic'
loop_
_space_group_symop_operation_xyz
x,y,z
-x,-y,z
1/2-x,y,z
1/2+x,-y,z
1/2+x,1/2+y,1/2+z
1/2-x,1/2-y,1/2+z
-x,1/2+y,1/2+z
x,1/2-y,1/2+z
loop_
_atom_site_type_symbol
_atom_site_label
_atom_site_fract_x
_atom_site_fract_y
_atom_site_fract_z
Si Si1 0.930444 0.347844 0.557430
Si Si2 0.927180 0.857803 0.725478
Si Si3 0.070647 0.348290 0.799446
Si Si4 0.426590 0.850105 0.480202
Si Si5 0.572411 0.150833 0.384350
Si Si6 0.070385 0.146874 0.625965
O O1 0.750000 0.357840 0.560706
O O2 0.985609 0.260861 0.515309
O O3 0.000000 0.500000 0.553645
O O4 0.995950 0.273104 0.599950
O O5 0.750000 0.877605 0.729265
O O6 0.984565 0.736047 0.757172
O O7 0.974494 0.823583 0.676020
O O8 0.000000 0.000000 0.741961
O O9 0.250000 0.358636 0.802263
O O10 0.000000 0.500000 0.794828
O O11 0.008035 0.271200 0.843562
O O12 0.250000 0.876469 0.485870
O O13 0.461418 0.784302 0.432147
O O14 0.500000 0.000000 0.488228
O O15 0.750000 0.141595 0.374909
O O16 0.500000 0.000000 0.385663
O O17 0.250000 0.142637 0.618464
O O18 0.000000 0.000000 0.610269
#
# Coordination Sequence:
#
# PCOD8191814 Si02
#       6
#     8   8   8   8   8   8
#     4  11  23  38  54  77 107 139 172 213 262 312
#     4   9  20  36  54  76 104 135 171 210 253 302
#     4  10  19  32  50  76 105 135 170 210 253 301
#     4   9  19  34  54  77 102 132 171 212 254 303
#     4   9  16  29  49  74 101 132 169 211 252 297
#     4  10  20  37  58  80 104 135 174 216 257 307
#
# _framework density 18.467976
#
# number of rings (size 3 to 8) (size 9 to 14) (size 15 to 20)
#    0.000    2.333    0.000    3.500    0.000    6.000 
#    0.000    2.500    0.000    4.000    0.000    0.000 
#    0.000    0.000    0.000    0.000    0.000    0.000 
#
# Total GULP energy -297501.907778 kJ/mol
# GULP energy per Si atom -12395.912824 kJ/mol
# Density = 1.842594 g / cm^3
# Si number density = 18.467976 Si / 1000 Ang^3
#
#
#
# Elastic Constant Matrix: (Units=GPa)
#
#
# Indices 1 2 3 4 5 6 
#
# 1 72.5316 43.8344 50.9583 0.0000 0.0000 0.0000
# 2 43.8344 115.3438 80.9630 0.0000 0.0000 0.0000
# 3 50.9583 80.9630 143.3826 0.0000 0.0000 0.0000
# 4 0.0000 0.0000 0.0000 56.2067 0.0000 0.0000
# 5 0.0000 0.0000 0.0000 0.0000 34.8802 0.0000
# 6 0.0000 0.0000 0.0000 0.0000 0.0000 28.9179
#
#
#
# Elastic Compliance Matrix: (Units=1/GPa)
#
#
# Indices 1 2 3 4 5 6 
#
# 1 0.019545 -0.004228 -0.004559 0.000000 0.000000 0.000000
# 2 -0.004228 0.015277 -0.007124 0.000000 0.000000 0.000000
# 3 -0.004559 -0.007124 0.012617 0.000000 0.000000 0.000000
# 4 0.000000 0.000000 0.000000 0.017791 0.000000 0.000000
# 5 0.000000 0.000000 0.000000 0.000000 0.028670 0.000000
# 6 0.000000 0.000000 0.000000 0.000000 0.000000 0.034581
#
#
# Mechanical properties :
#
#
# Convention : Reuss Voigt Hill
#
# Bulk Modulus (GPa) = 64.02838 75.86325 69.94581
# Shear Modulus (GPa) = 30.21008 34.36780 32.28894
#
# Velocity S-wave (km/s) = 4.04890 4.31854 4.18589
# Velocity P-wave (km/s) = 7.52352 8.12612 7.83062
#
# Compressibility (1/GPa) = 0.01561807
#
# Stress axis : x y z
#
# Youngs Moduli (GPa) = 51.16353 65.45927 79.25689
#
# Poissons Ratio (x) = 0.27673 0.36135
# Poissons Ratio (y) = 0.21630 0.56460
# Poissons Ratio (z) = 0.23327 0.46631
#
# Static dielectric constant tensor:
#      x y z
#    x 3.454800 0.000000 0.000000 
#    y 0.000000 2.962330 0.000000 
#    z 0.000000 0.000000 4.343730 
# 
# 
# High freq. dielectric constant tensor:
#      x y z
#    x 1.725670 0.000000 0.000000 
#    y 0.000000 1.686330 0.000000 
#    z 0.000000 0.000000 1.738590 
# 
# From -- ./inp_files/25012.got.cif
#   From: 2010.03.12/outbox.cif.g09.slc.cpg/sg46_13_cif.got.tgz:25012.got - 2010.04.14 02:56:35.
