data_PCOD8191111
_publ_section_title
;
Structure prediction by ZEFSAII (Michael W. Deem and Ramdas Pophale) SiO2 
 PCOD8191111
Probable space group: I B A 2
;
_chemical_formula_sum "Si O2"
_cell_formula_units_Z 60
_cell_length_a 12.083627
_cell_length_b 14.699030
_cell_length_c 14.722299
_cell_angle_alpha 90.000000
_cell_angle_beta 90.000000
_cell_angle_gamma 90.000000
_cell_volume 2614.939353
_symmetry_space_group_name_H-M "I B A 2"
_symmetry_group_IT_number 45
_symmetry_cell_setting 'orthorhombic'
loop_
_space_group_symop_operation_xyz
x,y,z
-x,-y,z
-x,y,1/2+z
x,-y,1/2+z
1/2+x,1/2+y,1/2+z
1/2-x,1/2-y,1/2+z
1/2-x,1/2+y,z
1/2+x,1/2-y,z
loop_
_atom_site_type_symbol
_atom_site_label
_atom_site_fract_x
_atom_site_fract_y
_atom_site_fract_z
Si Si1 0.156558 0.901744 0.209530
Si Si2 0.000000 0.500000 0.947023
Si Si3 0.018635 0.203887 0.857386
Si Si4 0.924164 0.355611 0.087144
Si Si5 0.268912 0.395643 0.711539
Si Si6 0.869671 0.834882 0.518626
Si Si7 0.877738 0.283116 0.704261
Si Si8 0.172325 0.362081 0.898739
O O1 0.075523 0.867130 0.288685
O O2 0.098581 0.886760 0.111511
O O3 0.272358 0.848525 0.216281
O O4 0.169224 0.009245 0.219663
O O5 0.058224 0.575254 0.006930
O O6 0.093783 0.450672 0.887006
O O7 0.105766 0.268330 0.907886
O O8 0.937372 0.271034 0.801615
O O9 0.957021 0.147820 0.937208
O O10 0.847687 0.405479 0.160964
O O11 0.861090 0.271164 0.042807
O O12 0.039868 0.327739 0.131981
O O13 0.343657 0.316781 0.665476
O O14 0.250322 0.356223 0.811814
O O15 0.748485 0.869957 0.488178
#
# Coordination Sequence:
#
# PCOD8191111 Si02
#       8
#     8   4   8   8   8   8   8   8
#     4  12  27  47  75 111 150 202 252 317 380 466
#     4  12  28  40  72 116 144 186 270 320 376 454
#     4  12  24  47  74 104 149 206 242 306 390 457
#     4  12  24  45  73 108 144 202 245 316 386 450
#     4  12  26  45  76 106 149 196 256 309 386 460
#     4  12  24  46  76 104 153 197 249 314 386 456
#     4  12  22  48  74 103 150 192 248 309 379 462
#     4  12  25  45  69 112 147 188 257 319 379 463
#
# _framework density 22.945081999999999
#
# number of rings (size 3 to 8) (size 9 to 14) (size 15 to 20)
#    0.000    0.000    8.000    2.400    1.867    2.133 
#    0.000    2.667    0.000    0.000    0.000    0.000 
#    0.000    0.000    0.000    0.000    0.000    0.000 
#
# Total GULP energy -372082.797565 kJ/mol
# GULP energy per Si atom -12402.759919 kJ/mol
# Density = 2.289286 g / cm^3
# Si number density = 22.945082 Si / 1000 Ang^3
#
#
#
# Elastic Constant Matrix: (Units=GPa)
#
#
# Indices 1 2 3 4 5 6 
#
# 1 88.8846 37.4126 60.8081 0.0000 0.0000 0.0000
# 2 37.4126 84.8321 7.4819 0.0000 0.0000 0.0000
# 3 60.8081 7.4819 89.7294 0.0000 0.0000 0.0000
# 4 0.0000 0.0000 0.0000 40.8542 0.0000 0.0000
# 5 0.0000 0.0000 0.0000 0.0000 36.6649 0.0000
# 6 0.0000 0.0000 0.0000 0.0000 0.0000 46.2636
#
#
#
# Elastic Compliance Matrix: (Units=1/GPa)
#
#
# Indices 1 2 3 4 5 6 
#
# 1 0.028365 -0.010894 -0.018314 0.000000 0.000000 0.000000
# 2 -0.010894 0.016060 0.006044 0.000000 0.000000 0.000000
# 3 -0.018314 0.006044 0.023052 0.000000 0.000000 0.000000
# 4 0.000000 0.000000 0.000000 0.024477 0.000000 0.000000
# 5 0.000000 0.000000 0.000000 0.000000 0.027274 0.000000
# 6 0.000000 0.000000 0.000000 0.000000 0.000000 0.021615
#
#
# Mechanical properties :
#
#
# Convention : Reuss Voigt Hill
#
# Bulk Modulus (GPa) = 47.28761 52.76124 50.02442
# Shear Modulus (GPa) = 25.74364 35.27275 30.50819
#
# Velocity S-wave (km/s) = 3.35321 3.92505 3.65035
# Velocity P-wave (km/s) = 5.97041 6.60196 6.29411
#
# Compressibility (1/GPa) = 0.02114719
#
# Stress axis : x y z
#
# Youngs Moduli (GPa) = 35.25411 62.26800 43.38014
#
# Poissons Ratio (x) = 0.67838 0.79448
# Poissons Ratio (y) = 0.38407 -0.26219
# Poissons Ratio (z) = 0.64566 -0.37634
#
# Static dielectric constant tensor:
#      x y z
#    x 9.961760 0.000000 0.000000 
#    y 0.000000 3.793640 0.000000 
#    z 0.000000 0.000000 4.251700 
# 
# 
# High freq. dielectric constant tensor:
#      x y z
#    x 1.918210 0.000000 0.000000 
#    y 0.000000 1.899080 0.000000 
#    z 0.000000 0.000000 1.912830 
# 
# From -- ./inp_files/7980.got.cif
#   From: 2010.03.12/outbox.cif.g09.slc.cpg/sg45_4_cif.got.tgz:7980.got - 2010.04.14 02:50:11.
