data_PCOD8191481
_publ_section_title
;
Structure prediction by ZEFSAII (Michael W. Deem and Ramdas Pophale) SiO2 
 PCOD8191481
Probable space group: I M A 2
;
_chemical_formula_sum "Si O2"
_cell_formula_units_Z 56
_cell_length_a 30.262270
_cell_length_b 5.388118
_cell_length_c 12.134574
_cell_angle_alpha 90.000000
_cell_angle_beta 90.000000
_cell_angle_gamma 90.000000
_cell_volume 1978.623370
_symmetry_space_group_name_H-M "I M A 2"
_symmetry_group_IT_number 46
_symmetry_cell_setting 'orthorhombic'
loop_
_space_group_symop_operation_xyz
x,y,z
-x,-y,z
1/2-x,y,z
1/2+x,-y,z
1/2+x,1/2+y,1/2+z
1/2-x,1/2-y,1/2+z
-x,1/2+y,1/2+z
x,1/2-y,1/2+z
loop_
_atom_site_type_symbol
_atom_site_label
_atom_site_fract_x
_atom_site_fract_y
_atom_site_fract_z
Si Si1 0.521845 0.248349 0.928350
Si Si2 0.882083 0.645302 0.205273
Si Si3 0.845282 0.354742 0.714238
Si Si4 0.750000 0.758774 0.522362
Si Si5 0.750000 0.259734 0.658629
Si Si6 0.484271 0.247687 0.691250
Si Si7 0.844972 0.649308 0.957932
Si Si8 0.878675 0.350084 0.464796
O O1 0.500000 0.500000 0.975874
O O2 0.515856 0.245528 0.797926
O O3 0.500000 0.000000 0.978622
O O4 0.571836 0.246772 0.969573
O O5 0.876067 0.371784 0.262545
O O6 0.932177 0.740983 0.210593
O O7 0.862843 0.597985 0.082539
O O8 0.854086 0.867561 0.265876
O O9 0.794117 0.283425 0.731394
O O10 0.858016 0.400831 0.585603
O O11 0.750000 0.484246 0.572172
O O12 0.706242 0.779227 0.448640
O O13 0.750000 0.984142 0.608630
O O14 0.500000 0.500000 0.628168
O O15 0.500000 0.000000 0.624471
O O16 0.850960 0.372260 0.902650
O O17 0.874415 0.876568 0.906290
#
# Coordination Sequence:
#
# PCOD8191481 Si02
#       8
#     8   8   8   4   4   8   8   8
#     4  10  21  37  54  70  94 130 181 228 261 298
#     4  10  18  32  48  72 104 135 171 206 259 304
#     4  10  19  30  48  77 111 139 160 202 253 313
#     4  12  16  30  48  74 114 144 170 188 244 310
#     4  12  16  30  48  74 114 144 170 188 244 310
#     4  10  21  37  54  70  94 130 181 228 261 298
#     4  10  19  30  48  77 111 139 160 202 253 313
#     4  10  18  32  48  72 104 135 171 206 259 304
#
# _framework density 28.302505
#
# number of rings (size 3 to 8) (size 9 to 14) (size 15 to 20)
#    0.000    1.714    5.714    1.714    0.000    0.000 
#    0.000   17.143    0.000    0.000    0.000    0.000 
#    0.000  155.429    0.000    0.000    0.000    0.000 
#
# Total GULP energy -347066.883824 kJ/mol
# GULP energy per Si atom -12395.245851 kJ/mol
# Density = 2.823809 g / cm^3
# Si number density = 28.302505 Si / 1000 Ang^3
#
#
#
# Elastic Constant Matrix: (Units=GPa)
#
#
# Indices 1 2 3 4 5 6 
#
# 1 197.6168 66.6510 -6.4151 0.0000 0.0000 0.0000
# 2 66.6510 299.3269 18.5634 0.0000 0.0000 0.0000
# 3 -6.4151 18.5634 84.1996 0.0000 0.0000 0.0000
# 4 0.0000 0.0000 0.0000 53.9821 0.0000 0.0000
# 5 0.0000 0.0000 0.0000 0.0000 28.8457 0.0000
# 6 0.0000 0.0000 0.0000 0.0000 0.0000 61.1943
#
#
#
# Elastic Compliance Matrix: (Units=1/GPa)
#
#
# Indices 1 2 3 4 5 6 
#
# 1 0.005512 -0.001271 0.000700 0.000000 0.000000 0.000000
# 2 -0.001271 0.003680 -0.000908 0.000000 0.000000 0.000000
# 3 0.000700 -0.000908 0.012130 0.000000 0.000000 0.000000
# 4 0.000000 0.000000 0.000000 0.018525 0.000000 0.000000
# 5 0.000000 0.000000 0.000000 0.000000 0.034667 0.000000
# 6 0.000000 0.000000 0.000000 0.000000 0.000000 0.016341
#
#
# Mechanical properties :
#
#
# Convention : Reuss Voigt Hill
#
# Bulk Modulus (GPa) = 54.45363 82.08243 68.26803
# Shear Modulus (GPa) = 50.03301 62.29402 56.16351
#
# Velocity S-wave (km/s) = 4.20908 4.69658 4.45949
# Velocity P-wave (km/s) = 6.55007 7.64691 7.11964
#
# Compressibility (1/GPa) = 0.01836425
#
# Stress axis : x y z
#
# Youngs Moduli (GPa) = 181.43577 271.73226 82.43955
#
# Poissons Ratio (x) = 0.34529 -0.05771
# Poissons Ratio (y) = 0.23055 0.07487
# Poissons Ratio (z) = -0.12702 0.24678
#
# Static dielectric constant tensor:
#      x y z
#    x 4.832540 0.000000 0.000000 
#    y 0.000000 6.859020 0.000000 
#    z 0.000000 0.000000 5.497620 
# 
# 
# High freq. dielectric constant tensor:
#      x y z
#    x 2.121010 0.000000 0.000000 
#    y 0.000000 2.206170 0.000000 
#    z 0.000000 0.000000 2.202220 
# 
# From -- ./inp_files/22552.got.cif
#   From: 2010.03.12/outbox.cif.g09.slc.cpg/sg46_12_cif.got.tgz:22552.got - 2010.04.14 02:56:35.
