data_PCOD8191857
_publ_section_title
;
Structure prediction by ZEFSAII (Michael W. Deem and Ramdas Pophale) SiO2 
 PCOD8191857
Probable space group: I M A 2
;
_chemical_formula_sum "Si O2"
_cell_formula_units_Z 56
_cell_length_a 8.975928
_cell_length_b 23.753448
_cell_length_c 13.546487
_cell_angle_alpha 90.000000
_cell_angle_beta 90.000000
_cell_angle_gamma 90.000000
_cell_volume 2888.236184
_symmetry_space_group_name_H-M "I M A 2"
_symmetry_group_IT_number 46
_symmetry_cell_setting 'orthorhombic'
loop_
_space_group_symop_operation_xyz
x,y,z
-x,-y,z
1/2-x,y,z
1/2+x,-y,z
1/2+x,1/2+y,1/2+z
1/2-x,1/2-y,1/2+z
-x,1/2+y,1/2+z
x,1/2-y,1/2+z
loop_
_atom_site_type_symbol
_atom_site_label
_atom_site_fract_x
_atom_site_fract_y
_atom_site_fract_z
Si Si1 0.078465 0.167641 0.481580
Si Si2 0.422231 0.221017 0.865860
Si Si3 0.925818 0.942378 0.144790
Si Si4 0.577854 0.442195 0.288267
Si Si5 0.075507 0.443200 0.871037
Si Si6 0.574732 0.375573 0.480851
Si Si7 0.426069 0.670762 0.184733
O O1 0.250000 0.163181 0.515616
O O2 0.060178 0.214277 0.397027
O O3 0.020318 0.108867 0.436777
O O4 0.977418 0.183821 0.574409
O O5 0.250000 0.202472 0.862801
O O6 0.509244 0.183572 0.945435
O O7 0.493672 0.214678 0.757662
O O8 0.750000 0.945962 0.128046
O O9 0.969713 0.931236 0.258028
O O10 0.000000 0.000000 0.107234
O O11 0.993831 0.891308 0.082362
O O12 0.500000 0.500000 0.259245
O O13 0.750000 0.453795 0.275303
O O14 0.539772 0.423566 0.399750
O O15 0.525970 0.392730 0.214222
O O16 0.250000 0.451721 0.880104
O O17 0.000000 0.500000 0.911152
O O18 0.750000 0.368517 0.498214
O O19 0.250000 0.679093 0.195904
#
# Coordination Sequence:
#
# PCOD8191857 Si02
#       7
#     8   8   8   8   8   8   8
#     4  10  22  40  61  83 108 143 184 224 271 327
#     4  10  21  38  59  82 110 145 185 228 274 327
#     4  10  19  32  52  79 112 150 190 232 279 330
#     4   9  19  33  50  75 108 144 181 222 268 320
#     4   9  20  38  57  80 111 144 182 228 273 323
#     4  10  20  34  52  79 114 148 187 233 280 332
#     4  10  22  39  57  82 114 144 180 227 275 325
#
# _framework density 19.388997
#
# number of rings (size 3 to 8) (size 9 to 14) (size 15 to 20)
#    0.000    2.286    0.000    3.000    0.000    8.571 
#    0.000    5.714    0.000    0.000    0.000    0.000 
#    0.000    0.000    0.000    0.000    0.000    0.000 
#
# Total GULP energy -347295.770504 kJ/mol
# GULP energy per Si atom -12403.420375 kJ/mol
# Density = 1.934487 g / cm^3
# Si number density = 19.388997 Si / 1000 Ang^3
#
#
#
# Elastic Constant Matrix: (Units=GPa)
#
#
# Indices 1 2 3 4 5 6 
#
# 1 84.0900 41.5863 42.5709 0.0000 0.0000 0.0000
# 2 41.5863 101.2158 47.6304 -0.0001 0.0000 0.0000
# 3 42.5709 47.6304 98.7426 -0.0001 -0.0001 0.0000
# 4 0.0000 -0.0001 -0.0001 25.3557 0.0000 0.0000
# 5 0.0000 0.0000 -0.0001 0.0000 29.8327 0.0000
# 6 0.0000 0.0000 0.0000 0.0000 0.0000 32.4983
#
#
#
# Elastic Compliance Matrix: (Units=1/GPa)
#
#
# Indices 1 2 3 4 5 6 
#
# 1 0.016647 -0.004479 -0.005016 0.000000 0.000000 0.000000
# 2 -0.004479 0.013986 -0.004816 0.000000 0.000000 0.000000
# 3 -0.005016 -0.004816 0.014613 0.000000 0.000000 0.000000
# 4 0.000000 0.000000 0.000000 0.039439 0.000000 0.000000
# 5 0.000000 0.000000 0.000000 0.000000 0.033520 0.000000
# 6 0.000000 0.000000 0.000000 0.000000 0.000000 0.030771
#
#
# Mechanical properties :
#
#
# Convention : Reuss Voigt Hill
#
# Bulk Modulus (GPa) = 60.15358 60.84705 60.50032
# Shear Modulus (GPa) = 27.30171 27.68806 27.49488
#
# Velocity S-wave (km/s) = 3.75654 3.78303 3.76981
# Velocity P-wave (km/s) = 7.06452 7.10859 7.08659
#
# Compressibility (1/GPa) = 0.01662411
#
# Stress axis : x y z
#
# Youngs Moduli (GPa) = 60.07232 71.49890 68.43276
#
# Poissons Ratio (x) = 0.32024 0.34328
# Poissons Ratio (y) = 0.26906 0.32954
# Poissons Ratio (z) = 0.30134 0.34430
#
# Static dielectric constant tensor:
#      x y z
#    x 3.551180 0.000000 0.000000 
#    y 0.000000 3.519810 0.000000 
#    z 0.000000 0.000000 3.484320 
# 
# 
# High freq. dielectric constant tensor:
#      x y z
#    x 1.759460 0.000000 0.000000 
#    y 0.000000 1.751870 0.000000 
#    z 0.000000 0.000000 1.750480 
# 
# From -- ./inp_files/14161.got.cif
#   From: 2010.03.12/outbox.cif.g09.slc.cpg/sg46_8_cif.got.tgz:14161.got - 2010.04.14 02:56:35.
