data_PCOD8191852
_publ_section_title
;
Structure prediction by ZEFSAII (Michael W. Deem and Ramdas Pophale) SiO2 
 PCOD8191852
Probable space group: I M A 2
;
_chemical_formula_sum "Si O2"
_cell_formula_units_Z 56
_cell_length_a 9.302172
_cell_length_b 13.973681
_cell_length_c 22.569199
_cell_angle_alpha 90.000000
_cell_angle_beta 90.000000
_cell_angle_gamma 90.000000
_cell_volume 2933.670515
_symmetry_space_group_name_H-M "I M A 2"
_symmetry_group_IT_number 46
_symmetry_cell_setting 'orthorhombic'
loop_
_space_group_symop_operation_xyz
x,y,z
-x,-y,z
1/2-x,y,z
1/2+x,-y,z
1/2+x,1/2+y,1/2+z
1/2-x,1/2-y,1/2+z
-x,1/2+y,1/2+z
x,1/2-y,1/2+z
loop_
_atom_site_type_symbol
_atom_site_label
_atom_site_fract_x
_atom_site_fract_y
_atom_site_fract_z
Si Si1 0.080668 0.590078 0.490060
Si Si2 0.592839 0.360358 0.077593
Si Si3 0.581180 0.589421 0.185360
Si Si4 0.419774 0.099968 0.344314
Si Si5 0.092909 0.855902 0.116798
Si Si6 0.416398 0.201105 0.222440
Si Si7 0.918099 0.200696 0.449182
O O1 0.250000 0.574516 0.485889
O O2 0.029847 0.591416 0.558930
O O3 0.037780 0.688259 0.457286
O O4 0.000000 0.500000 0.459529
O O5 0.750000 0.410262 0.086549
O O6 0.469784 0.410728 0.116498
O O7 0.609637 0.252997 0.098698
O O8 0.549843 0.360615 0.008455
O O9 0.500000 0.500000 0.217068
O O10 0.750000 0.572403 0.188736
O O11 0.534277 0.687853 0.217640
O O12 0.250000 0.082337 0.351963
O O13 0.455258 0.163739 0.287104
O O14 0.479779 0.157980 0.399585
O O15 0.500000 0.000000 0.337881
O O16 0.250000 0.897212 0.133748
O O17 0.991802 0.867034 0.173927
O O18 0.250000 0.193796 0.207696
O O19 0.750000 0.192059 0.431960
#
# Coordination Sequence:
#
# PCOD8191852 Si02
#       7
#     8   8   8   8   8   8   8
#     4   9  18  32  52  81 114 144 175 213 259 314
#     4   8  15  30  51  74 102 135 170 209 253 300
#     4  10  19  32  52  79 109 139 172 209 255 312
#     4  11  24  41  59  78 101 133 176 223 269 316
#     4   8  15  29  50  75 103 136 171 208 252 301
#     4   9  20  37  54  75 105 138 174 218 261 306
#     4   9  19  37  57  78 107 141 179 222 264 309
#
# _framework density 19.088714
#
# number of rings (size 3 to 8) (size 9 to 14) (size 15 to 20)
#    0.000    2.857    0.000    2.571    0.000    4.571 
#    0.000    6.429    0.000    3.429    0.000    0.000 
#    0.000    0.000    0.000    0.000    0.000    0.000 
#
# Total GULP energy -347027.876487 kJ/mol
# GULP energy per Si atom -12393.852732 kJ/mol
# Density = 1.904527 g / cm^3
# Si number density = 19.088714 Si / 1000 Ang^3
#
#
#
# Elastic Constant Matrix: (Units=GPa)
#
#
# Indices 1 2 3 4 5 6 
#
# 1 84.9089 55.1165 56.0222 0.0000 0.0000 0.0000
# 2 55.1165 111.0120 45.5429 0.0000 0.0000 0.0000
# 3 56.0222 45.5429 110.3554 0.0000 0.0000 0.0000
# 4 0.0000 0.0000 0.0000 19.6723 0.0000 0.0000
# 5 0.0000 0.0000 0.0000 0.0000 23.8913 0.0000
# 6 0.0000 0.0000 0.0000 0.0000 0.0000 31.2188
#
#
#
# Elastic Compliance Matrix: (Units=1/GPa)
#
#
# Indices 1 2 3 4 5 6 
#
# 1 0.022042 -0.007648 -0.008034 0.000000 0.000000 0.000000
# 2 -0.007648 0.013498 -0.001688 0.000000 0.000000 0.000000
# 3 -0.008034 -0.001688 0.013836 0.000000 0.000000 0.000000
# 4 0.000000 0.000000 0.000000 0.050833 0.000000 0.000000
# 5 0.000000 0.000000 0.000000 0.000000 0.041856 0.000000
# 6 0.000000 0.000000 0.000000 0.000000 0.000000 0.032032
#
#
# Mechanical properties :
#
#
# Convention : Reuss Voigt Hill
#
# Bulk Modulus (GPa) = 68.31737 68.84883 68.58310
# Shear Modulus (GPa) = 23.39558 24.92947 24.16253
#
# Velocity S-wave (km/s) = 3.50469 3.61775 3.56167
# Velocity P-wave (km/s) = 7.22802 7.32100 7.27465
#
# Compressibility (1/GPa) = 0.01463757
#
# Stress axis : x y z
#
# Youngs Moduli (GPa) = 45.36719 74.08691 72.27283
#
# Poissons Ratio (x) = 0.56662 0.58061
# Poissons Ratio (y) = 0.34697 0.12198
# Poissons Ratio (z) = 0.36446 0.12505
#
# Static dielectric constant tensor:
#      x y z
#    x 3.662890 0.000000 0.000000 
#    y 0.000000 3.731780 0.000000 
#    z 0.000000 0.000000 3.435750 
# 
# 
# High freq. dielectric constant tensor:
#      x y z
#    x 1.741090 0.000000 0.000000 
#    y 0.000000 1.746670 0.000000 
#    z 0.000000 0.000000 1.719600 
# 
# From -- ./inp_files/21126.got.cif
#   From: 2010.03.12/outbox.cif.g09.slc.cpg/sg46_11_cif.got.tgz:21126.got - 2010.04.14 02:56:35.
