data_PCOD8191924
_publ_section_title
;
Structure prediction by ZEFSAII (Michael W. Deem and Ramdas Pophale) SiO2 
 PCOD8191924
Probable space group: I M A 2
;
_chemical_formula_sum "Si O2"
_cell_formula_units_Z 64
_cell_length_a 8.743142
_cell_length_b 29.206357
_cell_length_c 13.309328
_cell_angle_alpha 90.000000
_cell_angle_beta 90.000000
_cell_angle_gamma 90.000000
_cell_volume 3398.607798
_symmetry_space_group_name_H-M "I M A 2"
_symmetry_group_IT_number 46
_symmetry_cell_setting 'orthorhombic'
loop_
_space_group_symop_operation_xyz
x,y,z
-x,-y,z
1/2-x,y,z
1/2+x,-y,z
1/2+x,1/2+y,1/2+z
1/2-x,1/2-y,1/2+z
-x,1/2+y,1/2+z
x,1/2-y,1/2+z
loop_
_atom_site_type_symbol
_atom_site_label
_atom_site_fract_x
_atom_site_fract_y
_atom_site_fract_z
Si Si1 0.931999 0.549880 0.924480
Si Si2 0.583411 0.097618 0.019202
Si Si3 0.922644 0.798229 0.221276
Si Si4 0.927836 0.895846 0.816069
Si Si5 0.924813 0.709643 0.339042
Si Si6 0.068273 0.549863 0.133868
Si Si7 0.930549 0.107579 0.245181
Si Si8 0.914026 0.203364 0.028534
O O1 0.750000 0.547468 0.932507
O O2 0.000000 0.500000 0.904835
O O3 0.978319 0.580716 0.830090
O O4 0.999277 0.569932 0.029265
O O5 0.750000 0.072911 0.009462
O O6 0.473908 0.082948 0.926174
O O7 0.610435 0.150711 0.004161
O O8 0.516853 0.089823 0.133140
O O9 0.750000 0.813053 0.246341
O O10 0.961782 0.747272 0.256429
O O11 0.033713 0.838437 0.260578
O O12 0.946382 0.791348 0.103853
O O13 0.750000 0.906774 0.800414
O O14 0.963305 0.841844 0.804192
O O15 0.024949 0.918728 0.727847
O O16 0.750000 0.711148 0.374991
O O17 0.032846 0.727768 0.427660
O O18 0.250000 0.546973 0.123538
O O19 0.000000 0.500000 0.153828
O O20 0.750000 0.100353 0.257599
O O21 0.750000 0.223811 0.065601
#
# Coordination Sequence:
#
# PCOD8191924 Si02
#       8
#     8   8   8   8   8   8   8   8
#     4  11  22  39  62  86 113 148 187 230 281 338
#     4   8  16  31  52  77 106 140 176 218 269 323
#     4  10  19  33  52  76 106 144 184 226 274 327
#     4  10  19  34  56  82 110 143 186 230 277 333
#     4   9  19  34  52  75 105 143 182 224 272 326
#     4  11  22  39  61  84 112 147 186 230 281 337
#     4  10  20  36  57  83 113 145 186 232 278 333
#     4   9  17  30  49  71  98 136 177 220 267 321
#
# _framework density 18.831240000000001
#
# number of rings (size 3 to 8) (size 9 to 14) (size 15 to 20)
#    0.000    2.250    0.000    5.250    0.000    5.000 
#    2.250    0.625    0.000    3.000    0.000    0.000 
#    0.000    0.000    0.000    0.000    0.000    0.000 
#
# Total GULP energy -396442.334738 kJ/mol
# GULP energy per Si atom -12388.822961 kJ/mol
# Density = 1.878838 g / cm^3
# Si number density = 18.831240 Si / 1000 Ang^3
#
#
#
# Elastic Constant Matrix: (Units=GPa)
#
#
# Indices 1 2 3 4 5 6 
#
# 1 111.8864 38.7728 57.9424 0.0002 0.0002 0.0001
# 2 38.7728 59.9121 52.4681 0.0002 0.0001 0.0001
# 3 57.9424 52.4681 132.1786 0.0001 0.0002 0.0003
# 4 0.0002 0.0002 0.0001 16.7022 0.0001 0.0001
# 5 0.0002 0.0001 0.0002 0.0001 33.2740 0.0001
# 6 0.0001 0.0001 0.0003 0.0001 0.0001 24.5606
#
#
#
# Elastic Compliance Matrix: (Units=1/GPa)
#
#
# Indices 1 2 3 4 5 6 
#
# 1 0.012481 -0.005037 -0.003472 0.000000 0.000000 0.000000
# 2 -0.005037 0.027618 -0.008755 0.000000 0.000000 0.000000
# 3 -0.003472 -0.008755 0.012563 0.000000 0.000000 0.000000
# 4 0.000000 0.000000 0.000000 0.059872 0.000000 0.000000
# 5 0.000000 0.000000 0.000000 0.000000 0.030053 0.000000
# 6 0.000000 0.000000 0.000000 0.000000 0.000000 0.040716
#
#
# Mechanical properties :
#
#
# Convention : Reuss Voigt Hill
#
# Bulk Modulus (GPa) = 55.14359 66.92707 61.03533
# Shear Modulus (GPa) = 22.33387 25.22695 23.78041
#
# Velocity S-wave (km/s) = 3.44757 3.66407 3.55747
# Velocity P-wave (km/s) = 6.72267 7.31561 7.02540
#
# Compressibility (1/GPa) = 0.01813448
#
# Stress axis : x y z
#
# Youngs Moduli (GPa) = 80.12146 36.20847 79.60036
#
# Poissons Ratio (x) = 0.18237 0.27637
# Poissons Ratio (y) = 0.40355 0.69690
# Poissons Ratio (z) = 0.27818 0.31700
#
# Static dielectric constant tensor:
#      x y z
#    x 3.958130 0.000000 0.000000 
#    y 0.000000 3.219090 0.000000 
#    z 0.000000 0.000000 3.648590 
# 
# 
# High freq. dielectric constant tensor:
#      x y z
#    x 1.745440 0.000000 0.000000 
#    y 0.000000 1.698690 0.000000 
#    z 0.000000 0.000000 1.738630 
# 
# From -- ./inp_files/9774.got.cif
#   From: 2010.03.12/outbox.cif.g09.slc.cpg/sg46_5_cif.got.tgz:9774.got - 2010.04.14 02:56:35.
