data_PCOD8191568
_publ_section_title
;
Structure prediction by ZEFSAII (Michael W. Deem and Ramdas Pophale) SiO2 
 PCOD8191568
Probable space group: I M A 2
;
_chemical_formula_sum "Si O2"
_cell_formula_units_Z 48
_cell_length_a 17.197266
_cell_length_b 14.318254
_cell_length_c 8.928712
_cell_angle_alpha 90.000000
_cell_angle_beta 90.000000
_cell_angle_gamma 90.000000
_cell_volume 2198.559816
_symmetry_space_group_name_H-M "I M A 2"
_symmetry_group_IT_number 46
_symmetry_cell_setting 'orthorhombic'
loop_
_space_group_symop_operation_xyz
x,y,z
-x,-y,z
1/2-x,y,z
1/2+x,-y,z
1/2+x,1/2+y,1/2+z
1/2-x,1/2-y,1/2+z
-x,1/2+y,1/2+z
x,1/2-y,1/2+z
loop_
_atom_site_type_symbol
_atom_site_label
_atom_site_fract_x
_atom_site_fract_y
_atom_site_fract_z
Si Si1 0.841300 0.360778 0.855510
Si Si2 0.840278 0.627288 0.308738
Si Si3 0.913791 0.469662 0.452951
Si Si4 0.661197 0.550826 0.733576
Si Si5 0.403386 0.223898 0.105339
Si Si6 0.581904 0.275878 0.563747
O O1 0.750000 0.343601 0.838026
O O2 0.859397 0.472769 0.859791
O O3 0.884275 0.310715 0.719259
O O4 0.872228 0.315530 0.008881
O O5 0.750000 0.604805 0.315680
O O6 0.887821 0.528356 0.305820
O O7 0.859413 0.682542 0.156857
O O8 0.866041 0.688779 0.451458
O O9 0.850201 0.497872 0.576548
O O10 0.911378 0.357545 0.435935
O O11 0.000000 0.500000 0.505620
O O12 0.750000 0.584675 0.748091
O O13 0.606981 0.643266 0.734527
O O14 0.492629 0.250313 0.086969
#
# Coordination Sequence:
#
# PCOD8191568 Si02
#       6
#     8   8   8   8   8   8
#     4  10  22  37  59  88 122 160 203 248 300 360
#     4  11  22  37  61  91 124 159 198 248 306 363
#     4  10  18  34  57  86 115 154 201 244 285 356
#     4   9  18  35  59  86 117 155 199 242 295 359
#     4  11  21  38  62  90 119 156 204 253 302 357
#     4  11  21  37  61  88 118 159 205 253 299 351
#
# _framework density 21.832474000000001
#
# number of rings (size 3 to 8) (size 9 to 14) (size 15 to 20)
#    0.000    1.667    3.333    4.500    0.000    2.000 
#    0.000    1.667    0.000    4.000    0.000    0.000 
#    0.000    0.000    0.000    0.000    0.000    0.000 
#
# Total GULP energy -297476.411587 kJ/mol
# GULP energy per Si atom -12394.850483 kJ/mol
# Density = 2.178278 g / cm^3
# Si number density = 21.832474 Si / 1000 Ang^3
#
#
#
# Elastic Constant Matrix: (Units=GPa)
#
#
# Indices 1 2 3 4 5 6 
#
# 1 102.1500 13.7602 10.0428 0.0000 0.0000 0.0000
# 2 13.7602 63.6807 -0.8638 0.0000 0.0000 0.0000
# 3 10.0428 -0.8638 19.8529 0.0000 0.0000 0.0000
# 4 0.0000 0.0000 0.0000 32.6177 0.0000 0.0000
# 5 0.0000 0.0000 0.0000 0.0000 25.4557 0.0000
# 6 0.0000 0.0000 0.0000 0.0000 0.0000 18.2115
#
#
#
# Elastic Compliance Matrix: (Units=1/GPa)
#
#
# Indices 1 2 3 4 5 6 
#
# 1 0.010649 -0.002376 -0.005490 0.000000 0.000000 0.000000
# 2 -0.002376 0.016243 0.001908 0.000000 0.000000 0.000000
# 3 -0.005490 0.001908 0.053231 0.000000 0.000000 0.000000
# 4 0.000000 0.000000 0.000000 0.030658 0.000000 0.000000
# 5 0.000000 0.000000 0.000000 0.000000 0.039284 0.000000
# 6 0.000000 0.000000 0.000000 0.000000 0.000000 0.054910
#
#
# Mechanical properties :
#
#
# Convention : Reuss Voigt Hill
#
# Bulk Modulus (GPa) = 14.66115 25.72912 20.19513
# Shear Modulus (GPa) = 20.86584 26.10662 23.48623
#
# Velocity S-wave (km/s) = 3.09483 3.46174 3.28342
# Velocity P-wave (km/s) = 4.41594 5.27149 4.86257
#
# Compressibility (1/GPa) = 0.06820748
#
# Stress axis : x y z
#
# Youngs Moduli (GPa) = 93.90274 61.56670 18.78611
#
# Poissons Ratio (x) = 0.14626 0.10314
# Poissons Ratio (y) = 0.22307 -0.03585
# Poissons Ratio (z) = 0.51556 -0.11749
#
# Static dielectric constant tensor:
#      x y z
#    x 3.929790 0.000000 0.000000 
#    y 0.000000 4.538340 0.000000 
#    z 0.000000 0.000000 3.602190 
# 
# 
# High freq. dielectric constant tensor:
#      x y z
#    x 1.868510 0.000000 0.000000 
#    y 0.000000 1.866300 0.000000 
#    z 0.000000 0.000000 1.812650 
# 
# From -- ./inp_files/11077.got.cif
#   From: 2010.03.12/outbox.cif.g09.slc.cpg/sg46_6_cif.got.tgz:11077.got - 2010.04.14 02:56:35.
