data_PCOD8191172
_publ_section_title
;
Structure prediction by ZEFSAII (Michael W. Deem and Ramdas Pophale) SiO2 
 PCOD8191172
Probable space group: I M A 2
;
_chemical_formula_sum "Si O2"
_cell_formula_units_Z 64
_cell_length_a 8.960366
_cell_length_b 21.353421
_cell_length_c 21.644552
_cell_angle_alpha 90.000000
_cell_angle_beta 90.000000
_cell_angle_gamma 90.000000
_cell_volume 4141.348831
_symmetry_space_group_name_H-M "I M A 2"
_symmetry_group_IT_number 46
_symmetry_cell_setting 'orthorhombic'
loop_
_space_group_symop_operation_xyz
x,y,z
-x,-y,z
1/2-x,y,z
1/2+x,-y,z
1/2+x,1/2+y,1/2+z
1/2-x,1/2-y,1/2+z
-x,1/2+y,1/2+z
x,1/2-y,1/2+z
loop_
_atom_site_type_symbol
_atom_site_label
_atom_site_fract_x
_atom_site_fract_y
_atom_site_fract_z
Si Si1 0.924487 0.434789 0.327920
Si Si2 0.418707 0.348984 0.419601
Si Si3 0.580159 0.564993 0.006442
Si Si4 0.074302 0.739795 0.505558
Si Si5 0.921732 0.169460 0.726002
Si Si6 0.078181 0.333432 0.917254
Si Si7 0.573721 0.825110 0.597220
Si Si8 0.914749 0.746882 0.812336
O O1 0.750000 0.444355 0.338706
O O2 0.956234 0.388369 0.270956
O O3 0.000000 0.500000 0.310062
O O4 0.994822 0.408439 0.391250
O O5 0.250000 0.369177 0.435779
O O6 0.500751 0.325434 0.482110
O O7 0.420695 0.293743 0.369921
O O8 0.500000 0.500000 0.013917
O O9 0.750000 0.549650 0.019755
O O10 0.522607 0.615289 0.056581
O O11 0.555721 0.594098 0.937357
O O12 0.250000 0.729930 0.512877
O O13 0.039840 0.793143 0.455593
O O14 0.004599 0.762037 0.571046
O O15 0.750000 0.173166 0.706682
O O16 0.022836 0.161072 0.666391
O O17 0.965268 0.234333 0.760714
O O18 0.250000 0.313430 0.934626
O O19 0.051156 0.321433 0.843637
O O20 0.750000 0.815066 0.594603
O O21 0.750000 0.747796 0.781806
#
# Coordination Sequence:
#
# PCOD8191172 Si02
#       8
#     8   8   8   8   8   8   8   8
#     4  10  20  32  45  63  88 118 152 187 221 258
#     4   9  16  28  45  63  84 110 140 175 218 264
#     4   9  18  30  43  60  83 112 146 181 212 247
#     4  10  17  26  43  65  85 105 135 177 222 261
#     4  10  20  31  43  62  86 111 145 185 219 253
#     4   8  15  28  43  60  82 109 140 172 211 260
#     4  10  20  33  45  58  82 117 152 181 214 257
#     4   8  14  26  44  61  79 106 137 170 212 258
#
# _framework density 15.453901999999999
#
# number of rings (size 3 to 8) (size 9 to 14) (size 15 to 20)
#    0.000    2.750    0.000    4.125    0.000    7.500 
#    0.000    2.500    0.000    0.000    0.000    0.000 
#    0.000    1.000    0.000    8.500    0.000    5.500 
#
# Total GULP energy -396566.029114 kJ/mol
# GULP energy per Si atom -12392.688410 kJ/mol
# Density = 1.541873 g / cm^3
# Si number density = 15.453902 Si / 1000 Ang^3
#
#
#
# Elastic Constant Matrix: (Units=GPa)
#
#
# Indices 1 2 3 4 5 6 
#
# 1 93.8174 36.5739 43.7448 0.0000 0.0000 0.0000
# 2 36.5739 47.6962 55.7123 0.0000 0.0000 0.0000
# 3 43.7448 55.7123 66.1444 0.0000 0.0000 0.0000
# 4 0.0000 0.0000 0.0000 14.3265 0.0000 0.0000
# 5 0.0000 0.0000 0.0000 0.0000 25.0569 0.0000
# 6 0.0000 0.0000 0.0000 0.0000 0.0000 24.7712
#
#
#
# Elastic Compliance Matrix: (Units=1/GPa)
#
#
# Indices 1 2 3 4 5 6 
#
# 1 0.015434 0.005438 -0.014787 0.000000 0.000000 0.000000
# 2 0.005438 1.299516 -1.098156 0.000002 0.000000 0.000000
# 3 -0.014787 -1.098156 0.949856 -0.000002 0.000000 0.000000
# 4 0.000000 0.000002 -0.000002 0.069801 0.000000 0.000000
# 5 0.000000 0.000000 0.000000 0.000000 0.039909 0.000000
# 6 0.000000 0.000000 0.000000 0.000000 0.000000 0.040369
#
#
# Mechanical properties :
#
#
# Convention : Reuss Voigt Hill
#
# Bulk Modulus (GPa) = 20.08253 53.30223 36.69238
# Shear Modulus (GPa) = 1.07608 17.60605 9.34106
#
# Velocity S-wave (km/s) = 0.83536 3.37896 2.46122
# Velocity P-wave (km/s) = 3.73547 7.05614 5.64548
#
# Compressibility (1/GPa) = 0.04979452
#
# Stress axis : x y z
#
# Youngs Moduli (GPa) = 64.79107 0.76952 1.05279
#
# Poissons Ratio (x) = -0.00418 0.01557
# Poissons Ratio (y) = -0.35231 1.15613
# Poissons Ratio (z) = 0.95810 0.84505
#
# Static dielectric constant tensor:
#      x y z
#    x 3.020390 0.000000 0.000000 
#    y 0.000000 2.904880 0.000000 
#    z 0.000000 0.000000 2.935020 
# 
# 
# High freq. dielectric constant tensor:
#      x y z
#    x 1.604800 0.000000 0.000000 
#    y 0.000000 1.560960 0.000000 
#    z 0.000000 0.000000 1.568120 
# 
# From -- ./inp_files/18638.got.cif
#   From: 2010.03.12/outbox.cif.g09.slc.cpg/sg46_10_cif.got.tgz:18638.got - 2010.04.14 02:56:35.
