data_PCOD8191991
_publ_section_title
;
Structure prediction by ZEFSAII (Michael W. Deem and Ramdas Pophale) SiO2 
 PCOD8191991
Probable space group: I M A 2
;
_chemical_formula_sum "Si O2"
_cell_formula_units_Z 64
_cell_length_a 8.825818
_cell_length_b 19.525439
_cell_length_c 20.572521
_cell_angle_alpha 90.000000
_cell_angle_beta 90.000000
_cell_angle_gamma 90.000000
_cell_volume 3545.220802
_symmetry_space_group_name_H-M "I M A 2"
_symmetry_group_IT_number 46
_symmetry_cell_setting 'orthorhombic'
loop_
_space_group_symop_operation_xyz
x,y,z
-x,-y,z
1/2-x,y,z
1/2+x,-y,z
1/2+x,1/2+y,1/2+z
1/2-x,1/2-y,1/2+z
-x,1/2+y,1/2+z
x,1/2-y,1/2+z
loop_
_atom_site_type_symbol
_atom_site_label
_atom_site_fract_x
_atom_site_fract_y
_atom_site_fract_z
Si Si1 0.071767 0.293833 0.736210
Si Si2 0.572575 0.068867 0.049190
Si Si3 0.927242 0.428927 0.156873
Si Si4 0.428821 0.569920 0.697502
Si Si5 0.429784 0.207039 0.612000
Si Si6 0.070934 0.295122 0.360124
Si Si7 0.929583 0.212853 0.993979
Si Si8 0.427272 0.929094 0.808092
O O1 0.250000 0.306127 0.732722
O O2 0.014584 0.251058 0.673880
O O3 0.023601 0.253200 0.800558
O O4 0.989250 0.366708 0.739398
O O5 0.750000 0.058447 0.047449
O O6 0.516827 0.080357 0.123134
O O7 0.500000 0.000000 0.019393
O O8 0.522107 0.134165 0.007178
O O9 0.750000 0.430451 0.141950
O O10 0.961335 0.416336 0.232545
O O11 0.000000 0.500000 0.133588
O O12 0.005916 0.369269 0.116357
O O13 0.500000 0.500000 0.725657
O O14 0.250000 0.565864 0.703900
O O15 0.250000 0.203998 0.608747
O O16 0.495662 0.239079 0.547145
O O17 0.250000 0.298968 0.368565
O O18 0.994773 0.264199 0.424595
O O19 0.006541 0.370561 0.349419
O O20 0.750000 0.222117 0.996504
O O21 0.250000 0.929876 0.823722
O O22 0.500000 0.000000 0.831256
#
# Coordination Sequence:
#
# PCOD8191991 Si02
#       8
#     8   8   8   8   8   8   8   8
#     4  10  21  36  57  83 112 145 187 232 277 329
#     4   9  19  33  51  76 108 144 183 224 266 322
#     4  10  20  34  56  85 116 147 185 233 282 334
#     4  10  19  33  55  83 113 143 181 227 278 328
#     4  11  21  36  59  85 112 147 188 234 285 334
#     4  11  23  39  56  80 113 151 191 233 282 337
#     4  11  23  39  55  80 114 150 192 234 281 336
#     4  10  20  34  54  80 112 151 191 231 277 332
#
# _framework density 18.052472999999999
#
# number of rings (size 3 to 8) (size 9 to 14) (size 15 to 20)
#    0.000    1.750    2.500    2.250    0.000    4.500 
#    0.000    1.250    0.000    0.750    0.000    1.750 
#    0.000    0.000    0.000    0.000    0.000    0.000 
#
# Total GULP energy -396956.807144 kJ/mol
# GULP energy per Si atom -12404.900223 kJ/mol
# Density = 1.801138 g / cm^3
# Si number density = 18.052473 Si / 1000 Ang^3
#
#
#
# Elastic Constant Matrix: (Units=GPa)
#
#
# Indices 1 2 3 4 5 6 
#
# 1 70.4677 52.7634 37.9177 0.0000 0.0000 0.0000
# 2 52.7634 134.2756 61.7873 0.0000 0.0000 0.0000
# 3 37.9177 61.7873 94.5190 0.0000 0.0000 0.0000
# 4 0.0000 0.0000 0.0000 50.1624 0.0000 0.0000
# 5 0.0000 0.0000 0.0000 0.0000 27.4293 0.0000
# 6 0.0000 0.0000 0.0000 0.0000 0.0000 37.8272
#
#
#
# Elastic Compliance Matrix: (Units=1/GPa)
#
#
# Indices 1 2 3 4 5 6 
#
# 1 0.021313 -0.006351 -0.004398 0.000000 0.000000 0.000000
# 2 -0.006351 0.012544 -0.005652 0.000000 0.000000 0.000000
# 3 -0.004398 -0.005652 0.016039 0.000000 0.000000 0.000000
# 4 0.000000 0.000000 0.000000 0.019935 0.000000 0.000000
# 5 0.000000 0.000000 0.000000 0.000000 0.036457 0.000000
# 6 0.000000 0.000000 0.000000 0.000000 0.000000 0.026436
#
#
# Mechanical properties :
#
#
# Convention : Reuss Voigt Hill
#
# Bulk Modulus (GPa) = 58.50351 67.13325 62.81838
# Shear Modulus (GPa) = 29.20130 32.87002 31.03566
#
# Velocity S-wave (km/s) = 4.02628 4.27172 4.15081
# Velocity P-wave (km/s) = 7.35475 7.84848 7.60562
#
# Compressibility (1/GPa) = 0.01709299
#
# Stress axis : x y z
#
# Youngs Moduli (GPa) = 46.91979 79.72039 62.34737
#
# Poissons Ratio (x) = 0.50630 0.27423
# Poissons Ratio (y) = 0.29799 0.35240
# Poissons Ratio (z) = 0.20637 0.45059
#
# Static dielectric constant tensor:
#      x y z
#    x 3.346030 0.000000 0.000000 
#    y 0.000000 3.340000 0.000000 
#    z 0.000000 0.000000 3.201670 
# 
# 
# High freq. dielectric constant tensor:
#      x y z
#    x 1.710390 0.000000 0.000000 
#    y 0.000000 1.703450 0.000000 
#    z 0.000000 0.000000 1.676100 
# 
# From -- ./inp_files/18529.got.cif
#   From: 2010.03.12/outbox.cif.g09.slc.cpg/sg46_10_cif.got.tgz:18529.got - 2010.04.14 02:56:35.
