data_PCOD8191577
_publ_section_title
;
Structure prediction by ZEFSAII (Michael W. Deem and Ramdas Pophale) SiO2 
 PCOD8191577
Probable space group: I M A 2
;
_chemical_formula_sum "Si O2"
_cell_formula_units_Z 64
_cell_length_a 8.825605
_cell_length_b 31.010073
_cell_length_c 11.932774
_cell_angle_alpha 90.000000
_cell_angle_beta 90.000000
_cell_angle_gamma 90.000000
_cell_volume 3265.793274
_symmetry_space_group_name_H-M "I M A 2"
_symmetry_group_IT_number 46
_symmetry_cell_setting 'orthorhombic'
loop_
_space_group_symop_operation_xyz
x,y,z
-x,-y,z
1/2-x,y,z
1/2+x,-y,z
1/2+x,1/2+y,1/2+z
1/2-x,1/2-y,1/2+z
-x,1/2+y,1/2+z
x,1/2-y,1/2+z
loop_
_atom_site_type_symbol
_atom_site_label
_atom_site_fract_x
_atom_site_fract_y
_atom_site_fract_z
Si Si1 0.929657 0.375402 0.617360
Si Si2 0.929160 0.066894 0.721802
Si Si3 0.071287 0.457110 0.995439
Si Si4 0.570343 0.335605 0.229473
Si Si5 0.569889 0.201376 0.959254
Si Si6 0.427941 0.956593 0.970103
Si Si7 0.570574 0.873373 0.359030
Si Si8 0.069770 0.702245 0.997675
O O1 0.750000 0.375971 0.638073
O O2 0.981602 0.330957 0.557825
O O3 0.982749 0.415034 0.539322
O O4 0.016511 0.379980 0.733102
O O5 0.750000 0.063204 0.700776
O O6 0.986584 0.115852 0.720085
O O7 0.978344 0.047411 0.840869
O O8 0.017959 0.042625 0.624200
O O9 0.250000 0.460723 0.988857
O O10 0.012861 0.414350 0.931482
O O11 0.000000 0.500000 0.938113
O O12 0.750000 0.334484 0.237708
O O13 0.500834 0.314203 0.340902
O O14 0.512128 0.310189 0.121055
O O15 0.750000 0.201286 0.953773
O O16 0.508712 0.249444 0.979508
O O17 0.250000 0.960377 0.979700
O O18 0.500000 0.000000 0.021432
O O19 0.750000 0.869737 0.363366
O O20 0.500058 0.829446 0.405947
O O21 0.250000 0.699285 0.986801
#
# Coordination Sequence:
#
# PCOD8191577 Si02
#       8
#     8   8   8   8   8   8   8   8
#     4  10  21  39  61  84 112 150 195 239 281 331
#     4  10  18  34  59  86 119 151 182 225 284 343
#     4  11  24  40  59  83 112 147 189 236 285 337
#     4   9  16  30  55  88 120 146 180 233 286 329
#     4   9  18  33  58  92 119 143 190 243 281 324
#     4  10  21  36  57  86 117 150 186 233 286 339
#     4  11  25  42  57  80 117 154 188 234 287 340
#     4  10  20  34  61  91 114 149 192 235 281 331
#
# _framework density 19.597076000000001
#
# number of rings (size 3 to 8) (size 9 to 14) (size 15 to 20)
#    0.000    2.000    2.500    1.125    1.750    4.000 
#    0.000    3.125    0.000    1.500    0.000    0.000 
#    0.000    0.000    0.000    0.000    0.000    0.000 
#
# Total GULP energy -396826.139744 kJ/mol
# GULP energy per Si atom -12400.816867 kJ/mol
# Density = 1.955247 g / cm^3
# Si number density = 19.597076 Si / 1000 Ang^3
#
#
#
# Elastic Constant Matrix: (Units=GPa)
#
#
# Indices 1 2 3 4 5 6 
#
# 1 30.5684 30.7257 26.6381 0.0000 -0.0002 -0.0001
# 2 30.7257 170.5505 54.2672 -0.0001 -0.0003 -0.0002
# 3 26.6381 54.2672 116.1094 -0.0003 -0.0009 -0.0006
# 4 0.0000 -0.0001 -0.0003 23.4685 -0.0008 -0.0004
# 5 -0.0002 -0.0003 -0.0009 -0.0008 17.8403 0.0001
# 6 -0.0001 -0.0002 -0.0006 -0.0004 0.0001 22.2008
#
#
#
# Elastic Compliance Matrix: (Units=1/GPa)
#
#
# Indices 1 2 3 4 5 6 
#
# 1 0.045133 -0.005681 -0.007699 0.000000 0.000000 0.000000
# 2 -0.005681 0.007603 -0.002250 0.000000 0.000000 0.000000
# 3 -0.007699 -0.002250 0.011431 0.000000 0.000000 0.000000
# 4 0.000000 0.000000 0.000000 0.042610 0.000002 0.000001
# 5 0.000000 0.000000 0.000000 0.000002 0.056053 0.000000
# 6 0.000000 0.000000 0.000000 0.000001 0.000000 0.045043
#
#
# Mechanical properties :
#
#
# Convention : Reuss Voigt Hill
#
# Bulk Modulus (GPa) = 30.38993 60.05449 45.22221
# Shear Modulus (GPa) = 19.99178 26.40842 23.20010
#
# Velocity S-wave (km/s) = 3.19743 3.67491 3.44445
# Velocity P-wave (km/s) = 5.40115 6.97981 6.24060
#
# Compressibility (1/GPa) = 0.03290563
#
# Stress axis : x y z
#
# Youngs Moduli (GPa) = 22.15657 131.53061 87.48477
#
# Poissons Ratio (x) = 0.74725 0.67357
# Poissons Ratio (y) = 0.12588 0.19684
# Poissons Ratio (z) = 0.17059 0.29594
#
# Static dielectric constant tensor:
#      x y z
#    x 3.145850 0.000000 0.000000 
#    y 0.000000 3.910670 0.000000 
#    z 0.000000 0.000000 3.682370 
# 
# 
# High freq. dielectric constant tensor:
#      x y z
#    x 1.724280 0.000000 0.000000 
#    y 0.000000 1.783780 0.000000 
#    z 0.000000 0.000000 1.768190 
# 
# From -- ./inp_files/9749.got.cif
#   From: 2010.03.12/outbox.cif.g09.slc.cpg/sg46_5_cif.got.tgz:9749.got - 2010.04.14 02:56:35.
