data_PCOD8191347
_publ_section_title
;
Structure prediction by ZEFSAII (Michael W. Deem and Ramdas Pophale) SiO2 
 PCOD8191347
Probable space group: I M A 2
;
_chemical_formula_sum "Si O2"
_cell_formula_units_Z 56
_cell_length_a 8.754991
_cell_length_b 13.617701
_cell_length_c 28.944893
_cell_angle_alpha 90.000000
_cell_angle_beta 90.000000
_cell_angle_gamma 90.000000
_cell_volume 3450.892628
_symmetry_space_group_name_H-M "I M A 2"
_symmetry_group_IT_number 46
_symmetry_cell_setting 'orthorhombic'
loop_
_space_group_symop_operation_xyz
x,y,z
-x,-y,z
1/2-x,y,z
1/2+x,-y,z
1/2+x,1/2+y,1/2+z
1/2-x,1/2-y,1/2+z
-x,1/2+y,1/2+z
x,1/2-y,1/2+z
loop_
_atom_site_type_symbol
_atom_site_label
_atom_site_fract_x
_atom_site_fract_y
_atom_site_fract_z
Si Si1 0.428004 0.600946 0.517180
Si Si2 0.568417 0.108544 0.287002
Si Si3 0.072467 0.209736 0.100276
Si Si4 0.428254 0.105744 0.195085
Si Si5 0.571037 0.104223 0.559713
Si Si6 0.425910 0.704177 0.964555
Si Si7 0.570370 0.606872 0.879613
O O1 0.500000 0.500000 0.498805
O O2 0.250000 0.586938 0.525787
O O3 0.500003 0.630067 0.566084
O O4 0.459633 0.683711 0.478743
O O5 0.750000 0.109127 0.288259
O O6 0.506824 0.158118 0.239805
O O7 0.502631 0.157636 0.333791
O O8 0.500000 0.000000 0.286397
O O9 0.250000 0.216568 0.088767
O O10 0.040593 0.176988 0.152395
O O11 0.998160 0.316316 0.094570
O O12 0.250000 0.090825 0.204926
O O13 0.500000 0.000000 0.184293
O O14 0.750000 0.101022 0.568074
O O15 0.532201 0.133361 0.507162
O O16 0.500000 0.000000 0.571742
O O17 0.250000 0.689814 0.950002
O O18 0.535092 0.678022 0.922255
O O19 0.500000 0.500000 0.889510
O O20 0.750000 0.595385 0.872982
#
# Coordination Sequence:
#
# PCOD8191347 Si02
#       7
#     8   8   8   8   8   8   8
#     4  10  20  33  49  68  94 124 156 194 231 271
#     4  10  18  29  45  64  90 121 151 186 226 272
#     4  10  20  32  48  69  94 124 158 192 229 274
#     4  10  19  30  45  67  94 123 154 189 227 271
#     4  10  20  33  49  68  94 124 156 194 232 272
#     4   9  19  33  47  67  92 121 155 189 226 270
#     4  11  20  30  46  67  93 123 153 188 227 272
#
# _framework density 16.227685999999999
#
# number of rings (size 3 to 8) (size 9 to 14) (size 15 to 20)
#    0.000    2.000    0.000    7.714    0.000    8.000 
#    0.000    0.000    0.000    0.000    0.000    1.000 
#    0.000    2.286    0.000    0.000    0.000    0.000 
#
# Total GULP energy -347214.208397 kJ/mol
# GULP energy per Si atom -12400.507443 kJ/mol
# Density = 1.619075 g / cm^3
# Si number density = 16.227686 Si / 1000 Ang^3
#
#
#
# Elastic Constant Matrix: (Units=GPa)
#
#
# Indices 1 2 3 4 5 6 
#
# 1 136.4113 47.5399 72.6916 0.0000 0.0000 0.0000
# 2 47.5399 91.1667 46.0972 0.0000 0.0000 0.0000
# 3 72.6916 46.0972 115.6313 0.0000 0.0000 0.0000
# 4 0.0000 0.0000 0.0000 15.9314 0.0000 0.0000
# 5 0.0000 0.0000 0.0000 0.0000 28.8917 0.0000
# 6 0.0000 0.0000 0.0000 0.0000 0.0000 26.6594
#
#
#
# Elastic Compliance Matrix: (Units=1/GPa)
#
#
# Indices 1 2 3 4 5 6 
#
# 1 0.011631 -0.002966 -0.006129 0.000000 0.000000 0.000000
# 2 -0.002966 0.014494 -0.003914 0.000000 0.000000 0.000000
# 3 -0.006129 -0.003914 0.014062 0.000000 0.000000 0.000000
# 4 0.000000 0.000000 0.000000 0.062769 0.000000 0.000000
# 5 0.000000 0.000000 0.000000 0.000000 0.034612 0.000000
# 6 0.000000 0.000000 0.000000 0.000000 0.000000 0.037510
#
#
# Mechanical properties :
#
#
# Convention : Reuss Voigt Hill
#
# Bulk Modulus (GPa) = 70.57717 75.09630 72.83674
# Shear Modulus (GPa) = 24.29322 26.08852 25.19087
#
# Velocity S-wave (km/s) = 3.87334 4.01391 3.94425
# Velocity P-wave (km/s) = 7.97433 8.23766 8.10706
#
# Compressibility (1/GPa) = 0.01416889
#
# Stress axis : x y z
#
# Youngs Moduli (GPa) = 85.98076 68.99193 71.11556
#
# Poissons Ratio (x) = 0.20461 0.43588
# Poissons Ratio (y) = 0.25499 0.27834
# Poissons Ratio (z) = 0.52699 0.27003
#
# Static dielectric constant tensor:
#      x y z
#    x 3.212540 0.000000 0.000000 
#    y 0.000000 2.885650 0.000000 
#    z 0.000000 0.000000 3.402620 
# 
# 
# High freq. dielectric constant tensor:
#      x y z
#    x 1.646020 0.000000 0.000000 
#    y 0.000000 1.590020 0.000000 
#    z 0.000000 0.000000 1.624160 
# 
# From -- ./inp_files/25235.got.cif
#   From: 2010.03.12/outbox.cif.g09.slc.cpg/sg46_13_cif.got.tgz:25235.got - 2010.04.14 02:56:35.
