data_PCOD8191681
_publ_section_title
;
Structure prediction by ZEFSAII (Michael W. Deem and Ramdas Pophale) SiO2 
 PCOD8191681
Probable space group: I M A 2
;
_chemical_formula_sum "Si O2"
_cell_formula_units_Z 64
_cell_length_a 8.802602
_cell_length_b 30.547038
_cell_length_c 14.366781
_cell_angle_alpha 90.000000
_cell_angle_beta 90.000000
_cell_angle_gamma 90.000000
_cell_volume 3863.132846
_symmetry_space_group_name_H-M "I M A 2"
_symmetry_group_IT_number 46
_symmetry_cell_setting 'orthorhombic'
loop_
_space_group_symop_operation_xyz
x,y,z
-x,-y,z
1/2-x,y,z
1/2+x,-y,z
1/2+x,1/2+y,1/2+z
1/2-x,1/2-y,1/2+z
-x,1/2+y,1/2+z
x,1/2-y,1/2+z
loop_
_atom_site_type_symbol
_atom_site_label
_atom_site_fract_x
_atom_site_fract_y
_atom_site_fract_z
Si Si1 0.080026 0.866363 0.250000
Si Si2 0.571720 0.223253 0.558750
Si Si3 0.569057 0.955020 0.959645
Si Si4 0.069726 0.955014 0.161524
Si Si5 0.569064 0.791597 0.752274
Si Si6 0.571982 0.794363 0.365289
Si Si7 0.419104 0.822995 0.051037
Si Si8 0.926504 0.634380 0.385899
O O1 0.250000 0.864050 0.292834
O O2 0.028839 0.916847 0.235560
O O3 0.079884 0.844445 0.150413
O O4 0.964061 0.840305 0.315166
O O5 0.750000 0.215171 0.564272
O O6 0.495515 0.202226 0.649360
O O7 0.508287 0.202258 0.464789
O O8 0.525787 0.273651 0.560319
O O9 0.750000 0.958646 0.968701
O O10 0.519896 0.916491 0.887125
O O11 0.500000 0.000000 0.919665
O O12 0.501493 0.944442 0.061064
O O13 0.250000 0.959096 0.148461
O O14 0.000000 0.000000 0.201664
O O15 0.750000 0.790856 0.747921
O O16 0.511504 0.747195 0.804583
O O17 0.501465 0.833996 0.807497
O O18 0.750000 0.789939 0.381150
O O19 0.250000 0.825734 0.006870
O O20 0.539915 0.846970 0.987377
O O21 0.750000 0.635966 0.368701
#
# Coordination Sequence:
#
# PCOD8191681 Si02
#       8
#     8   8   8   8   8   8   8   8
#     4  10  20  34  49  71 102 135 171 207 247 294
#     4  11  22  35  51  71  99 134 170 208 248 291
#     4  10  19  30  47  70  99 132 165 204 248 296
#     4  10  19  31  48  70 100 133 165 205 248 294
#     4  10  21  35  50  71  99 130 168 207 246 293
#     4  11  22  34  52  74  99 133 169 208 249 294
#     4  10  19  30  47  70 100 134 167 204 242 287
#     4  10  20  33  49  71  99 133 170 206 245 292
#
# _framework density 16.566865
#
# number of rings (size 3 to 8) (size 9 to 14) (size 15 to 20)
#    0.000    1.750    3.750    2.250    0.000    3.500 
#    0.000    0.000    0.000    0.000    0.000    0.875 
#    0.000    4.000    0.000    0.000    0.000    0.000 
#
# Total GULP energy -396677.968683 kJ/mol
# GULP energy per Si atom -12396.186521 kJ/mol
# Density = 1.652916 g / cm^3
# Si number density = 16.566865 Si / 1000 Ang^3
#
#
#
# Elastic Constant Matrix: (Units=GPa)
#
#
# Indices 1 2 3 4 5 6 
#
# 1 40.9407 38.8886 25.5371 0.0002 -0.0003 0.0001
# 2 38.8886 135.5594 51.3599 -0.0005 0.0002 0.0000
# 3 25.5371 51.3599 84.3475 0.0005 -0.0003 0.0002
# 4 0.0002 -0.0005 0.0005 23.1363 -0.0001 0.0001
# 5 -0.0003 0.0002 -0.0003 -0.0001 27.6800 -0.0001
# 6 0.0001 0.0000 0.0002 0.0001 -0.0001 27.0630
#
#
#
# Elastic Compliance Matrix: (Units=1/GPa)
#
#
# Indices 1 2 3 4 5 6 
#
# 1 0.035732 -0.007997 -0.005949 0.000000 0.000000 0.000000
# 2 -0.007997 0.011379 -0.004507 0.000000 0.000000 0.000000
# 3 -0.005949 -0.004507 0.016401 0.000000 0.000000 0.000000
# 4 0.000000 0.000000 0.000000 0.043222 0.000000 0.000000
# 5 0.000000 0.000000 0.000000 0.000000 0.036127 0.000000
# 6 0.000000 0.000000 0.000000 0.000000 0.000000 0.036951
#
#
# Mechanical properties :
#
#
# Convention : Reuss Voigt Hill
#
# Bulk Modulus (GPa) = 37.58564 54.71322 46.14943
# Shear Modulus (GPa) = 22.16433 25.24666 23.70550
#
# Velocity S-wave (km/s) = 3.66166 3.90798 3.78683
# Velocity P-wave (km/s) = 6.37287 7.31167 6.85835
#
# Compressibility (1/GPa) = 0.02660591
#
# Stress axis : x y z
#
# Youngs Moduli (GPa) = 27.98588 87.88370 60.97010
#
# Poissons Ratio (x) = 0.70279 0.36271
# Poissons Ratio (y) = 0.22380 0.27482
# Poissons Ratio (z) = 0.16649 0.39613
#
# Static dielectric constant tensor:
#      x y z
#    x 3.155870 0.000000 0.000000 
#    y 0.000000 3.421650 0.000000 
#    z 0.000000 0.000000 2.925200 
# 
# 
# High freq. dielectric constant tensor:
#      x y z
#    x 1.642520 0.000000 0.000000 
#    y 0.000000 1.639280 0.000000 
#    z 0.000000 0.000000 1.606580 
# 
# From -- ./inp_files/14727.got.cif
#   From: 2010.03.12/outbox.cif.g09.slc.cpg/sg46_8_cif.got.tgz:14727.got - 2010.04.14 02:56:35.
