data_PCOD8191844
_publ_section_title
;
Structure prediction by ZEFSAII (Michael W. Deem and Ramdas Pophale) SiO2 
 PCOD8191844
Probable space group: I M A 2
;
_chemical_formula_sum "Si O2"
_cell_formula_units_Z 64
_cell_length_a 8.947696
_cell_length_b 27.703655
_cell_length_c 14.516841
_cell_angle_alpha 90.000000
_cell_angle_beta 90.000000
_cell_angle_gamma 90.000000
_cell_volume 3598.490916
_symmetry_space_group_name_H-M "I M A 2"
_symmetry_group_IT_number 46
_symmetry_cell_setting 'orthorhombic'
loop_
_space_group_symop_operation_xyz
x,y,z
-x,-y,z
1/2-x,y,z
1/2+x,-y,z
1/2+x,1/2+y,1/2+z
1/2-x,1/2-y,1/2+z
-x,1/2+y,1/2+z
x,1/2-y,1/2+z
loop_
_atom_site_type_symbol
_atom_site_label
_atom_site_fract_x
_atom_site_fract_y
_atom_site_fract_z
Si Si1 0.079490 0.678922 0.505200
Si Si2 0.925391 0.550635 0.999461
Si Si3 0.426447 0.637268 0.896626
Si Si4 0.574609 0.550635 0.210345
Si Si5 0.415950 0.229597 0.456336
Si Si6 0.415950 0.270403 0.253471
Si Si7 0.426447 0.637268 0.313181
Si Si8 0.079491 0.678922 0.704606
O O1 0.250000 0.693523 0.484679
O O2 0.025470 0.645288 0.420580
O O3 0.063839 0.651952 0.604903
O O4 0.988622 0.728516 0.517030
O O5 0.750000 0.546407 0.982192
O O6 0.000000 0.500000 0.974953
O O7 0.993393 0.589229 0.929881
O O8 0.961061 0.565385 0.104903
O O9 0.250000 0.631710 0.908849
O O10 0.483108 0.681656 0.959215
O O11 0.474530 0.645288 0.789226
O O12 0.500000 0.500000 0.234853
O O13 0.750000 0.546407 0.227614
O O14 0.506607 0.589229 0.279925
O O15 0.250000 0.217076 0.493756
O O16 0.406362 0.250000 0.354903
O O17 0.250000 0.282924 0.216051
O O18 0.516892 0.318344 0.250591
O O19 0.488622 0.228516 0.192777
O O20 0.250000 0.631709 0.300958
O O21 0.250000 0.693524 0.725127
#
# Coordination Sequence:
#
# PCOD8191844 Si02
#       8
#     8   8   8   8   8   8   8   8
#     4   9  18  32  49  71 101 136 171 205 242 286
#     4  10  21  37  56  77 100 125 156 198 248 299
#     4  10  19  32  52  75 100 132 167 203 245 293
#     4  10  21  37  56  77 100 125 156 198 248 299
#     4   9  17  29  45  67  96 129 166 206 243 281
#     4   9  17  29  45  67  96 129 166 206 243 281
#     4  10  19  32  52  75 100 132 167 203 245 293
#     4   9  18  32  49  71 101 136 171 205 242 286
#
# _framework density 17.785233000000002
#
# number of rings (size 3 to 8) (size 9 to 14) (size 15 to 20)
#    0.000    2.500    0.000    2.250    0.000    7.000 
#    0.000    0.000    0.000    0.750    0.000    0.000 
#    0.000    0.000    0.000    0.000    0.000    0.000 
#
# Total GULP energy -396659.366054 kJ/mol
# GULP energy per Si atom -12395.605189 kJ/mol
# Density = 1.774475 g / cm^3
# Si number density = 17.785233 Si / 1000 Ang^3
#
#
#
# Elastic Constant Matrix: (Units=GPa)
#
#
# Indices 1 2 3 4 5 6 
#
# 1 98.7915 59.6449 42.8601 0.0000 0.0000 0.0000
# 2 59.6449 121.4966 64.0234 0.0000 0.0000 0.0000
# 3 42.8601 64.0234 101.3003 -0.0003 0.0001 0.0001
# 4 0.0000 0.0000 -0.0003 21.7378 0.0000 0.0000
# 5 0.0000 0.0000 0.0001 0.0000 17.9472 0.0000
# 6 0.0000 0.0000 0.0001 0.0000 0.0000 36.4184
#
#
#
# Elastic Compliance Matrix: (Units=1/GPa)
#
#
# Indices 1 2 3 4 5 6 
#
# 1 0.014798 -0.005945 -0.002503 0.000000 0.000000 0.000000
# 2 -0.005945 0.014729 -0.006794 0.000000 0.000000 0.000000
# 3 -0.002503 -0.006794 0.015225 0.000000 0.000000 0.000000
# 4 0.000000 0.000000 0.000000 0.046003 0.000000 0.000000
# 5 0.000000 0.000000 0.000000 0.000000 0.055719 0.000000
# 6 0.000000 0.000000 0.000000 0.000000 0.000000 0.027459
#
#
# Mechanical properties :
#
#
# Convention : Reuss Voigt Hill
#
# Bulk Modulus (GPa) = 70.09261 72.73838 71.41549
# Shear Modulus (GPa) = 23.90364 25.55799 24.73082
#
# Velocity S-wave (km/s) = 3.67006 3.79494 3.73302
# Velocity P-wave (km/s) = 7.57992 7.75816 7.66956
#
# Compressibility (1/GPa) = 0.01426684
#
# Stress axis : x y z
#
# Youngs Moduli (GPa) = 67.57707 67.89160 65.68331
#
# Poissons Ratio (x) = 0.40364 0.16443
# Poissons Ratio (y) = 0.40177 0.44623
# Poissons Ratio (z) = 0.16917 0.46124
#
# Static dielectric constant tensor:
#      x y z
#    x 3.536050 0.000000 0.000000 
#    y 0.000000 3.141650 0.000000 
#    z 0.000000 0.000000 3.320350 
# 
# 
# High freq. dielectric constant tensor:
#      x y z
#    x 1.702270 0.000000 0.000000 
#    y 0.000000 1.660630 0.000000 
#    z 0.000000 0.000000 1.685540 
# 
# From -- ./inp_files/6077.got.cif
#   From: 2010.03.12/outbox.cif.g09.slc.cpg/sg46_4_cif.got.tgz:6077.got - 2010.04.14 02:56:35.
