data_PCOD8191016
_publ_section_title
;
Structure prediction by ZEFSAII (Michael W. Deem and Ramdas Pophale) SiO2 
 PCOD8191016
Probable space group: I B A 2
;
_chemical_formula_sum "Si O2"
_cell_formula_units_Z 64
_cell_length_a 18.399906
_cell_length_b 18.892536
_cell_length_c 8.856929
_cell_angle_alpha 90.000000
_cell_angle_beta 90.000000
_cell_angle_gamma 90.000000
_cell_volume 3078.853511
_symmetry_space_group_name_H-M "I B A 2"
_symmetry_group_IT_number 45
_symmetry_cell_setting 'orthorhombic'
loop_
_space_group_symop_operation_xyz
x,y,z
-x,-y,z
-x,y,1/2+z
x,-y,1/2+z
1/2+x,1/2+y,1/2+z
1/2-x,1/2-y,1/2+z
1/2-x,1/2+y,z
1/2+x,1/2-y,z
loop_
_atom_site_type_symbol
_atom_site_label
_atom_site_fract_x
_atom_site_fract_y
_atom_site_fract_z
Si Si1 0.168016 0.942648 0.147220
Si Si2 0.167176 0.101583 0.141777
Si Si3 0.279686 0.828821 0.189319
Si Si4 0.080269 0.292369 0.362153
Si Si5 0.422323 0.630692 0.392841
Si Si6 0.718941 0.808720 0.333350
Si Si7 0.928724 0.287343 0.213896
Si Si8 0.415091 0.362274 0.365100
O O1 0.241037 0.904591 0.207553
O O2 0.107489 0.934477 0.279323
O O3 0.189990 0.021719 0.098325
O O4 0.135012 0.900773 0.007708
O O5 0.092389 0.090550 0.235709
O O6 0.228492 0.137219 0.245429
O O7 0.145277 0.149708 0.996955
O O8 0.358431 0.835258 0.269251
O O9 0.232755 0.770768 0.277590
O O10 0.278360 0.810024 0.013107
O O11 0.101944 0.210554 0.353161
O O12 0.073640 0.309242 0.539019
O O13 0.004613 0.312250 0.283367
O O14 0.506207 0.625884 0.442885
O O15 0.636463 0.830033 0.291718
O O16 0.918860 0.202853 0.246427
#
# Coordination Sequence:
#
# PCOD8191016 Si02
#       8
#     8   8   8   8   8   8   8   8
#     4  12  24  42  59  93 130 175 222 269 321 390
#     4  12  26  39  62  91 132 176 222 267 324 385
#     4  12  23  41  66  89 128 167 217 271 327 382
#     4  11  23  40  67  95 126 160 211 267 323 385
#     4  11  22  42  58  92 128 173 218 262 313 392
#     4  12  23  41  63  92 123 172 215 273 324 385
#     4  11  23  40  65  97 124 162 213 265 325 385
#     4  11  24  37  66  89 131 175 220 264 319 380
#
# _framework density 20.786957999999998
#
# number of rings (size 3 to 8) (size 9 to 14) (size 15 to 20)
#    0.000    0.500    5.000    3.750    7.000    3.000 
#    0.000    0.000    0.000    0.750    0.000    3.500 
#    0.000    0.000    0.000    0.000    0.000    0.000 
#
# Total GULP energy -396556.456630 kJ/mol
# GULP energy per Si atom -12392.389270 kJ/mol
# Density = 2.073965 g / cm^3
# Si number density = 20.786958 Si / 1000 Ang^3
#
#
#
# Elastic Constant Matrix: (Units=GPa)
#
#
# Indices 1 2 3 4 5 6 
#
# 1 96.4075 28.7315 34.7656 0.0000 0.0000 0.0000
# 2 28.7315 53.3844 11.4328 0.0000 0.0000 0.0000
# 3 34.7656 11.4328 111.5666 0.0000 0.0000 0.0000
# 4 0.0000 0.0000 0.0000 16.7326 0.0000 0.0000
# 5 0.0000 0.0000 0.0000 0.0000 45.4060 0.0000
# 6 0.0000 0.0000 0.0000 0.0000 0.0000 22.0172
#
#
#
# Elastic Compliance Matrix: (Units=1/GPa)
#
#
# Indices 1 2 3 4 5 6 
#
# 1 0.013616 -0.006564 -0.003570 0.000000 0.000000 0.000000
# 2 -0.006564 0.022316 -0.000242 0.000000 0.000000 0.000000
# 3 -0.003570 -0.000242 0.010101 0.000000 0.000000 0.000000
# 4 0.000000 0.000000 0.000000 0.059764 0.000000 0.000000
# 5 0.000000 0.000000 0.000000 0.000000 0.022024 0.000000
# 6 0.000000 0.000000 0.000000 0.000000 0.000000 0.045419
#
#
# Mechanical properties :
#
#
# Convention : Reuss Voigt Hill
#
# Bulk Modulus (GPa) = 39.55381 45.69093 42.62237
# Shear Modulus (GPa) = 24.70137 29.25973 26.98055
#
# Velocity S-wave (km/s) = 3.45093 3.75587 3.60662
# Velocity P-wave (km/s) = 5.91169 6.39039 6.15569
#
# Compressibility (1/GPa) = 0.02528202
#
# Stress axis : x y z
#
# Youngs Moduli (GPa) = 73.44151 44.81023 99.00402
#
# Poissons Ratio (x) = 0.29412 0.35348
# Poissons Ratio (y) = 0.48204 0.02391
# Poissons Ratio (z) = 0.26222 0.01082
#
# Static dielectric constant tensor:
#      x y z
#    x 3.985110 0.000000 0.000000 
#    y 0.000000 3.372810 0.000000 
#    z 0.000000 0.000000 4.072960 
# 
# 
# High freq. dielectric constant tensor:
#      x y z
#    x 1.823650 0.000000 0.000000 
#    y 0.000000 1.760870 0.000000 
#    z 0.000000 0.000000 1.839850 
# 
# From -- ./inp_files/2209.got.cif
#   From: 2010.03.12/outbox.cif.g09.slc.cpg/sg45_2_cif.got.tgz:2209.got - 2010.04.14 02:50:11.
