data_PCOD8191720
_publ_section_title
;
Structure prediction by ZEFSAII (Michael W. Deem and Ramdas Pophale) SiO2 
 PCOD8191720
Probable space group: I M A 2
;
_chemical_formula_sum "Si O2"
_cell_formula_units_Z 48
_cell_length_a 8.972187
_cell_length_b 13.712477
_cell_length_c 23.376371
_cell_angle_alpha 90.000000
_cell_angle_beta 90.000000
_cell_angle_gamma 90.000000
_cell_volume 2876.016147
_symmetry_space_group_name_H-M "I M A 2"
_symmetry_group_IT_number 46
_symmetry_cell_setting 'orthorhombic'
loop_
_space_group_symop_operation_xyz
x,y,z
-x,-y,z
1/2-x,y,z
1/2+x,-y,z
1/2+x,1/2+y,1/2+z
1/2-x,1/2-y,1/2+z
-x,1/2+y,1/2+z
x,1/2-y,1/2+z
loop_
_atom_site_type_symbol
_atom_site_label
_atom_site_fract_x
_atom_site_fract_y
_atom_site_fract_z
Si Si1 0.077840 0.597689 0.997550
Si Si2 0.074835 0.899478 0.626133
Si Si3 0.074392 0.396755 0.336747
Si Si4 0.579654 0.711483 0.221141
Si Si5 0.074992 0.782250 0.389301
Si Si6 0.575255 0.600131 0.790857
O O1 0.250000 0.571796 0.998633
O O2 0.043953 0.686285 0.954654
O O3 0.000000 0.500000 0.975262
O O4 0.024183 0.626535 0.061439
O O5 0.250000 0.911934 0.631845
O O6 0.022732 0.811859 0.666893
O O7 0.000000 0.000000 0.646640
O O8 0.250000 0.402327 0.347664
O O9 0.037606 0.360649 0.272972
O O10 0.000000 0.500000 0.347614
O O11 0.003418 0.321781 0.381824
O O12 0.750000 0.696294 0.203048
O O13 0.549699 0.822475 0.240036
O O14 0.250000 0.774115 0.375652
O O15 0.003078 0.863363 0.348469
O O16 0.500000 0.500000 0.770646
O O17 0.750000 0.586002 0.803433
#
# Coordination Sequence:
#
# PCOD8191720 Si02
#       6
#     8   8   8   8   8   8
#     4   9  19  32  47  70  97 125 156 192 232 276
#     4  10  19  31  48  70  96 125 157 192 232 277
#     4  10  20  33  49  71  98 126 158 195 236 281
#     4   9  19  33  48  69  96 124 155 192 232 277
#     4  10  19  32  50  71  97 127 159 194 234 279
#     4  10  20  33  49  71  98 125 157 195 236 282
#
# _framework density 16.689754000000001
#
# number of rings (size 3 to 8) (size 9 to 14) (size 15 to 20)
#    0.000    2.333    0.000    4.000    0.000    8.667 
#    0.000    0.000    0.000    1.000    0.000    2.333 
#    0.000    0.000    0.000    0.000    0.000    0.000 
#
# Total GULP energy -297645.828912 kJ/mol
# GULP energy per Si atom -12401.909538 kJ/mol
# Density = 1.665177 g / cm^3
# Si number density = 16.689754 Si / 1000 Ang^3
#
#
#
# Elastic Constant Matrix: (Units=GPa)
#
#
# Indices 1 2 3 4 5 6 
#
# 1 93.4402 58.7230 50.9235 0.0000 0.0000 0.0000
# 2 58.7230 127.1968 57.5532 0.0000 0.0000 0.0000
# 3 50.9235 57.5532 88.9232 0.0000 0.0000 0.0000
# 4 0.0000 0.0000 0.0000 11.6432 0.0000 0.0000
# 5 0.0000 0.0000 0.0000 0.0000 24.2859 0.0000
# 6 0.0000 0.0000 0.0000 0.0000 0.0000 34.0055
#
#
#
# Elastic Compliance Matrix: (Units=1/GPa)
#
#
# Indices 1 2 3 4 5 6 
#
# 1 0.017575 -0.005034 -0.006807 0.000000 0.000000 0.000000
# 2 -0.005034 0.012560 -0.005246 0.000000 0.000000 0.000000
# 3 -0.006807 -0.005246 0.018539 0.000000 0.000000 0.000000
# 4 0.000000 0.000000 0.000000 0.085887 0.000000 0.000000
# 5 0.000000 0.000000 0.000000 0.000000 0.041176 0.000000
# 6 0.000000 0.000000 0.000000 0.000000 0.000000 0.029407
#
#
# Mechanical properties :
#
#
# Convention : Reuss Voigt Hill
#
# Bulk Modulus (GPa) = 68.96385 71.55106 70.25746
# Shear Modulus (GPa) = 20.47915 23.47763 21.97839
#
# Velocity S-wave (km/s) = 3.50673 3.75468 3.63282
# Velocity P-wave (km/s) = 7.60309 7.85883 7.73201
#
# Compressibility (1/GPa) = 0.01450035
#
# Stress axis : x y z
#
# Youngs Moduli (GPa) = 56.89814 79.62017 53.94074
#
# Poissons Ratio (x) = 0.40082 0.36715
# Poissons Ratio (y) = 0.28644 0.28297
# Poissons Ratio (z) = 0.38728 0.41768
#
# Static dielectric constant tensor:
#      x y z
#    x 3.235280 0.000000 0.000000 
#    y 0.000000 3.254180 0.000000 
#    z 0.000000 0.000000 3.133810 
# 
# 
# High freq. dielectric constant tensor:
#      x y z
#    x 1.658250 0.000000 0.000000 
#    y 0.000000 1.634270 0.000000 
#    z 0.000000 0.000000 1.629830 
# 
# From -- ./inp_files/20908.got.cif
#   From: 2010.03.12/outbox.cif.g09.slc.cpg/sg46_11_cif.got.tgz:20908.got - 2010.04.14 02:56:35.
