data_PCOD8191502
_publ_section_title
;
Structure prediction by ZEFSAII (Michael W. Deem and Ramdas Pophale) SiO2 
 PCOD8191502
Probable space group: I M A 2
;
_chemical_formula_sum "Si O2"
_cell_formula_units_Z 64
_cell_length_a 18.140954
_cell_length_b 13.234892
_cell_length_c 13.865386
_cell_angle_alpha 90.000000
_cell_angle_beta 90.000000
_cell_angle_gamma 90.000000
_cell_volume 3328.989982
_symmetry_space_group_name_H-M "I M A 2"
_symmetry_group_IT_number 46
_symmetry_cell_setting 'orthorhombic'
loop_
_space_group_symop_operation_xyz
x,y,z
-x,-y,z
1/2-x,y,z
1/2+x,-y,z
1/2+x,1/2+y,1/2+z
1/2-x,1/2-y,1/2+z
-x,1/2+y,1/2+z
x,1/2-y,1/2+z
loop_
_atom_site_type_symbol
_atom_site_label
_atom_site_fract_x
_atom_site_fract_y
_atom_site_fract_z
Si Si1 0.015351 0.697114 0.931730
Si Si2 0.962580 0.600944 0.528924
Si Si3 0.834615 0.995227 0.714702
Si Si4 0.331160 0.773296 0.964603
Si Si5 0.015351 0.802886 0.218081
Si Si6 0.668840 0.273297 0.185209
Si Si7 0.665385 0.995227 0.935116
Si Si8 0.537421 0.600944 0.120888
O O1 0.984925 0.670611 0.824906
O O2 0.988479 0.806299 0.964987
O O3 0.982939 0.616244 0.007878
O O4 0.104968 0.699009 0.924998
O O5 0.982939 0.616243 0.641934
O O6 0.876159 0.580116 0.509458
O O7 0.000000 0.500000 0.488539
O O8 0.750000 0.981491 0.687753
O O9 0.857656 0.111980 0.700695
O O10 0.851110 0.963348 0.824909
O O11 0.876159 0.919885 0.640358
O O12 0.250000 0.755503 0.915396
O O13 0.322827 0.749990 0.074904
O O14 0.357656 0.888021 0.949130
O O15 0.988480 0.693701 0.184825
O O16 0.104968 0.800994 0.224809
O O17 0.750000 0.255497 0.234414
O O18 0.750000 0.981490 0.962063
O O19 0.500000 0.500000 0.161272
#
# Coordination Sequence:
#
# PCOD8191502 Si02
#       8
#     8   8   8   8   8   8   8   8
#     4  11  22  35  54  84 113 148 194 233 279 337
#     4  11  21  37  56  80 114 151 185 233 286 328
#     4  10  20  34  57  85 110 145 191 234 280 333
#     4  10  18  32  53  82 119 149 178 225 285 344
#     4  11  22  35  54  84 113 148 194 233 279 337
#     4  10  18  32  53  82 119 149 178 225 285 344
#     4  10  20  34  57  85 110 145 191 234 280 333
#     4  11  21  37  56  80 114 151 185 233 286 328
#
# _framework density 19.225051000000001
#
# number of rings (size 3 to 8) (size 9 to 14) (size 15 to 20)
#    0.000    1.500    5.000    1.500    0.000    3.000 
#    0.000    2.500    0.000    2.250    0.000    0.000 
#    0.000    0.000    0.000    0.000    0.000    0.000 
#
# Total GULP energy -396509.210797 kJ/mol
# GULP energy per Si atom -12390.912837 kJ/mol
# Density = 1.918129 g / cm^3
# Si number density = 19.225051 Si / 1000 Ang^3
#
#
#
# Elastic Constant Matrix: (Units=GPa)
#
#
# Indices 1 2 3 4 5 6 
#
# 1 105.9983 31.8855 43.0857 0.0000 0.0000 0.0000
# 2 31.8855 49.2862 12.1280 0.0000 0.0000 0.0000
# 3 43.0857 12.1280 106.7645 0.0000 0.0000 0.0000
# 4 0.0000 0.0000 0.0000 6.8276 0.0000 0.0000
# 5 0.0000 0.0000 0.0000 0.0000 21.9416 0.0000
# 6 0.0000 0.0000 0.0000 0.0000 0.0000 34.0554
#
#
#
# Elastic Compliance Matrix: (Units=1/GPa)
#
#
# Indices 1 2 3 4 5 6 
#
# 1 0.013623 -0.007675 -0.004626 0.000000 0.000000 0.000000
# 2 -0.007675 0.025197 0.000235 0.000000 0.000000 0.000000
# 3 -0.004626 0.000235 0.011207 0.000000 0.000000 0.000000
# 4 0.000000 0.000000 0.000000 0.146464 0.000000 0.000000
# 5 0.000000 0.000000 0.000000 0.000000 0.045575 0.000000
# 6 0.000000 0.000000 0.000000 0.000000 0.000000 0.029364
#
#
# Mechanical properties :
#
#
# Convention : Reuss Voigt Hill
#
# Bulk Modulus (GPa) = 38.61752 48.47193 43.54473
# Shear Modulus (GPa) = 16.43691 24.22826 20.33258
#
# Velocity S-wave (km/s) = 2.92716 3.55384 3.25562
# Velocity P-wave (km/s) = 5.61739 6.48902 6.06887
#
# Compressibility (1/GPa) = 0.02589498
#
# Stress axis : x y z
#
# Youngs Moduli (GPa) = 73.40418 39.68693 89.23377
#
# Poissons Ratio (x) = 0.30460 0.41279
# Poissons Ratio (y) = 0.56339 -0.02098
# Poissons Ratio (z) = 0.33956 -0.00933
#
# Static dielectric constant tensor:
#      x y z
#    x 3.974440 0.000000 0.000000 
#    y 0.000000 3.371900 0.000000 
#    z 0.000000 0.000000 3.553850 
# 
# 
# High freq. dielectric constant tensor:
#      x y z
#    x 1.753460 0.000000 0.000000 
#    y 0.000000 1.717290 0.000000 
#    z 0.000000 0.000000 1.749270 
# 
# From -- ./inp_files/16790.got.cif
#   From: 2010.03.12/outbox.cif.g09.slc.cpg/sg46_9_cif.got.tgz:16790.got - 2010.04.14 02:56:35.
