data_PCOD8191201
_publ_section_title
;
Structure prediction by ZEFSAII (Michael W. Deem and Ramdas Pophale) SiO2 
 PCOD8191201
Probable space group: I M A 2
;
_chemical_formula_sum "Si O2"
_cell_formula_units_Z 64
_cell_length_a 21.710046
_cell_length_b 19.960573
_cell_length_c 8.687292
_cell_angle_alpha 90.000000
_cell_angle_beta 90.000000
_cell_angle_gamma 90.000000
_cell_volume 3764.594187
_symmetry_space_group_name_H-M "I M A 2"
_symmetry_group_IT_number 46
_symmetry_cell_setting 'orthorhombic'
loop_
_space_group_symop_operation_xyz
x,y,z
-x,-y,z
1/2-x,y,z
1/2+x,-y,z
1/2+x,1/2+y,1/2+z
1/2-x,1/2-y,1/2+z
-x,1/2+y,1/2+z
x,1/2-y,1/2+z
loop_
_atom_site_type_symbol
_atom_site_label
_atom_site_fract_x
_atom_site_fract_y
_atom_site_fract_z
Si Si1 0.121813 0.684664 0.529620
Si Si2 0.081134 0.550169 0.483788
Si Si3 0.679387 0.205462 0.718412
Si Si4 0.978123 0.797211 0.959809
Si Si5 0.946932 0.924426 0.117653
Si Si6 0.404116 0.589065 0.134438
Si Si7 0.064895 0.034029 0.467418
Si Si8 0.971714 0.838902 0.612911
O O1 0.128339 0.604323 0.559353
O O2 0.138713 0.729582 0.674498
O O3 0.171233 0.703781 0.400442
O O4 0.051597 0.696081 0.477148
O O5 0.099073 0.472776 0.517932
O O6 0.075609 0.561383 0.301612
O O7 0.017185 0.559779 0.574213
O O8 0.750000 0.215404 0.672548
O O9 0.655911 0.136320 0.641500
O O10 0.960969 0.814709 0.785756
O O11 0.938958 0.846418 0.073116
O O12 0.957289 0.722126 0.997535
O O13 0.930138 0.940359 0.293584
O O14 0.459100 0.636490 0.075019
O O15 0.388676 0.526161 0.019934
O O16 0.074207 0.099386 0.575243
O O17 0.000000 0.000000 0.503717
#
# Coordination Sequence:
#
# PCOD8191201 Si02
#       8
#     8   8   8   8   8   8   8   8
#     4  10  19  32  44  62  84 115 153 200 235 270
#     4   9  17  29  43  60  84 113 148 184 232 273
#     4  11  21  34  48  63  85 119 164 208 243 268
#     4  11  18  30  46  62  94 119 154 186 224 276
#     4  10  17  29  43  67  85 114 148 185 221 277
#     4  10  19  32  44  62  87 119 153 195 239 269
#     4  10  20  27  43  64  89 114 150 187 223 276
#     4  11  19  29  43  65  89 126 150 184 225 273
#
# _framework density 17.000505
#
# number of rings (size 3 to 8) (size 9 to 14) (size 15 to 20)
#    0.000    1.750    6.250    1.875    3.500    2.000 
#    0.000    0.000    0.000    0.000    0.000    0.000 
#    0.000    0.000    0.000   19.125    0.000    0.750 
#
# Total GULP energy -396425.731539 kJ/mol
# GULP energy per Si atom -12388.304111 kJ/mol
# Density = 1.696181 g / cm^3
# Si number density = 17.000505 Si / 1000 Ang^3
#
#
#
# Elastic Constant Matrix: (Units=GPa)
#
#
# Indices 1 2 3 4 5 6 
#
# 1 24.5746 20.8230 15.5607 0.0000 0.0000 0.0000
# 2 20.8230 146.7495 52.9621 0.0000 0.0000 0.0000
# 3 15.5607 52.9621 81.9984 0.0000 0.0000 0.0000
# 4 0.0000 0.0000 0.0000 36.5724 0.0000 0.0000
# 5 0.0000 0.0000 0.0000 0.0000 8.6586 0.0000
# 6 0.0000 0.0000 0.0000 0.0000 0.0000 10.7543
#
#
#
# Elastic Compliance Matrix: (Units=1/GPa)
#
#
# Indices 1 2 3 4 5 6 
#
# 1 0.048566 -0.004649 -0.006214 0.000000 0.000000 0.000000
# 2 -0.004649 0.009331 -0.005144 0.000000 0.000000 0.000000
# 3 -0.006214 -0.005144 0.016697 0.000000 0.000000 0.000000
# 4 0.000000 0.000000 0.000000 0.027343 0.000000 0.000000
# 5 0.000000 0.000000 0.000000 0.000000 0.115492 0.000000
# 6 0.000000 0.000000 0.000000 0.000000 0.000000 0.092986
#
#
# Mechanical properties :
#
#
# Convention : Reuss Voigt Hill
#
# Bulk Modulus (GPa) = 23.48513 48.00157 35.74335
# Shear Modulus (GPa) = 14.02048 22.12886 18.07467
#
# Velocity S-wave (km/s) = 2.87489 3.61176 3.26419
# Velocity P-wave (km/s) = 4.98642 6.75942 5.93945
#
# Compressibility (1/GPa) = 0.04258014
#
# Stress axis : x y z
#
# Youngs Moduli (GPa) = 20.59059 107.17458 59.89016
#
# Poissons Ratio (x) = 0.49822 0.37214
# Poissons Ratio (y) = 0.09572 0.30810
# Poissons Ratio (z) = 0.12794 0.55135
#
# Static dielectric constant tensor:
#      x y z
#    x 2.533570 0.000000 0.000000 
#    y 0.000000 4.239810 0.000000 
#    z 0.000000 0.000000 3.182660 
# 
# 
# High freq. dielectric constant tensor:
#      x y z
#    x 1.560210 0.000000 0.000000 
#    y 0.000000 1.684090 0.000000 
#    z 0.000000 0.000000 1.662750 
# 
# From -- ./inp_files/8045.got.cif
#   From: 2010.03.12/outbox.cif.g09.slc.cpg/sg46_5_cif.got.tgz:8045.got - 2010.04.14 02:56:35.
