data_PCOD8191938
_publ_section_title
;
Structure prediction by ZEFSAII (Michael W. Deem and Ramdas Pophale) SiO2 
 PCOD8191938
Probable space group: I M A 2
;
_chemical_formula_sum "Si O2"
_cell_formula_units_Z 48
_cell_length_a 8.903026
_cell_length_b 9.593334
_cell_length_c 30.730834
_cell_angle_alpha 90.000000
_cell_angle_beta 90.000000
_cell_angle_gamma 90.000000
_cell_volume 2624.711375
_symmetry_space_group_name_H-M "I M A 2"
_symmetry_group_IT_number 46
_symmetry_cell_setting 'orthorhombic'
loop_
_space_group_symop_operation_xyz
x,y,z
-x,-y,z
1/2-x,y,z
1/2+x,-y,z
1/2+x,1/2+y,1/2+z
1/2-x,1/2-y,1/2+z
-x,1/2+y,1/2+z
x,1/2-y,1/2+z
loop_
_atom_site_type_symbol
_atom_site_label
_atom_site_fract_x
_atom_site_fract_y
_atom_site_fract_z
Si Si1 0.421830 0.145011 0.973280
Si Si2 0.427771 0.347008 0.378500
Si Si3 0.572182 0.348746 0.807363
Si Si4 0.072655 0.643549 0.133668
Si Si5 0.573123 0.651082 0.566973
Si Si6 0.424941 0.641586 0.232591
O O1 0.250000 0.105115 0.972896
O O2 0.461331 0.217825 0.927094
O O3 0.500000 0.000000 0.974593
O O4 0.457907 0.224043 0.019112
O O5 0.500000 0.500000 0.372759
O O6 0.250000 0.357429 0.368992
O O7 0.505222 0.238385 0.346866
O O8 0.500000 0.500000 0.806037
O O9 0.750000 0.362082 0.813247
O O10 0.527992 0.271170 0.762592
O O11 0.250000 0.634278 0.128049
O O12 0.024779 0.675740 0.183376
O O13 0.000000 0.500000 0.117823
O O14 0.007635 0.764238 0.104295
O O15 0.500000 0.500000 0.567584
O O16 0.750000 0.641605 0.576886
O O17 0.500000 0.500000 0.250077
O O18 0.250000 0.613058 0.235239
#
# Coordination Sequence:
#
# PCOD8191938 Si02
#       6
#     8   8   8   8   8   8
#     4   8  16  30  50  75 104 135 172 213 255 301
#     4  10  19  34  56  81 106 137 175 216 257 306
#     4  11  23  38  54  77 107 139 172 213 262 312
#     4  10  20  36  55  78 106 138 174 215 259 308
#     4  10  19  33  53  79 108 140 175 215 259 307
#     4   9  20  37  57  78 102 133 173 214 257 308
#
# _framework density 18.287725999999999
#
# number of rings (size 3 to 8) (size 9 to 14) (size 15 to 20)
#    0.000    2.333    0.000    2.500    0.000    5.333 
#    0.000    2.500    0.000    0.000    0.000    0.000 
#    0.000    0.000    0.000    0.000    0.000    0.000 
#
# Total GULP energy -297387.589979 kJ/mol
# GULP energy per Si atom -12391.149582 kJ/mol
# Density = 1.824610 g / cm^3
# Si number density = 18.287726 Si / 1000 Ang^3
#
#
#
# Elastic Constant Matrix: (Units=GPa)
#
#
# Indices 1 2 3 4 5 6 
#
# 1 83.2800 52.3342 59.4948 0.0000 0.0000 0.0000
# 2 52.3342 114.9164 78.8465 0.0000 0.0000 0.0000
# 3 59.4948 78.8465 136.0607 0.0000 0.0000 0.0000
# 4 0.0000 0.0000 0.0000 21.7668 0.0000 0.0000
# 5 0.0000 0.0000 0.0000 0.0000 27.6423 0.0000
# 6 0.0000 0.0000 0.0000 0.0000 0.0000 34.0131
#
#
#
# Elastic Compliance Matrix: (Units=1/GPa)
#
#
# Indices 1 2 3 4 5 6 
#
# 1 0.018990 -0.004899 -0.005465 0.000000 0.000000 0.000000
# 2 -0.004899 0.015709 -0.006961 0.000000 0.000000 0.000000
# 3 -0.005465 -0.006961 0.013773 0.000000 0.000000 0.000000
# 4 0.000000 0.000000 0.000000 0.045942 0.000000 0.000000
# 5 0.000000 0.000000 0.000000 0.000000 0.036176 0.000000
# 6 0.000000 0.000000 0.000000 0.000000 0.000000 0.029400
#
#
# Mechanical properties :
#
#
# Convention : Reuss Voigt Hill
#
# Bulk Modulus (GPa) = 72.34482 79.51201 75.92842
# Shear Modulus (GPa) = 25.09419 26.25654 25.67537
#
# Velocity S-wave (km/s) = 3.70832 3.79324 3.75102
# Velocity P-wave (km/s) = 7.61450 7.92197 7.76976
#
# Compressibility (1/GPa) = 0.01382269
#
# Stress axis : x y z
#
# Youngs Moduli (GPa) = 52.65850 63.65667 72.60348
#
# Poissons Ratio (x) = 0.31184 0.39678
# Poissons Ratio (y) = 0.25796 0.50542
# Poissons Ratio (z) = 0.28778 0.44314
#
# Static dielectric constant tensor:
#      x y z
#    x 3.490530 0.000000 0.000000 
#    y 0.000000 3.123750 0.000000 
#    z 0.000000 0.000000 4.164300 
# 
# 
# High freq. dielectric constant tensor:
#      x y z
#    x 1.723130 0.000000 0.000000 
#    y 0.000000 1.678570 0.000000 
#    z 0.000000 0.000000 1.732680 
# 
# From -- ./inp_files/24969.got.cif
#   From: 2010.03.12/outbox.cif.g09.slc.cpg/sg46_13_cif.got.tgz:24969.got - 2010.04.14 02:56:35.
