data_PCOD8191946
_publ_section_title
;
Structure prediction by ZEFSAII (Michael W. Deem and Ramdas Pophale) SiO2 
 PCOD8191946
Probable space group: I M A 2
;
_chemical_formula_sum "Si O2"
_cell_formula_units_Z 48
_cell_length_a 31.690626
_cell_length_b 9.047003
_cell_length_c 8.832541
_cell_angle_alpha 90.000000
_cell_angle_beta 90.000000
_cell_angle_gamma 90.000000
_cell_volume 2532.335332
_symmetry_space_group_name_H-M "I M A 2"
_symmetry_group_IT_number 46
_symmetry_cell_setting 'orthorhombic'
loop_
_space_group_symop_operation_xyz
x,y,z
-x,-y,z
1/2-x,y,z
1/2+x,-y,z
1/2+x,1/2+y,1/2+z
1/2-x,1/2-y,1/2+z
-x,1/2+y,1/2+z
x,1/2-y,1/2+z
loop_
_atom_site_type_symbol
_atom_site_label
_atom_site_fract_x
_atom_site_fract_y
_atom_site_fract_z
Si Si1 0.377251 0.570869 0.184250
Si Si2 0.166422 0.357026 0.826230
Si Si3 0.454180 0.065375 0.177777
Si Si4 0.112960 0.878281 0.333434
Si Si5 0.297314 0.389394 0.134685
Si Si6 0.082153 0.183104 0.863763
O O1 0.378028 0.710399 0.293472
O O2 0.329111 0.513773 0.195070
O O3 0.409744 0.448413 0.244990
O O4 0.391029 0.609403 0.014503
O O5 0.150859 0.517978 0.770329
O O6 0.188506 0.272102 0.690651
O O7 0.125350 0.273023 0.895107
O O8 0.201459 0.378301 0.954385
O O9 0.452731 0.206223 0.291424
O O10 0.500000 0.000000 0.147977
O O11 0.429701 0.928519 0.252042
O O12 0.433965 0.115646 0.019834
O O13 0.250000 0.428827 0.188080
#
# Coordination Sequence:
#
# PCOD8191946 Si02
#       6
#     8   8   8   8   8   8
#     4  10  21  37  59  79 110 150 185 222 272 336
#     4   9  18  34  57  77 104 142 181 220 268 331
#     4  11  23  38  59  86 112 141 183 232 273 317
#     4  10  20  37  57  81 108 146 187 223 273 334
#     4  10  19  33  53  81 108 139 182 230 272 317
#     4  10  20  39  59  80 111 148 183 219 270 333
#
# _framework density 18.954837000000001
#
# number of rings (size 3 to 8) (size 9 to 14) (size 15 to 20)
#    0.000    2.000    0.000    6.500    0.000    4.000 
#    0.000    5.833    0.000    0.000    0.000    0.000 
#    0.000    0.000    0.000    0.000    0.000    0.000 
#
# Total GULP energy -297579.293190 kJ/mol
# GULP energy per Si atom -12399.137216 kJ/mol
# Density = 1.891169 g / cm^3
# Si number density = 18.954837 Si / 1000 Ang^3
#
#
#
# Elastic Constant Matrix: (Units=GPa)
#
#
# Indices 1 2 3 4 5 6 
#
# 1 88.2984 25.9627 18.9672 0.0000 0.0000 0.0000
# 2 25.9627 112.0500 22.9679 0.0000 0.0000 0.0000
# 3 18.9672 22.9679 64.6379 0.0000 0.0000 0.0000
# 4 0.0000 0.0000 0.0000 35.4910 0.0000 0.0000
# 5 0.0000 0.0000 0.0000 0.0000 20.0572 0.0000
# 6 0.0000 0.0000 0.0000 0.0000 0.0000 16.9498
#
#
#
# Elastic Compliance Matrix: (Units=1/GPa)
#
#
# Indices 1 2 3 4 5 6 
#
# 1 0.012630 -0.002337 -0.002876 0.000000 0.000000 0.000000
# 2 -0.002337 0.010058 -0.002888 0.000000 0.000000 0.000000
# 3 -0.002876 -0.002888 0.017341 0.000000 0.000000 0.000000
# 4 0.000000 0.000000 0.000000 0.028176 0.000000 0.000000
# 5 0.000000 0.000000 0.000000 0.000000 0.049858 0.000000
# 6 0.000000 0.000000 0.000000 0.000000 0.000000 0.058998
#
#
# Mechanical properties :
#
#
# Convention : Reuss Voigt Hill
#
# Bulk Modulus (GPa) = 41.96876 44.53132 43.25004
# Shear Modulus (GPa) = 24.85029 27.63883 26.24456
#
# Velocity S-wave (km/s) = 3.62474 3.82270 3.72504
# Velocity P-wave (km/s) = 6.30141 6.55961 6.43181
#
# Compressibility (1/GPa) = 0.02382724
#
# Stress axis : x y z
#
# Youngs Moduli (GPa) = 79.17581 99.42225 57.66710
#
# Poissons Ratio (x) = 0.23235 0.16584
# Poissons Ratio (y) = 0.18503 0.16655
# Poissons Ratio (z) = 0.22769 0.28715
#
# Static dielectric constant tensor:
#      x y z
#    x 3.348360 0.000000 0.000000 
#    y 0.000000 3.658020 0.000000 
#    z 0.000000 0.000000 3.465300 
# 
# 
# High freq. dielectric constant tensor:
#      x y z
#    x 1.717730 0.000000 0.000000 
#    y 0.000000 1.742270 0.000000 
#    z 0.000000 0.000000 1.744180 
# 
# From -- ./inp_files/8380.got.cif
#   From: 2010.03.12/outbox.cif.g09.slc.cpg/sg46_5_cif.got.tgz:8380.got - 2010.04.14 02:56:35.
