data_PCOD8191387
_publ_section_title
;
Structure prediction by ZEFSAII (Michael W. Deem and Ramdas Pophale) SiO2 
 PCOD8191387
Probable space group: I M A 2
;
_chemical_formula_sum "Si O2"
_cell_formula_units_Z 40
_cell_length_a 19.285462
_cell_length_b 20.283091
_cell_length_c 4.926826
_cell_angle_alpha 90.000000
_cell_angle_beta 90.000000
_cell_angle_gamma 90.000000
_cell_volume 1927.220519
_symmetry_space_group_name_H-M "I M A 2"
_symmetry_group_IT_number 46
_symmetry_cell_setting 'orthorhombic'
loop_
_space_group_symop_operation_xyz
x,y,z
-x,-y,z
1/2-x,y,z
1/2+x,-y,z
1/2+x,1/2+y,1/2+z
1/2-x,1/2-y,1/2+z
-x,1/2+y,1/2+z
x,1/2-y,1/2+z
loop_
_atom_site_type_symbol
_atom_site_label
_atom_site_fract_x
_atom_site_fract_y
_atom_site_fract_z
Si Si1 0.519139 0.574657 0.243460
Si Si2 0.750000 0.536202 0.695315
Si Si3 0.612467 0.407079 0.946119
Si Si4 0.750000 0.448055 0.193612
Si Si5 0.602304 0.943572 0.260078
Si Si6 0.170479 0.706880 0.629962
O O1 0.500000 0.500000 0.186233
O O2 0.543820 0.583787 0.552175
O O3 0.450788 0.614149 0.147183
O O4 0.584298 0.591024 0.045509
O O5 0.750000 0.471591 0.504640
O O6 0.820885 0.578132 0.655487
O O7 0.750000 0.512952 0.007181
O O8 0.601096 0.476602 0.788484
O O9 0.619980 0.353120 0.709441
O O10 0.680825 0.406040 0.137265
O O11 0.250000 0.682625 0.660851
O O12 0.155529 0.730353 0.324877
#
# Coordination Sequence:
#
# PCOD8191387 Si02
#       6
#     8   4   8   4   8   8
#     4  10  19  30  46  68  95 121 159 202 245 300
#     4  10  18  30  44  63  96 120 154 197 220 294
#     4  10  20  35  51  68  99 133 168 214 255 293
#     4  10  20  28  44  67  82 126 172 189 240 282
#     4  10  20  31  46  71  93 125 162 195 244 305
#     4  10  22  37  51  71  97 131 182 230 256 278
#
# _framework density 20.755279000000002
#
# number of rings (size 3 to 8) (size 9 to 14) (size 15 to 20)
#    0.000    2.000    1.000    5.400    0.000    9.600 
#    0.000    0.000    0.000    0.000    0.000    0.000 
#    0.000    0.000    0.000   18.000    0.000   13.800 
#
# Total GULP energy -247873.648862 kJ/mol
# GULP energy per Si atom -12393.682443 kJ/mol
# Density = 2.070804 g / cm^3
# Si number density = 20.755279 Si / 1000 Ang^3
#
#
#
# Elastic Constant Matrix: (Units=GPa)
#
#
# Indices 1 2 3 4 5 6 
#
# 1 109.9454 1.5138 15.1865 0.0000 0.0000 0.0000
# 2 1.5138 17.3473 -5.7877 0.0000 0.0000 0.0000
# 3 15.1865 -5.7877 71.3470 0.0000 0.0000 0.0000
# 4 0.0000 0.0000 0.0000 5.5875 0.0000 0.0000
# 5 0.0000 0.0000 0.0000 0.0000 29.4878 0.0000
# 6 0.0000 0.0000 0.0000 0.0000 0.0000 15.3973
#
#
#
# Elastic Compliance Matrix: (Units=1/GPa)
#
#
# Indices 1 2 3 4 5 6 
#
# 1 0.009410 -0.001531 -0.002127 0.000000 0.000000 0.000000
# 2 -0.001531 0.059499 0.005152 0.000000 0.000000 0.000000
# 3 -0.002127 0.005152 0.014887 0.000000 0.000000 0.000000
# 4 0.000000 0.000000 0.000000 0.178971 0.000000 0.000000
# 5 0.000000 0.000000 0.000000 0.000000 0.033912 0.000000
# 6 0.000000 0.000000 0.000000 0.000000 0.000000 0.064947
#
#
# Mechanical properties :
#
#
# Convention : Reuss Voigt Hill
#
# Bulk Modulus (GPa) = 11.52283 24.49610 18.00947
# Shear Modulus (GPa) = 12.90104 22.60965 17.75535
#
# Velocity S-wave (km/s) = 2.49585 3.30410 2.92800
# Velocity P-wave (km/s) = 3.72418 5.13654 4.48629
#
# Compressibility (1/GPa) = 0.08678423
#
# Stress axis : x y z
#
# Youngs Moduli (GPa) = 106.26625 16.80711 67.17380
#
# Poissons Ratio (x) = 0.02573 0.14289
# Poissons Ratio (y) = 0.16268 -0.34610
# Poissons Ratio (z) = 0.22605 -0.08660
#
# Static dielectric constant tensor:
#      x y z
#    x 4.371720 0.000000 0.000000 
#    y 0.000000 2.962290 0.000000 
#    z 0.000000 0.000000 3.837630 
# 
# 
# High freq. dielectric constant tensor:
#      x y z
#    x 1.822760 0.000000 0.000000 
#    y 0.000000 1.709620 0.000000 
#    z 0.000000 0.000000 1.835460 
# 
# From -- ./inp_files/1651.got.cif
#   From: 2010.03.12/outbox.cif.g09.slc.cpg/sg46_1_cif.got.tgz:1651.got - 2010.04.14 02:56:35.
