data_PCOD8191725
_publ_section_title
;
Structure prediction by ZEFSAII (Michael W. Deem and Ramdas Pophale) SiO2 
 PCOD8191725
Probable space group: I M A 2
;
_chemical_formula_sum "Si O2"
_cell_formula_units_Z 64
_cell_length_a 8.825894
_cell_length_b 29.983498
_cell_length_c 14.375353
_cell_angle_alpha 90.000000
_cell_angle_beta 90.000000
_cell_angle_gamma 90.000000
_cell_volume 3804.166557
_symmetry_space_group_name_H-M "I M A 2"
_symmetry_group_IT_number 46
_symmetry_cell_setting 'orthorhombic'
loop_
_space_group_symop_operation_xyz
x,y,z
-x,-y,z
1/2-x,y,z
1/2+x,-y,z
1/2+x,1/2+y,1/2+z
1/2-x,1/2-y,1/2+z
-x,1/2+y,1/2+z
x,1/2-y,1/2+z
loop_
_atom_site_type_symbol
_atom_site_label
_atom_site_fract_x
_atom_site_fract_y
_atom_site_fract_z
Si Si1 0.926667 0.044874 0.372740
Si Si2 0.929540 0.953771 0.572156
Si Si3 0.424982 0.798428 0.131267
Si Si4 0.079275 0.325265 0.961115
Si Si5 0.078419 0.277744 0.448109
Si Si6 0.429241 0.785756 0.750208
Si Si7 0.426833 0.631659 0.128566
Si Si8 0.422112 0.637489 0.791036
O O1 0.750000 0.036759 0.393708
O O2 0.952505 0.084449 0.298310
O O3 0.009003 0.057404 0.469033
O O4 0.000000 0.000000 0.330149
O O5 0.750000 0.957512 0.570287
O O6 0.982143 0.914586 0.642382
O O7 0.000000 0.000000 0.608607
O O8 0.250000 0.789099 0.108674
O O9 0.511242 0.805468 0.034260
O O10 0.490896 0.757005 0.192505
O O11 0.448411 0.844914 0.186567
O O12 0.250000 0.342239 0.981743
O O13 0.066190 0.273167 0.979123
O O14 0.959411 0.350224 0.025568
O O15 0.037269 0.335286 0.855082
O O16 0.250000 0.292721 0.430589
O O17 0.987305 0.286614 0.354708
O O18 0.250000 0.783122 0.753018
O O19 0.484506 0.831635 0.702212
O O20 0.250000 0.621857 0.138934
O O21 0.250000 0.648402 0.822371
#
# Coordination Sequence:
#
# PCOD8191725 Si02
#       8
#     8   8   8   8   8   8   8   8
#     4  10  19  31  48  72 101 134 168 208 253 301
#     4  11  21  33  50  74 103 136 169 206 255 304
#     4  10  20  35  53  73  97 134 177 212 249 301
#     4  11  21  30  46  72 103 137 170 207 253 301
#     4  11  23  35  49  73 105 136 169 216 260 299
#     4  10  21  35  54  74  97 136 177 210 250 304
#     4  11  21  34  51  74 101 135 176 213 249 300
#     4  10  20  33  51  72  98 134 176 212 247 295
#
# _framework density 16.823657999999998
#
# number of rings (size 3 to 8) (size 9 to 14) (size 15 to 20)
#    0.000    1.500    3.750    3.375    0.000    3.500 
#    0.000    0.000    0.000    0.000    0.000    0.875 
#    0.000    2.000    0.000    0.000    0.000    0.000 
#
# Total GULP energy -396824.015109 kJ/mol
# GULP energy per Si atom -12400.750472 kJ/mol
# Density = 1.678537 g / cm^3
# Si number density = 16.823658 Si / 1000 Ang^3
#
#
#
# Elastic Constant Matrix: (Units=GPa)
#
#
# Indices 1 2 3 4 5 6 
#
# 1 62.6570 36.7302 15.6961 0.0002 -0.0002 0.0000
# 2 36.7302 99.8025 32.9002 0.0009 -0.0004 0.0000
# 3 15.6961 32.9002 74.1276 0.0022 -0.0007 0.0000
# 4 0.0002 0.0009 0.0022 26.1064 -0.0003 -0.0001
# 5 -0.0002 -0.0004 -0.0007 -0.0003 17.7695 0.0002
# 6 0.0000 0.0000 0.0000 -0.0001 0.0002 25.5141
#
#
#
# Elastic Compliance Matrix: (Units=1/GPa)
#
#
# Indices 1 2 3 4 5 6 
#
# 1 0.020435 -0.007139 -0.001159 0.000000 0.000000 0.000000
# 2 -0.007139 0.014231 -0.004805 0.000000 0.000000 0.000000
# 3 -0.001159 -0.004805 0.015868 -0.000001 0.000001 0.000000
# 4 0.000000 0.000000 -0.000001 0.038305 0.000001 0.000000
# 5 0.000000 0.000000 0.000001 0.000001 0.056276 0.000000
# 6 0.000000 0.000000 0.000000 0.000000 0.000000 0.039194
#
#
# Mechanical properties :
#
#
# Convention : Reuss Voigt Hill
#
# Bulk Modulus (GPa) = 41.10134 45.24890 43.17512
# Shear Modulus (GPa) = 22.87049 23.96206 23.41627
#
# Velocity S-wave (km/s) = 3.69104 3.77809 3.73482
# Velocity P-wave (km/s) = 6.53060 6.78132 6.65714
#
# Compressibility (1/GPa) = 0.02433011
#
# Stress axis : x y z
#
# Youngs Moduli (GPa) = 48.93588 70.26985 63.02000
#
# Poissons Ratio (x) = 0.50163 0.07301
# Poissons Ratio (y) = 0.34934 0.30278
# Poissons Ratio (z) = 0.05670 0.33761
#
# Static dielectric constant tensor:
#      x y z
#    x 3.218870 0.000000 0.000000 
#    y 0.000000 3.346020 0.000000 
#    z 0.000000 0.000000 2.891260 
# 
# 
# High freq. dielectric constant tensor:
#      x y z
#    x 1.657840 0.000000 0.000000 
#    y 0.000000 1.645280 0.000000 
#    z 0.000000 0.000000 1.613660 
# 
# From -- ./inp_files/14738.got.cif
#   From: 2010.03.12/outbox.cif.g09.slc.cpg/sg46_8_cif.got.tgz:14738.got - 2010.04.14 02:56:35.
