data_PCOD8191334
_publ_section_title
;
Structure prediction by ZEFSAII (Michael W. Deem and Ramdas Pophale) SiO2 
 PCOD8191334
Probable space group: I M A 2
;
_chemical_formula_sum "Si O2"
_cell_formula_units_Z 64
_cell_length_a 8.565240
_cell_length_b 18.437625
_cell_length_c 26.468117
_cell_angle_alpha 90.000000
_cell_angle_beta 90.000000
_cell_angle_gamma 90.000000
_cell_volume 4179.916055
_symmetry_space_group_name_H-M "I M A 2"
_symmetry_group_IT_number 46
_symmetry_cell_setting 'orthorhombic'
loop_
_space_group_symop_operation_xyz
x,y,z
-x,-y,z
1/2-x,y,z
1/2+x,-y,z
1/2+x,1/2+y,1/2+z
1/2-x,1/2-y,1/2+z
-x,1/2+y,1/2+z
x,1/2-y,1/2+z
loop_
_atom_site_type_symbol
_atom_site_label
_atom_site_fract_x
_atom_site_fract_y
_atom_site_fract_z
Si Si1 0.432893 0.424420 0.439980
Si Si2 0.434931 0.670689 0.640487
Si Si3 0.935376 0.922290 0.053607
Si Si4 0.931883 0.837963 0.844517
Si Si5 0.934093 0.419782 0.249445
Si Si6 0.566656 0.421174 0.735664
Si Si7 0.566155 0.709489 0.200127
Si Si8 0.430633 0.711902 0.795035
O O1 0.500000 0.500000 0.419826
O O2 0.250000 0.433594 0.441916
O O3 0.493159 0.406361 0.496340
O O4 0.483079 0.361750 0.400797
O O5 0.250000 0.680176 0.641609
O O6 0.489857 0.640996 0.586761
O O7 0.496404 0.615244 0.683952
O O8 0.516403 0.749773 0.648394
O O9 0.750000 0.921758 0.059324
O O10 0.000000 0.000000 0.071853
O O11 0.750000 0.852072 0.835010
O O12 0.026962 0.884106 0.803566
O O13 0.970292 0.751847 0.839012
O O14 0.750000 0.420882 0.241434
O O15 0.000000 0.500000 0.247661
O O16 0.015781 0.374976 0.203282
O O17 0.500000 0.500000 0.744415
O O18 0.750000 0.427152 0.730841
O O19 0.520891 0.371938 0.784741
O O20 0.750000 0.717613 0.210306
O O21 0.461889 0.747313 0.242812
O O22 0.250000 0.718164 0.809470
#
# Coordination Sequence:
#
# PCOD8191334 Si02
#       8
#     8   8   8   8   8   8   8   8
#     4   9  19  31  43  60  84 110 142 179 214 249
#     4  10  19  31  44  61  84 112 143 176 210 249
#     4  10  19  31  44  61  84 112 143 179 215 250
#     4  10  18  29  44  62  82 111 146 178 212 253
#     4  11  20  30  43  62  87 114 143 177 211 250
#     4   9  18  28  40  58  82 108 137 169 204 242
#     4  10  18  29  44  62  82 109 141 173 209 251
#     4   9  17  29  41  58  83 110 138 173 210 248
#
# _framework density 15.311313
#
# number of rings (size 3 to 8) (size 9 to 14) (size 15 to 20)
#    0.000    2.250    0.000    6.750    0.000    6.500 
#    0.000    0.000    0.000    0.000    0.000    0.000 
#    0.000    1.000    0.000    6.500    0.000    5.500 
#
# Total GULP energy -396621.599329 kJ/mol
# GULP energy per Si atom -12394.424979 kJ/mol
# Density = 1.527646 g / cm^3
# Si number density = 15.311313 Si / 1000 Ang^3
#
#
#
# Elastic Constant Matrix: (Units=GPa)
#
#
# Indices 1 2 3 4 5 6 
#
# 1 52.0510 29.6008 23.9861 0.0000 0.0000 0.0000
# 2 29.6008 99.8064 48.2003 0.0000 0.0000 0.0000
# 3 23.9861 48.2003 74.2294 0.0000 0.0000 0.0000
# 4 0.0000 0.0000 0.0000 37.7455 0.0000 0.0000
# 5 0.0000 0.0000 0.0000 0.0000 18.5455 0.0000
# 6 0.0000 0.0000 0.0000 0.0000 0.0000 27.7989
#
#
#
# Elastic Compliance Matrix: (Units=1/GPa)
#
#
# Indices 1 2 3 4 5 6 
#
# 1 0.024138 -0.004942 -0.004591 0.000000 0.000000 0.000000
# 2 -0.004942 0.015609 -0.008538 0.000000 0.000000 0.000000
# 3 -0.004591 -0.008538 0.020500 0.000000 0.000000 0.000000
# 4 0.000000 0.000000 0.000000 0.026493 0.000000 0.000000
# 5 0.000000 0.000000 0.000000 0.000000 0.053921 0.000000
# 6 0.000000 0.000000 0.000000 0.000000 0.000000 0.035973
#
#
# Mechanical properties :
#
#
# Convention : Reuss Voigt Hill
#
# Bulk Modulus (GPa) = 41.48717 47.74013 44.61365
# Shear Modulus (GPa) = 22.64390 25.10462 23.87426
#
# Velocity S-wave (km/s) = 3.84982 4.05361 3.95303
# Velocity P-wave (km/s) = 6.84953 7.29084 7.07363
#
# Compressibility (1/GPa) = 0.02410383
#
# Stress axis : x y z
#
# Youngs Moduli (GPa) = 41.42874 64.06734 48.78146
#
# Poissons Ratio (x) = 0.31660 0.22395
# Poissons Ratio (y) = 0.20473 0.41652
# Poissons Ratio (z) = 0.19019 0.54704
#
# Static dielectric constant tensor:
#      x y z
#    x 2.980100 0.000000 0.000000 
#    y 0.000000 1.554960 0.000000 
#    z 0.000000 0.000000 2.959410 
# 
# 
# High freq. dielectric constant tensor:
#      x y z
#    x 1.601440 0.000000 0.000000 
#    y 0.000000 1.578390 0.000000 
#    z 0.000000 0.000000 1.550760 
# 
# From -- ./inp_files/24402.got.cif
#   From: 2010.03.12/outbox.cif.g09.slc.cpg/sg46_13_cif.got.tgz:24402.got - 2010.04.14 02:56:35.
