data_PCOD8191646
_publ_section_title
;
Structure prediction by ZEFSAII (Michael W. Deem and Ramdas Pophale) SiO2 
 PCOD8191646
Probable space group: I M A 2
;
_chemical_formula_sum "Si O2"
_cell_formula_units_Z 60
_cell_length_a 27.781182
_cell_length_b 25.762624
_cell_length_c 5.075779
_cell_angle_alpha 90.000000
_cell_angle_beta 90.000000
_cell_angle_gamma 90.000000
_cell_volume 3632.816985
_symmetry_space_group_name_H-M "I M A 2"
_symmetry_group_IT_number 46
_symmetry_cell_setting 'orthorhombic'
loop_
_space_group_symop_operation_xyz
x,y,z
-x,-y,z
1/2-x,y,z
1/2+x,-y,z
1/2+x,1/2+y,1/2+z
1/2-x,1/2-y,1/2+z
-x,1/2+y,1/2+z
x,1/2-y,1/2+z
loop_
_atom_site_type_symbol
_atom_site_label
_atom_site_fract_x
_atom_site_fract_y
_atom_site_fract_z
Si Si1 0.922604 0.385494 0.078260
Si Si2 0.932600 0.449658 0.588705
Si Si3 0.198870 0.283987 0.064366
Si Si4 0.750000 0.282029 0.155615
Si Si5 0.098897 0.283639 0.186255
Si Si6 0.545575 0.937609 0.065903
Si Si7 0.535381 0.875919 0.557655
Si Si8 0.854803 0.286189 0.068918
O O1 0.913276 0.421642 0.328990
O O2 0.891991 0.333089 0.097291
O O3 0.978120 0.369742 0.050807
O O4 0.906859 0.420054 0.828898
O O5 0.920823 0.511199 0.592196
O O6 0.989764 0.448492 0.616274
O O7 0.250000 0.314523 0.110509
O O8 0.197500 0.234567 0.262266
O O9 0.149580 0.315113 0.131626
O O10 0.750000 0.268841 0.465997
O O11 0.800479 0.311003 0.088580
O O12 0.096402 0.265268 0.487908
O O13 0.053688 0.319291 0.129219
O O14 0.559349 0.894687 0.284133
O O15 0.553383 0.916778 0.773650
O O16 0.863055 0.242920 0.293115
#
# Coordination Sequence:
#
# PCOD8191646 Si02
#       8
#     8   8   8   4   8   8   8   8
#     4  10  19  29  44  66  90 113 146 179 210 262
#     4   9  17  30  46  64  85 110 141 186 226 246
#     4   8  14  25  40  56  75 101 134 173 206 227
#     4   8  16  30  46  62  84 116 150 184 218 250
#     4  10  19  29  41  59  88 118 142 171 203 248
#     4   9  17  30  46  61  84 113 143 183 221 251
#     4  10  19  29  42  63  89 118 147 173 210 265
#     4  10  19  31  46  65  92 122 149 181 217 260
#
# _framework density 16.516107999999999
#
# number of rings (size 3 to 8) (size 9 to 14) (size 15 to 20)
#    0.000    2.667    0.000    2.400    0.000    4.267 
#    0.000    0.000    0.000    0.000    0.000    0.000 
#   12.000    0.000    0.000    0.000    0.000    0.000 
#
# Total GULP energy -371649.446080 kJ/mol
# GULP energy per Si atom -12388.314869 kJ/mol
# Density = 1.647852 g / cm^3
# Si number density = 16.516108 Si / 1000 Ang^3
#
#
#
# Elastic Constant Matrix: (Units=GPa)
#
#
# Indices 1 2 3 4 5 6 
#
# 1 65.1862 40.1924 23.6461 0.0000 0.0000 0.0000
# 2 40.1924 64.8267 13.3484 0.0000 0.0000 0.0000
# 3 23.6461 13.3484 75.6954 0.0000 0.0000 0.0000
# 4 0.0000 0.0000 0.0000 10.4104 0.0000 0.0000
# 5 0.0000 0.0000 0.0000 0.0000 14.7753 0.0000
# 6 0.0000 0.0000 0.0000 0.0000 0.0000 4.0116
#
#
#
# Elastic Compliance Matrix: (Units=1/GPa)
#
#
# Indices 1 2 3 4 5 6 
#
# 1 0.027006 -0.015572 -0.005690 0.000000 0.000000 0.000000
# 2 -0.015572 0.024986 0.000458 0.000000 0.000000 0.000000
# 3 -0.005690 0.000458 0.014908 0.000000 0.000000 0.000000
# 4 0.000000 0.000000 0.000000 0.096057 0.000000 0.000000
# 5 0.000000 0.000000 0.000000 0.000000 0.067681 0.000000
# 6 0.000000 0.000000 0.000000 0.000000 0.000000 0.249276
#
#
# Mechanical properties :
#
#
# Convention : Reuss Voigt Hill
#
# Bulk Modulus (GPa) = 39.53855 40.00910 39.77383
# Shear Modulus (GPa) = 9.43481 14.40757 11.92119
#
# Velocity S-wave (km/s) = 2.39267 2.95673 2.68953
# Velocity P-wave (km/s) = 5.62357 5.99443 5.81196
#
# Compressibility (1/GPa) = 0.02529177
#
# Stress axis : x y z
#
# Youngs Moduli (GPa) = 37.02852 40.02236 67.08000
#
# Poissons Ratio (x) = 0.62323 0.38170
# Poissons Ratio (y) = 0.57661 -0.03075
# Poissons Ratio (z) = 0.21070 -0.01835
#
# Static dielectric constant tensor:
#      x y z
#    x 3.244490 0.000000 0.000000 
#    y 0.000000 2.828630 0.000000 
#    z 0.000000 0.000000 3.389860 
# 
# 
# High freq. dielectric constant tensor:
#      x y z
#    x 1.612590 0.000000 0.000000 
#    y 0.000000 1.593420 0.000000 
#    z 0.000000 0.000000 1.664320 
# 
# From -- ./inp_files/2410.got.cif
#   From: 2010.03.12/outbox.cif.g09.slc.cpg/sg46_2_cif.got.tgz:2410.got - 2010.04.14 02:56:35.
