data_PCOD8191048
_publ_section_title
;
Structure prediction by ZEFSAII (Michael W. Deem and Ramdas Pophale) SiO2 
 PCOD8191048
Probable space group: I B A 2
;
_chemical_formula_sum "Si O2"
_cell_formula_units_Z 64
_cell_length_a 13.187915
_cell_length_b 15.583226
_cell_length_c 13.915324
_cell_angle_alpha 90.000000
_cell_angle_beta 90.000000
_cell_angle_gamma 90.000000
_cell_volume 2859.741852
_symmetry_space_group_name_H-M "I B A 2"
_symmetry_group_IT_number 45
_symmetry_cell_setting 'orthorhombic'
loop_
_space_group_symop_operation_xyz
x,y,z
-x,-y,z
-x,y,1/2+z
x,-y,1/2+z
1/2+x,1/2+y,1/2+z
1/2-x,1/2-y,1/2+z
1/2-x,1/2+y,z
1/2+x,1/2-y,z
loop_
_atom_site_type_symbol
_atom_site_label
_atom_site_fract_x
_atom_site_fract_y
_atom_site_fract_z
Si Si1 0.750343 0.492231 0.517540
Si Si2 0.591705 0.935339 0.872748
Si Si3 0.522594 0.747912 0.607882
Si Si4 0.670557 0.246701 0.719206
Si Si5 0.086497 0.931145 0.874250
Si Si6 0.512793 0.245687 0.888902
Si Si7 0.167378 0.615469 0.683327
Si Si8 0.338064 0.392617 0.679422
O O1 0.823089 0.550277 0.452570
O O2 0.673517 0.436508 0.454045
O O3 0.818334 0.429429 0.581239
O O4 0.686491 0.551598 0.587437
O O5 0.560212 0.835738 0.875694
O O6 0.638585 0.952880 0.766700
O O7 0.500000 0.000000 0.892251
O O8 0.402456 0.752953 0.625918
O O9 0.554050 0.755629 0.497235
O O10 0.572293 0.822413 0.670686
O O11 0.561878 0.658925 0.650337
O O12 0.608912 0.239831 0.818558
O O13 0.732473 0.334907 0.717952
O O14 0.743998 0.166159 0.709874
O O15 0.047965 0.833290 0.870730
O O16 0.133757 0.952909 0.769867
O O17 0.000000 0.000000 0.898918
#
# Coordination Sequence:
#
# PCOD8191048 Si02
#       8
#     8   8   8   8   8   8   8   8
#     4  12  28  44  72 106 148 202 248 318 380 464
#     4  12  28  49  73 113 150 199 256 319 388 452
#     4  11  23  45  71 105 141 193 245 310 370 450
#     4  11  24  47  72 104 144 194 245 317 374 450
#     4  12  28  49  73 113 150 199 256 319 388 452
#     4  12  25  46  79 105 151 197 250 309 378 454
#     4  11  26  45  71 105 143 194 251 306 385 449
#     4  11  26  45  71 105 143 194 251 306 385 449
#
# _framework density 22.379640999999999
#
# number of rings (size 3 to 8) (size 9 to 14) (size 15 to 20)
#    0.000    0.500    2.500    4.500   10.500    4.000 
#    0.000    0.000    0.000    0.000    0.000    0.000 
#    0.000    0.000    0.000    0.000    0.000    0.000 
#
# Total GULP energy -396958.282119 kJ/mol
# GULP energy per Si atom -12404.946316 kJ/mol
# Density = 2.232870 g / cm^3
# Si number density = 22.379641 Si / 1000 Ang^3
#
#
#
# Elastic Constant Matrix: (Units=GPa)
#
#
# Indices 1 2 3 4 5 6 
#
# 1 89.1491 22.1744 20.5546 0.0000 0.0000 0.0000
# 2 22.1744 90.9863 7.7487 0.0000 0.0000 0.0000
# 3 20.5546 7.7487 139.0137 -0.0001 0.0000 0.0000
# 4 0.0000 0.0000 -0.0001 43.4299 0.0000 0.0000
# 5 0.0000 0.0000 0.0000 0.0000 43.8437 0.0000
# 6 0.0000 0.0000 0.0000 0.0000 0.0000 18.6975
#
#
#
# Elastic Compliance Matrix: (Units=1/GPa)
#
#
# Indices 1 2 3 4 5 6 
#
# 1 0.012311 -0.002859 -0.001661 0.000000 0.000000 0.000000
# 2 -0.002859 0.011707 -0.000230 0.000000 0.000000 0.000000
# 3 -0.001661 -0.000230 0.007452 0.000000 0.000000 0.000000
# 4 0.000000 0.000000 0.000000 0.023026 0.000000 0.000000
# 5 0.000000 0.000000 0.000000 0.000000 0.022808 0.000000
# 6 0.000000 0.000000 0.000000 0.000000 0.000000 0.053483
#
#
# Mechanical properties :
#
#
# Convention : Reuss Voigt Hill
#
# Bulk Modulus (GPa) = 45.51520 46.67826 46.09673
# Shear Modulus (GPa) = 33.87303 39.10566 36.48935
#
# Velocity S-wave (km/s) = 3.89468 4.18470 4.04229
# Velocity P-wave (km/s) = 6.37233 6.65219 6.51377
#
# Compressibility (1/GPa) = 0.02197068
#
# Stress axis : x y z
#
# Youngs Moduli (GPa) = 81.22665 85.41903 134.19329
#
# Poissons Ratio (x) = 0.24421 0.22289
# Poissons Ratio (y) = 0.23222 0.03084
# Poissons Ratio (z) = 0.13492 0.01963
#
# Static dielectric constant tensor:
#      x y z
#    x 4.050190 0.000000 0.000000 
#    y 0.000000 3.191920 0.000000 
#    z 0.000000 0.000000 4.329880 
# 
# 
# High freq. dielectric constant tensor:
#      x y z
#    x 1.889560 0.000000 0.000000 
#    y 0.000000 1.882550 0.000000 
#    z 0.000000 0.000000 1.906450 
# 
# From -- ./inp_files/6300.got.cif
#   From: 2010.03.12/outbox.cif.g09.slc.cpg/sg45_4_cif.got.tgz:6300.got - 2010.04.14 02:50:11.
