data_PCOD8191790
_publ_section_title
;
Structure prediction by ZEFSAII (Michael W. Deem and Ramdas Pophale) SiO2 
 PCOD8191790
Probable space group: I M A 2
;
_chemical_formula_sum "Si O2"
_cell_formula_units_Z 64
_cell_length_a 8.662498
_cell_length_b 14.657410
_cell_length_c 27.752730
_cell_angle_alpha 90.000000
_cell_angle_beta 90.000000
_cell_angle_gamma 90.000000
_cell_volume 3523.758156
_symmetry_space_group_name_H-M "I M A 2"
_symmetry_group_IT_number 46
_symmetry_cell_setting 'orthorhombic'
loop_
_space_group_symop_operation_xyz
x,y,z
-x,-y,z
1/2-x,y,z
1/2+x,-y,z
1/2+x,1/2+y,1/2+z
1/2-x,1/2-y,1/2+z
-x,1/2+y,1/2+z
x,1/2-y,1/2+z
loop_
_atom_site_type_symbol
_atom_site_label
_atom_site_fract_x
_atom_site_fract_y
_atom_site_fract_z
Si Si1 0.434820 0.276831 0.024160
Si Si2 0.916823 0.852151 0.428651
Si Si3 0.566957 0.597029 0.218072
Si Si4 0.932071 0.093266 0.987477
Si Si5 0.080320 0.350009 0.391491
Si Si6 0.569010 0.595040 0.108274
Si Si7 0.067420 0.781453 0.798307
Si Si8 0.564895 0.906860 0.329279
O O1 0.250000 0.269158 0.019127
O O2 0.488265 0.322070 0.074261
O O3 0.501290 0.342289 0.980536
O O4 0.504614 0.176205 0.019874
O O5 0.750000 0.898548 0.437291
O O6 0.893149 0.751442 0.408746
O O7 0.001402 0.905415 0.384995
O O8 0.500000 0.500000 0.235013
O O9 0.750000 0.597918 0.225546
O O10 0.518384 0.616120 0.162799
O O11 0.487756 0.677144 0.247951
O O12 0.750000 0.092961 0.990902
O O13 0.982111 0.096961 0.931519
O O14 0.000000 0.000000 0.009883
O O15 0.250000 0.396267 0.385059
O O16 0.991484 0.348567 0.340618
O O17 0.500000 0.500000 0.089730
O O18 0.750000 0.584821 0.104084
O O19 0.250000 0.775035 0.800858
O O20 0.998460 0.679618 0.800350
O O21 0.750000 0.903961 0.328339
O O22 0.500000 0.000000 0.305497
#
# Coordination Sequence:
#
# PCOD8191790 Si02
#       8
#     8   8   8   8   8   8   8   8
#     4   9  17  33  53  75 103 138 174 212 255 301
#     4   7  13  26  45  66  94 129 164 199 240 283
#     4  10  20  36  55  78 104 133 168 212 263 316
#     4  11  21  33  50  75 105 141 178 214 253 302
#     4   9  17  32  50  70  98 132 167 209 252 296
#     4   9  19  34  55  79 105 134 168 210 260 312
#     4  11  21  34  53  78 104 136 175 216 261 314
#     4  10  19  32  49  73 105 143 179 214 252 298
#
# _framework density 18.162426
#
# number of rings (size 3 to 8) (size 9 to 14) (size 15 to 20)
#    0.000    2.500    0.000    4.875    0.000    2.000 
#    0.000    3.125    0.000    0.750    0.000    3.500 
#    0.000    0.000    0.000    0.000    0.000    0.000 
#
# Total GULP energy -396541.911235 kJ/mol
# GULP energy per Si atom -12391.934726 kJ/mol
# Density = 1.812109 g / cm^3
# Si number density = 18.162426 Si / 1000 Ang^3
#
#
#
# Elastic Constant Matrix: (Units=GPa)
#
#
# Indices 1 2 3 4 5 6 
#
# 1 96.9175 45.3749 37.7412 0.0000 0.0000 0.0000
# 2 45.3749 122.9556 64.6647 0.0000 0.0000 0.0000
# 3 37.7412 64.6647 98.1937 0.0000 0.0000 0.0000
# 4 0.0000 0.0000 0.0000 23.7414 0.0000 0.0000
# 5 0.0000 0.0000 0.0000 0.0000 19.3288 0.0000
# 6 0.0000 0.0000 0.0000 0.0000 0.0000 28.3022
#
#
#
# Elastic Compliance Matrix: (Units=1/GPa)
#
#
# Indices 1 2 3 4 5 6 
#
# 1 0.012958 -0.003309 -0.002802 0.000000 0.000000 0.000000
# 2 -0.003309 0.013287 -0.007478 0.000000 0.000000 0.000000
# 3 -0.002802 -0.007478 0.016186 0.000000 0.000000 0.000000
# 4 0.000000 0.000000 0.000000 0.042120 0.000000 0.000000
# 5 0.000000 0.000000 0.000000 0.000000 0.051736 0.000000
# 6 0.000000 0.000000 0.000000 0.000000 0.000000 0.035333
#
#
# Mechanical properties :
#
#
# Convention : Reuss Voigt Hill
#
# Bulk Modulus (GPa) = 65.55883 68.18093 66.86988
# Shear Modulus (GPa) = 24.52399 25.62691 25.07545
#
# Velocity S-wave (km/s) = 3.67857 3.76038 3.71970
# Velocity P-wave (km/s) = 7.36320 7.51499 7.43948
#
# Compressibility (1/GPa) = 0.01525348
#
# Stress axis : x y z
#
# Youngs Moduli (GPa) = 77.17207 75.26143 61.78317
#
# Poissons Ratio (x) = 0.24900 0.17310
# Poissons Ratio (y) = 0.25533 0.46204
# Poissons Ratio (z) = 0.21621 0.56284
#
# Static dielectric constant tensor:
#      x y z
#    x 3.327940 0.000000 0.000000 
#    y 0.000000 3.386050 0.000000 
#    z 0.000000 0.000000 3.481340 
# 
# 
# High freq. dielectric constant tensor:
#      x y z
#    x 1.701490 0.000000 0.000000 
#    y 0.000000 1.696170 0.000000 
#    z 0.000000 0.000000 1.684570 
# 
# From -- ./inp_files/25311.got.cif
#   From: 2010.03.12/outbox.cif.g09.slc.cpg/sg46_13_cif.got.tgz:25311.got - 2010.04.14 02:56:35.
