data_PCOD8191934
_publ_section_title
;
Structure prediction by ZEFSAII (Michael W. Deem and Ramdas Pophale) SiO2 
 PCOD8191934
Probable space group: I M A 2
;
_chemical_formula_sum "Si O2"
_cell_formula_units_Z 44
_cell_length_a 17.871335
_cell_length_b 25.491481
_cell_length_c 4.977454
_cell_angle_alpha 90.000000
_cell_angle_beta 90.000000
_cell_angle_gamma 90.000000
_cell_volume 2267.562774
_symmetry_space_group_name_H-M "I M A 2"
_symmetry_group_IT_number 46
_symmetry_cell_setting 'orthorhombic'
loop_
_space_group_symop_operation_xyz
x,y,z
-x,-y,z
1/2-x,y,z
1/2+x,-y,z
1/2+x,1/2+y,1/2+z
1/2-x,1/2-y,1/2+z
-x,1/2+y,1/2+z
x,1/2-y,1/2+z
loop_
_atom_site_type_symbol
_atom_site_label
_atom_site_fract_x
_atom_site_fract_y
_atom_site_fract_z
Si Si1 0.250000 0.284005 0.437420
Si Si2 0.466822 0.057132 0.451293
Si Si3 0.089121 0.214350 0.043217
Si Si4 0.166024 0.504484 0.066147
Si Si5 0.485059 0.618125 0.451057
Si Si6 0.335241 0.925640 0.071760
O O1 0.250000 0.231706 0.624517
O O2 0.328749 0.313889 0.502740
O O3 0.477377 0.075121 0.145803
O O4 0.500000 0.000000 0.508198
O O5 0.379220 0.049265 0.517460
O O6 0.501855 0.100717 0.645560
O O7 0.081991 0.263671 0.843494
O O8 0.021279 0.174597 0.996949
O O9 0.250000 0.487691 0.005599
O O10 0.155093 0.526370 0.365088
O O11 0.142587 0.551305 0.862173
O O12 0.395122 0.620330 0.505449
O O13 0.250000 0.903162 0.063759
#
# Coordination Sequence:
#
# PCOD8191934 Si02
#       6
#     4   8   8   8   8   8
#     4   8  16  34  58  76 100 136 170 214 270 322
#     4  12  21  35  54  80 115 144 176 222 261 315
#     4  10  21  39  59  79 104 135 179 226 266 317
#     4  10  20  34  50  72 110 150 178 211 256 308
#     4  12  22  35  58  82 105 144 182 220 274 315
#     4  10  19  33  53  76 104 144 184 211 252 325
#
# _framework density 19.404093
#
# number of rings (size 3 to 8) (size 9 to 14) (size 15 to 20)
#    0.000    1.455    3.636    2.727    0.000    0.000 
#    3.273    0.000    0.000    1.091    0.000    0.000 
#    0.000    0.000    0.000    0.000    0.000    0.000 
#
# Total GULP energy -272735.751197 kJ/mol
# GULP energy per Si atom -12397.079600 kJ/mol
# Density = 1.935993 g / cm^3
# Si number density = 19.404093 Si / 1000 Ang^3
#
#
#
# Elastic Constant Matrix: (Units=GPa)
#
#
# Indices 1 2 3 4 5 6 
#
# 1 121.0126 39.4904 7.7302 0.0000 0.0000 0.0000
# 2 39.4904 45.0916 3.4944 0.0000 0.0000 0.0000
# 3 7.7302 3.4944 73.8715 0.0000 0.0000 0.0000
# 4 0.0000 0.0000 0.0000 20.3280 0.0000 0.0000
# 5 0.0000 0.0000 0.0000 0.0000 25.5684 0.0000
# 6 0.0000 0.0000 0.0000 0.0000 0.0000 31.2807
#
#
#
# Elastic Compliance Matrix: (Units=1/GPa)
#
#
# Indices 1 2 3 4 5 6 
#
# 1 0.011610 -0.010111 -0.000737 0.000000 0.000000 0.000000
# 2 -0.010111 0.031064 -0.000411 0.000000 0.000000 0.000000
# 3 -0.000737 -0.000411 0.013634 0.000000 0.000000 0.000000
# 4 0.000000 0.000000 0.000000 0.049193 0.000000 0.000000
# 5 0.000000 0.000000 0.000000 0.000000 0.039111 0.000000
# 6 0.000000 0.000000 0.000000 0.000000 0.000000 0.031969
#
#
# Mechanical properties :
#
#
# Convention : Reuss Voigt Hill
#
# Bulk Modulus (GPa) = 29.59475 37.93395 33.76435
# Shear Modulus (GPa) = 23.76862 28.05280 25.91071
#
# Velocity S-wave (km/s) = 3.50369 3.80638 3.65817
# Velocity P-wave (km/s) = 5.62608 6.23778 5.93981
#
# Compressibility (1/GPa) = 0.03378978
#
# Stress axis : x y z
#
# Youngs Moduli (GPa) = 86.13139 32.19170 73.34839
#
# Poissons Ratio (x) = 0.32549 0.05403
# Poissons Ratio (y) = 0.87086 0.03018
# Poissons Ratio (z) = 0.06345 0.01324
#
# Static dielectric constant tensor:
#      x y z
#    x 4.141150 0.000000 0.000000 
#    y 0.000000 2.920220 0.000000 
#    z 0.000000 0.000000 3.709130 
# 
# 
# High freq. dielectric constant tensor:
#      x y z
#    x 1.777330 0.000000 0.000000 
#    y 0.000000 1.680840 0.000000 
#    z 0.000000 0.000000 1.780370 
# 
# From -- ./inp_files/1672.got.cif
#   From: 2010.03.12/outbox.cif.g09.slc.cpg/sg46_1_cif.got.tgz:1672.got - 2010.04.14 02:56:35.
