data_PCOD8191235
_publ_section_title
;
Structure prediction by ZEFSAII (Michael W. Deem and Ramdas Pophale) SiO2 
 PCOD8191235
Probable space group: I M A 2
;
_chemical_formula_sum "Si O2"
_cell_formula_units_Z 48
_cell_length_a 13.774988
_cell_length_b 12.503181
_cell_length_c 13.720823
_cell_angle_alpha 90.000000
_cell_angle_beta 90.000000
_cell_angle_gamma 90.000000
_cell_volume 2363.153374
_symmetry_space_group_name_H-M "I M A 2"
_symmetry_group_IT_number 46
_symmetry_cell_setting 'orthorhombic'
loop_
_space_group_symop_operation_xyz
x,y,z
-x,-y,z
1/2-x,y,z
1/2+x,-y,z
1/2+x,1/2+y,1/2+z
1/2-x,1/2-y,1/2+z
-x,1/2+y,1/2+z
x,1/2-y,1/2+z
loop_
_atom_site_type_symbol
_atom_site_label
_atom_site_fract_x
_atom_site_fract_y
_atom_site_fract_z
Si Si1 0.646048 0.054202 0.095040
Si Si2 0.638702 0.151829 0.763476
Si Si3 0.016039 0.740061 0.099538
Si Si4 0.104960 0.464866 0.398592
Si Si5 0.135769 0.352037 0.719527
Si Si6 0.474112 0.239759 0.383632
O O1 0.750000 0.104835 0.125976
O O2 0.565956 0.144716 0.088815
O O3 0.614097 0.967489 0.174489
O O4 0.668362 0.995388 0.992068
O O5 0.750000 0.191924 0.757052
O O6 0.586258 0.158090 0.657735
O O7 0.578365 0.228337 0.836836
O O8 0.637870 0.029162 0.801561
O O9 0.914297 0.757582 0.155569
O O10 0.994093 0.695404 0.991954
O O11 0.102875 0.338364 0.379490
O O12 0.000000 0.500000 0.432761
O O13 0.250000 0.327729 0.727926
O O14 0.081185 0.352835 0.824130
#
# Coordination Sequence:
#
# PCOD8191235 Si02
#       6
#     8   8   8   8   8   8
#     4  11  19  32  59  89 117 150 194 243 290 350
#     4  10  21  33  54  90 122 153 195 242 296 352
#     4  11  20  37  57  85 118 157 196 247 295 347
#     4  10  17  33  55  84 115 151 195 235 289 341
#     4  10  22  35  54  87 117 153 200 245 295 348
#     4  10  21  36  58  83 119 158 197 248 292 346
#
# _framework density 20.311843
#
# number of rings (size 3 to 8) (size 9 to 14) (size 15 to 20)
#    0.000    1.667    5.000    1.500    0.000    2.667 
#    0.000    0.000    0.000   20.000    0.000   30.333 
#    0.000    0.000    0.000    0.000    0.000    0.000 
#
# Total GULP energy -297445.991550 kJ/mol
# GULP energy per Si atom -12393.582981 kJ/mol
# Density = 2.026561 g / cm^3
# Si number density = 20.311843 Si / 1000 Ang^3
#
#
#
# Elastic Constant Matrix: (Units=GPa)
#
#
# Indices 1 2 3 4 5 6 
#
# 1 116.7807 16.1831 45.9964 0.0000 0.0000 0.0000
# 2 16.1831 51.2437 43.8380 0.0000 0.0000 0.0000
# 3 45.9964 43.8380 175.4000 0.0000 0.0000 0.0000
# 4 0.0000 0.0000 0.0000 36.8180 0.0000 0.0000
# 5 0.0000 0.0000 0.0000 0.0000 -29.5193 0.0000
# 6 0.0000 0.0000 0.0000 0.0000 0.0000 0.2755
#
#
#
# Elastic Compliance Matrix: (Units=1/GPa)
#
#
# Indices 1 2 3 4 5 6 
#
# 1 0.009599 -0.001117 -0.002238 0.000000 0.000000 0.000000
# 2 -0.001117 0.024952 -0.005943 0.000000 0.000000 0.000000
# 3 -0.002238 -0.005943 0.007774 0.000000 0.000000 0.000000
# 4 0.000000 0.000000 0.000000 0.027161 0.000000 0.000000
# 5 0.000000 0.000000 0.000000 0.000000 -0.033876 0.000000
# 6 0.000000 0.000000 0.000000 0.000000 0.000000 3.629313
#
#
# Mechanical properties :
#
#
# Convention : Reuss Voigt Hill
#
# Bulk Modulus (GPa) = 42.14431 61.71772 51.93101
# Shear Modulus (GPa) = 1.35449 17.34196 9.34823
#
# Velocity S-wave (km/s) = 0.81749 2.92513 2.14764
# Velocity P-wave (km/s) = 4.65669 6.46990 5.63668
#
# Compressibility (1/GPa) = 0.02372800
#
# Stress axis : x y z
#
# Youngs Moduli (GPa) = 104.17335 40.07743 128.64026
#
# Poissons Ratio (x) = 0.04476 0.28792
# Poissons Ratio (y) = 0.11634 0.76455
# Poissons Ratio (z) = 0.23316 0.23819
#
# Static dielectric constant tensor:
#      x y z
#    x 4.246710 0.000000 0.000000 
#    y 0.000000 3.463660 0.000000 
#    z 0.000000 0.000000 3.846260 
# 
# 
# High freq. dielectric constant tensor:
#      x y z
#    x 1.809650 0.000000 0.000000 
#    y 0.000000 1.747750 0.000000 
#    z 0.000000 0.000000 1.793140 
# 
# From -- ./inp_files/15852.got.cif
#   From: 2010.03.12/outbox.cif.g09.slc.cpg/sg46_8_cif.got.tgz:15852.got - 2010.04.14 02:56:35.
