data_PCOD8191588
_publ_section_title
;
Structure prediction by ZEFSAII (Michael W. Deem and Ramdas Pophale) SiO2 
 PCOD8191588
Probable space group: I M A 2
;
_chemical_formula_sum "Si O2"
_cell_formula_units_Z 64
_cell_length_a 14.560388
_cell_length_b 18.547269
_cell_length_c 11.996318
_cell_angle_alpha 90.000000
_cell_angle_beta 90.000000
_cell_angle_gamma 90.000000
_cell_volume 3239.670852
_symmetry_space_group_name_H-M "I M A 2"
_symmetry_group_IT_number 46
_symmetry_cell_setting 'orthorhombic'
loop_
_space_group_symop_operation_xyz
x,y,z
-x,-y,z
1/2-x,y,z
1/2+x,-y,z
1/2+x,1/2+y,1/2+z
1/2-x,1/2-y,1/2+z
-x,1/2+y,1/2+z
x,1/2-y,1/2+z
loop_
_atom_site_type_symbol
_atom_site_label
_atom_site_fract_x
_atom_site_fract_y
_atom_site_fract_z
Si Si1 0.357243 0.399978 0.126300
Si Si2 0.642182 0.368979 0.910186
Si Si3 0.356019 0.549493 0.505707
Si Si4 0.357087 0.547769 0.255255
Si Si5 0.852773 0.527900 0.908339
Si Si6 0.926938 0.944392 0.186737
Si Si7 0.925016 0.165928 0.170802
Si Si8 0.040440 0.671778 0.120231
O O1 0.250000 0.373565 0.133850
O O2 0.374329 0.467693 0.207555
O O3 0.431167 0.336503 0.149036
O O4 0.392247 0.419115 0.001504
O O5 0.750000 0.360441 0.943726
O O6 0.601327 0.449763 0.915100
O O7 0.631684 0.345384 0.783002
O O8 0.573746 0.325727 0.991440
O O9 0.250000 0.535153 0.493676
O O10 0.397865 0.551561 0.381064
O O11 0.393832 0.479166 0.570747
O O12 0.373418 0.624759 0.569639
O O13 0.250000 0.566858 0.252621
O O14 0.406563 0.607290 0.181021
O O15 0.750000 0.513746 0.947303
O O16 0.851583 0.562302 0.784138
O O17 0.971535 0.866128 0.169345
O O18 0.000000 0.000000 0.239604
O O19 0.929121 0.250907 0.162654
#
# Coordination Sequence:
#
# PCOD8191588 Si02
#       8
#     8   8   8   8   8   8   8   8
#     4  10  22  40  63  88 116 151 203 256 292 341
#     4  11  22  38  62  92 122 152 195 246 299 358
#     4  10  21  39  61  86 117 153 196 248 297 347
#     4  10  22  39  61  90 116 154 204 246 297 353
#     4  10  18  34  62  90 110 140 191 249 299 337
#     4  10  19  34  58  82 114 150 195 239 284 340
#     4  11  25  38  54  89 121 160 195 236 292 362
#     4  12  25  39  60  88 122 164 195 235 303 361
#
# _framework density 19.755094
#
# number of rings (size 3 to 8) (size 9 to 14) (size 15 to 20)
#    0.000    1.500    3.750    2.250    1.750    5.000 
#    0.000    1.250    0.000    0.750    0.000    0.000 
#    0.000    0.000    0.000    0.000    0.000    0.000 
#
# Total GULP energy -396469.273657 kJ/mol
# GULP energy per Si atom -12389.664802 kJ/mol
# Density = 1.971013 g / cm^3
# Si number density = 19.755094 Si / 1000 Ang^3
#
#
#
# Elastic Constant Matrix: (Units=GPa)
#
#
# Indices 1 2 3 4 5 6 
#
# 1 74.7796 21.3242 20.5804 0.0000 0.0000 0.0000
# 2 21.3242 38.9301 5.5515 0.0000 0.0000 0.0000
# 3 20.5804 5.5515 114.4098 0.0000 0.0000 0.0000
# 4 0.0000 0.0000 0.0000 13.4481 0.0000 0.0000
# 5 0.0000 0.0000 0.0000 0.0000 24.7258 0.0000
# 6 0.0000 0.0000 0.0000 0.0000 0.0000 20.2020
#
#
#
# Elastic Compliance Matrix: (Units=1/GPa)
#
#
# Indices 1 2 3 4 5 6 
#
# 1 0.016559 -0.008706 -0.002556 0.000000 0.000000 0.000000
# 2 -0.008706 0.030443 0.000089 0.000000 0.000000 0.000000
# 3 -0.002556 0.000089 0.009196 0.000000 0.000000 0.000000
# 4 0.000000 0.000000 0.000000 0.074360 0.000000 0.000000
# 5 0.000000 0.000000 0.000000 0.000000 0.040444 0.000000
# 6 0.000000 0.000000 0.000000 0.000000 0.000000 0.049500
#
#
# Mechanical properties :
#
#
# Convention : Reuss Voigt Hill
#
# Bulk Modulus (GPa) = 29.54065 35.89240 32.71653
# Shear Modulus (GPa) = 19.67489 23.71939 21.69714
#
# Velocity S-wave (km/s) = 3.15928 3.46883 3.31767
# Velocity P-wave (km/s) = 5.31920 5.85251 5.59222
#
# Compressibility (1/GPa) = 0.03385166
#
# Stress axis : x y z
#
# Youngs Moduli (GPa) = 60.39146 32.84831 108.74271
#
# Poissons Ratio (x) = 0.28596 0.27797
# Poissons Ratio (y) = 0.52574 -0.00966
# Poissons Ratio (z) = 0.15437 -0.00292
#
# Static dielectric constant tensor:
#      x y z
#    x 3.694510 0.000000 0.000000 
#    y 0.000000 3.343760 0.000000 
#    z 0.000000 0.000000 3.951050 
# 
# 
# High freq. dielectric constant tensor:
#      x y z
#    x 1.774570 0.000000 0.000000 
#    y 0.000000 1.736200 0.000000 
#    z 0.000000 0.000000 1.784150 
# 
# From -- ./inp_files/11308.got.cif
#   From: 2010.03.12/outbox.cif.g09.slc.cpg/sg46_6_cif.got.tgz:11308.got - 2010.04.14 02:56:35.
