data_PCOD8191914
_publ_section_title
;
Structure prediction by ZEFSAII (Michael W. Deem and Ramdas Pophale) SiO2 
 PCOD8191914
Probable space group: I M A 2
;
_chemical_formula_sum "Si O2"
_cell_formula_units_Z 40
_cell_length_a 7.976036
_cell_length_b 28.449831
_cell_length_c 9.905451
_cell_angle_alpha 90.000000
_cell_angle_beta 90.000000
_cell_angle_gamma 90.000000
_cell_volume 2247.713999
_symmetry_space_group_name_H-M "I M A 2"
_symmetry_group_IT_number 46
_symmetry_cell_setting 'orthorhombic'
loop_
_space_group_symop_operation_xyz
x,y,z
-x,-y,z
1/2-x,y,z
1/2+x,-y,z
1/2+x,1/2+y,1/2+z
1/2-x,1/2-y,1/2+z
-x,1/2+y,1/2+z
x,1/2-y,1/2+z
loop_
_atom_site_type_symbol
_atom_site_label
_atom_site_fract_x
_atom_site_fract_y
_atom_site_fract_z
Si Si1 0.446238 0.550482 0.495640
Si Si2 0.442976 0.866468 0.501758
Si Si3 0.934651 0.878716 0.217923
Si Si4 0.553320 0.449582 0.195163
Si Si5 0.250000 0.203597 0.505761
Si Si6 0.750000 0.790766 0.201296
O O1 0.500000 0.500000 0.555967
O O2 0.250000 0.552879 0.486171
O O3 0.505276 0.592178 0.590667
O O4 0.525469 0.557252 0.345656
O O5 0.250000 0.851173 0.536490
O O6 0.442873 0.883747 0.345937
O O7 0.508086 0.908813 0.595819
O O8 0.577775 0.825370 0.526550
O O9 0.750000 0.896570 0.264850
O O10 0.915384 0.823520 0.174358
O O11 0.500000 0.500000 0.135050
O O12 0.750000 0.447686 0.206273
O O13 0.250000 0.225708 0.356939
O O14 0.250000 0.245338 0.611038
#
# Coordination Sequence:
#
# PCOD8191914 Si02
#       6
#     8   8   8   8   4   4
#     4  10  19  33  51  78 112 148 188 230 275 330
#     4  10  20  37  57  81 112 146 182 231 276 330
#     4   9  19  36  54  80 107 143 184 224 280 329
#     4   9  20  33  50  77 110 144 187 227 274 328
#     4  10  20  40  58  84 108 146 186 230 285 332
#     4   8  20  36  58  78 110 136 184 232 275 338
#
# _framework density 17.795857999999999
#
# number of rings (size 3 to 8) (size 9 to 14) (size 15 to 20)
#    0.600    2.000    1.000    1.200    1.400    3.200 
#    0.000    7.000    0.000    0.000    0.000    0.000 
#    0.000    0.000    0.000    0.000    0.000    0.000 
#
# Total GULP energy -247807.774482 kJ/mol
# GULP energy per Si atom -12390.388724 kJ/mol
# Density = 1.775535 g / cm^3
# Si number density = 17.795858 Si / 1000 Ang^3
#
#
#
# Elastic Constant Matrix: (Units=GPa)
#
#
# Indices 1 2 3 4 5 6 
#
# 1 69.9189 40.0190 31.5322 0.0001 0.0000 0.0000
# 2 40.0190 131.8748 98.7100 0.0002 0.0001 0.0000
# 3 31.5322 98.7100 111.2280 0.0002 0.0000 0.0000
# 4 0.0001 0.0002 0.0002 24.8704 0.0000 0.0000
# 5 0.0000 0.0001 0.0000 0.0000 20.5379 -0.0001
# 6 0.0000 0.0000 0.0000 0.0000 -0.0001 22.6500
#
#
#
# Elastic Compliance Matrix: (Units=1/GPa)
#
#
# Indices 1 2 3 4 5 6 
#
# 1 0.017329 -0.004711 -0.000732 0.000000 0.000000 0.000000
# 2 -0.004711 0.023867 -0.019846 0.000000 0.000000 0.000000
# 3 -0.000732 -0.019846 0.026810 0.000000 0.000000 0.000000
# 4 0.000000 0.000000 0.000000 0.040208 0.000000 0.000000
# 5 0.000000 0.000000 0.000000 0.000000 0.048690 0.000000
# 6 0.000000 0.000000 0.000000 0.000000 0.000000 0.044150
#
#
# Mechanical properties :
#
#
# Convention : Reuss Voigt Hill
#
# Bulk Modulus (GPa) = 57.37440 72.61599 64.99520
# Shear Modulus (GPa) = 19.42188 23.12902 21.27545
#
# Velocity S-wave (km/s) = 3.30717 3.60903 3.46139
# Velocity P-wave (km/s) = 6.84788 7.63285 7.25099
#
# Compressibility (1/GPa) = 0.01742938
#
# Stress axis : x y z
#
# Youngs Moduli (GPa) = 57.70798 41.89850 37.29920
#
# Poissons Ratio (x) = 0.19737 0.02730
# Poissons Ratio (y) = 0.27184 0.74023
# Poissons Ratio (z) = 0.04224 0.83150
#
# Static dielectric constant tensor:
#      x y z
#    x 3.255130 0.000000 0.000000 
#    y 0.000000 4.503830 0.000010 
#    z 0.000000 0.000010 3.670580 
# 
# 
# High freq. dielectric constant tensor:
#      x y z
#    x 1.687870 0.000000 0.000000 
#    y 0.000000 1.672980 0.000000 
#    z 0.000000 0.000000 1.690350 
# 
# From -- ./inp_files/3763.got.cif
#   From: 2010.03.12/outbox.cif.g09.slc.cpg/sg46_2_cif.got.tgz:3763.got - 2010.04.14 02:56:35.
