data_PCOD8191205
_publ_section_title
;
Structure prediction by ZEFSAII (Michael W. Deem and Ramdas Pophale) SiO2 
 PCOD8191205
Probable space group: I M A 2
;
_chemical_formula_sum "Si O2"
_cell_formula_units_Z 64
_cell_length_a 8.962537
_cell_length_b 30.261894
_cell_length_c 14.302547
_cell_angle_alpha 90.000000
_cell_angle_beta 90.000000
_cell_angle_gamma 90.000000
_cell_volume 3879.184635
_symmetry_space_group_name_H-M "I M A 2"
_symmetry_group_IT_number 46
_symmetry_cell_setting 'orthorhombic'
loop_
_space_group_symop_operation_xyz
x,y,z
-x,-y,z
1/2-x,y,z
1/2+x,-y,z
1/2+x,1/2+y,1/2+z
1/2-x,1/2-y,1/2+z
-x,1/2+y,1/2+z
x,1/2-y,1/2+z
loop_
_atom_site_type_symbol
_atom_site_label
_atom_site_fract_x
_atom_site_fract_y
_atom_site_fract_z
Si Si1 0.082016 0.312818 0.654170
Si Si2 0.425852 0.455485 0.773163
Si Si3 0.573709 0.544269 0.559097
Si Si4 0.075663 0.774563 0.650856
Si Si5 0.925527 0.865631 0.980855
Si Si6 0.417625 0.362965 0.841327
Si Si7 0.073958 0.201825 0.828214
Si Si8 0.573784 0.216381 0.436429
O O1 0.250000 0.294102 0.637133
O O2 0.010241 0.333960 0.561499
O O3 0.085652 0.349513 0.733345
O O4 0.971147 0.274113 0.684606
O O5 0.500000 0.500000 0.813944
O O6 0.250000 0.461440 0.776672
O O7 0.478087 0.447638 0.666074
O O8 0.473698 0.413977 0.838924
O O9 0.500000 0.500000 0.518474
O O10 0.750000 0.539250 0.552217
O O11 0.513123 0.584609 0.494016
O O12 0.250000 0.781688 0.662897
O O13 0.023442 0.782478 0.544801
O O14 0.991912 0.806412 0.724621
O O15 0.750000 0.867520 0.997435
O O16 0.967607 0.843585 0.882131
O O17 0.250000 0.359279 0.883286
O O18 0.527883 0.332045 0.900065
O O19 0.250000 0.209709 0.823387
O O20 0.006729 0.244690 0.879918
O O21 0.750000 0.222872 0.425781
#
# Coordination Sequence:
#
# PCOD8191205 Si02
#       8
#     8   8   8   8   8   8   8   8
#     4  10  17  29  49  70  95 130 168 201 234 278
#     4   9  17  29  46  70  99 129 160 195 238 287
#     4   9  16  29  46  68  98 127 156 192 235 284
#     4  11  23  36  47  67 101 133 161 203 250 290
#     4   9  17  30  49  71  96 128 165 201 235 276
#     4  10  19  31  50  73  96 131 171 203 236 285
#     4  11  21  33  52  73  93 127 171 207 240 284
#     4  11  23  35  48  70 100 131 162 202 250 294
#
# _framework density 16.498314000000001
#
# number of rings (size 3 to 8) (size 9 to 14) (size 15 to 20)
#    0.000    2.000    3.750    1.125    0.000    2.000 
#    0.000    1.875    0.000    0.000    0.000    0.875 
#    0.000    2.000    0.000    0.000    0.000    0.000 
#
# Total GULP energy -396670.622786 kJ/mol
# GULP energy per Si atom -12395.956962 kJ/mol
# Density = 1.646076 g / cm^3
# Si number density = 16.498314 Si / 1000 Ang^3
#
#
#
# Elastic Constant Matrix: (Units=GPa)
#
#
# Indices 1 2 3 4 5 6 
#
# 1 46.7944 28.4928 30.2719 0.0002 0.0000 0.0000
# 2 28.4928 107.0796 30.7292 0.0005 0.0000 0.0000
# 3 30.2719 30.7292 78.0225 0.0012 0.0000 0.0001
# 4 0.0002 0.0005 0.0012 23.3998 0.0000 0.0000
# 5 0.0000 0.0000 0.0000 0.0000 22.9005 0.0001
# 6 0.0000 0.0000 0.0001 0.0000 0.0001 23.3058
#
#
#
# Elastic Compliance Matrix: (Units=1/GPa)
#
#
# Indices 1 2 3 4 5 6 
#
# 1 0.031096 -0.005425 -0.009928 0.000000 0.000000 0.000000
# 2 -0.005425 0.011475 -0.002415 0.000000 0.000000 0.000000
# 3 -0.009928 -0.002415 0.017620 -0.000001 0.000000 0.000000
# 4 0.000000 0.000000 -0.000001 0.042735 0.000000 0.000000
# 5 0.000000 0.000000 0.000000 0.000000 0.043667 0.000000
# 6 0.000000 0.000000 0.000000 0.000000 0.000000 0.042908
#
#
# Mechanical properties :
#
#
# Convention : Reuss Voigt Hill
#
# Bulk Modulus (GPa) = 40.55942 45.65381 43.10661
# Shear Modulus (GPa) = 21.43562 23.41472 22.42517
#
# Velocity S-wave (km/s) = 3.60844 3.77134 3.69079
# Velocity P-wave (km/s) = 6.48062 6.83344 6.65937
#
# Compressibility (1/GPa) = 0.02465519
#
# Stress axis : x y z
#
# Youngs Moduli (GPa) = 32.15828 87.14293 56.75402
#
# Poissons Ratio (x) = 0.47277 0.56347
# Poissons Ratio (y) = 0.17447 0.13704
# Poissons Ratio (z) = 0.31928 0.21042
#
# Static dielectric constant tensor:
#      x y z
#    x 2.988540 0.000000 0.000000 
#    y 0.000000 3.182830 0.000000 
#    z 0.000000 0.000000 3.079550 
# 
# 
# High freq. dielectric constant tensor:
#      x y z
#    x 1.625890 0.000000 0.000000 
#    y 0.000000 1.627110 0.000000 
#    z 0.000000 0.000000 1.611520 
# 
# From -- ./inp_files/14741.got.cif
#   From: 2010.03.12/outbox.cif.g09.slc.cpg/sg46_8_cif.got.tgz:14741.got - 2010.04.14 02:56:35.
