data_PCOD8191862
_publ_section_title
;
Structure prediction by ZEFSAII (Michael W. Deem and Ramdas Pophale) SiO2 
 PCOD8191862
Probable space group: I M A 2
;
_chemical_formula_sum "Si O2"
_cell_formula_units_Z 64
_cell_length_a 8.655346
_cell_length_b 23.334525
_cell_length_c 19.011121
_cell_angle_alpha 90.000000
_cell_angle_beta 90.000000
_cell_angle_gamma 90.000000
_cell_volume 3839.645455
_symmetry_space_group_name_H-M "I M A 2"
_symmetry_group_IT_number 46
_symmetry_cell_setting 'orthorhombic'
loop_
_space_group_symop_operation_xyz
x,y,z
-x,-y,z
1/2-x,y,z
1/2+x,-y,z
1/2+x,1/2+y,1/2+z
1/2-x,1/2-y,1/2+z
-x,1/2+y,1/2+z
x,1/2-y,1/2+z
loop_
_atom_site_type_symbol
_atom_site_label
_atom_site_fract_x
_atom_site_fract_y
_atom_site_fract_z
Si Si1 0.071292 0.439755 0.997900
Si Si2 0.432749 0.721988 0.216137
Si Si3 0.072085 0.332529 0.089335
Si Si4 0.568145 0.380809 0.863291
Si Si5 0.568973 0.232465 0.001492
Si Si6 0.068010 0.666985 0.634804
Si Si7 0.567852 0.438784 0.719161
Si Si8 0.930782 0.745206 0.857818
O O1 0.250000 0.446572 0.976585
O O2 0.000000 0.500000 0.021253
O O3 0.978825 0.416109 0.931384
O O4 0.051298 0.397742 0.064248
O O5 0.250000 0.715129 0.211147
O O6 0.510822 0.671827 0.169469
O O7 0.494161 0.782328 0.184864
O O8 0.486270 0.718709 0.296561
O O9 0.250000 0.313167 0.084459
O O10 0.971732 0.292535 0.038122
O O11 0.750000 0.368640 0.862705
O O12 0.516216 0.418113 0.796269
O O13 0.483769 0.320253 0.860969
O O14 0.750000 0.233078 0.984049
O O15 0.473399 0.223423 0.930506
O O16 0.523807 0.180076 0.053849
O O17 0.250000 0.666392 0.644348
O O18 0.001120 0.606285 0.661345
O O19 0.500000 0.500000 0.700616
O O20 0.750000 0.443227 0.714420
O O21 0.750000 0.747562 0.845225
#
# Coordination Sequence:
#
# PCOD8191862 Si02
#       8
#     8   8   8   8   8   8   8   8
#     4  11  23  36  51  72 103 138 177 214 252 299
#     4  10  19  34  54  73  97 133 172 206 251 311
#     4  10  20  34  50  75 104 130 165 215 261 297
#     4  11  21  34  51  69 100 140 179 213 246 297
#     4  10  19  32  53  73  96 134 172 206 251 308
#     4   8  16  32  50  70  95 126 166 208 243 287
#     4  10  20  34  49  70  98 132 171 210 245 288
#     4  12  22  32  49  76 107 134 165 211 261 306
#
# _framework density 16.668205
#
# number of rings (size 3 to 8) (size 9 to 14) (size 15 to 20)
#    0.000    1.750    2.500    4.125    0.000    3.500 
#    0.000    1.250    0.000    0.000    0.000    0.875 
#    0.000    4.000    0.000    0.000    0.000    0.000 
#
# Total GULP energy -396818.846154 kJ/mol
# GULP energy per Si atom -12400.588942 kJ/mol
# Density = 1.663027 g / cm^3
# Si number density = 16.668205 Si / 1000 Ang^3
#
#
#
# Elastic Constant Matrix: (Units=GPa)
#
#
# Indices 1 2 3 4 5 6 
#
# 1 49.8112 29.3350 22.4534 0.0000 0.0000 0.0000
# 2 29.3350 87.7161 54.0996 0.0000 0.0000 0.0000
# 3 22.4534 54.0996 105.1420 -0.0001 0.0000 0.0000
# 4 0.0000 0.0000 -0.0001 21.9483 0.0000 0.0000
# 5 0.0000 0.0000 0.0000 0.0000 26.1259 0.0000
# 6 0.0000 0.0000 0.0000 0.0000 0.0000 23.8738
#
#
#
# Elastic Compliance Matrix: (Units=1/GPa)
#
#
# Indices 1 2 3 4 5 6 
#
# 1 0.025166 -0.007473 -0.001529 0.000000 0.000000 0.000000
# 2 -0.007473 0.018919 -0.008139 0.000000 0.000000 0.000000
# 3 -0.001529 -0.008139 0.014025 0.000000 0.000000 0.000000
# 4 0.000000 0.000000 0.000000 0.045562 0.000000 0.000000
# 5 0.000000 0.000000 0.000000 0.000000 0.038276 0.000000
# 6 0.000000 0.000000 0.000000 0.000000 0.000000 0.041887
#
#
# Mechanical properties :
#
#
# Convention : Reuss Voigt Hill
#
# Bulk Modulus (GPa) = 41.96650 50.49394 46.23022
# Shear Modulus (GPa) = 22.11795 23.50836 22.81315
#
# Velocity S-wave (km/s) = 3.64669 3.75957 3.70356
# Velocity P-wave (km/s) = 6.55464 7.01463 6.78854
#
# Compressibility (1/GPa) = 0.02382853
#
# Stress axis : x y z
#
# Youngs Moduli (GPa) = 39.73573 52.85583 71.30031
#
# Poissons Ratio (x) = 0.39501 0.10902
# Poissons Ratio (y) = 0.29696 0.58030
# Poissons Ratio (z) = 0.06076 0.43018
#
# Static dielectric constant tensor:
#      x y z
#    x 3.146370 0.000000 0.000000 
#    y 0.000000 3.241510 0.000000 
#    z 0.000000 0.000000 3.334510 
# 
# 
# High freq. dielectric constant tensor:
#      x y z
#    x 1.648220 0.000000 0.000000 
#    y 0.000000 1.613890 0.000000 
#    z 0.000000 0.000000 1.640860 
# 
# From -- ./inp_files/18634.got.cif
#   From: 2010.03.12/outbox.cif.g09.slc.cpg/sg46_10_cif.got.tgz:18634.got - 2010.04.14 02:56:35.
