data_PCOD8191735
_publ_section_title
;
Structure prediction by ZEFSAII (Michael W. Deem and Ramdas Pophale) SiO2 
 PCOD8191735
Probable space group: I M A 2
;
_chemical_formula_sum "Si O2"
_cell_formula_units_Z 48
_cell_length_a 8.969964
_cell_length_b 23.866186
_cell_length_c 13.395545
_cell_angle_alpha 90.000000
_cell_angle_beta 90.000000
_cell_angle_gamma 90.000000
_cell_volume 2867.702591
_symmetry_space_group_name_H-M "I M A 2"
_symmetry_group_IT_number 46
_symmetry_cell_setting 'orthorhombic'
loop_
_space_group_symop_operation_xyz
x,y,z
-x,-y,z
1/2-x,y,z
1/2+x,-y,z
1/2+x,1/2+y,1/2+z
1/2-x,1/2-y,1/2+z
-x,1/2+y,1/2+z
x,1/2-y,1/2+z
loop_
_atom_site_type_symbol
_atom_site_label
_atom_site_fract_x
_atom_site_fract_y
_atom_site_fract_z
Si Si1 0.422977 0.227233 0.355630
Si Si2 0.576768 0.231640 0.554380
Si Si3 0.426205 0.557495 0.573209
Si Si4 0.575668 0.665396 0.653483
Si Si5 0.077294 0.828183 0.755831
Si Si6 0.076515 0.944038 0.844121
O O1 0.250000 0.231120 0.381715
O O2 0.511886 0.205780 0.452581
O O3 0.454814 0.183665 0.267135
O O4 0.479459 0.288681 0.325886
O O5 0.750000 0.245897 0.542289
O O6 0.492134 0.289205 0.578133
O O7 0.548924 0.185521 0.639953
O O8 0.500000 0.500000 0.610912
O O9 0.250000 0.554635 0.589199
O O10 0.493820 0.606716 0.639764
O O11 0.470317 0.568323 0.458109
O O12 0.750000 0.659575 0.630370
O O13 0.250000 0.819288 0.785189
O O14 0.026556 0.891838 0.775813
O O15 0.250000 0.954945 0.836345
O O16 0.000000 0.000000 0.802361
#
# Coordination Sequence:
#
# PCOD8191735 Si02
#       6
#     8   8   8   8   8   8
#     4  10  20  32  48  71  98 126 157 196 240 284
#     4  10  19  31  49  71  96 127 160 195 237 286
#     4  10  19  31  49  72  98 128 159 194 238 286
#     4  10  20  33  49  71  98 126 159 199 241 285
#     4   9  18  32  49  70  96 125 159 195 232 280
#     4   9  18  31  47  69  95 122 153 189 230 277
#
# _framework density 16.738136999999998
#
# number of rings (size 3 to 8) (size 9 to 14) (size 15 to 20)
#    0.000    2.333    0.000    3.000    0.000    5.333 
#    0.000    0.000    0.000    1.000    0.000    4.667 
#    0.000    0.000    0.000    0.000    0.000    0.000 
#
# Total GULP energy -297678.142129 kJ/mol
# GULP energy per Si atom -12403.255922 kJ/mol
# Density = 1.670004 g / cm^3
# Si number density = 16.738137 Si / 1000 Ang^3
#
#
#
# Elastic Constant Matrix: (Units=GPa)
#
#
# Indices 1 2 3 4 5 6 
#
# 1 86.4227 55.5285 46.9903 0.0001 0.0000 0.0000
# 2 55.5285 139.0109 52.3927 -0.0002 0.0000 0.0000
# 3 46.9903 52.3927 89.3126 -0.0002 0.0000 0.0000
# 4 0.0001 -0.0002 -0.0002 21.7048 0.0000 0.0000
# 5 0.0000 0.0000 0.0000 0.0000 28.2913 0.0000
# 6 0.0000 0.0000 0.0000 0.0000 0.0000 31.4520
#
#
#
# Elastic Compliance Matrix: (Units=1/GPa)
#
#
# Indices 1 2 3 4 5 6 
#
# 1 0.018356 -0.004741 -0.006877 0.000000 0.000000 0.000000
# 2 -0.004741 0.010460 -0.003642 0.000000 0.000000 0.000000
# 3 -0.006877 -0.003642 0.016951 0.000000 0.000000 0.000000
# 4 0.000000 0.000000 0.000000 0.046073 0.000000 0.000000
# 5 0.000000 0.000000 0.000000 0.000000 0.035347 0.000000
# 6 0.000000 0.000000 0.000000 0.000000 0.000000 0.031794
#
#
# Mechanical properties :
#
#
# Convention : Reuss Voigt Hill
#
# Bulk Modulus (GPa) = 65.57952 69.39657 67.48804
# Shear Modulus (GPa) = 25.69607 26.94527 26.32067
#
# Velocity S-wave (km/s) = 3.92239 4.01660 3.96977
# Velocity P-wave (km/s) = 7.73164 7.94109 7.83707
#
# Compressibility (1/GPa) = 0.01524866
#
# Stress axis : x y z
#
# Youngs Moduli (GPa) = 54.47791 95.60311 58.99314
#
# Poissons Ratio (x) = 0.45321 0.40569
# Poissons Ratio (y) = 0.25826 0.21484
# Poissons Ratio (z) = 0.37463 0.34817
#
# Static dielectric constant tensor:
#      x y z
#    x 3.235040 0.000000 0.000000 
#    y 0.000000 3.089720 0.000000 
#    z 0.000000 0.000000 3.117980 
# 
# 
# High freq. dielectric constant tensor:
#      x y z
#    x 1.658410 0.000000 0.000000 
#    y 0.000000 1.634750 0.000000 
#    z 0.000000 0.000000 1.633230 
# 
# From -- ./inp_files/9292.got.cif
#   From: 2010.03.12/outbox.cif.g09.slc.cpg/sg46_5_cif.got.tgz:9292.got - 2010.04.14 02:56:35.
