data_PCOD8191361
_publ_section_title
;
Structure prediction by ZEFSAII (Michael W. Deem and Ramdas Pophale) SiO2 
 PCOD8191361
Probable space group: I M A 2
;
_chemical_formula_sum "Si O2"
_cell_formula_units_Z 56
_cell_length_a 9.433757
_cell_length_b 18.701212
_cell_length_c 17.472532
_cell_angle_alpha 90.000000
_cell_angle_beta 90.000000
_cell_angle_gamma 90.000000
_cell_volume 3082.551090
_symmetry_space_group_name_H-M "I M A 2"
_symmetry_group_IT_number 46
_symmetry_cell_setting 'orthorhombic'
loop_
_space_group_symop_operation_xyz
x,y,z
-x,-y,z
1/2-x,y,z
1/2+x,-y,z
1/2+x,1/2+y,1/2+z
1/2-x,1/2-y,1/2+z
-x,1/2+y,1/2+z
x,1/2-y,1/2+z
loop_
_atom_site_type_symbol
_atom_site_label
_atom_site_fract_x
_atom_site_fract_y
_atom_site_fract_z
Si Si1 0.082773 0.203144 0.521620
Si Si2 0.907692 0.167571 0.375622
Si Si3 0.406352 0.802352 0.771674
Si Si4 0.916696 0.426685 0.732109
Si Si5 0.908362 0.564350 0.281692
Si Si6 0.595380 0.561818 0.101370
Si Si7 0.915852 0.293895 0.630165
O O1 0.250000 0.218273 0.514718
O O2 0.042185 0.140737 0.581271
O O3 0.023799 0.174654 0.441371
O O4 0.005772 0.274916 0.553609
O O5 0.750000 0.147963 0.407320
O O6 0.897228 0.244063 0.336915
O O7 0.957836 0.108120 0.313983
O O8 0.250000 0.837458 0.760197
O O9 0.517608 0.860837 0.800210
O O10 0.455632 0.765374 0.693304
O O11 0.750000 0.442409 0.729978
O O12 0.957159 0.372009 0.663272
O O13 0.000000 0.500000 0.719427
O O14 0.750000 0.564468 0.317104
O O15 0.900663 0.552906 0.191627
O O16 0.000000 0.500000 0.318779
O O17 0.500000 0.500000 0.063732
O O18 0.750000 0.550567 0.065134
O O19 0.750000 0.291479 0.609785
#
# Coordination Sequence:
#
# PCOD8191361 Si02
#       7
#     8   8   8   8   8   8   8
#     4  11  21  33  49  76 107 136 175 217 258 305
#     4   9  20  36  52  73 103 139 174 208 257 319
#     4   9  17  32  52  72  95 127 170 213 252 301
#     4   9  19  36  57  81 107 138 179 221 266 319
#     4  10  18  29  46  70  99 128 160 199 244 290
#     4   9  19  31  43  66  99 131 163 198 235 285
#     4   9  18  33  54  76 100 135 174 214 263 315
#
# _framework density 18.16677
#
# number of rings (size 3 to 8) (size 9 to 14) (size 15 to 20)
#    0.000    2.571    1.429    2.571    0.000    4.000 
#    0.000    5.714    0.000    0.857    0.000    4.000 
#    0.000    0.000    0.000    0.000    0.000    0.000 
#
# Total GULP energy -347042.582511 kJ/mol
# GULP energy per Si atom -12394.377947 kJ/mol
# Density = 1.812542 g / cm^3
# Si number density = 18.166770 Si / 1000 Ang^3
#
#
#
# Elastic Constant Matrix: (Units=GPa)
#
#
# Indices 1 2 3 4 5 6 
#
# 1 92.5581 61.1004 29.5582 0.0000 0.0000 0.0000
# 2 61.1004 113.0516 21.9720 0.0000 0.0000 0.0000
# 3 29.5582 21.9720 40.1878 0.0000 0.0000 0.0000
# 4 0.0000 0.0000 0.0000 13.5289 0.0000 0.0000
# 5 0.0000 0.0000 0.0000 0.0000 21.3673 0.0000
# 6 0.0000 0.0000 0.0000 0.0000 0.0000 36.5935
#
#
#
# Elastic Compliance Matrix: (Units=1/GPa)
#
#
# Indices 1 2 3 4 5 6 
#
# 1 0.019674 -0.008750 -0.009686 0.000000 0.000000 0.000000
# 2 -0.008750 0.013789 -0.001103 0.000000 0.000000 0.000000
# 3 -0.009686 -0.001103 0.032610 0.000000 0.000000 0.000000
# 4 0.000000 0.000000 0.000000 0.073916 0.000000 0.000000
# 5 0.000000 0.000000 0.000000 0.000000 0.046800 0.000000
# 6 0.000000 0.000000 0.000000 0.000000 0.000000 0.027327
#
#
# Mechanical properties :
#
#
# Convention : Reuss Voigt Hill
#
# Bulk Modulus (GPa) = 37.04473 52.33985 44.69229
# Shear Modulus (GPa) = 19.06992 23.17575 21.12284
#
# Velocity S-wave (km/s) = 3.24344 3.57560 3.41356
# Velocity P-wave (km/s) = 5.87046 6.77642 6.33964
#
# Compressibility (1/GPa) = 0.02699439
#
# Stress axis : x y z
#
# Youngs Moduli (GPa) = 50.82963 72.52064 30.66521
#
# Poissons Ratio (x) = 0.63458 0.29702
# Poissons Ratio (y) = 0.44478 0.03383
# Poissons Ratio (z) = 0.49233 0.08000
#
# Static dielectric constant tensor:
#      x y z
#    x 3.741260 0.000000 0.000000 
#    y 0.000000 3.337440 0.000000 
#    z 0.000000 0.000000 3.046060 
# 
# 
# High freq. dielectric constant tensor:
#      x y z
#    x 1.708990 0.000000 0.000000 
#    y 0.000000 1.701440 0.000000 
#    z 0.000000 0.000000 1.665910 
# 
# From -- ./inp_files/18463.got.cif
#   From: 2010.03.12/outbox.cif.g09.slc.cpg/sg46_10_cif.got.tgz:18463.got - 2010.04.14 02:56:35.
