data_PCOD8191141
_publ_section_title
;
Structure prediction by ZEFSAII (Michael W. Deem and Ramdas Pophale) SiO2 
 PCOD8191141
Probable space group: I M A 2
;
_chemical_formula_sum "Si O2"
_cell_formula_units_Z 56
_cell_length_a 18.631306
_cell_length_b 15.145061
_cell_length_c 12.992498
_cell_angle_alpha 90.000000
_cell_angle_beta 90.000000
_cell_angle_gamma 90.000000
_cell_volume 3666.122600
_symmetry_space_group_name_H-M "I M A 2"
_symmetry_group_IT_number 46
_symmetry_cell_setting 'orthorhombic'
loop_
_space_group_symop_operation_xyz
x,y,z
-x,-y,z
1/2-x,y,z
1/2+x,-y,z
1/2+x,1/2+y,1/2+z
1/2-x,1/2-y,1/2+z
-x,1/2+y,1/2+z
x,1/2-y,1/2+z
loop_
_atom_site_type_symbol
_atom_site_label
_atom_site_fract_x
_atom_site_fract_y
_atom_site_fract_z
Si Si1 0.671930 0.108625 0.031850
Si Si2 0.482970 0.370375 0.651748
Si Si3 0.883853 0.010767 0.211210
Si Si4 0.027459 0.905422 0.928449
Si Si5 0.668421 0.191094 0.594446
Si Si6 0.436645 0.775042 0.759266
Si Si7 0.166623 0.635454 0.870089
O O1 0.750000 0.108310 0.977776
O O2 0.674477 0.038671 0.125719
O O3 0.654366 0.205362 0.075610
O O4 0.612238 0.083025 0.949575
O O5 0.407200 0.407644 0.699116
O O6 0.545686 0.434083 0.687050
O O7 0.482194 0.371020 0.527157
O O8 0.499997 0.273892 0.696073
O O9 0.853334 0.038353 0.323797
O O10 0.018797 0.835704 0.837136
O O11 0.000000 0.000000 0.890853
O O12 0.750000 0.174007 0.630891
O O13 0.611835 0.164264 0.682962
O O14 0.651721 0.134460 0.492017
O O15 0.382490 0.709587 0.817953
O O16 0.250000 0.658676 0.848542
#
# Coordination Sequence:
#
# PCOD8191141 Si02
#       7
#     8   8   8   8   8   8   8
#     4  10  16  25  44  70  93 115 150 188 229 279
#     4   9  16  29  44  64  85 125 154 192 220 265
#     4   9  15  26  43  62  92 116 151 186 224 254
#     4  11  19  32  47  66  98 123 156 197 236 272
#     4  10  18  26  39  66  98 125 149 178 227 292
#     4  11  18  27  45  63  92 126 157 183 233 278
#     4  10  17  25  42  69  97 122 147 184 234 293
#
# _framework density 15.274994
#
# number of rings (size 3 to 8) (size 9 to 14) (size 15 to 20)
#    0.000    2.000    8.571    0.857    0.000    0.571 
#    0.000    0.000    9.429    0.000    0.000    2.000 
#    0.000    0.000    0.000    0.000    0.000    0.000 
#
# Total GULP energy -346966.019566 kJ/mol
# GULP energy per Si atom -12391.643556 kJ/mol
# Density = 1.524023 g / cm^3
# Si number density = 15.274994 Si / 1000 Ang^3
#
#
#
# Elastic Constant Matrix: (Units=GPa)
#
#
# Indices 1 2 3 4 5 6 
#
# 1 38.3086 31.2584 24.9663 0.0000 0.0000 0.0000
# 2 31.2584 61.4156 47.5885 0.0000 0.0000 0.0000
# 3 24.9663 47.5885 88.9035 0.0000 0.0000 0.0000
# 4 0.0000 0.0000 0.0000 23.6553 0.0000 0.0000
# 5 0.0000 0.0000 0.0000 0.0000 13.4469 0.0000
# 6 0.0000 0.0000 0.0000 0.0000 0.0000 18.6587
#
#
#
# Elastic Compliance Matrix: (Units=1/GPa)
#
#
# Indices 1 2 3 4 5 6 
#
# 1 0.044666 -0.022237 -0.000640 0.000000 0.000000 0.000000
# 2 -0.022237 0.038894 -0.014574 0.000000 0.000000 0.000000
# 3 -0.000640 -0.014574 0.019229 0.000000 0.000000 0.000000
# 4 0.000000 0.000000 0.000000 0.042274 0.000000 0.000000
# 5 0.000000 0.000000 0.000000 0.000000 0.074367 0.000000
# 6 0.000000 0.000000 0.000000 0.000000 0.000000 0.053594
#
#
# Mechanical properties :
#
#
# Convention : Reuss Voigt Hill
#
# Bulk Modulus (GPa) = 35.86116 44.02822 39.94469
# Shear Modulus (GPa) = 13.99691 16.80649 15.40170
#
# Velocity S-wave (km/s) = 3.03038 3.32062 3.17881
# Velocity P-wave (km/s) = 5.98099 6.60214 6.29923
#
# Compressibility (1/GPa) = 0.02788532
#
# Stress axis : x y z
#
# Youngs Moduli (GPa) = 22.38852 25.71113 52.00416
#
# Poissons Ratio (x) = 0.57175 0.03328
# Poissons Ratio (y) = 0.49786 0.75792
# Poissons Ratio (z) = 0.01433 0.37472
#
# Static dielectric constant tensor:
#      x y z
#    x 3.033360 0.000000 0.000000 
#    y 0.000000 2.909140 0.000000 
#    z 0.000000 0.000000 3.063750 
# 
# 
# High freq. dielectric constant tensor:
#      x y z
#    x 1.569180 0.000000 0.000000 
#    y 0.000000 1.537850 0.000000 
#    z 0.000000 0.000000 1.582620 
# 
# From -- ./inp_files/12013.got.cif
#   From: 2010.03.12/outbox.cif.g09.slc.cpg/sg46_7_cif.got.tgz:12013.got - 2010.04.14 02:56:35.
