data_PCOD8191680
_publ_section_title
;
Structure prediction by ZEFSAII (Michael W. Deem and Ramdas Pophale) SiO2 
 PCOD8191680
Probable space group: I M A 2
;
_chemical_formula_sum "Si O2"
_cell_formula_units_Z 64
_cell_length_a 8.868511
_cell_length_b 14.486020
_cell_length_c 27.709661
_cell_angle_alpha 90.000000
_cell_angle_beta 90.000000
_cell_angle_gamma 90.000000
_cell_volume 3559.844291
_symmetry_space_group_name_H-M "I M A 2"
_symmetry_group_IT_number 46
_symmetry_cell_setting 'orthorhombic'
loop_
_space_group_symop_operation_xyz
x,y,z
-x,-y,z
1/2-x,y,z
1/2+x,-y,z
1/2+x,1/2+y,1/2+z
1/2-x,1/2-y,1/2+z
-x,1/2+y,1/2+z
x,1/2-y,1/2+z
loop_
_atom_site_type_symbol
_atom_site_label
_atom_site_fract_x
_atom_site_fract_y
_atom_site_fract_z
Si Si1 0.427436 0.211151 0.153170
Si Si2 0.070784 0.778444 0.876038
Si Si3 0.582505 0.145359 0.243744
Si Si4 0.925391 0.593926 0.563981
Si Si5 0.929244 0.907051 0.338226
Si Si6 0.071142 0.097159 0.954427
Si Si7 0.074638 0.409354 0.186197
Si Si8 0.915285 0.146305 0.776956
O O1 0.250000 0.206654 0.163518
O O2 0.507496 0.142209 0.190888
O O3 0.470593 0.177931 0.099426
O O4 0.484574 0.316905 0.159421
O O5 0.250000 0.765136 0.880258
O O6 0.030990 0.850416 0.832685
O O7 0.995602 0.679386 0.867329
O O8 0.001519 0.820018 0.924447
O O9 0.750000 0.100084 0.242236
O O10 0.476834 0.093317 0.281908
O O11 0.597879 0.249584 0.260056
O O12 0.750000 0.575025 0.566030
O O13 0.974957 0.618845 0.509696
O O14 0.000000 0.500000 0.582420
O O15 0.750000 0.907264 0.342816
O O16 0.000000 0.000000 0.361454
O O17 0.250000 0.093717 0.946578
O O18 0.000000 0.000000 0.938035
O O19 0.250000 0.420068 0.179940
O O20 0.000000 0.500000 0.162203
O O21 0.033616 0.407044 0.243292
O O22 0.750000 0.099021 0.772161
#
# Coordination Sequence:
#
# PCOD8191680 Si02
#       8
#     8   8   8   8   8   8   8   8
#     4   9  18  33  51  72  99 134 171 209 254 305
#     4  10  20  35  54  77 104 134 170 213 256 305
#     4   9  17  30  47  70  99 131 167 207 247 291
#     4   9  19  35  54  76 101 127 162 206 256 310
#     4  11  21  34  52  75 105 141 177 212 251 299
#     4  10  20  35  55  78 102 131 165 208 261 315
#     4  10  19  30  47  69  97 132 168 204 243 288
#     4   8  16  30  46  65  93 126 161 199 238 281
#
# _framework density 17.978314999999998
#
# number of rings (size 3 to 8) (size 9 to 14) (size 15 to 20)
#    0.000    2.500    0.000    3.375    0.000    6.000 
#    0.000    1.250    0.000    0.750    0.000    1.750 
#    0.000    0.000    0.000    0.000    0.000    0.000 
#
# Total GULP energy -396691.901854 kJ/mol
# GULP energy per Si atom -12396.621933 kJ/mol
# Density = 1.793740 g / cm^3
# Si number density = 17.978315 Si / 1000 Ang^3
#
#
#
# Elastic Constant Matrix: (Units=GPa)
#
#
# Indices 1 2 3 4 5 6 
#
# 1 92.9431 49.1174 39.1872 0.0000 0.0000 0.0000
# 2 49.1174 108.3369 57.4146 0.0000 0.0000 0.0000
# 3 39.1872 57.4146 97.1075 0.0000 0.0000 0.0000
# 4 0.0000 0.0000 0.0000 22.6169 0.0000 0.0000
# 5 0.0000 0.0000 0.0000 0.0000 22.6233 0.0000
# 6 0.0000 0.0000 0.0000 0.0000 0.0000 30.3400
#
#
#
# Elastic Compliance Matrix: (Units=1/GPa)
#
#
# Indices 1 2 3 4 5 6 
#
# 1 0.014689 -0.005124 -0.002898 0.000000 0.000000 0.000000
# 2 -0.005124 0.015230 -0.006937 0.000000 0.000000 0.000000
# 3 -0.002898 -0.006937 0.015569 0.000000 0.000000 0.000000
# 4 0.000000 0.000000 0.000000 0.044215 0.000000 0.000000
# 5 0.000000 0.000000 0.000000 0.000000 0.044202 0.000000
# 6 0.000000 0.000000 0.000000 0.000000 0.000000 0.032960
#
#
# Mechanical properties :
#
#
# Convention : Reuss Voigt Hill
#
# Bulk Modulus (GPa) = 64.22671 65.53619 64.88145
# Shear Modulus (GPa) = 24.75592 25.29393 25.02493
#
# Velocity S-wave (km/s) = 3.71480 3.75495 3.73493
# Velocity P-wave (km/s) = 7.36219 7.43852 7.40045
#
# Compressibility (1/GPa) = 0.01556985
#
# Stress axis : x y z
#
# Youngs Moduli (GPa) = 68.07847 65.66117 64.23061
#
# Poissons Ratio (x) = 0.33642 0.18616
# Poissons Ratio (y) = 0.34881 0.44556
# Poissons Ratio (z) = 0.19731 0.45549
#
# Static dielectric constant tensor:
#      x y z
#    x 3.434600 0.000000 0.000000 
#    y 0.000000 3.396280 0.000000 
#    z 0.000000 0.000000 3.391430 
# 
# 
# High freq. dielectric constant tensor:
#      x y z
#    x 1.705160 0.000000 0.000000 
#    y 0.000000 1.690520 0.000000 
#    z 0.000000 0.000000 1.671950 
# 
# From -- ./inp_files/25281.got.cif
#   From: 2010.03.12/outbox.cif.g09.slc.cpg/sg46_13_cif.got.tgz:25281.got - 2010.04.14 02:56:35.
