data_PCOD8191376
_publ_section_title
;
Structure prediction by ZEFSAII (Michael W. Deem and Ramdas Pophale) SiO2 
 PCOD8191376
Probable space group: I M A 2
;
_chemical_formula_sum "Si O2"
_cell_formula_units_Z 56
_cell_length_a 25.842030
_cell_length_b 17.545552
_cell_length_c 5.291387
_cell_angle_alpha 90.000000
_cell_angle_beta 90.000000
_cell_angle_gamma 90.000000
_cell_volume 2399.181967
_symmetry_space_group_name_H-M "I M A 2"
_symmetry_group_IT_number 46
_symmetry_cell_setting 'orthorhombic'
loop_
_space_group_symop_operation_xyz
x,y,z
-x,-y,z
1/2-x,y,z
1/2+x,-y,z
1/2+x,1/2+y,1/2+z
1/2-x,1/2-y,1/2+z
-x,1/2+y,1/2+z
x,1/2-y,1/2+z
loop_
_atom_site_type_symbol
_atom_site_label
_atom_site_fract_x
_atom_site_fract_y
_atom_site_fract_z
Si Si1 0.937967 0.776043 0.631290
Si Si2 0.007521 0.589645 0.140603
Si Si3 0.311447 0.957740 0.258792
Si Si4 0.962305 0.166244 0.146030
Si Si5 0.311712 0.041847 0.759557
Si Si6 0.188378 0.290269 0.360665
Si Si7 0.650500 0.289399 0.696191
O O1 0.906047 0.745645 0.386037
O O2 0.952131 0.865489 0.626125
O O3 0.990668 0.725979 0.660679
O O4 0.038638 0.618050 0.387128
O O5 0.000000 0.500000 0.166130
O O6 0.037426 0.607231 0.880776
O O7 0.250000 0.956269 0.264687
O O8 0.333058 0.873639 0.266832
O O9 0.332995 0.003758 0.502117
O O10 0.332214 0.996005 0.002514
O O11 0.911328 0.217213 0.173158
O O12 0.250000 0.043312 0.754453
O O13 0.334261 0.126972 0.785589
O O14 0.250000 0.293483 0.365451
O O15 0.168663 0.234792 0.137138
O O16 0.672945 0.263107 0.424149
#
# Coordination Sequence:
#
# PCOD8191376 Si02
#       7
#     8   8   8   8   8   8   8
#     4   8  14  25  41  60  90 125 151 178 223 276
#     4  10  18  29  48  74 103 129 155 195 242 291
#     4  10  21  35  50  70  99 138 182 229 280 330
#     4  10  19  33  49  71 103 135 163 197 251 307
#     4   9  17  31  47  65  98 134 160 204 273 333
#     4   9  15  23  40  67  94 118 146 184 236 306
#     4  12  23  36  55  75  98 137 184 229 276 321
#
# _framework density 23.341287999999999
#
# number of rings (size 3 to 8) (size 9 to 14) (size 15 to 20)
#    0.000    2.286    0.000    5.571    0.000    4.000 
#    0.000    0.000    0.000    0.000    0.000    0.000 
#    0.000   68.571    0.000    0.000    0.000    0.000 
#
# Total GULP energy -347133.428417 kJ/mol
# GULP energy per Si atom -12397.622443 kJ/mol
# Density = 2.328816 g / cm^3
# Si number density = 23.341288 Si / 1000 Ang^3
#
#
#
# Elastic Constant Matrix: (Units=GPa)
#
#
# Indices 1 2 3 4 5 6 
#
# 1 15.0157 7.4211 21.8603 0.0000 0.0000 0.0000
# 2 7.4211 152.3572 62.6376 0.0000 0.0000 0.0000
# 3 21.8603 62.6376 218.1086 0.0000 0.0000 0.0000
# 4 0.0000 0.0000 0.0000 50.9592 0.0000 0.0000
# 5 0.0000 0.0000 0.0000 0.0000 16.9552 0.0000
# 6 0.0000 0.0000 0.0000 0.0000 0.0000 -12.4970
#
#
#
# Elastic Compliance Matrix: (Units=1/GPa)
#
#
# Indices 1 2 3 4 5 6 
#
# 1 0.078034 -0.000664 -0.007630 0.000000 0.000000 0.000000
# 2 -0.000664 0.007448 -0.002072 0.000000 0.000000 0.000000
# 3 -0.007630 -0.002072 0.005945 0.000000 0.000000 0.000000
# 4 0.000000 0.000000 0.000000 0.019624 0.000000 0.000000
# 5 0.000000 0.000000 0.000000 0.000000 0.058979 0.000000
# 6 0.000000 0.000000 0.000000 0.000000 0.000000 -0.080019
#
#
# Mechanical properties :
#
#
# Convention : Reuss Voigt Hill
#
# Bulk Modulus (GPa) = 14.14566 63.25773 38.70170
# Shear Modulus (GPa) = 37.22800 30.65430 33.94115
#
# Velocity S-wave (km/s) = 3.99801 3.62789 3.81744
# Velocity P-wave (km/s) = 5.23312 6.68647 6.00393
#
# Compressibility (1/GPa) = 0.07069304
#
# Stress axis : x y z
#
# Youngs Moduli (GPa) = 12.81498 134.26667 168.21421
#
# Poissons Ratio (x) = 0.08913 1.28354
# Poissons Ratio (y) = 0.00851 0.34860
# Poissons Ratio (z) = 0.09778 0.27825
#
# Static dielectric constant tensor:
#      x y z
#    x 3.842370 0.000000 0.000000 
#    y 0.000000 4.109390 0.000000 
#    z 0.000000 0.000000 5.605850 
# 
# 
# High freq. dielectric constant tensor:
#      x y z
#    x 1.899770 0.000000 0.000000 
#    y 0.000000 1.919350 0.000000 
#    z 0.000000 0.000000 1.961360 
# 
# From -- ./inp_files/2727.got.cif
#   From: 2010.03.12/outbox.cif.g09.slc.cpg/sg46_2_cif.got.tgz:2727.got - 2010.04.14 02:56:35.
