data_PCOD8191758
_publ_section_title
;
Structure prediction by ZEFSAII (Michael W. Deem and Ramdas Pophale) SiO2 
 PCOD8191758
Probable space group: I M A 2
;
_chemical_formula_sum "Si O2"
_cell_formula_units_Z 64
_cell_length_a 9.105563
_cell_length_b 16.185065
_cell_length_c 22.198052
_cell_angle_alpha 90.000000
_cell_angle_beta 90.000000
_cell_angle_gamma 90.000000
_cell_volume 3271.418579
_symmetry_space_group_name_H-M "I M A 2"
_symmetry_group_IT_number 46
_symmetry_cell_setting 'orthorhombic'
loop_
_space_group_symop_operation_xyz
x,y,z
-x,-y,z
1/2-x,y,z
1/2+x,-y,z
1/2+x,1/2+y,1/2+z
1/2-x,1/2-y,1/2+z
-x,1/2+y,1/2+z
x,1/2-y,1/2+z
loop_
_atom_site_type_symbol
_atom_site_label
_atom_site_fract_x
_atom_site_fract_y
_atom_site_fract_z
Si Si1 0.411788 0.797632 0.930550
Si Si2 0.413730 0.422191 0.356903
Si Si3 0.415299 0.613032 0.887902
Si Si4 0.418544 0.243815 0.045453
Si Si5 0.073257 0.415464 0.762410
Si Si6 0.079984 0.425803 0.006879
Si Si7 0.084016 0.081751 0.714162
Si Si8 0.077281 0.261913 0.680705
O O1 0.250000 0.837903 0.934372
O O2 0.513398 0.840981 0.882328
O O3 0.400930 0.707831 0.903622
O O4 0.480406 0.802372 0.997273
O O5 0.500000 0.500000 0.383175
O O6 0.250000 0.427787 0.381770
O O7 0.418237 0.419161 0.285649
O O8 0.250000 0.576302 0.879035
O O9 0.513722 0.597891 0.829387
O O10 0.500833 0.571658 0.942418
O O11 0.250000 0.223293 0.029882
O O12 0.461460 0.213314 0.112077
O O13 0.445146 0.342049 0.043424
O O14 0.250000 0.423064 0.761851
O O15 0.018735 0.336289 0.722945
O O16 0.000000 0.500000 0.736279
O O17 0.250000 0.445141 0.997587
O O18 0.000000 0.500000 0.044059
O O19 0.250000 0.075653 0.688923
O O20 0.010776 0.170155 0.694955
O O21 0.000000 0.000000 0.689489
O O22 0.250000 0.253433 0.690664
#
# Coordination Sequence:
#
# PCOD8191758 Si02
#       8
#     8   8   8   8   8   8   8   8
#     4  10  20  34  53  78 106 135 171 217 266 314
#     4  10  19  32  52  78 108 139 172 212 261 317
#     4  10  20  34  53  78 108 138 171 213 262 318
#     4   9  19  36  55  73  97 136 181 217 255 310
#     4  11  22  37  57  80 107 139 179 225 272 321
#     4  10  19  31  50  76 106 137 170 209 256 312
#     4   9  18  33  54  82 112 141 175 214 260 317
#     4   9  19  37  58  77 103 143 185 221 261 315
#
# _framework density 19.563379000000001
#
# number of rings (size 3 to 8) (size 9 to 14) (size 15 to 20)
#    0.000    2.250    0.000    3.000    0.000    4.000 
#    0.000    3.750    0.000    1.500    0.000    0.000 
#    0.000    0.000    0.000    0.000    0.000    0.000 
#
# Total GULP energy -396626.390980 kJ/mol
# GULP energy per Si atom -12394.574718 kJ/mol
# Density = 1.951885 g / cm^3
# Si number density = 19.563379 Si / 1000 Ang^3
#
#
#
# Elastic Constant Matrix: (Units=GPa)
#
#
# Indices 1 2 3 4 5 6 
#
# 1 106.3934 26.8026 25.4907 0.0000 0.0000 0.0000
# 2 26.8026 77.8648 26.4231 0.0000 0.0000 0.0000
# 3 25.4907 26.4231 45.3828 0.0000 0.0000 0.0000
# 4 0.0000 0.0000 0.0000 14.3519 0.0000 0.0000
# 5 0.0000 0.0000 0.0000 0.0000 18.8661 0.0000
# 6 0.0000 0.0000 0.0000 0.0000 0.0000 32.2349
#
#
#
# Elastic Compliance Matrix: (Units=1/GPa)
#
#
# Indices 1 2 3 4 5 6 
#
# 1 0.011138 -0.002132 -0.005014 0.000000 0.000000 0.000000
# 2 -0.002132 0.016413 -0.008359 0.000000 0.000000 0.000000
# 3 -0.005014 -0.008359 0.029718 0.000000 0.000000 0.000000
# 4 0.000000 0.000000 0.000000 0.069677 0.000000 0.000000
# 5 0.000000 0.000000 0.000000 0.000000 0.053005 0.000000
# 6 0.000000 0.000000 0.000000 0.000000 0.000000 0.031022
#
#
# Mechanical properties :
#
#
# Convention : Reuss Voigt Hill
#
# Bulk Modulus (GPa) = 38.08313 43.00821 40.54567
# Shear Modulus (GPa) = 19.94125 23.15221 21.54673
#
# Velocity S-wave (km/s) = 3.19614 3.44386 3.32231
# Velocity P-wave (km/s) = 5.75580 6.15185 5.95712
#
# Compressibility (1/GPa) = 0.02625834
#
# Stress axis : x y z
#
# Youngs Moduli (GPa) = 89.78583 60.92666 33.64975
#
# Poissons Ratio (x) = 0.12991 0.16873
# Poissons Ratio (y) = 0.19144 0.28127
# Poissons Ratio (z) = 0.45022 0.50926
#
# Static dielectric constant tensor:
#      x y z
#    x 3.736860 0.000000 0.000000 
#    y 0.000000 3.813950 0.000000 
#    z 0.000000 0.000000 3.391990 
# 
# 
# High freq. dielectric constant tensor:
#      x y z
#    x 1.757730 0.000000 0.000000 
#    y 0.000000 1.766490 0.000000 
#    z 0.000000 0.000000 1.749550 
# 
# From -- ./inp_files/23143.got.cif
#   From: 2010.03.12/outbox.cif.g09.slc.cpg/sg46_12_cif.got.tgz:23143.got - 2010.04.14 02:56:35.
