data_PCOD8191709
_publ_section_title
;
Structure prediction by ZEFSAII (Michael W. Deem and Ramdas Pophale) SiO2 
 PCOD8191709
Probable space group: I M A 2
;
_chemical_formula_sum "Si O2"
_cell_formula_units_Z 64
_cell_length_a 9.089000
_cell_length_b 14.476491
_cell_length_c 27.794772
_cell_angle_alpha 90.000000
_cell_angle_beta 90.000000
_cell_angle_gamma 90.000000
_cell_volume 3657.147899
_symmetry_space_group_name_H-M "I M A 2"
_symmetry_group_IT_number 46
_symmetry_cell_setting 'orthorhombic'
loop_
_space_group_symop_operation_xyz
x,y,z
-x,-y,z
1/2-x,y,z
1/2+x,-y,z
1/2+x,1/2+y,1/2+z
1/2-x,1/2-y,1/2+z
-x,1/2+y,1/2+z
x,1/2-y,1/2+z
loop_
_atom_site_type_symbol
_atom_site_label
_atom_site_fract_x
_atom_site_fract_y
_atom_site_fract_z
Si Si1 0.585843 0.646701 0.505930
Si Si2 0.078549 0.592918 0.683894
Si Si3 0.085843 0.146701 0.469653
Si Si4 0.423275 0.588407 0.060971
Si Si5 0.576725 0.088407 0.914613
Si Si6 0.921479 0.288810 0.594770
Si Si7 0.078521 0.788810 0.380813
Si Si8 0.078549 0.907082 0.291689
O O1 0.750000 0.603244 0.509047
O O2 0.596657 0.750000 0.487792
O O3 0.484847 0.590505 0.468998
O O4 0.510747 0.645862 0.558267
O O5 0.250000 0.571429 0.682748
O O6 0.039530 0.677774 0.648569
O O7 0.026689 0.620473 0.737792
O O8 0.000000 0.500000 0.666101
O O9 0.250000 0.103244 0.466537
O O10 0.984847 0.090505 0.506585
O O11 0.010747 0.145862 0.417316
O O12 0.500000 0.500000 0.086791
O O13 0.250000 0.573332 0.059485
O O14 0.466537 0.681118 0.090114
O O15 0.750000 0.073332 0.916098
O O16 0.533464 0.181118 0.885469
O O17 0.500000 0.000000 0.888792
O O18 0.750000 0.300384 0.582358
O O19 0.250000 0.800384 0.393226
O O20 0.039530 0.822226 0.327014
O O21 0.250000 0.928571 0.292835
O O22 0.000000 0.000000 0.309482
#
# Coordination Sequence:
#
# PCOD8191709 Si02
#       8
#     8   8   8   8   8   8   8   8
#     4   9  17  29  45  66  92 122 156 192 228 269
#     4   9  18  33  52  73  95 119 150 189 234 283
#     4   9  17  29  45  66  92 122 156 192 228 269
#     4  10  19  31  47  67  94 128 163 197 232 272
#     4  10  19  31  47  67  94 128 163 197 232 272
#     4   9  18  32  49  69  95 127 159 192 233 280
#     4   9  18  32  49  69  95 127 159 192 233 280
#     4   9  18  33  52  73  95 119 150 189 234 283
#
# _framework density 17.499974999999999
#
# number of rings (size 3 to 8) (size 9 to 14) (size 15 to 20)
#    0.000    2.750    0.000    1.500    0.000    6.000 
#    0.000    2.500    0.000    0.750    0.000    0.000 
#    0.000    0.000    0.000    0.000    0.000    0.750 
#
# Total GULP energy -396698.287688 kJ/mol
# GULP energy per Si atom -12396.821490 kJ/mol
# Density = 1.746014 g / cm^3
# Si number density = 17.499975 Si / 1000 Ang^3
#
#
#
# Elastic Constant Matrix: (Units=GPa)
#
#
# Indices 1 2 3 4 5 6 
#
# 1 73.7777 43.3247 38.5383 0.0000 0.0000 0.0000
# 2 43.3247 105.2166 59.4633 0.0000 0.0000 0.0000
# 3 38.5383 59.4633 101.6281 0.0000 0.0000 0.0000
# 4 0.0000 0.0000 0.0000 22.8139 0.0000 0.0000
# 5 0.0000 0.0000 0.0000 0.0000 19.7831 0.0000
# 6 0.0000 0.0000 0.0000 0.0000 0.0000 28.7746
#
#
#
# Elastic Compliance Matrix: (Units=1/GPa)
#
#
# Indices 1 2 3 4 5 6 
#
# 1 0.018856 -0.005563 -0.003896 0.000000 0.000000 0.000000
# 2 -0.005563 0.015841 -0.007159 0.000000 0.000000 0.000000
# 3 -0.003896 -0.007159 0.015506 0.000000 0.000000 0.000000
# 4 0.000000 0.000000 0.000000 0.043833 0.000000 0.000000
# 5 0.000000 0.000000 0.000000 0.000000 0.050548 0.000000
# 6 0.000000 0.000000 0.000000 0.000000 0.000000 0.034753
#
#
# Mechanical properties :
#
#
# Convention : Reuss Voigt Hill
#
# Bulk Modulus (GPa) = 58.93535 62.58611 60.76073
# Shear Modulus (GPa) = 22.91198 23.56072 23.23635
#
# Velocity S-wave (km/s) = 3.62229 3.67322 3.64784
# Velocity P-wave (km/s) = 7.15857 7.33698 7.24832
#
# Compressibility (1/GPa) = 0.01696774
#
# Stress axis : x y z
#
# Youngs Moduli (GPa) = 53.03464 63.12873 64.49172
#
# Poissons Ratio (x) = 0.35116 0.25123
# Poissons Ratio (y) = 0.29501 0.46170
# Poissons Ratio (z) = 0.20660 0.45195
#
# Static dielectric constant tensor:
#      x y z
#    x 3.397980 0.000000 0.000000 
#    y 0.000000 3.336980 0.000000 
#    z 0.000000 0.000000 3.231220 
# 
# 
# High freq. dielectric constant tensor:
#      x y z
#    x 1.683400 0.000000 0.000000 
#    y 0.000000 1.671540 0.000000 
#    z 0.000000 0.000000 1.649160 
# 
# From -- ./inp_files/23217.got.cif
#   From: 2010.03.12/outbox.cif.g09.slc.cpg/sg46_12_cif.got.tgz:23217.got - 2010.04.14 02:56:35.
