data_PCOD8191655
_publ_section_title
;
Structure prediction by ZEFSAII (Michael W. Deem and Ramdas Pophale) SiO2 
 PCOD8191655
Probable space group: I M A 2
;
_chemical_formula_sum "Si O2"
_cell_formula_units_Z 64
_cell_length_a 8.821673
_cell_length_b 26.005989
_cell_length_c 18.284101
_cell_angle_alpha 90.000000
_cell_angle_beta 90.000000
_cell_angle_gamma 90.000000
_cell_volume 4194.671367
_symmetry_space_group_name_H-M "I M A 2"
_symmetry_group_IT_number 46
_symmetry_cell_setting 'orthorhombic'
loop_
_space_group_symop_operation_xyz
x,y,z
-x,-y,z
1/2-x,y,z
1/2+x,-y,z
1/2+x,1/2+y,1/2+z
1/2-x,1/2-y,1/2+z
-x,1/2+y,1/2+z
x,1/2-y,1/2+z
loop_
_atom_site_type_symbol
_atom_site_label
_atom_site_fract_x
_atom_site_fract_y
_atom_site_fract_z
Si Si1 0.571365 0.257543 0.204520
Si Si2 0.917799 0.304582 0.570543
Si Si3 0.426516 0.248699 0.859346
Si Si4 0.073494 0.052781 0.708108
Si Si5 0.429382 0.945768 0.861316
Si Si6 0.925003 0.644539 0.445007
Si Si7 0.925502 0.652124 0.117139
Si Si8 0.580806 0.301949 0.985814
O O1 0.750000 0.267823 0.201647
O O2 0.529037 0.208236 0.153367
O O3 0.519799 0.244462 0.285615
O O4 0.489680 0.308929 0.177343
O O5 0.750000 0.329581 0.569616
O O6 0.913173 0.250346 0.530388
O O7 0.033469 0.342529 0.529335
O O8 0.250000 0.255376 0.843190
O O9 0.462443 0.193084 0.893701
O O10 0.480479 0.294059 0.913346
O O11 0.250000 0.044220 0.725237
O O12 0.047517 0.094694 0.645692
O O13 0.993882 0.071197 0.782698
O O14 0.000000 0.000000 0.679513
O O15 0.250000 0.950919 0.856994
O O16 0.473534 0.903068 0.920378
O O17 0.500000 0.000000 0.885926
O O18 0.750000 0.629183 0.440715
O O19 0.750000 0.665162 0.106562
O O20 0.006123 0.655389 0.038330
O O21 0.750000 0.319696 0.963719
#
# Coordination Sequence:
#
# PCOD8191655 Si02
#       8
#     8   8   8   8   8   8   8   8
#     4  10  19  29  43  63  87 115 147 179 211 253
#     4   8  16  29  42  59  82 109 141 175 210 248
#     4  10  19  29  43  63  88 116 145 178 214 253
#     4  10  20  32  45  62  85 112 144 181 216 252
#     4  11  21  32  46  62  84 112 143 180 216 251
#     4  10  19  30  44  62  84 112 145 177 212 254
#     4  10  19  30  44  62  85 113 145 179 216 256
#     4   9  17  29  44  61  83 111 143 177 212 253
#
# _framework density 15.257453
#
# number of rings (size 3 to 8) (size 9 to 14) (size 15 to 20)
#    0.000    2.250    0.000    5.625    0.000   10.000 
#    0.000    0.000    0.000    0.000    0.000    0.000 
#    0.000    1.000    0.000    7.000    0.000    4.875 
#
# Total GULP energy -396791.941727 kJ/mol
# GULP energy per Si atom -12399.748179 kJ/mol
# Density = 1.522273 g / cm^3
# Si number density = 15.257453 Si / 1000 Ang^3
#
#
#
# Elastic Constant Matrix: (Units=GPa)
#
#
# Indices 1 2 3 4 5 6 
#
# 1 97.1502 43.0641 31.5097 0.0000 0.0000 0.0000
# 2 43.0641 63.4938 39.6576 0.0001 0.0000 0.0000
# 3 31.5097 39.6576 78.6739 0.0003 0.0000 0.0000
# 4 0.0000 0.0001 0.0003 21.8184 0.0000 0.0000
# 5 0.0000 0.0000 0.0000 0.0000 28.5434 0.0000
# 6 0.0000 0.0000 0.0000 0.0000 0.0000 22.1799
#
#
#
# Elastic Compliance Matrix: (Units=1/GPa)
#
#
# Indices 1 2 3 4 5 6 
#
# 1 0.014804 -0.009250 -0.001267 0.000000 0.000000 0.000000
# 2 -0.009250 0.028766 -0.010796 0.000000 0.000000 0.000000
# 3 -0.001267 -0.010796 0.018660 0.000000 0.000000 0.000000
# 4 0.000000 0.000000 0.000000 0.045833 0.000000 0.000000
# 5 0.000000 0.000000 0.000000 0.000000 0.035034 0.000000
# 6 0.000000 0.000000 0.000000 0.000000 0.000000 0.045086
#
#
# Mechanical properties :
#
#
# Convention : Reuss Voigt Hill
#
# Bulk Modulus (GPa) = 51.00480 51.97566 51.49023
# Shear Modulus (GPa) = 21.06656 22.84742 21.95699
#
# Velocity S-wave (km/s) = 3.71986 3.87390 3.79766
# Velocity P-wave (km/s) = 7.20776 7.35861 7.28358
#
# Compressibility (1/GPa) = 0.01960600
#
# Stress axis : x y z
#
# Youngs Moduli (GPa) = 67.54767 34.76324 53.59100
#
# Poissons Ratio (x) = 0.32155 0.06788
# Poissons Ratio (y) = 0.62480 0.57855
# Poissons Ratio (z) = 0.08556 0.37529
#
# Static dielectric constant tensor:
#      x y z
#    x 3.104530 0.000000 0.000000 
#    y 0.000000 2.711170 0.000000 
#    z 0.000000 0.000000 3.008880 
# 
# 
# High freq. dielectric constant tensor:
#      x y z
#    x 1.605710 0.000000 0.000000 
#    y 0.000000 1.547450 0.000000 
#    z 0.000000 0.000000 1.574340 
# 
# From -- ./inp_files/18637.got.cif
#   From: 2010.03.12/outbox.cif.g09.slc.cpg/sg46_10_cif.got.tgz:18637.got - 2010.04.14 02:56:35.
