data_PCOD8191140
_publ_section_title
;
Structure prediction by ZEFSAII (Michael W. Deem and Ramdas Pophale) SiO2 
 PCOD8191140
Probable space group: I M A 2
;
_chemical_formula_sum "Si O2"
_cell_formula_units_Z 56
_cell_length_a 13.292948
_cell_length_b 21.568665
_cell_length_c 13.452024
_cell_angle_alpha 90.000000
_cell_angle_beta 90.000000
_cell_angle_gamma 90.000000
_cell_volume 3856.845167
_symmetry_space_group_name_H-M "I M A 2"
_symmetry_group_IT_number 46
_symmetry_cell_setting 'orthorhombic'
loop_
_space_group_symop_operation_xyz
x,y,z
-x,-y,z
1/2-x,y,z
1/2+x,-y,z
1/2+x,1/2+y,1/2+z
1/2-x,1/2-y,1/2+z
-x,1/2+y,1/2+z
x,1/2-y,1/2+z
loop_
_atom_site_type_symbol
_atom_site_label
_atom_site_fract_x
_atom_site_fract_y
_atom_site_fract_z
Si Si1 0.020242 0.431246 0.001650
Si Si2 0.364176 0.044543 0.311569
Si Si3 0.132579 0.270359 0.325376
Si Si4 0.863845 0.711003 0.546145
Si Si5 0.530366 0.656577 0.728111
Si Si6 0.362933 0.157150 0.634310
Si Si7 0.632196 0.096363 0.339025
O O1 0.055093 0.391637 0.096182
O O2 0.000000 0.500000 0.042954
O O3 0.111540 0.434844 0.923716
O O4 0.923344 0.400115 0.946659
O O5 0.250000 0.057427 0.289235
O O6 0.423703 0.087933 0.235856
O O7 0.391054 0.972309 0.295868
O O8 0.250000 0.254322 0.316784
O O9 0.104921 0.299768 0.431900
O O10 0.076160 0.205723 0.305812
O O11 0.102374 0.321788 0.244179
O O12 0.750000 0.685774 0.568475
O O13 0.948180 0.678599 0.615438
O O14 0.864228 0.784326 0.561456
O O15 0.413058 0.646762 0.760230
O O16 0.250000 0.128609 0.637287
O O17 0.750000 0.109411 0.353745
#
# Coordination Sequence:
#
# PCOD8191140 Si02
#       7
#     8   8   8   8   8   8   8
#     4   9  16  25  40  60  81 106 134 161 197 239
#     4   9  15  24  39  61  85 103 125 163 206 246
#     4   9  17  27  41  64  88 104 124 160 203 245
#     4   9  16  25  40  64  87 104 124 155 199 248
#     4  10  16  25  42  60  81 109 135 158 197 244
#     4   9  16  26  42  64  86 106 127 156 200 247
#     4   9  18  28  38  57  83 108 137 171 199 227
#
# _framework density 14.519639
#
# number of rings (size 3 to 8) (size 9 to 14) (size 15 to 20)
#    0.000    2.857    0.000    5.571    0.000    1.714 
#    0.000    0.000    0.000    9.429    0.000    0.000 
#    0.000    0.000    0.000    0.000    0.000    0.000 
#
# Total GULP energy -346967.030424 kJ/mol
# GULP energy per Si atom -12391.679658 kJ/mol
# Density = 1.448659 g / cm^3
# Si number density = 14.519639 Si / 1000 Ang^3
#
#
#
# Elastic Constant Matrix: (Units=GPa)
#
#
# Indices 1 2 3 4 5 6 
#
# 1 79.4251 42.2510 41.6310 0.0000 0.0000 0.0000
# 2 42.2510 58.6329 38.2122 0.0000 0.0000 0.0000
# 3 41.6310 38.2122 94.2809 0.0000 0.0000 0.0000
# 4 0.0000 0.0000 0.0000 17.2805 0.0000 0.0000
# 5 0.0000 0.0000 0.0000 0.0000 18.9445 0.0000
# 6 0.0000 0.0000 0.0000 0.0000 0.0000 24.3895
#
#
#
# Elastic Compliance Matrix: (Units=1/GPa)
#
#
# Indices 1 2 3 4 5 6 
#
# 1 0.021685 -0.012755 -0.004406 0.000000 0.000000 0.000000
# 2 -0.012755 0.030680 -0.006802 0.000000 0.000000 0.000000
# 3 -0.004406 -0.006802 0.015309 0.000000 0.000000 0.000000
# 4 0.000000 0.000000 0.000000 0.057869 0.000000 0.000000
# 5 0.000000 0.000000 0.000000 0.000000 0.052786 0.000000
# 6 0.000000 0.000000 0.000000 0.000000 0.000000 0.041001
#
#
# Mechanical properties :
#
#
# Convention : Reuss Voigt Hill
#
# Bulk Modulus (GPa) = 50.63905 52.94748 51.79327
# Shear Modulus (GPa) = 18.25898 19.47255 18.86577
#
# Velocity S-wave (km/s) = 3.55002 3.66610 3.60853
# Velocity P-wave (km/s) = 7.19413 7.38009 7.28770
#
# Compressibility (1/GPa) = 0.01974761
#
# Stress axis : x y z
#
# Youngs Moduli (GPa) = 46.11525 32.59479 65.32093
#
# Poissons Ratio (x) = 0.41574 0.28778
# Poissons Ratio (y) = 0.58819 0.44434
# Poissons Ratio (z) = 0.20317 0.22173
#
# Static dielectric constant tensor:
#      x y z
#    x 2.858290 0.000000 0.000000 
#    y 0.000000 2.750700 0.000000 
#    z 0.000000 0.000000 2.722870 
# 
# 
# High freq. dielectric constant tensor:
#      x y z
#    x 1.541110 0.000000 0.000000 
#    y 0.000000 1.541730 0.000000 
#    z 0.000000 0.000000 1.534870 
# 
# From -- ./inp_files/16143.got.cif
#   From: 2010.03.12/outbox.cif.g09.slc.cpg/sg46_9_cif.got.tgz:16143.got - 2010.04.14 02:56:35.
