data_PCOD8191496
_publ_section_title
;
Structure prediction by ZEFSAII (Michael W. Deem and Ramdas Pophale) SiO2 
 PCOD8191496
Probable space group: I M A 2
;
_chemical_formula_sum "Si O2"
_cell_formula_units_Z 64
_cell_length_a 8.645444
_cell_length_b 14.091223
_cell_length_c 29.426502
_cell_angle_alpha 90.000000
_cell_angle_beta 90.000000
_cell_angle_gamma 90.000000
_cell_volume 3584.880055
_symmetry_space_group_name_H-M "I M A 2"
_symmetry_group_IT_number 46
_symmetry_cell_setting 'orthorhombic'
loop_
_space_group_symop_operation_xyz
x,y,z
-x,-y,z
1/2-x,y,z
1/2+x,-y,z
1/2+x,1/2+y,1/2+z
1/2-x,1/2-y,1/2+z
-x,1/2+y,1/2+z
x,1/2-y,1/2+z
loop_
_atom_site_type_symbol
_atom_site_label
_atom_site_fract_x
_atom_site_fract_y
_atom_site_fract_z
Si Si1 0.568386 0.603634 0.021410
Si Si2 0.580890 0.910500 0.835330
Si Si3 0.928296 0.266075 0.281616
Si Si4 0.432056 0.895453 0.345003
Si Si5 0.066716 0.605097 0.112142
Si Si6 0.068419 0.707338 0.936893
Si Si7 0.579414 0.592357 0.439555
Si Si8 0.931805 0.894946 0.704865
O O1 0.500000 0.500000 0.014817
O O2 0.750000 0.596846 0.028615
O O3 0.494176 0.655748 0.066022
O O4 0.529572 0.660716 0.976594
O O5 0.750000 0.892775 0.812386
O O6 0.463916 0.823163 0.828082
O O7 0.606674 0.933133 0.887437
O O8 0.500000 0.000000 0.810665
O O9 0.750000 0.272520 0.267365
O O10 0.974161 0.158851 0.297310
O O11 0.031035 0.315432 0.242861
O O12 0.250000 0.903531 0.349283
O O13 0.492536 0.837777 0.389354
O O14 0.500000 0.000000 0.343191
O O15 0.250000 0.606424 0.113457
O O16 0.000000 0.500000 0.110014
O O17 0.001187 0.650571 0.158520
O O18 0.250000 0.689391 0.943664
O O19 0.033943 0.818479 0.941755
O O20 0.500000 0.500000 0.463222
O O21 0.750000 0.611743 0.461535
O O22 0.750000 0.906852 0.699609
O O23 0.000000 0.000000 0.715400
#
# Coordination Sequence:
#
# PCOD8191496 Si02
#       8
#     8   8   8   8   8   8   8   8
#     4  11  21  34  52  78 108 142 179 220 262 313
#     4  10  19  30  46  68  95 129 165 205 248 296
#     4  11  21  35  50  71  99 134 173 213 255 305
#     4  10  23  38  54  72  99 135 175 221 266 306
#     4  10  18  32  52  76 106 140 171 211 259 313
#     4  11  21  36  54  77 104 139 180 222 264 313
#     4  10  20  33  50  72  99 134 171 213 259 309
#     4  11  21  34  52  78 108 141 172 211 257 313
#
# _framework density 17.852758000000001
#
# number of rings (size 3 to 8) (size 9 to 14) (size 15 to 20)
#    0.000    1.500    1.250    7.125    0.000    4.000 
#    0.000    0.000    0.000    0.000    0.000    0.875 
#    0.000    2.000    0.000    0.000    0.000    0.000 
#
# Total GULP energy -396500.930880 kJ/mol
# GULP energy per Si atom -12390.654090 kJ/mol
# Density = 1.781212 g / cm^3
# Si number density = 17.852758 Si / 1000 Ang^3
#
#
#
# Elastic Constant Matrix: (Units=GPa)
#
#
# Indices 1 2 3 4 5 6 
#
# 1 112.8829 30.3046 40.1062 0.0000 0.0000 0.0000
# 2 30.3046 99.9941 37.2607 0.0000 0.0000 0.0000
# 3 40.1062 37.2607 96.0206 0.0000 0.0000 0.0000
# 4 0.0000 0.0000 0.0000 4.6206 0.0000 0.0000
# 5 0.0000 0.0000 0.0000 0.0000 29.0486 0.0000
# 6 0.0000 0.0000 0.0000 0.0000 0.0000 27.2360
#
#
#
# Elastic Compliance Matrix: (Units=1/GPa)
#
#
# Indices 1 2 3 4 5 6 
#
# 1 0.010685 -0.001841 -0.003748 0.000000 0.000000 0.000000
# 2 -0.001841 0.012008 -0.003891 0.000000 0.000000 0.000000
# 3 -0.003748 -0.003891 0.013490 0.000000 0.000000 0.000000
# 4 0.000000 0.000000 0.000000 0.216423 0.000000 0.000000
# 5 0.000000 0.000000 0.000000 0.000000 0.034425 0.000000
# 6 0.000000 0.000000 0.000000 0.000000 0.000000 0.036716
#
#
# Mechanical properties :
#
#
# Convention : Reuss Voigt Hill
#
# Bulk Modulus (GPa) = 58.06476 58.24897 58.15687
# Shear Modulus (GPa) = 14.34931 25.59611 19.97271
#
# Velocity S-wave (km/s) = 2.83814 3.79058 3.34840
# Velocity P-wave (km/s) = 6.58293 7.20113 6.89895
#
# Compressibility (1/GPa) = 0.01722215
#
# Stress axis : x y z
#
# Youngs Moduli (GPa) = 93.59067 83.27462 74.12999
#
# Poissons Ratio (x) = 0.15335 0.27786
# Poissons Ratio (y) = 0.17234 0.28842
# Poissons Ratio (z) = 0.35081 0.32400
#
# Static dielectric constant tensor:
#      x y z
#    x 3.566920 0.000000 0.000000 
#    y 0.000000 3.741800 0.000000 
#    z 0.000000 0.000000 3.726650 
# 
# 
# High freq. dielectric constant tensor:
#      x y z
#    x 1.711100 0.000000 0.000000 
#    y 0.000000 1.659740 0.000000 
#    z 0.000000 0.000000 1.676120 
# 
# From -- ./inp_files/25280.got.cif
#   From: 2010.03.12/outbox.cif.g09.slc.cpg/sg46_13_cif.got.tgz:25280.got - 2010.04.14 02:56:35.
