data_PCOD8191305
_publ_section_title
;
Structure prediction by ZEFSAII (Michael W. Deem and Ramdas Pophale) SiO2 
 PCOD8191305
Probable space group: I M A 2
;
_chemical_formula_sum "Si O2"
_cell_formula_units_Z 64
_cell_length_a 8.770163
_cell_length_b 18.790562
_cell_length_c 21.155775
_cell_angle_alpha 90.000000
_cell_angle_beta 90.000000
_cell_angle_gamma 90.000000
_cell_volume 3486.393266
_symmetry_space_group_name_H-M "I M A 2"
_symmetry_group_IT_number 46
_symmetry_cell_setting 'orthorhombic'
loop_
_space_group_symop_operation_xyz
x,y,z
-x,-y,z
1/2-x,y,z
1/2+x,-y,z
1/2+x,1/2+y,1/2+z
1/2-x,1/2-y,1/2+z
-x,1/2+y,1/2+z
x,1/2-y,1/2+z
loop_
_atom_site_type_symbol
_atom_site_label
_atom_site_fract_x
_atom_site_fract_y
_atom_site_fract_z
Si Si1 0.568537 0.074137 0.165510
Si Si2 0.930596 0.707656 0.610304
Si Si3 0.069294 0.924281 0.422632
Si Si4 0.070182 0.130016 0.293969
Si Si5 0.083273 0.431220 0.255945
Si Si6 0.428639 0.222236 0.740264
Si Si7 0.428042 0.819773 0.533384
Si Si8 0.581476 0.932371 0.608043
O O1 0.750000 0.071392 0.169845
O O2 0.514725 0.132064 0.114205
O O3 0.498603 0.090760 0.233834
O O4 0.500000 0.000000 0.141490
O O5 0.750000 0.695984 0.611119
O O6 0.986545 0.754012 0.670990
O O7 0.983260 0.745234 0.544665
O O8 0.250000 0.931352 0.421637
O O9 0.016577 0.862400 0.471243
O O10 0.009664 0.902181 0.354558
O O11 0.000000 0.000000 0.443075
O O12 0.250000 0.115020 0.296103
O O13 0.036388 0.214920 0.290212
O O14 0.250000 0.429659 0.287836
O O15 0.999721 0.353481 0.264636
O O16 0.098294 0.444486 0.181838
O O17 0.000000 0.500000 0.286733
O O18 0.250000 0.207246 0.733172
O O19 0.250000 0.804105 0.531475
O O20 0.473388 0.865819 0.594523
O O21 0.750000 0.921595 0.577973
O O22 0.500000 0.000000 0.575808
#
# Coordination Sequence:
#
# PCOD8191305 Si02
#       8
#     8   8   8   8   8   8   8   8
#     4  11  21  35  55  81 110 139 171 213 265 320
#     4  10  19  34  53  75 103 136 172 213 261 315
#     4  11  24  39  53  73 104 140 182 225 264 311
#     4  10  20  35  56  77 100 136 180 224 270 317
#     4   9  16  27  41  64  95 128 160 197 243 294
#     4   8  15  30  49  70  97 129 165 207 258 310
#     4  11  22  34  49  71 100 136 175 215 259 310
#     4  10  18  28  43  63  92 130 167 206 245 293
#
# _framework density 18.357081000000001
#
# number of rings (size 3 to 8) (size 9 to 14) (size 15 to 20)
#    0.000    2.000    1.250    4.500    0.000    3.500 
#    0.000    1.250    0.000    0.000    0.000    0.875 
#    0.000    4.000    0.000    0.000    0.000    0.000 
#
# Total GULP energy -396569.904882 kJ/mol
# GULP energy per Si atom -12392.809528 kJ/mol
# Density = 1.831530 g / cm^3
# Si number density = 18.357081 Si / 1000 Ang^3
#
#
#
# Elastic Constant Matrix: (Units=GPa)
#
#
# Indices 1 2 3 4 5 6 
#
# 1 62.2150 33.9787 21.9679 0.0000 0.0000 0.0000
# 2 33.9787 145.9134 31.5389 0.0000 0.0000 0.0000
# 3 21.9679 31.5389 52.3379 0.0000 0.0000 0.0000
# 4 0.0000 0.0000 0.0000 24.4827 0.0000 0.0000
# 5 0.0000 0.0000 0.0000 0.0000 17.6046 0.0000
# 6 0.0000 0.0000 0.0000 0.0000 0.0000 31.9872
#
#
#
# Elastic Compliance Matrix: (Units=1/GPa)
#
#
# Indices 1 2 3 4 5 6 
#
# 1 0.020159 -0.003295 -0.006476 0.000000 0.000000 0.000000
# 2 -0.003295 0.008418 -0.003690 0.000000 0.000000 0.000000
# 3 -0.006476 -0.003690 0.024048 0.000000 0.000000 0.000000
# 4 0.000000 0.000000 0.000000 0.040845 0.000000 0.000000
# 5 0.000000 0.000000 0.000000 0.000000 0.056803 0.000000
# 6 0.000000 0.000000 0.000000 0.000000 0.000000 0.031263
#
#
# Mechanical properties :
#
#
# Convention : Reuss Voigt Hill
#
# Bulk Modulus (GPa) = 38.90380 48.38193 43.64286
# Shear Modulus (GPa) = 23.03864 26.34695 24.69279
#
# Velocity S-wave (km/s) = 3.54648 3.79258 3.67159
# Velocity P-wave (km/s) = 6.16513 6.75214 6.46530
#
# Compressibility (1/GPa) = 0.02570443
#
# Stress axis : x y z
#
# Youngs Moduli (GPa) = 49.60468 118.79054 41.58279
#
# Poissons Ratio (x) = 0.39138 0.26930
# Poissons Ratio (y) = 0.16343 0.15344
# Poissons Ratio (z) = 0.32125 0.43833
#
# Static dielectric constant tensor:
#      x y z
#    x 3.496790 0.000000 0.000000 
#    y 0.000000 3.847520 0.000000 
#    z 0.000000 0.000000 3.002000 
# 
# 
# High freq. dielectric constant tensor:
#      x y z
#    x 1.712000 0.000000 0.000000 
#    y 0.000000 1.726780 0.000000 
#    z 0.000000 0.000000 1.655140 
# 
# From -- ./inp_files/21338.got.cif
#   From: 2010.03.12/outbox.cif.g09.slc.cpg/sg46_11_cif.got.tgz:21338.got - 2010.04.14 02:56:35.
