data_PCOD8191686
_publ_section_title
;
Structure prediction by ZEFSAII (Michael W. Deem and Ramdas Pophale) SiO2 
 PCOD8191686
Probable space group: I M A 2
;
_chemical_formula_sum "Si O2"
_cell_formula_units_Z 64
_cell_length_a 9.463707
_cell_length_b 25.610941
_cell_length_c 14.053035
_cell_angle_alpha 90.000000
_cell_angle_beta 90.000000
_cell_angle_gamma 90.000000
_cell_volume 3406.096511
_symmetry_space_group_name_H-M "I M A 2"
_symmetry_group_IT_number 46
_symmetry_cell_setting 'orthorhombic'
loop_
_space_group_symop_operation_xyz
x,y,z
-x,-y,z
1/2-x,y,z
1/2+x,-y,z
1/2+x,1/2+y,1/2+z
1/2-x,1/2-y,1/2+z
-x,1/2+y,1/2+z
x,1/2-y,1/2+z
loop_
_atom_site_type_symbol
_atom_site_label
_atom_site_fract_x
_atom_site_fract_y
_atom_site_fract_z
Si Si1 0.587673 0.766862 0.728900
Si Si2 0.914117 0.662197 0.831033
Si Si3 0.592186 0.911483 0.067360
Si Si4 0.413006 0.049788 0.269775
Si Si5 0.902778 0.325438 0.513452
Si Si6 0.094163 0.857879 0.807925
Si Si7 0.410096 0.271224 0.007607
Si Si8 0.085040 0.449311 0.356142
O O1 0.750000 0.775722 0.762915
O O2 0.538989 0.707693 0.755811
O O3 0.478386 0.803935 0.780803
O O4 0.572288 0.782240 0.618726
O O5 0.750000 0.653590 0.815019
O O6 0.979696 0.604716 0.809766
O O7 0.949383 0.679388 0.940134
O O8 0.750000 0.888102 0.067241
O O9 0.571873 0.950734 0.155117
O O10 0.492297 0.861240 0.085407
O O11 0.563142 0.940955 0.968844
O O12 0.250000 0.042615 0.300852
O O13 0.500000 0.000000 0.309779
O O14 0.750000 0.311255 0.559365
O O15 0.878219 0.359377 0.419955
O O16 0.985008 0.274473 0.479762
O O17 0.250000 0.864586 0.758254
O O18 0.983565 0.904573 0.788923
O O19 0.250000 0.253769 0.983954
O O20 0.250000 0.454414 0.330276
O O21 0.000000 0.500000 0.325515
#
# Coordination Sequence:
#
# PCOD8191686 Si02
#       8
#     8   8   8   8   8   8   8   8
#     4  10  19  33  55  79 101 134 178 219 268 326
#     4   9  18  33  53  77 106 137 174 221 269 325
#     4   9  18  31  49  72 103 141 179 216 259 318
#     4  10  20  35  53  75 104 140 181 224 270 318
#     4  10  19  30  47  74 106 138 169 209 260 312
#     4  10  20  33  49  72 105 139 170 211 261 314
#     4  10  19  32  53  76 102 138 177 216 262 319
#     4  10  19  31  49  73 102 139 179 220 265 318
#
# _framework density 18.789836999999999
#
# number of rings (size 3 to 8) (size 9 to 14) (size 15 to 20)
#    0.000    2.250    1.250    2.250    0.000    4.500 
#    0.000    1.250    0.000    0.750    0.000    1.750 
#    0.000    0.000    0.000    0.000    0.000    0.000 
#
# Total GULP energy -396472.331393 kJ/mol
# GULP energy per Si atom -12389.760356 kJ/mol
# Density = 1.874707 g / cm^3
# Si number density = 18.789837 Si / 1000 Ang^3
#
#
#
# Elastic Constant Matrix: (Units=GPa)
#
#
# Indices 1 2 3 4 5 6 
#
# 1 118.3320 67.8408 12.5333 -0.0001 0.0000 0.0000
# 2 67.8408 141.8412 23.3143 -0.0003 0.0001 0.0000
# 3 12.5333 23.3143 52.2470 -0.0016 0.0003 0.0001
# 4 -0.0001 -0.0003 -0.0016 22.1333 0.0002 0.0000
# 5 0.0000 0.0001 0.0003 0.0002 12.3123 -0.0001
# 6 0.0000 0.0000 0.0001 0.0000 -0.0001 28.0488
#
#
#
# Elastic Compliance Matrix: (Units=1/GPa)
#
#
# Indices 1 2 3 4 5 6 
#
# 1 0.011649 -0.005517 -0.000333 0.000000 0.000000 0.000000
# 2 -0.005517 0.010221 -0.003237 0.000000 0.000000 0.000000
# 3 -0.000333 -0.003237 0.020664 0.000001 -0.000001 0.000000
# 4 0.000000 0.000000 0.000001 0.045181 -0.000001 0.000000
# 5 0.000000 0.000000 -0.000001 -0.000001 0.081220 0.000000
# 6 0.000000 0.000000 0.000000 0.000000 0.000000 0.035652
#
#
# Mechanical properties :
#
#
# Convention : Reuss Voigt Hill
#
# Bulk Modulus (GPa) = 41.05050 57.75523 49.40287
# Shear Modulus (GPa) = 21.65623 26.41434 24.03528
#
# Velocity S-wave (km/s) = 3.39861 3.75344 3.58042
# Velocity P-wave (km/s) = 6.10699 7.04192 6.59105
#
# Compressibility (1/GPa) = 0.02436024
#
# Stress axis : x y z
#
# Youngs Moduli (GPa) = 85.84513 97.83867 48.39257
#
# Poissons Ratio (x) = 0.53976 0.01610
# Poissons Ratio (y) = 0.47359 0.15667
# Poissons Ratio (z) = 0.02855 0.31675
#
# Static dielectric constant tensor:
#      x y z
#    x 3.604940 0.000000 0.000000 
#    y 0.000000 3.382340 0.000000 
#    z 0.000000 0.000000 3.261060 
# 
# 
# High freq. dielectric constant tensor:
#      x y z
#    x 1.725420 0.000000 0.000000 
#    y 0.000000 1.721740 0.000000 
#    z 0.000000 0.000000 1.694360 
# 
# From -- ./inp_files/14541.got.cif
#   From: 2010.03.12/outbox.cif.g09.slc.cpg/sg46_8_cif.got.tgz:14541.got - 2010.04.14 02:56:35.
