data_PCOD8191787
_publ_section_title
;
Structure prediction by ZEFSAII (Michael W. Deem and Ramdas Pophale) SiO2 
 PCOD8191787
Probable space group: I M A 2
;
_chemical_formula_sum "Si O2"
_cell_formula_units_Z 64
_cell_length_a 8.734698
_cell_length_b 29.874866
_cell_length_c 14.436936
_cell_angle_alpha 90.000000
_cell_angle_beta 90.000000
_cell_angle_gamma 90.000000
_cell_volume 3767.288598
_symmetry_space_group_name_H-M "I M A 2"
_symmetry_group_IT_number 46
_symmetry_cell_setting 'orthorhombic'
loop_
_space_group_symop_operation_xyz
x,y,z
-x,-y,z
1/2-x,y,z
1/2+x,-y,z
1/2+x,1/2+y,1/2+z
1/2-x,1/2-y,1/2+z
-x,1/2+y,1/2+z
x,1/2-y,1/2+z
loop_
_atom_site_type_symbol
_atom_site_label
_atom_site_fract_x
_atom_site_fract_y
_atom_site_fract_z
Si Si1 0.077825 0.777928 0.972980
Si Si2 0.431789 0.547151 0.090270
Si Si3 0.575810 0.638458 0.811450
Si Si4 0.928793 0.633422 0.153691
Si Si5 0.573901 0.704542 0.655287
Si Si6 0.068137 0.713153 0.265071
Si Si7 0.421153 0.674417 0.984225
Si Si8 0.928593 0.545555 0.890915
O O1 0.250000 0.796813 0.973549
O O2 0.006460 0.783386 0.870558
O O3 0.074499 0.726671 0.003741
O O4 0.981826 0.804410 0.050476
O O5 0.500000 0.500000 0.123347
O O6 0.250000 0.545412 0.092658
O O7 0.494228 0.584514 0.161467
O O8 0.487877 0.558636 0.986370
O O9 0.750000 0.648213 0.842551
O O10 0.546340 0.657549 0.708723
O O11 0.462469 0.665233 0.878239
O O12 0.543690 0.585148 0.816432
O O13 0.750000 0.630038 0.174313
O O14 0.006947 0.666426 0.226437
O O15 0.955824 0.650867 0.049650
O O16 0.750000 0.718524 0.653712
O O17 0.486749 0.744880 0.705330
O O18 0.250000 0.713468 0.261998
O O19 0.250000 0.655931 0.005166
O O20 0.750000 0.537995 0.912233
O O21 0.000000 0.500000 0.849215
#
# Coordination Sequence:
#
# PCOD8191787 Si02
#       8
#     8   8   8   8   8   8   8   8
#     4  10  22  37  52  72 103 138 175 220 260 301
#     4  11  21  34  52  76 105 138 173 211 257 309
#     4  10  21  34  49  73 105 139 175 213 257 307
#     4  12  23  35  51  76 105 139 176 215 258 309
#     4  11  22  34  52  76 102 136 174 214 260 310
#     4  11  22  37  53  73 101 136 176 216 258 306
#     4  11  20  31  50  74 102 139 177 214 254 301
#     4  10  19  32  49  72 104 137 172 214 257 307
#
# _framework density 16.988344999999999
#
# number of rings (size 3 to 8) (size 9 to 14) (size 15 to 20)
#    0.000    1.250    3.750    4.500    0.000    2.500 
#    0.000    0.000    0.000    0.000    0.000    0.875 
#    0.000    4.000    0.000    0.000    0.000    0.000 
#
# Total GULP energy -396829.224436 kJ/mol
# GULP energy per Si atom -12400.913264 kJ/mol
# Density = 1.694968 g / cm^3
# Si number density = 16.988345 Si / 1000 Ang^3
#
#
#
# Elastic Constant Matrix: (Units=GPa)
#
#
# Indices 1 2 3 4 5 6 
#
# 1 96.6954 38.4017 34.5230 -0.0001 0.0000 0.0001
# 2 38.4017 102.6654 38.8038 -0.0002 0.0000 0.0001
# 3 34.5230 38.8038 88.9353 0.0001 0.0000 0.0003
# 4 -0.0001 -0.0002 0.0001 26.9813 0.0001 0.0001
# 5 0.0000 0.0000 0.0000 0.0001 24.1412 0.0000
# 6 0.0001 0.0001 0.0003 0.0001 0.0000 24.1034
#
#
#
# Elastic Compliance Matrix: (Units=1/GPa)
#
#
# Indices 1 2 3 4 5 6 
#
# 1 0.012997 -0.003538 -0.003501 0.000000 0.000000 0.000000
# 2 -0.003538 0.012627 -0.004136 0.000000 0.000000 0.000000
# 3 -0.003501 -0.004136 0.014408 0.000000 0.000000 0.000000
# 4 0.000000 0.000000 0.000000 0.037063 0.000000 0.000000
# 5 0.000000 0.000000 0.000000 0.000000 0.041423 0.000000
# 6 0.000000 0.000000 0.000000 0.000000 0.000000 0.041488
#
#
# Mechanical properties :
#
#
# Convention : Reuss Voigt Hill
#
# Bulk Modulus (GPa) = 56.55803 56.86144 56.70974
# Shear Modulus (GPa) = 26.56041 26.81636 26.68839
#
# Velocity S-wave (km/s) = 3.95834 3.97736 3.96786
# Velocity P-wave (km/s) = 7.36585 7.39162 7.37875
#
# Compressibility (1/GPa) = 0.01768096
#
# Stress axis : x y z
#
# Youngs Moduli (GPa) = 76.94088 79.19525 69.40634
#
# Poissons Ratio (x) = 0.28020 0.24302
# Poissons Ratio (y) = 0.27222 0.28706
# Poissons Ratio (z) = 0.26941 0.32755
#
# Static dielectric constant tensor:
#      x y z
#    x 3.307450 0.000000 0.000000 
#    y 0.000000 3.294350 0.000000 
#    z 0.000000 0.000000 3.075520 
# 
# 
# High freq. dielectric constant tensor:
#      x y z
#    x 1.671130 0.000000 0.000000 
#    y 0.000000 1.649260 0.000000 
#    z 0.000000 0.000000 1.624460 
# 
# From -- ./inp_files/14779.got.cif
#   From: 2010.03.12/outbox.cif.g09.slc.cpg/sg46_8_cif.got.tgz:14779.got - 2010.04.14 02:56:35.
