data_PCOD8191762
_publ_section_title
;
Structure prediction by ZEFSAII (Michael W. Deem and Ramdas Pophale) SiO2 
 PCOD8191762
Probable space group: I M A 2
;
_chemical_formula_sum "Si O2"
_cell_formula_units_Z 64
_cell_length_a 9.131713
_cell_length_b 25.561525
_cell_length_c 13.880150
_cell_angle_alpha 90.000000
_cell_angle_beta 90.000000
_cell_angle_gamma 90.000000
_cell_volume 3239.911694
_symmetry_space_group_name_H-M "I M A 2"
_symmetry_group_IT_number 46
_symmetry_cell_setting 'orthorhombic'
loop_
_space_group_symop_operation_xyz
x,y,z
-x,-y,z
1/2-x,y,z
1/2+x,-y,z
1/2+x,1/2+y,1/2+z
1/2-x,1/2-y,1/2+z
-x,1/2+y,1/2+z
x,1/2-y,1/2+z
loop_
_atom_site_type_symbol
_atom_site_label
_atom_site_fract_x
_atom_site_fract_y
_atom_site_fract_z
Si Si1 0.417607 0.583359 0.107780
Si Si2 0.408383 0.325767 0.047283
Si Si3 0.415885 0.763288 0.261068
Si Si4 0.583635 0.448581 0.887286
Si Si5 0.580449 0.343527 0.361414
Si Si6 0.908280 0.644125 0.840204
Si Si7 0.084765 0.726746 0.537619
Si Si8 0.573976 0.552188 0.291536
O O1 0.250000 0.582869 0.144468
O O2 0.474681 0.643642 0.113758
O O3 0.520962 0.551283 0.180224
O O4 0.430981 0.560233 0.001510
O O5 0.250000 0.318054 0.100105
O O6 0.471934 0.271435 0.009078
O O7 0.380586 0.360795 0.953897
O O8 0.250000 0.772379 0.296471
O O9 0.459417 0.703094 0.285052
O O10 0.523491 0.799921 0.319290
O O11 0.434705 0.781762 0.151180
O O12 0.500000 0.500000 0.856671
O O13 0.750000 0.454792 0.856608
O O14 0.519011 0.403101 0.818097
O O15 0.750000 0.359559 0.349102
O O16 0.549517 0.323856 0.471462
O O17 0.481859 0.394739 0.343321
O O18 0.750000 0.637841 0.787499
O O19 0.250000 0.745457 0.514529
O O20 0.500000 0.500000 0.339359
O O21 0.750000 0.549053 0.297545
#
# Coordination Sequence:
#
# PCOD8191762 Si02
#       8
#     8   8   8   8   8   8   8   8
#     4  10  20  34  54  80 113 151 191 234 284 343
#     4  10  19  31  50  79 113 149 187 230 277 332
#     4  10  20  35  57  84 114 149 190 234 285 343
#     4  10  20  33  52  77 108 147 189 233 283 340
#     4  10  21  38  59  85 119 155 194 240 289 348
#     4  10  20  33  51  76 110 147 184 226 276 332
#     4  10  20  34  56  83 112 150 191 233 284 340
#     4  12  25  40  59  82 112 150 194 242 295 352
#
# _framework density 19.753626000000001
#
# number of rings (size 3 to 8) (size 9 to 14) (size 15 to 20)
#    0.000    1.750    1.250    3.750    0.000    6.000 
#    0.000    0.000    0.000    0.750    0.000    3.500 
#    0.000    0.000    0.000    0.000    0.000    0.000 
#
# Total GULP energy -396506.809414 kJ/mol
# GULP energy per Si atom -12390.837794 kJ/mol
# Density = 1.970867 g / cm^3
# Si number density = 19.753626 Si / 1000 Ang^3
#
#
#
# Elastic Constant Matrix: (Units=GPa)
#
#
# Indices 1 2 3 4 5 6 
#
# 1 161.6342 81.5301 16.7693 0.0001 0.0000 0.0000
# 2 81.5301 138.0341 24.1445 0.0001 -0.0001 0.0000
# 3 16.7693 24.1445 53.1098 0.0006 -0.0003 -0.0001
# 4 0.0001 0.0001 0.0006 25.3969 -0.0001 0.0000
# 5 0.0000 -0.0001 -0.0003 -0.0001 19.1578 0.0000
# 6 0.0000 0.0000 -0.0001 0.0000 0.0000 34.4844
#
#
#
# Elastic Compliance Matrix: (Units=1/GPa)
#
#
# Indices 1 2 3 4 5 6 
#
# 1 0.008822 -0.005132 -0.000453 0.000000 0.000000 0.000000
# 2 -0.005132 0.010855 -0.003315 0.000000 0.000000 0.000000
# 3 -0.000453 -0.003315 0.020479 0.000000 0.000000 0.000000
# 4 0.000000 0.000000 0.000000 0.039375 0.000000 0.000000
# 5 0.000000 0.000000 0.000000 0.000000 0.052198 0.000000
# 6 0.000000 0.000000 0.000000 0.000000 0.000000 0.028999
#
#
# Mechanical properties :
#
#
# Convention : Reuss Voigt Hill
#
# Bulk Modulus (GPa) = 44.72612 66.40734 55.56673
# Shear Modulus (GPa) = 26.88475 31.16342 29.02409
#
# Velocity S-wave (km/s) = 3.69318 3.97622 3.83731
# Velocity P-wave (km/s) = 6.39353 7.40076 6.91550
#
# Compressibility (1/GPa) = 0.02235830
#
# Stress axis : x y z
#
# Youngs Moduli (GPa) = 113.34955 92.11968 48.83103
#
# Poissons Ratio (x) = 0.47273 0.02210
# Poissons Ratio (y) = 0.58168 0.16186
# Poissons Ratio (z) = 0.05131 0.30535
#
# Static dielectric constant tensor:
#      x y z
#    x 3.834430 0.000000 0.000000 
#    y 0.000000 3.543110 0.000000 
#    z 0.000000 0.000000 3.393900 
# 
# 
# High freq. dielectric constant tensor:
#      x y z
#    x 1.782220 0.000000 0.000000 
#    y 0.000000 1.765290 0.000000 
#    z 0.000000 0.000000 1.731560 
# 
# From -- ./inp_files/14521.got.cif
#   From: 2010.03.12/outbox.cif.g09.slc.cpg/sg46_8_cif.got.tgz:14521.got - 2010.04.14 02:56:35.
