data_PCOD8191717
_publ_section_title
;
Structure prediction by ZEFSAII (Michael W. Deem and Ramdas Pophale) SiO2 
 PCOD8191717
Probable space group: I M A 2
;
_chemical_formula_sum "Si O2"
_cell_formula_units_Z 64
_cell_length_a 17.986910
_cell_length_b 22.451515
_cell_length_c 9.401779
_cell_angle_alpha 90.000000
_cell_angle_beta 90.000000
_cell_angle_gamma 90.000000
_cell_volume 3796.752188
_symmetry_space_group_name_H-M "I M A 2"
_symmetry_group_IT_number 46
_symmetry_cell_setting 'orthorhombic'
loop_
_space_group_symop_operation_xyz
x,y,z
-x,-y,z
1/2-x,y,z
1/2+x,-y,z
1/2+x,1/2+y,1/2+z
1/2-x,1/2-y,1/2+z
-x,1/2+y,1/2+z
x,1/2-y,1/2+z
loop_
_atom_site_type_symbol
_atom_site_label
_atom_site_fract_x
_atom_site_fract_y
_atom_site_fract_z
Si Si1 0.835959 0.997092 0.125000
Si Si2 0.423837 0.751423 0.597629
Si Si3 0.837236 0.048682 0.833055
Si Si4 0.530351 0.324360 0.844454
Si Si5 0.169035 0.602019 0.826874
Si Si6 0.941396 0.945981 0.336040
Si Si7 0.160757 0.683366 0.349354
Si Si8 0.334246 0.001100 0.546332
O O1 0.750000 0.978547 0.152345
O O2 0.890764 0.948593 0.193998
O O3 0.852183 0.061658 0.192293
O O4 0.856198 0.004120 0.961198
O O5 0.480443 0.714140 0.700176
O O6 0.478911 0.789796 0.494550
O O7 0.372157 0.712378 0.492943
O O8 0.371123 0.789518 0.702548
O O9 0.750000 0.055260 0.809869
O O10 0.868295 0.115055 0.853372
O O11 0.870592 0.014044 0.698054
O O12 0.616928 0.341620 0.840574
O O13 0.478952 0.382084 0.841481
O O14 0.250000 0.630352 0.806520
O O15 0.165255 0.561441 0.965464
O O16 0.886820 0.950678 0.471188
O O17 0.000000 0.000000 0.337871
O O18 0.250000 0.688963 0.350918
O O19 0.250000 0.026743 0.553999
#
# Coordination Sequence:
#
# PCOD8191717 Si02
#       8
#     8   8   8   8   8   8   8   8
#     4   9  17  31  50  78 103 128 159 198 253 303
#     4  10  23  34  46  64  97 138 178 216 238 282
#     4   9  17  29  48  72 104 131 156 201 253 289
#     4  11  21  37  50  70  98 135 175 206 250 289
#     4   9  16  28  49  69  98 135 172 208 234 276
#     4  11  20  32  54  77  99 131 168 205 245 303
#     4  10  19  31  48  68  94 136 182 214 234 268
#     4   9  17  31  50  78 103 128 159 198 253 303
#
# _framework density 16.856511999999999
#
# number of rings (size 3 to 8) (size 9 to 14) (size 15 to 20)
#    0.000    2.250    2.500    3.000    0.000    5.000 
#    0.000    3.125    0.000    0.000    0.000    3.500 
#    0.000    0.000    0.000    0.000    0.000    0.000 
#
# Total GULP energy -396578.846254 kJ/mol
# GULP energy per Si atom -12393.088945 kJ/mol
# Density = 1.681815 g / cm^3
# Si number density = 16.856512 Si / 1000 Ang^3
#
#
#
# Elastic Constant Matrix: (Units=GPa)
#
#
# Indices 1 2 3 4 5 6 
#
# 1 58.1808 43.1880 28.9761 0.0000 0.0000 0.0000
# 2 43.1880 87.1017 41.5213 0.0000 0.0000 0.0000
# 3 28.9761 41.5213 118.3320 0.0000 0.0000 0.0000
# 4 0.0000 0.0000 0.0000 17.6120 0.0000 0.0000
# 5 0.0000 0.0000 0.0000 0.0000 10.2655 0.0000
# 6 0.0000 0.0000 0.0000 0.0000 0.0000 30.6219
#
#
#
# Elastic Compliance Matrix: (Units=1/GPa)
#
#
# Indices 1 2 3 4 5 6 
#
# 1 0.027737 -0.012628 -0.002361 0.000000 0.000000 0.000000
# 2 -0.012628 0.019536 -0.003763 0.000000 0.000000 0.000000
# 3 -0.002361 -0.003763 0.010349 0.000000 0.000000 0.000000
# 4 0.000000 0.000000 0.000000 0.056779 0.000000 0.000000
# 5 0.000000 0.000000 0.000000 0.000000 0.097413 0.000000
# 6 0.000000 0.000000 0.000000 0.000000 0.000000 0.032656
#
#
# Mechanical properties :
#
#
# Convention : Reuss Voigt Hill
#
# Bulk Modulus (GPa) = 49.70345 54.55393 52.12869
# Shear Modulus (GPa) = 17.32018 21.69516 19.50767
#
# Velocity S-wave (km/s) = 3.20895 3.59144 3.40557
# Velocity P-wave (km/s) = 6.57876 7.04499 6.81586
#
# Compressibility (1/GPa) = 0.02011933
#
# Stress axis : x y z
#
# Youngs Moduli (GPa) = 36.05262 51.18839 96.62500
#
# Poissons Ratio (x) = 0.64638 0.22815
# Poissons Ratio (y) = 0.45525 0.36357
# Poissons Ratio (z) = 0.08513 0.19261
#
# Static dielectric constant tensor:
#      x y z
#    x 3.019830 0.000000 0.000000 
#    y 0.000000 2.971430 0.000000 
#    z 0.000000 0.000000 3.687640 
# 
# 
# High freq. dielectric constant tensor:
#      x y z
#    x 1.617200 0.000000 0.000000 
#    y 0.000000 1.621310 0.000000 
#    z 0.000000 0.000000 1.671120 
# 
# From -- ./inp_files/7016.got.cif
#   From: 2010.03.12/outbox.cif.g09.slc.cpg/sg46_4_cif.got.tgz:7016.got - 2010.04.14 02:56:35.
