data_PCOD8191348
_publ_section_title
;
Structure prediction by ZEFSAII (Michael W. Deem and Ramdas Pophale) SiO2 
 PCOD8191348
Probable space group: I M A 2
;
_chemical_formula_sum "Si O2"
_cell_formula_units_Z 48
_cell_length_a 8.587607
_cell_length_b 23.892636
_cell_length_c 13.970743
_cell_angle_alpha 90.000000
_cell_angle_beta 90.000000
_cell_angle_gamma 90.000000
_cell_volume 2866.524986
_symmetry_space_group_name_H-M "I M A 2"
_symmetry_group_IT_number 46
_symmetry_cell_setting 'orthorhombic'
loop_
_space_group_symop_operation_xyz
x,y,z
-x,-y,z
1/2-x,y,z
1/2+x,-y,z
1/2+x,1/2+y,1/2+z
1/2-x,1/2-y,1/2+z
-x,1/2+y,1/2+z
x,1/2-y,1/2+z
loop_
_atom_site_type_symbol
_atom_site_label
_atom_site_fract_x
_atom_site_fract_y
_atom_site_fract_z
Si Si1 0.934527 0.225764 0.726630
Si Si2 0.434862 0.726220 0.437654
Si Si3 0.935460 0.165794 0.120439
Si Si4 0.565369 0.059283 0.231478
Si Si5 0.432814 0.058881 0.438393
Si Si6 0.566736 0.161510 0.542462
O O1 0.750000 0.229850 0.733010
O O2 0.005109 0.213661 0.832247
O O3 0.999484 0.285420 0.690072
O O4 0.979819 0.176957 0.651841
O O5 0.250000 0.724252 0.435094
O O6 0.495246 0.678894 0.512381
O O7 0.485589 0.787811 0.473149
O O8 0.750000 0.166678 0.122544
O O9 0.997502 0.106024 0.157233
O O10 0.750000 0.056877 0.233360
O O11 0.507732 0.075137 0.336973
O O12 0.500000 0.000000 0.196254
O O13 0.250000 0.052861 0.424777
O O14 0.472532 0.106145 0.515619
O O15 0.500000 0.000000 0.475940
O O16 0.750000 0.149902 0.532696
#
# Coordination Sequence:
#
# PCOD8191348 Si02
#       6
#     8   8   8   8   8   8
#     4   8  13  22  40  66  91 114 142 178 216 252
#     4   8  13  23  42  68  93 116 147 181 211 250
#     4   8  14  23  39  65  91 115 144 180 216 251
#     4  10  18  29  45  65  89 115 146 181 218 257
#     4  11  21  32  46  64  87 114 144 177 218 263
#     4   9  16  27  45  68  91 114 144 181 217 253
#
# _framework density 16.745013
#
# number of rings (size 3 to 8) (size 9 to 14) (size 15 to 20)
#    0.000    3.000    0.000    6.000    0.000    2.667 
#    0.000    0.000    0.000   14.000    0.000    2.333 
#    0.000    0.000    0.000    0.000    0.000    0.000 
#
# Total GULP energy -297440.902276 kJ/mol
# GULP energy per Si atom -12393.370928 kJ/mol
# Density = 1.670690 g / cm^3
# Si number density = 16.745013 Si / 1000 Ang^3
#
#
#
# Elastic Constant Matrix: (Units=GPa)
#
#
# Indices 1 2 3 4 5 6 
#
# 1 42.1274 26.6541 16.2071 0.0001 0.0000 0.0000
# 2 26.6541 132.3580 82.1427 -0.0001 0.0000 0.0000
# 3 16.2071 82.1427 150.3647 0.0000 0.0000 0.0000
# 4 0.0001 -0.0001 0.0000 29.9522 0.0000 0.0000
# 5 0.0000 0.0000 0.0000 0.0000 11.0134 0.0000
# 6 0.0000 0.0000 0.0000 0.0000 0.0000 21.8167
#
#
#
# Elastic Compliance Matrix: (Units=1/GPa)
#
#
# Indices 1 2 3 4 5 6 
#
# 1 0.027204 -0.005535 0.000092 0.000000 0.000000 0.000000
# 2 -0.005535 0.012557 -0.006263 0.000000 0.000000 0.000000
# 3 0.000092 -0.006263 0.010062 0.000000 0.000000 0.000000
# 4 0.000000 0.000000 0.000000 0.033387 0.000000 0.000000
# 5 0.000000 0.000000 0.000000 0.000000 0.090798 0.000000
# 6 0.000000 0.000000 0.000000 0.000000 0.000000 0.045836
#
#
# Mechanical properties :
#
#
# Convention : Reuss Voigt Hill
#
# Bulk Modulus (GPa) = 37.86447 63.87310 50.86879
# Shear Modulus (GPa) = 19.83642 25.87953 22.85798
#
# Velocity S-wave (km/s) = 3.44556 3.93556 3.69868
# Velocity P-wave (km/s) = 6.20408 7.67326 6.97745
#
# Compressibility (1/GPa) = 0.02640998
#
# Stress axis : x y z
#
# Youngs Moduli (GPa) = 36.75866 79.63756 99.38297
#
# Poissons Ratio (x) = 0.44082 -0.00911
# Poissons Ratio (y) = 0.20347 0.62244
# Poissons Ratio (z) = -0.00337 0.49878
#
# Static dielectric constant tensor:
#      x y z
#    x 2.721610 0.000000 0.000000 
#    y 0.000000 3.221540 0.000000 
#    z 0.000000 0.000000 3.541610 
# 
# 
# High freq. dielectric constant tensor:
#      x y z
#    x 1.606580 0.000000 0.000000 
#    y 0.000000 1.637500 0.000000 
#    z 0.000000 0.000000 1.641400 
# 
# From -- ./inp_files/14025.got.cif
#   From: 2010.03.12/outbox.cif.g09.slc.cpg/sg46_8_cif.got.tgz:14025.got - 2010.04.14 02:56:35.
