data_PCOD8191489
_publ_section_title
;
Structure prediction by ZEFSAII (Michael W. Deem and Ramdas Pophale) SiO2 
 PCOD8191489
Probable space group: I M A 2
;
_chemical_formula_sum "Si O2"
_cell_formula_units_Z 64
_cell_length_a 9.067339
_cell_length_b 29.747685
_cell_length_c 14.288885
_cell_angle_alpha 90.000000
_cell_angle_beta 90.000000
_cell_angle_gamma 90.000000
_cell_volume 3854.174449
_symmetry_space_group_name_H-M "I M A 2"
_symmetry_group_IT_number 46
_symmetry_cell_setting 'orthorhombic'
loop_
_space_group_symop_operation_xyz
x,y,z
-x,-y,z
1/2-x,y,z
1/2+x,-y,z
1/2+x,1/2+y,1/2+z
1/2-x,1/2-y,1/2+z
-x,1/2+y,1/2+z
x,1/2-y,1/2+z
loop_
_atom_site_type_symbol
_atom_site_label
_atom_site_fract_x
_atom_site_fract_y
_atom_site_fract_z
Si Si1 0.422332 0.454482 0.183970
Si Si2 0.576341 0.726763 0.594384
Si Si3 0.918016 0.127504 0.766881
Si Si4 0.424485 0.784387 0.291746
Si Si5 0.421754 0.800624 0.916130
Si Si6 0.084855 0.815194 0.589399
Si Si7 0.417154 0.629467 0.909610
Si Si8 0.422560 0.454294 0.967974
O O1 0.500000 0.500000 0.217372
O O2 0.250000 0.460835 0.197630
O O3 0.475350 0.414506 0.251386
O O4 0.462686 0.443842 0.076154
O O5 0.750000 0.720827 0.601597
O O6 0.504278 0.714298 0.692740
O O7 0.513514 0.695330 0.511938
O O8 0.534566 0.777470 0.565949
O O9 0.750000 0.110273 0.759515
O O10 0.950000 0.151685 0.865315
O O11 0.948566 0.166108 0.691402
O O12 0.250000 0.781826 0.275779
O O13 0.476424 0.741566 0.353009
O O14 0.471943 0.830296 0.343368
O O15 0.250000 0.793839 0.939345
O O16 0.250000 0.794082 0.584491
O O17 0.070575 0.855349 0.516701
O O18 0.250000 0.615901 0.884479
O O19 0.519607 0.585608 0.900790
O O20 0.500000 0.500000 0.935297
O O21 0.250000 0.459867 0.953060
#
# Coordination Sequence:
#
# PCOD8191489 Si02
#       8
#     8   8   8   8   8   8   8   8
#     4  10  20  32  48  72 104 137 169 206 251 302
#     4  12  24  34  48  73 106 137 170 218 261 295
#     4  10  19  32  53  75  98 133 174 213 251 298
#     4  10  20  36  55  73  97 136 179 212 250 304
#     4  10  20  36  55  73  97 136 179 212 250 304
#     4  10  18  32  51  71 100 137 176 208 246 305
#     4  10  19  32  53  75  98 133 174 213 251 298
#     4  10  20  32  48  72 104 137 169 206 251 302
#
# _framework density 16.605371999999999
#
# number of rings (size 3 to 8) (size 9 to 14) (size 15 to 20)
#    0.000    1.750    3.750    1.875    0.000    3.500 
#    0.000    0.000    0.000    0.000    0.000    0.875 
#    0.000    0.000    0.000    0.000    0.000    0.000 
#
# Total GULP energy -396827.054813 kJ/mol
# GULP energy per Si atom -12400.845463 kJ/mol
# Density = 1.656758 g / cm^3
# Si number density = 16.605372 Si / 1000 Ang^3
#
#
#
# Elastic Constant Matrix: (Units=GPa)
#
#
# Indices 1 2 3 4 5 6 
#
# 1 74.3700 46.4603 36.5612 -0.0004 0.0000 0.0000
# 2 46.4603 95.7968 23.8536 -0.0008 0.0001 0.0000
# 3 36.5612 23.8536 72.7627 -0.0013 0.0003 0.0001
# 4 -0.0004 -0.0008 -0.0013 18.4795 0.0002 0.0001
# 5 0.0000 0.0001 0.0003 0.0002 20.2969 -0.0001
# 6 0.0000 0.0000 0.0001 0.0001 -0.0001 30.7603
#
#
#
# Elastic Compliance Matrix: (Units=1/GPa)
#
#
# Indices 1 2 3 4 5 6 
#
# 1 0.023535 -0.009222 -0.008802 0.000000 0.000000 0.000000
# 2 -0.009222 0.014980 -0.000277 0.000000 0.000000 0.000000
# 3 -0.008802 -0.000277 0.018257 0.000001 0.000000 0.000000
# 4 0.000000 0.000000 0.000001 0.054114 0.000000 0.000000
# 5 0.000000 0.000000 0.000000 0.000000 0.049269 0.000000
# 6 0.000000 0.000000 0.000000 0.000000 0.000000 0.032509
#
#
# Mechanical properties :
#
#
# Convention : Reuss Voigt Hill
#
# Bulk Modulus (GPa) = 49.58089 50.74218 50.16153
# Shear Modulus (GPa) = 21.18724 22.97763 22.08244
#
# Velocity S-wave (km/s) = 3.57589 3.72391 3.65065
# Velocity P-wave (km/s) = 6.85365 7.00814 6.93132
#
# Compressibility (1/GPa) = 0.02016906
#
# Stress axis : x y z
#
# Youngs Moduli (GPa) = 42.48993 66.75347 54.77340
#
# Poissons Ratio (x) = 0.61563 0.48213
# Poissons Ratio (y) = 0.39186 0.01517
# Poissons Ratio (z) = 0.37401 0.01849
#
# Static dielectric constant tensor:
#      x y z
#    x 3.067240 0.000000 0.000000 
#    y 0.000000 3.099400 0.000000 
#    z 0.000000 0.000000 3.002440 
# 
# 
# High freq. dielectric constant tensor:
#      x y z
#    x 1.636810 0.000000 0.000000 
#    y 0.000000 1.630080 0.000000 
#    z 0.000000 0.000000 1.615500 
# 
# From -- ./inp_files/14742.got.cif
#   From: 2010.03.12/outbox.cif.g09.slc.cpg/sg46_8_cif.got.tgz:14742.got - 2010.04.14 02:56:35.
