data_PCOD8191412
_publ_section_title
;
Structure prediction by ZEFSAII (Michael W. Deem and Ramdas Pophale) SiO2 
 PCOD8191412
Probable space group: I M A 2
;
_chemical_formula_sum "Si O2"
_cell_formula_units_Z 64
_cell_length_a 9.244507
_cell_length_b 23.149137
_cell_length_c 18.858020
_cell_angle_alpha 90.000000
_cell_angle_beta 90.000000
_cell_angle_gamma 90.000000
_cell_volume 4035.660767
_symmetry_space_group_name_H-M "I M A 2"
_symmetry_group_IT_number 46
_symmetry_cell_setting 'orthorhombic'
loop_
_space_group_symop_operation_xyz
x,y,z
-x,-y,z
1/2-x,y,z
1/2+x,-y,z
1/2+x,1/2+y,1/2+z
1/2-x,1/2-y,1/2+z
-x,1/2+y,1/2+z
x,1/2-y,1/2+z
loop_
_atom_site_type_symbol
_atom_site_label
_atom_site_fract_x
_atom_site_fract_y
_atom_site_fract_z
Si Si1 0.078827 0.058276 0.426520
Si Si2 0.917491 0.833573 0.520262
Si Si3 0.419268 0.746025 0.793414
Si Si4 0.418683 0.941331 0.144387
Si Si5 0.917734 0.336495 0.546950
Si Si6 0.919475 0.111545 0.294610
Si Si7 0.420450 0.276619 0.429622
Si Si8 0.417338 0.724836 0.136676
O O1 0.250000 0.048606 0.417825
O O2 0.043203 0.104695 0.487376
O O3 0.015554 0.078898 0.351995
O O4 0.000000 0.000000 0.450831
O O5 0.750000 0.827552 0.537139
O O6 0.965564 0.784533 0.464331
O O7 0.999212 0.825652 0.594807
O O8 0.250000 0.754293 0.808278
O O9 0.459837 0.678709 0.793983
O O10 0.510281 0.780001 0.852058
O O11 0.464636 0.774002 0.718532
O O12 0.250000 0.954296 0.144594
O O13 0.459980 0.897121 0.081993
O O14 0.465358 0.914852 0.219478
O O15 0.500000 0.000000 0.128052
O O16 0.750000 0.334217 0.525119
O O17 0.954003 0.287146 0.604088
O O18 0.014449 0.328304 0.476901
O O19 0.750000 0.102019 0.310823
O O20 0.250000 0.284556 0.423314
O O21 0.250000 0.710408 0.129299
#
# Coordination Sequence:
#
# PCOD8191412 Si02
#       8
#     8   8   8   8   8   8   8   8
#     4  11  22  35  48  67  96 130 168 203 236 278
#     4   9  19  33  46  66  96 124 155 199 242 279
#     4  10  18  30  49  73  98 128 161 194 235 286
#     4  10  20  33  48  68  96 129 167 203 237 278
#     4   9  17  32  49  67  92 125 161 200 238 278
#     4  10  19  32  48  68  97 132 167 198 230 275
#     4  10  19  31  47  70  97 124 157 197 242 288
#     4   9  17  30  50  71  92 121 160 197 234 283
#
# _framework density 15.858617000000001
#
# number of rings (size 3 to 8) (size 9 to 14) (size 15 to 20)
#    0.000    2.250    2.500    1.125    0.000    4.000 
#    0.000    0.000    0.000    0.000    0.000    0.875 
#    0.000    6.000    0.000    0.000    0.000    0.000 
#
# Total GULP energy -396864.012868 kJ/mol
# GULP energy per Si atom -12402.000402 kJ/mol
# Density = 1.582252 g / cm^3
# Si number density = 15.858617 Si / 1000 Ang^3
#
#
#
# Elastic Constant Matrix: (Units=GPa)
#
#
# Indices 1 2 3 4 5 6 
#
# 1 62.1224 46.1844 59.8856 0.0000 0.0000 0.0000
# 2 46.1844 86.2487 62.4295 0.0000 0.0000 0.0000
# 3 59.8856 62.4295 127.3103 0.0000 0.0000 0.0000
# 4 0.0000 0.0000 0.0000 21.6495 0.0000 0.0000
# 5 0.0000 0.0000 0.0000 0.0000 28.0870 0.0000
# 6 0.0000 0.0000 0.0000 0.0000 0.0000 26.2267
#
#
#
# Elastic Compliance Matrix: (Units=1/GPa)
#
#
# Indices 1 2 3 4 5 6 
#
# 1 0.034639 -0.010471 -0.011159 0.000000 0.000000 0.000000
# 2 -0.010471 0.021140 -0.005441 0.000000 0.000000 0.000000
# 3 -0.011159 -0.005441 0.015772 0.000000 0.000000 0.000000
# 4 0.000000 0.000000 0.000000 0.046190 0.000000 0.000000
# 5 0.000000 0.000000 0.000000 0.000000 0.035604 0.000000
# 6 0.000000 0.000000 0.000000 0.000000 0.000000 0.038129
#
#
# Mechanical properties :
#
#
# Convention : Reuss Voigt Hill
#
# Bulk Modulus (GPa) = 57.44275 68.07561 62.75918
# Shear Modulus (GPa) = 19.88706 22.33811 21.11258
#
# Velocity S-wave (km/s) = 3.54506 3.75718 3.65266
# Velocity P-wave (km/s) = 7.28402 7.86394 7.57953
#
# Compressibility (1/GPa) = 0.01740864
#
# Stress axis : x y z
#
# Youngs Moduli (GPa) = 28.86880 47.30437 63.40336
#
# Poissons Ratio (x) = 0.49534 0.70754
# Poissons Ratio (y) = 0.30229 0.34496
# Poissons Ratio (z) = 0.32215 0.25737
#
# Static dielectric constant tensor:
#      x y z
#    x 2.993880 0.000000 0.000000 
#    y 0.000000 2.933930 0.000000 
#    z 0.000000 0.000000 3.052870 
# 
# 
# High freq. dielectric constant tensor:
#      x y z
#    x 1.611870 0.000000 0.000000 
#    y 0.000000 1.585860 0.000000 
#    z 0.000000 0.000000 1.604520 
# 
# From -- ./inp_files/18588.got.cif
#   From: 2010.03.12/outbox.cif.g09.slc.cpg/sg46_10_cif.got.tgz:18588.got - 2010.04.14 02:56:35.
