data_PCOD8191838
_publ_section_title
;
Structure prediction by ZEFSAII (Michael W. Deem and Ramdas Pophale) SiO2 
 PCOD8191838
Probable space group: I M A 2
;
_chemical_formula_sum "Si O2"
_cell_formula_units_Z 64
_cell_length_a 9.259997
_cell_length_b 20.427990
_cell_length_c 19.374468
_cell_angle_alpha 90.000000
_cell_angle_beta 90.000000
_cell_angle_gamma 90.000000
_cell_volume 3664.934934
_symmetry_space_group_name_H-M "I M A 2"
_symmetry_group_IT_number 46
_symmetry_cell_setting 'orthorhombic'
loop_
_space_group_symop_operation_xyz
x,y,z
-x,-y,z
1/2-x,y,z
1/2+x,-y,z
1/2+x,1/2+y,1/2+z
1/2-x,1/2-y,1/2+z
-x,1/2+y,1/2+z
x,1/2-y,1/2+z
loop_
_atom_site_type_symbol
_atom_site_label
_atom_site_fract_x
_atom_site_fract_y
_atom_site_fract_z
Si Si1 0.917250 0.120406 0.801800
Si Si2 0.083014 0.181725 0.019946
Si Si3 0.918944 0.810657 0.435006
Si Si4 0.580255 0.228574 0.303383
Si Si5 0.417684 0.117338 0.668769
Si Si6 0.420844 0.565965 0.448870
Si Si7 0.919877 0.564160 0.023590
Si Si8 0.084450 0.231753 0.169841
O O1 0.750000 0.114856 0.784580
O O2 0.961623 0.195599 0.814499
O O3 0.960383 0.079819 0.869307
O O4 0.001013 0.090613 0.736432
O O5 0.250000 0.163980 0.005104
O O6 0.039257 0.247764 0.980392
O O7 0.978837 0.124147 0.996117
O O8 0.055490 0.190500 0.101143
O O9 0.750000 0.810733 0.417626
O O10 0.965557 0.874800 0.476785
O O11 0.008137 0.812442 0.364430
O O12 0.750000 0.216274 0.304140
O O13 0.516578 0.203665 0.230522
O O14 0.250000 0.106810 0.682323
O O15 0.470201 0.077394 0.602113
O O16 0.454357 0.192999 0.654481
O O17 0.500000 0.500000 0.472245
O O18 0.250000 0.559495 0.459897
O O19 0.750000 0.552726 0.019945
O O20 0.000000 0.500000 0.995412
O O21 0.250000 0.225494 0.193756
#
# Coordination Sequence:
#
# PCOD8191838 Si02
#       8
#     8   8   8   8   8   8   8   8
#     4   9  19  33  48  72 107 141 175 216 257 307
#     4  10  19  34  58  82 104 136 179 223 268 317
#     4  10  19  34  56  79 105 139 179 221 265 316
#     4  10  19  32  51  80 111 137 172 219 268 313
#     4   9  17  31  51  74 103 140 180 216 252 307
#     4  11  23  38  53  75 109 144 181 221 266 317
#     4  10  21  36  52  76 108 142 180 220 263 313
#     4   9  17  32  54  80 106 136 175 217 263 317
#
# _framework density 17.462793000000001
#
# number of rings (size 3 to 8) (size 9 to 14) (size 15 to 20)
#    0.000    2.250    2.500    0.750    0.000    3.500 
#    0.000    2.500    0.000    0.750    0.000    3.500 
#    0.000    0.000    0.000    0.000    0.000    0.000 
#
# Total GULP energy -396886.666783 kJ/mol
# GULP energy per Si atom -12402.708337 kJ/mol
# Density = 1.742305 g / cm^3
# Si number density = 17.462793 Si / 1000 Ang^3
#
#
#
# Elastic Constant Matrix: (Units=GPa)
#
#
# Indices 1 2 3 4 5 6 
#
# 1 68.7445 49.4060 55.6245 0.0000 0.0000 0.0000
# 2 49.4060 100.3713 52.0017 0.0000 0.0000 0.0000
# 3 55.6245 52.0017 105.2922 0.0000 0.0000 0.0000
# 4 0.0000 0.0000 0.0000 20.6080 0.0000 0.0000
# 5 0.0000 0.0000 0.0000 0.0000 29.4266 0.0000
# 6 0.0000 0.0000 0.0000 0.0000 0.0000 26.7604
#
#
#
# Elastic Compliance Matrix: (Units=1/GPa)
#
#
# Indices 1 2 3 4 5 6 
#
# 1 0.030379 -0.008922 -0.011643 0.000000 0.000000 0.000000
# 2 -0.008922 0.016009 -0.003193 0.000000 0.000000 0.000000
# 3 -0.011643 -0.003193 0.017225 0.000000 0.000000 0.000000
# 4 0.000000 0.000000 0.000000 0.048525 0.000000 0.000000
# 5 0.000000 0.000000 0.000000 0.000000 0.033983 0.000000
# 6 0.000000 0.000000 0.000000 0.000000 0.000000 0.037369
#
#
# Mechanical properties :
#
#
# Convention : Reuss Voigt Hill
#
# Bulk Modulus (GPa) = 62.11947 65.38582 63.75265
# Shear Modulus (GPa) = 21.15320 23.18406 22.16863
#
# Velocity S-wave (km/s) = 3.48419 3.64761 3.56684
# Velocity P-wave (km/s) = 7.19971 7.43400 7.31779
#
# Compressibility (1/GPa) = 0.01609801
#
# Stress axis : x y z
#
# Youngs Moduli (GPa) = 32.91733 62.46502 58.05457
#
# Poissons Ratio (x) = 0.55729 0.67591
# Poissons Ratio (y) = 0.29368 0.18539
# Poissons Ratio (z) = 0.38325 0.19947
#
# Static dielectric constant tensor:
#      x y z
#    x 3.168570 0.000000 0.000000 
#    y 0.000000 3.036000 0.000000 
#    z 0.000000 0.000000 3.307120 
# 
# 
# High freq. dielectric constant tensor:
#      x y z
#    x 1.673740 0.000000 0.000000 
#    y 0.000000 1.651630 0.000000 
#    z 0.000000 0.000000 1.677020 
# 
# From -- ./inp_files/18521.got.cif
#   From: 2010.03.12/outbox.cif.g09.slc.cpg/sg46_10_cif.got.tgz:18521.got - 2010.04.14 02:56:35.
