data_PCOD8191783
_publ_section_title
;
Structure prediction by ZEFSAII (Michael W. Deem and Ramdas Pophale) SiO2 
 PCOD8191783
Probable space group: I M A 2
;
_chemical_formula_sum "Si O2"
_cell_formula_units_Z 64
_cell_length_a 8.967242
_cell_length_b 28.524791
_cell_length_c 14.162317
_cell_angle_alpha 90.000000
_cell_angle_beta 90.000000
_cell_angle_gamma 90.000000
_cell_volume 3622.560710
_symmetry_space_group_name_H-M "I M A 2"
_symmetry_group_IT_number 46
_symmetry_cell_setting 'orthorhombic'
loop_
_space_group_symop_operation_xyz
x,y,z
-x,-y,z
1/2-x,y,z
1/2+x,-y,z
1/2+x,1/2+y,1/2+z
1/2-x,1/2-y,1/2+z
-x,1/2+y,1/2+z
x,1/2-y,1/2+z
loop_
_atom_site_type_symbol
_atom_site_label
_atom_site_fract_x
_atom_site_fract_y
_atom_site_fract_z
Si Si1 0.926758 0.180579 0.842850
Si Si2 0.920293 0.316618 0.555442
Si Si3 0.423190 0.634764 0.741462
Si Si4 0.578303 0.723321 0.059708
Si Si5 0.575064 0.547895 0.055396
Si Si6 0.924574 0.777868 0.339940
Si Si7 0.572682 0.864614 0.677586
Si Si8 0.926160 0.548707 0.839512
O O1 0.750000 0.184444 0.830869
O O2 0.003736 0.228702 0.807991
O O3 0.992250 0.138444 0.779195
O O4 0.975171 0.168946 0.950692
O O5 0.750000 0.301104 0.549199
O O6 0.943261 0.359554 0.628062
O O7 0.004534 0.271174 0.595387
O O8 0.250000 0.630252 0.769363
O O9 0.491716 0.680156 0.789714
O O10 0.510736 0.588738 0.772065
O O11 0.750000 0.729022 0.082858
O O12 0.513933 0.678956 0.115609
O O13 0.548107 0.714422 0.950228
O O14 0.500000 0.500000 0.088993
O O15 0.750000 0.541026 0.063224
O O16 0.518219 0.588639 0.124533
O O17 0.530914 0.560610 0.947732
O O18 0.750000 0.777924 0.313775
O O19 0.750000 0.864559 0.690238
O O20 0.750000 0.545231 0.825542
O O21 0.000000 0.500000 0.808201
#
# Coordination Sequence:
#
# PCOD8191783 Si02
#       8
#     8   8   8   8   8   8   8   8
#     4  10  20  34  49  69  98 133 170 209 248 289
#     4   9  20  35  48  66  98 133 166 205 246 284
#     4  11  21  33  51  75 100 131 169 208 247 292
#     4   9  18  31  48  70  99 132 165 199 242 293
#     4   9  19  35  54  76 104 131 159 196 243 296
#     4  10  19  32  49  72 102 135 167 203 246 295
#     4  10  19  32  50  73  99 129 164 203 243 291
#     4  10  20  36  56  79 105 132 159 195 243 296
#
# _framework density 17.667061
#
# number of rings (size 3 to 8) (size 9 to 14) (size 15 to 20)
#    0.000    2.250    0.000    3.000    0.000    7.500 
#    0.000    1.250    0.000    0.750    0.000    1.750 
#    0.000    0.000    0.000    0.000    0.000    0.000 
#
# Total GULP energy -396838.386623 kJ/mol
# GULP energy per Si atom -12401.199582 kJ/mol
# Density = 1.762685 g / cm^3
# Si number density = 17.667061 Si / 1000 Ang^3
#
#
#
# Elastic Constant Matrix: (Units=GPa)
#
#
# Indices 1 2 3 4 5 6 
#
# 1 66.9800 47.1596 39.1751 0.0000 0.0000 0.0000
# 2 47.1596 124.6191 75.9755 0.0002 0.0000 0.0000
# 3 39.1751 75.9755 82.4055 0.0006 0.0000 0.0000
# 4 0.0000 0.0002 0.0006 29.3952 0.0000 0.0000
# 5 0.0000 0.0000 0.0000 0.0000 25.7865 0.0000
# 6 0.0000 0.0000 0.0000 0.0000 0.0000 32.2418
#
#
#
# Elastic Compliance Matrix: (Units=1/GPa)
#
#
# Indices 1 2 3 4 5 6 
#
# 1 0.021681 -0.004387 -0.006263 0.000000 0.000000 0.000000
# 2 -0.004387 0.019212 -0.015627 0.000000 0.000000 0.000000
# 3 -0.006263 -0.015627 0.029520 0.000000 0.000000 0.000000
# 4 0.000000 0.000000 0.000000 0.034019 0.000000 0.000000
# 5 0.000000 0.000000 0.000000 0.000000 0.038780 0.000000
# 6 0.000000 0.000000 0.000000 0.000000 0.000000 0.031016
#
#
# Mechanical properties :
#
#
# Convention : Reuss Voigt Hill
#
# Bulk Modulus (GPa) = 55.99134 66.51389 61.25261
# Shear Modulus (GPa) = 21.48358 24.93100 23.20729
#
# Velocity S-wave (km/s) = 3.49094 3.76061 3.62828
# Velocity P-wave (km/s) = 6.92894 7.52240 7.23176
#
# Compressibility (1/GPa) = 0.01785991
#
# Stress axis : x y z
#
# Youngs Moduli (GPa) = 46.12246 52.05088 33.87480
#
# Poissons Ratio (x) = 0.22833 0.21215
# Poissons Ratio (y) = 0.20233 0.52938
# Poissons Ratio (z) = 0.28886 0.81342
#
# Static dielectric constant tensor:
#      x y z
#    x 3.289890 0.000000 0.000000 
#    y 0.000000 3.302880 0.000000 
#    z 0.000000 0.000000 3.472010 
# 
# 
# High freq. dielectric constant tensor:
#      x y z
#    x 1.688350 0.000000 0.000000 
#    y 0.000000 1.665010 0.000000 
#    z 0.000000 0.000000 1.685800 
# 
# From -- ./inp_files/14449.got.cif
#   From: 2010.03.12/outbox.cif.g09.slc.cpg/sg46_8_cif.got.tgz:14449.got - 2010.04.14 02:56:35.
