data_PCOD8191876
_publ_section_title
;
Structure prediction by ZEFSAII (Michael W. Deem and Ramdas Pophale) SiO2 
 PCOD8191876
Probable space group: I M A 2
;
_chemical_formula_sum "Si O2"
_cell_formula_units_Z 64
_cell_length_a 8.841271
_cell_length_b 19.612181
_cell_length_c 20.553326
_cell_angle_alpha 90.000000
_cell_angle_beta 90.000000
_cell_angle_gamma 90.000000
_cell_volume 3563.876993
_symmetry_space_group_name_H-M "I M A 2"
_symmetry_group_IT_number 46
_symmetry_cell_setting 'orthorhombic'
loop_
_space_group_symop_operation_xyz
x,y,z
-x,-y,z
1/2-x,y,z
1/2+x,-y,z
1/2+x,1/2+y,1/2+z
1/2-x,1/2-y,1/2+z
-x,1/2+y,1/2+z
x,1/2-y,1/2+z
loop_
_atom_site_type_symbol
_atom_site_label
_atom_site_fract_x
_atom_site_fract_y
_atom_site_fract_z
Si Si1 0.929806 0.930119 0.976170
Si Si2 0.427553 0.068500 0.218687
Si Si3 0.571987 0.786347 0.413848
Si Si4 0.426012 0.932585 0.836515
Si Si5 0.422833 0.800058 0.171002
Si Si6 0.075675 0.702115 0.525270
Si Si7 0.075525 0.713732 0.293160
Si Si8 0.572768 0.568192 0.866344
O O1 0.750000 0.934873 0.976245
O O2 0.989770 0.916652 0.903743
O O3 0.000000 0.000000 0.004410
O O4 0.982920 0.867918 0.020727
O O5 0.250000 0.060801 0.214862
O O6 0.476606 0.132711 0.176371
O O7 0.485681 0.079177 0.292632
O O8 0.500000 0.000000 0.189029
O O9 0.750000 0.776820 0.423320
O O10 0.487263 0.758969 0.476933
O O11 0.526451 0.746137 0.349093
O O12 0.525720 0.865674 0.407721
O O13 0.250000 0.946370 0.850870
O O14 0.449791 0.867808 0.789625
O O15 0.500000 0.000000 0.803753
O O16 0.250000 0.821245 0.183774
O O17 0.443157 0.769533 0.098649
O O18 0.474656 0.743345 0.223301
O O19 0.250000 0.687604 0.507796
O O20 0.250000 0.730266 0.309283
O O21 0.500000 0.500000 0.897145
O O22 0.750000 0.557677 0.866663
#
# Coordination Sequence:
#
# PCOD8191876 Si02
#       8
#     8   8   8   8   8   8   8   8
#     4  11  21  34  53  77 108 144 183 222 268 320
#     4  10  19  33  52  77 109 144 181 220 265 319
#     4  11  21  35  56  83 110 139 180 226 271 321
#     4  10  19  32  53  81 110 138 175 219 269 322
#     4  10  22  38  55  77 107 145 185 225 268 322
#     4  11  23  38  54  77 109 146 187 225 270 323
#     4  10  20  35  57  81 106 140 180 222 269 321
#     4   9  19  33  52  81 110 138 174 220 267 319
#
# _framework density 17.957972000000002
#
# number of rings (size 3 to 8) (size 9 to 14) (size 15 to 20)
#    0.000    1.750    2.500    3.375    0.000    3.500 
#    0.000    0.000    0.000    0.750    0.000    3.500 
#    0.000    0.000    0.000    0.000    0.000    0.000 
#
# Total GULP energy -396845.892395 kJ/mol
# GULP energy per Si atom -12401.434137 kJ/mol
# Density = 1.791710 g / cm^3
# Si number density = 17.957972 Si / 1000 Ang^3
#
#
#
# Elastic Constant Matrix: (Units=GPa)
#
#
# Indices 1 2 3 4 5 6 
#
# 1 96.7405 49.8419 39.2335 0.0000 0.0000 0.0000
# 2 49.8419 127.3743 58.1995 0.0000 0.0000 0.0000
# 3 39.2335 58.1995 94.0201 0.0000 0.0000 0.0000
# 4 0.0000 0.0000 0.0000 22.6439 0.0000 0.0000
# 5 0.0000 0.0000 0.0000 0.0000 16.9229 0.0000
# 6 0.0000 0.0000 0.0000 0.0000 0.0000 32.5589
#
#
#
# Elastic Compliance Matrix: (Units=1/GPa)
#
#
# Indices 1 2 3 4 5 6 
#
# 1 0.013658 -0.003821 -0.003334 0.000000 0.000000 0.000000
# 2 -0.003821 0.012016 -0.005844 0.000000 0.000000 0.000000
# 3 -0.003334 -0.005844 0.015645 0.000000 0.000000 0.000000
# 4 0.000000 0.000000 0.000000 0.044162 0.000000 0.000000
# 5 0.000000 0.000000 0.000000 0.000000 0.059092 0.000000
# 6 0.000000 0.000000 0.000000 0.000000 0.000000 0.030714
#
#
# Mechanical properties :
#
#
# Convention : Reuss Voigt Hill
#
# Bulk Modulus (GPa) = 65.26934 68.07610 66.67272
# Shear Modulus (GPa) = 24.22602 25.81579 25.02091
#
# Velocity S-wave (km/s) = 3.67691 3.79564 3.73675
# Velocity P-wave (km/s) = 7.37908 7.56307 7.47164
#
# Compressibility (1/GPa) = 0.01532113
#
# Stress axis : x y z
#
# Youngs Moduli (GPa) = 73.21921 83.22182 63.92003
#
# Poissons Ratio (x) = 0.31798 0.21311
# Poissons Ratio (y) = 0.27976 0.37353
# Poissons Ratio (z) = 0.24411 0.48632
#
# Static dielectric constant tensor:
#      x y z
#    x 3.385140 0.000000 0.000000 
#    y 0.000000 3.541090 0.000000 
#    z 0.000000 0.000000 3.151190 
# 
# 
# High freq. dielectric constant tensor:
#      x y z
#    x 1.706010 0.000000 0.000000 
#    y 0.000000 1.699330 0.000000 
#    z 0.000000 0.000000 1.665310 
# 
# From -- ./inp_files/21428.got.cif
#   From: 2010.03.12/outbox.cif.g09.slc.cpg/sg46_11_cif.got.tgz:21428.got - 2010.04.14 02:56:35.
