data_PCOD8191319
_publ_section_title
;
Structure prediction by ZEFSAII (Michael W. Deem and Ramdas Pophale) SiO2 
 PCOD8191319
Probable space group: I M A 2
;
_chemical_formula_sum "Si O2"
_cell_formula_units_Z 56
_cell_length_a 8.997656
_cell_length_b 18.244318
_cell_length_c 20.720365
_cell_angle_alpha 90.000000
_cell_angle_beta 90.000000
_cell_angle_gamma 90.000000
_cell_volume 3401.374253
_symmetry_space_group_name_H-M "I M A 2"
_symmetry_group_IT_number 46
_symmetry_cell_setting 'orthorhombic'
loop_
_space_group_symop_operation_xyz
x,y,z
-x,-y,z
1/2-x,y,z
1/2+x,-y,z
1/2+x,1/2+y,1/2+z
1/2-x,1/2-y,1/2+z
-x,1/2+y,1/2+z
x,1/2-y,1/2+z
loop_
_atom_site_type_symbol
_atom_site_label
_atom_site_fract_x
_atom_site_fract_y
_atom_site_fract_z
Si Si1 0.582777 0.707510 0.830380
Si Si2 0.921810 0.423818 0.149358
Si Si3 0.076135 0.654612 0.022575
Si Si4 0.413718 0.216558 0.968287
Si Si5 0.074096 0.922222 0.389745
Si Si6 0.923179 0.342663 0.281309
Si Si7 0.927414 0.923729 0.897428
O O1 0.750000 0.693466 0.804297
O O2 0.589700 0.744326 0.899709
O O3 0.493016 0.631476 0.835371
O O4 0.494489 0.761753 0.782829
O O5 0.750000 0.441042 0.137813
O O6 0.990568 0.384804 0.085837
O O7 0.947239 0.370478 0.209185
O O8 0.000000 0.500000 0.163298
O O9 0.250000 0.662894 0.029156
O O10 0.030343 0.606278 0.960893
O O11 0.016481 0.737935 0.017080
O O12 0.250000 0.214925 0.999069
O O13 0.469980 0.133717 0.954544
O O14 0.250000 0.927461 0.380852
O O15 0.000000 0.000000 0.378843
O O16 0.750000 0.338556 0.300510
O O17 0.005210 0.398453 0.329302
O O18 0.750000 0.930153 0.889468
O O19 0.000000 0.000000 0.918318
#
# Coordination Sequence:
#
# PCOD8191319 Si02
#       7
#     8   8   8   8   8   8   8
#     4   9  17  30  46  64  88 116 149 187 227 270
#     4  10  21  33  45  65  92 122 155 187 217 255
#     4   9  18  31  45  63  89 121 154 185 219 261
#     4   8  16  29  44  63  86 113 145 183 224 267
#     4  10  18  28  45  68  93 120 150 185 227 270
#     4  10  19  31  46  64  90 122 154 186 222 264
#     4  10  19  30  45  67  93 118 148 185 226 269
#
# _framework density 16.463933999999998
#
# number of rings (size 3 to 8) (size 9 to 14) (size 15 to 20)
#    0.000    2.571    0.000    3.429    0.000    7.429 
#    0.000    0.000    0.000    0.000    0.000    1.000 
#    0.000    2.286    0.000    0.000    0.000    0.000 
#
# Total GULP energy -347143.828936 kJ/mol
# GULP energy per Si atom -12397.993891 kJ/mol
# Density = 1.642646 g / cm^3
# Si number density = 16.463934 Si / 1000 Ang^3
#
#
#
# Elastic Constant Matrix: (Units=GPa)
#
#
# Indices 1 2 3 4 5 6 
#
# 1 85.9886 63.5713 34.7370 0.0000 0.0000 0.0000
# 2 63.5713 146.0807 43.7968 0.0000 0.0000 0.0000
# 3 34.7370 43.7968 50.7251 0.0000 0.0000 0.0000
# 4 0.0000 0.0000 0.0000 21.5427 0.0000 0.0000
# 5 0.0000 0.0000 0.0000 0.0000 17.8503 0.0000
# 6 0.0000 0.0000 0.0000 0.0000 0.0000 34.2241
#
#
#
# Elastic Compliance Matrix: (Units=1/GPa)
#
#
# Indices 1 2 3 4 5 6 
#
# 1 0.019310 -0.005989 -0.008053 0.000000 0.000000 0.000000
# 2 -0.005989 0.011094 -0.005477 0.000000 0.000000 0.000000
# 3 -0.008053 -0.005477 0.029958 0.000000 0.000000 0.000000
# 4 0.000000 0.000000 0.000000 0.046420 0.000000 0.000000
# 5 0.000000 0.000000 0.000000 0.000000 0.056021 0.000000
# 6 0.000000 0.000000 0.000000 0.000000 0.000000 0.029219
#
#
# Mechanical properties :
#
#
# Convention : Reuss Voigt Hill
#
# Bulk Modulus (GPa) = 46.89599 63.00052 54.94825
# Shear Modulus (GPa) = 20.99351 24.10271 22.54811
#
# Velocity S-wave (km/s) = 3.57476 3.83034 3.70475
# Velocity P-wave (km/s) = 6.75162 7.60992 7.19358
#
# Compressibility (1/GPa) = 0.02132378
#
# Stress axis : x y z
#
# Youngs Moduli (GPa) = 51.78590 90.13840 33.38014
#
# Poissons Ratio (x) = 0.53985 0.26880
# Poissons Ratio (y) = 0.31015 0.18284
# Poissons Ratio (z) = 0.41702 0.49372
#
# Static dielectric constant tensor:
#      x y z
#    x 3.251980 0.000000 0.000000 
#    y 0.000000 3.313900 0.000000 
#    z 0.000000 0.000000 2.889360 
# 
# 
# High freq. dielectric constant tensor:
#      x y z
#    x 1.644790 0.000000 0.000000 
#    y 0.000000 1.639010 0.000000 
#    z 0.000000 0.000000 1.590240 
# 
# From -- ./inp_files/21208.got.cif
#   From: 2010.03.12/outbox.cif.g09.slc.cpg/sg46_11_cif.got.tgz:21208.got - 2010.04.14 02:56:35.
