data_PCOD8191241
_publ_section_title
;
Structure prediction by ZEFSAII (Michael W. Deem and Ramdas Pophale) SiO2 
 PCOD8191241
Probable space group: I M A 2
;
_chemical_formula_sum "Si O2"
_cell_formula_units_Z 40
_cell_length_a 14.156785
_cell_length_b 9.254293
_cell_length_c 14.713420
_cell_angle_alpha 90.000000
_cell_angle_beta 90.000000
_cell_angle_gamma 90.000000
_cell_volume 1927.620402
_symmetry_space_group_name_H-M "I M A 2"
_symmetry_group_IT_number 46
_symmetry_cell_setting 'orthorhombic'
loop_
_space_group_symop_operation_xyz
x,y,z
-x,-y,z
1/2-x,y,z
1/2+x,-y,z
1/2+x,1/2+y,1/2+z
1/2-x,1/2-y,1/2+z
-x,1/2+y,1/2+z
x,1/2-y,1/2+z
loop_
_atom_site_type_symbol
_atom_site_label
_atom_site_fract_x
_atom_site_fract_y
_atom_site_fract_z
Si Si1 0.023925 0.835120 0.519900
Si Si2 0.903733 0.577851 0.513668
Si Si3 0.038379 0.770006 0.221735
Si Si4 0.146299 0.063101 0.208219
Si Si5 0.143669 0.665391 0.385134
O O1 0.049437 0.809213 0.625277
O O2 0.112756 0.786089 0.458798
O O3 0.932121 0.742200 0.488343
O O4 0.000000 0.000000 0.500049
O O5 0.835527 0.574607 0.599918
O O6 0.859212 0.495157 0.428497
O O7 0.000000 0.500000 0.548497
O O8 0.072365 0.660069 0.299770
O O9 0.929419 0.815850 0.239439
O O10 0.108206 0.905425 0.232858
O O11 0.250000 0.088175 0.253667
O O12 0.250000 0.699404 0.353777
#
# Coordination Sequence:
#
# PCOD8191241 Si02
#       5
#     8   8   8   8   8
#     4  10  22  40  62  89 128 170 203 264 324 365
#     4   9  17  37  61  87 119 162 207 253 310 371
#     4  10  21  37  58  94 126 163 208 263 315 372
#     4  10  17  34  63  89 121 164 207 253 316 380
#     4  11  22  37  65  94 124 169 214 256 311 383
#
# _framework density 20.750975
#
# number of rings (size 3 to 8) (size 9 to 14) (size 15 to 20)
#    0.000    2.000    6.000    1.200    2.800    3.200 
#    0.000    5.000    0.000   36.000    0.000    0.000 
#    0.000    0.000    0.000    0.000    0.000    0.000 
#
# Total GULP energy -247906.219763 kJ/mol
# GULP energy per Si atom -12395.310988 kJ/mol
# Density = 2.070374 g / cm^3
# Si number density = 20.750975 Si / 1000 Ang^3
#
#
#
# Elastic Constant Matrix: (Units=GPa)
#
#
# Indices 1 2 3 4 5 6 
#
# 1 144.3671 28.8974 38.3915 0.0000 0.0000 0.0000
# 2 28.8974 115.2141 31.3497 0.0000 0.0000 0.0000
# 3 38.3915 31.3497 101.6532 0.0000 0.0000 0.0000
# 4 0.0000 0.0000 0.0000 23.2098 0.0000 0.0000
# 5 0.0000 0.0000 0.0000 0.0000 21.7851 0.0000
# 6 0.0000 0.0000 0.0000 0.0000 0.0000 12.6755
#
#
#
# Elastic Compliance Matrix: (Units=1/GPa)
#
#
# Indices 1 2 3 4 5 6 
#
# 1 0.007867 -0.001271 -0.002579 0.000000 0.000000 0.000000
# 2 -0.001271 0.009680 -0.002505 0.000000 0.000000 0.000000
# 3 -0.002579 -0.002505 0.011584 0.000000 0.000000 0.000000
# 4 0.000000 0.000000 0.000000 0.043085 0.000000 0.000000
# 5 0.000000 0.000000 0.000000 0.000000 0.045903 0.000000
# 6 0.000000 0.000000 0.000000 0.000000 0.000000 0.078892
#
#
# Mechanical properties :
#
#
# Convention : Reuss Voigt Hill
#
# Bulk Modulus (GPa) = 60.90176 62.05684 61.47930
# Shear Modulus (GPa) = 23.23461 29.04047 26.13754
#
# Velocity S-wave (km/s) = 3.34980 3.74501 3.55291
# Velocity P-wave (km/s) = 6.66139 6.97643 6.82073
#
# Compressibility (1/GPa) = 0.01641989
#
# Stress axis : x y z
#
# Youngs Moduli (GPa) = 127.11098 103.30543 86.32600
#
# Poissons Ratio (x) = 0.13135 0.22264
# Poissons Ratio (y) = 0.16161 0.21626
# Poissons Ratio (z) = 0.32783 0.25879
#
# Static dielectric constant tensor:
#      x y z
#    x 3.647500 0.000000 0.000000 
#    y 0.000000 3.751480 0.000000 
#    z 0.000000 0.000000 3.658350 
# 
# 
# High freq. dielectric constant tensor:
#      x y z
#    x 1.803440 0.000000 0.000000 
#    y 0.000000 1.792500 0.000000 
#    z 0.000000 0.000000 1.805120 
# 
# From -- ./inp_files/15682.got.cif
#   From: 2010.03.12/outbox.cif.g09.slc.cpg/sg46_8_cif.got.tgz:15682.got - 2010.04.14 02:56:35.
