data_PCOD8191061
_publ_section_title
;
Structure prediction by ZEFSAII (Michael W. Deem and Ramdas Pophale) SiO2 
 PCOD8191061
Probable space group: I B A 2
;
_chemical_formula_sum "Si O2"
_cell_formula_units_Z 64
_cell_length_a 32.139379
_cell_length_b 9.239062
_cell_length_c 10.002327
_cell_angle_alpha 90.000000
_cell_angle_beta 90.000000
_cell_angle_gamma 90.000000
_cell_volume 2970.068126
_symmetry_space_group_name_H-M "I B A 2"
_symmetry_group_IT_number 45
_symmetry_cell_setting 'orthorhombic'
loop_
_space_group_symop_operation_xyz
x,y,z
-x,-y,z
-x,y,1/2+z
x,-y,1/2+z
1/2+x,1/2+y,1/2+z
1/2-x,1/2-y,1/2+z
1/2-x,1/2+y,z
1/2+x,1/2-y,z
loop_
_atom_site_type_symbol
_atom_site_label
_atom_site_fract_x
_atom_site_fract_y
_atom_site_fract_z
Si Si1 0.794373 0.555376 0.849700
Si Si2 0.395150 0.751675 0.179833
Si Si3 0.021742 0.157489 0.493851
Si Si4 0.151571 0.509361 0.093373
Si Si5 0.338265 0.497109 0.614092
Si Si6 0.489500 0.171857 0.732069
Si Si7 0.613698 0.268992 0.475595
Si Si8 0.709822 0.393535 0.867252
O O1 0.828629 0.531432 0.737173
O O2 0.752336 0.468965 0.824087
O O3 0.783432 0.723541 0.854496
O O4 0.811896 0.488285 0.985958
O O5 0.381570 0.591914 0.132156
O O6 0.443970 0.786378 0.176978
O O7 0.376469 0.781368 0.325945
O O8 0.371950 0.857754 0.078735
O O9 0.002690 0.260882 0.378688
O O10 0.070924 0.139819 0.472677
O O11 0.019550 0.242326 0.633220
O O12 0.000000 0.000000 0.495440
O O13 0.114870 0.626536 0.067954
O O14 0.348364 0.636949 0.527751
O O15 0.323475 0.543608 0.761361
O O16 0.303630 0.417921 0.522390
O O17 0.500000 0.000000 0.734215
#
# Coordination Sequence:
#
# PCOD8191061 Si02
#       8
#     8   8   8   8   8   8   8   8
#     4  12  28  44  69 100 135 181 225 283 344 408
#     4  11  24  43  70 100 136 178 223 287 333 404
#     4  11  24  45  70 105 143 183 232 287 353 422
#     4  12  24  45  68  99 137 175 232 275 342 405
#     4  12  24  45  68  99 137 175 232 275 342 405
#     4  11  24  45  70 105 143 183 232 287 353 422
#     4  11  24  43  70 100 136 178 223 287 333 404
#     4  12  28  44  69 100 135 181 225 283 344 408
#
# _framework density 21.548328000000001
#
# number of rings (size 3 to 8) (size 9 to 14) (size 15 to 20)
#    0.000    0.500    5.000    3.000    3.500    4.000 
#    4.500    0.000    0.000    0.000    0.000    0.000 
#    0.000    0.000    0.000    0.000    0.000    0.000 
#
# Total GULP energy -396720.445213 kJ/mol
# GULP energy per Si atom -12397.513913 kJ/mol
# Density = 2.149928 g / cm^3
# Si number density = 21.548328 Si / 1000 Ang^3
#
#
#
# Elastic Constant Matrix: (Units=GPa)
#
#
# Indices 1 2 3 4 5 6 
#
# 1 60.5875 32.0432 11.5305 0.0000 0.0000 0.0000
# 2 32.0432 130.2315 12.2078 0.0000 0.0000 0.0000
# 3 11.5305 12.2078 74.0391 0.0000 0.0000 0.0000
# 4 0.0000 0.0000 0.0000 34.1774 0.0000 0.0000
# 5 0.0000 0.0000 0.0000 0.0000 34.6045 0.0000
# 6 0.0000 0.0000 0.0000 0.0000 0.0000 43.3146
#
#
#
# Elastic Compliance Matrix: (Units=1/GPa)
#
#
# Indices 1 2 3 4 5 6 
#
# 1 0.019340 -0.004547 -0.002262 0.000000 0.000000 0.000000
# 2 -0.004547 0.008868 -0.000754 0.000000 0.000000 0.000000
# 3 -0.002262 -0.000754 0.013983 0.000000 0.000000 0.000000
# 4 0.000000 0.000000 0.000000 0.029259 0.000000 0.000000
# 5 0.000000 0.000000 0.000000 0.000000 0.028898 0.000000
# 6 0.000000 0.000000 0.000000 0.000000 0.000000 0.023087
#
#
# Mechanical properties :
#
#
# Convention : Reuss Voigt Hill
#
# Bulk Modulus (GPa) = 36.94773 41.82457 39.38615
# Shear Modulus (GPa) = 33.87929 36.35775 35.11852
#
# Velocity S-wave (km/s) = 3.96946 4.11209 4.04140
# Velocity P-wave (km/s) = 6.18001 6.48055 6.33206
#
# Compressibility (1/GPa) = 0.02706526
#
# Stress axis : x y z
#
# Youngs Moduli (GPa) = 51.70591 112.76512 71.51519
#
# Poissons Ratio (x) = 0.51269 0.16179
# Poissons Ratio (y) = 0.23508 0.05393
# Poissons Ratio (z) = 0.11697 0.08504
#
# Static dielectric constant tensor:
#      x y z
#    x 3.750890 0.000000 0.000000 
#    y 0.000000 3.998430 0.000000 
#    z 0.000000 0.000000 4.000560 
# 
# 
# High freq. dielectric constant tensor:
#      x y z
#    x 1.842850 0.000000 0.000000 
#    y 0.000000 1.860700 0.000000 
#    z 0.000000 0.000000 1.858230 
# 
# From -- ./inp_files/4966.got.cif
#   From: 2010.03.12/outbox.cif.g09.slc.cpg/sg45_3_cif.got.tgz:4966.got - 2010.04.14 02:50:11.
