data_PCOD8191727
_publ_section_title
;
Structure prediction by ZEFSAII (Michael W. Deem and Ramdas Pophale) SiO2 
 PCOD8191727
Probable space group: I M A 2
;
_chemical_formula_sum "Si O2"
_cell_formula_units_Z 64
_cell_length_a 8.761036
_cell_length_b 14.712924
_cell_length_c 27.470279
_cell_angle_alpha 90.000000
_cell_angle_beta 90.000000
_cell_angle_gamma 90.000000
_cell_volume 3540.931512
_symmetry_space_group_name_H-M "I M A 2"
_symmetry_group_IT_number 46
_symmetry_cell_setting 'orthorhombic'
loop_
_space_group_symop_operation_xyz
x,y,z
-x,-y,z
1/2-x,y,z
1/2+x,-y,z
1/2+x,1/2+y,1/2+z
1/2-x,1/2-y,1/2+z
-x,1/2+y,1/2+z
x,1/2-y,1/2+z
loop_
_atom_site_type_symbol
_atom_site_label
_atom_site_fract_x
_atom_site_fract_y
_atom_site_fract_z
Si Si1 0.069434 0.094937 0.733450
Si Si2 0.430191 0.906058 0.293957
Si Si3 0.071635 0.406632 0.345474
Si Si4 0.430972 0.772515 0.656889
Si Si5 0.070715 0.594267 0.072705
Si Si6 0.430250 0.905083 0.462981
Si Si7 0.431474 0.095832 0.189805
Si Si8 0.571418 0.271179 0.880215
O O1 0.250000 0.094534 0.725069
O O2 0.023858 0.110308 0.789561
O O3 0.992763 0.176387 0.704287
O O4 0.000000 0.000000 0.714536
O O5 0.250000 0.917816 0.285554
O O6 0.510231 0.879312 0.243624
O O7 0.469483 0.828229 0.332285
O O8 0.500000 0.000000 0.314013
O O9 0.250000 0.415361 0.351167
O O10 0.000000 0.500000 0.365040
O O11 0.013318 0.324677 0.378804
O O12 0.250000 0.762672 0.660905
O O13 0.482585 0.825422 0.608272
O O14 0.508069 0.673546 0.653492
O O15 0.250000 0.581616 0.074670
O O16 0.000000 0.500000 0.091186
O O17 0.015871 0.617749 0.017944
O O18 0.250000 0.914887 0.459007
O O19 0.488234 0.825076 0.427695
O O20 0.500000 0.000000 0.445152
O O21 0.250000 0.091093 0.189148
O O22 0.500000 0.000000 0.172184
O O23 0.750000 0.252307 0.883647
#
# Coordination Sequence:
#
# PCOD8191727 Si02
#       8
#     8   8   8   8   8   8   8   8
#     4  10  20  33  49  73 103 136 169 205 247 294
#     4  10  19  31  48  73 104 136 167 203 243 289
#     4  10  21  35  51  70  97 131 168 207 247 290
#     4  11  21  33  51  75 101 132 168 207 248 295
#     4   9  19  34  53  76 104 133 162 198 244 293
#     4   9  18  34  53  76 104 133 162 198 243 292
#     4  11  22  36  52  71  98 133 169 208 249 293
#     4  10  20  32  50  74 101 132 167 204 245 290
#
# _framework density 18.074341
#
# number of rings (size 3 to 8) (size 9 to 14) (size 15 to 20)
#    0.000    2.000    0.000    4.875    0.000    7.000 
#    0.000    0.000    0.000    0.750    0.000    0.000 
#    0.000    0.000    0.000    0.000    0.000    0.000 
#
# Total GULP energy -396901.819168 kJ/mol
# GULP energy per Si atom -12403.181849 kJ/mol
# Density = 1.803320 g / cm^3
# Si number density = 18.074341 Si / 1000 Ang^3
#
#
#
# Elastic Constant Matrix: (Units=GPa)
#
#
# Indices 1 2 3 4 5 6 
#
# 1 77.3189 54.9320 37.2135 0.0000 0.0000 0.0000
# 2 54.9320 164.3356 74.1455 0.0000 0.0000 0.0000
# 3 37.2135 74.1455 80.8389 0.0000 0.0000 0.0000
# 4 0.0000 0.0000 0.0000 28.4235 0.0000 0.0000
# 5 0.0000 0.0000 0.0000 0.0000 19.7635 0.0000
# 6 0.0000 0.0000 0.0000 0.0000 0.0000 36.9047
#
#
#
# Elastic Compliance Matrix: (Units=1/GPa)
#
#
# Indices 1 2 3 4 5 6 
#
# 1 0.017954 -0.003877 -0.004709 0.000000 0.000000 0.000000
# 2 -0.003877 0.011218 -0.008505 0.000000 0.000000 0.000000
# 3 -0.004709 -0.008505 0.022339 0.000000 0.000000 0.000000
# 4 0.000000 0.000000 0.000000 0.035182 0.000000 0.000000
# 5 0.000000 0.000000 0.000000 0.000000 0.050598 0.000000
# 6 0.000000 0.000000 0.000000 0.000000 0.000000 0.027097
#
#
# Mechanical properties :
#
#
# Convention : Reuss Voigt Hill
#
# Bulk Modulus (GPa) = 57.70473 72.78615 65.24544
# Shear Modulus (GPa) = 24.46823 27.43183 25.95003
#
# Velocity S-wave (km/s) = 3.68333 3.90002 3.79322
# Velocity P-wave (km/s) = 7.07707 7.78705 7.44053
#
# Compressibility (1/GPa) = 0.01732960
#
# Stress axis : x y z
#
# Youngs Moduli (GPa) = 55.69679 89.14132 44.76542
#
# Poissons Ratio (x) = 0.34558 0.21082
# Poissons Ratio (y) = 0.21592 0.38071
# Poissons Ratio (z) = 0.26230 0.75812
#
# Static dielectric constant tensor:
#      x y z
#    x 3.339770 0.000000 0.000000 
#    y 0.000000 3.429480 0.000000 
#    z 0.000000 0.000000 3.370400 
# 
# 
# High freq. dielectric constant tensor:
#      x y z
#    x 1.707460 0.000000 0.000000 
#    y 0.000000 1.704580 0.000000 
#    z 0.000000 0.000000 1.677080 
# 
# From -- ./inp_files/23235.got.cif
#   From: 2010.03.12/outbox.cif.g09.slc.cpg/sg46_12_cif.got.tgz:23235.got - 2010.04.14 02:56:35.
