data_PCOD8191774
_publ_section_title
;
Structure prediction by ZEFSAII (Michael W. Deem and Ramdas Pophale) SiO2 
 PCOD8191774
Probable space group: I M A 2
;
_chemical_formula_sum "Si O2"
_cell_formula_units_Z 64
_cell_length_a 9.407628
_cell_length_b 18.224578
_cell_length_c 21.356295
_cell_angle_alpha 90.000000
_cell_angle_beta 90.000000
_cell_angle_gamma 90.000000
_cell_volume 3661.537852
_symmetry_space_group_name_H-M "I M A 2"
_symmetry_group_IT_number 46
_symmetry_cell_setting 'orthorhombic'
loop_
_space_group_symop_operation_xyz
x,y,z
-x,-y,z
1/2-x,y,z
1/2+x,-y,z
1/2+x,1/2+y,1/2+z
1/2-x,1/2-y,1/2+z
-x,1/2+y,1/2+z
x,1/2-y,1/2+z
loop_
_atom_site_type_symbol
_atom_site_label
_atom_site_fract_x
_atom_site_fract_y
_atom_site_fract_z
Si Si1 0.087180 0.566909 0.809620
Si Si2 0.082760 0.573520 0.146076
Si Si3 0.090798 0.689482 0.044526
Si Si4 0.587247 0.380008 0.285605
Si Si5 0.415345 0.431842 0.401863
Si Si6 0.584298 0.725793 0.453344
Si Si7 0.403814 0.940534 0.453055
Si Si8 0.914245 0.276762 0.833877
O O1 0.250000 0.549560 0.794690
O O2 0.046239 0.570121 0.882384
O O3 0.046087 0.651123 0.791175
O O4 0.000000 0.500000 0.776822
O O5 0.250000 0.560045 0.134768
O O6 0.033475 0.643293 0.104050
O O7 0.045255 0.593039 0.217033
O O8 0.000000 0.500000 0.126153
O O9 0.250000 0.720459 0.058031
O O10 0.093268 0.637126 0.985044
O O11 0.985336 0.754053 0.021154
O O12 0.750000 0.400835 0.302354
O O13 0.481171 0.419275 0.333193
O O14 0.566776 0.292317 0.288126
O O15 0.500000 0.500000 0.433116
O O16 0.250000 0.451251 0.394020
O O17 0.437571 0.361368 0.445702
O O18 0.750000 0.747200 0.453942
O O19 0.511702 0.767585 0.395180
O O20 0.250000 0.976697 0.454937
O O21 0.500000 0.000000 0.488820
O O22 0.750000 0.285109 0.856959
#
# Coordination Sequence:
#
# PCOD8191774 Si02
#       8
#     8   8   8   8   8   8   8   8
#     4   9  16  25  38  59  85 115 148 182 223 273
#     4  10  21  34  49  71  97 129 169 205 235 276
#     4  10  19  32  46  62  91 126 160 193 229 277
#     4   9  18  32  51  72  95 127 165 204 242 282
#     4  10  20  33  50  74  99 124 154 194 243 294
#     4  10  20  31  46  70  95 118 154 197 236 282
#     4   9  16  25  37  55  80 114 150 181 216 261
#     4   9  16  30  48  65  91 125 158 192 240 291
#
# _framework density 17.478994
#
# number of rings (size 3 to 8) (size 9 to 14) (size 15 to 20)
#    0.000    2.500    1.250    1.500    0.000    4.500 
#    0.000    0.000    0.000    0.000    0.000    0.875 
#    0.000    4.000    0.000    0.000    0.000    0.125 
#
# Total GULP energy -396503.918155 kJ/mol
# GULP energy per Si atom -12390.747442 kJ/mol
# Density = 1.743921 g / cm^3
# Si number density = 17.478994 Si / 1000 Ang^3
#
#
#
# Elastic Constant Matrix: (Units=GPa)
#
#
# Indices 1 2 3 4 5 6 
#
# 1 85.9496 54.4691 26.8630 0.0000 0.0000 0.0000
# 2 54.4691 107.6296 21.7845 0.0000 0.0000 0.0000
# 3 26.8630 21.7845 53.0418 0.0000 0.0000 0.0000
# 4 0.0000 0.0000 0.0000 19.8895 0.0000 0.0000
# 5 0.0000 0.0000 0.0000 0.0000 16.4675 0.0000
# 6 0.0000 0.0000 0.0000 0.0000 0.0000 31.2145
#
#
#
# Elastic Compliance Matrix: (Units=1/GPa)
#
#
# Indices 1 2 3 4 5 6 
#
# 1 0.018788 -0.008270 -0.006119 0.000000 0.000000 0.000000
# 2 -0.008270 0.013774 -0.001469 0.000000 0.000000 0.000000
# 3 -0.006119 -0.001469 0.022555 0.000000 0.000000 0.000000
# 4 0.000000 0.000000 0.000000 0.050278 0.000000 0.000000
# 5 0.000000 0.000000 0.000000 0.000000 0.060726 0.000000
# 6 0.000000 0.000000 0.000000 0.000000 0.000000 0.032036
#
#
# Mechanical properties :
#
#
# Convention : Reuss Voigt Hill
#
# Bulk Modulus (GPa) = 42.73082 50.31712 46.52397
# Shear Modulus (GPa) = 21.03747 23.08127 22.05937
#
# Velocity S-wave (km/s) = 3.47304 3.63783 3.55639
# Velocity P-wave (km/s) = 6.37045 6.81871 6.59839
#
# Compressibility (1/GPa) = 0.02340231
#
# Stress axis : x y z
#
# Youngs Moduli (GPa) = 53.22577 72.60312 44.33592
#
# Poissons Ratio (x) = 0.60041 0.27128
# Poissons Ratio (y) = 0.44016 0.06511
# Poissons Ratio (z) = 0.32567 0.10663
#
# Static dielectric constant tensor:
#      x y z
#    x 3.403250 0.000000 0.000000 
#    y 0.000000 3.674920 0.000000 
#    z 0.000000 0.000000 2.877770 
# 
# 
# High freq. dielectric constant tensor:
#      x y z
#    x 1.676190 0.000000 0.000000 
#    y 0.000000 1.683850 0.000000 
#    z 0.000000 0.000000 1.624290 
# 
# From -- ./inp_files/21445.got.cif
#   From: 2010.03.12/outbox.cif.g09.slc.cpg/sg46_11_cif.got.tgz:21445.got - 2010.04.14 02:56:35.
