data_PCOD8191832
_publ_section_title
;
Structure prediction by ZEFSAII (Michael W. Deem and Ramdas Pophale) SiO2 
 PCOD8191832
Probable space group: I M A 2
;
_chemical_formula_sum "Si O2"
_cell_formula_units_Z 64
_cell_length_a 8.811211
_cell_length_b 16.395817
_cell_length_c 22.597463
_cell_angle_alpha 90.000000
_cell_angle_beta 90.000000
_cell_angle_gamma 90.000000
_cell_volume 3264.587757
_symmetry_space_group_name_H-M "I M A 2"
_symmetry_group_IT_number 46
_symmetry_cell_setting 'orthorhombic'
loop_
_space_group_symop_operation_xyz
x,y,z
-x,-y,z
1/2-x,y,z
1/2+x,-y,z
1/2+x,1/2+y,1/2+z
1/2-x,1/2-y,1/2+z
-x,1/2+y,1/2+z
x,1/2-y,1/2+z
loop_
_atom_site_type_symbol
_atom_site_label
_atom_site_fract_x
_atom_site_fract_y
_atom_site_fract_z
Si Si1 0.426274 0.242882 0.742580
Si Si2 0.430277 0.588790 0.782369
Si Si3 0.570030 0.915296 0.816412
Si Si4 0.581426 0.725097 0.985606
Si Si5 0.072881 0.872150 0.938619
Si Si6 0.922994 0.731719 0.613148
Si Si7 0.426533 0.579540 0.568347
Si Si8 0.078976 0.077693 0.404298
O O1 0.250000 0.256027 0.758655
O O2 0.509085 0.330236 0.749225
O O3 0.489361 0.166188 0.781491
O O4 0.451179 0.217908 0.673568
O O5 0.500000 0.500000 0.762057
O O6 0.250000 0.584204 0.774210
O O7 0.476336 0.606928 0.849813
O O8 0.750000 0.921314 0.811029
O O9 0.522227 0.909543 0.884948
O O10 0.500000 0.000000 0.790319
O O11 0.750000 0.764495 0.979477
O O12 0.462472 0.776544 0.946666
O O13 0.580086 0.636513 0.959336
O O14 0.536763 0.715394 0.054807
O O15 0.250000 0.885823 0.925971
O O16 0.015716 0.910820 0.000564
O O17 0.750000 0.701306 0.611163
O O18 0.028610 0.652561 0.611368
O O19 0.500000 0.500000 0.596776
O O20 0.250000 0.569740 0.568637
O O21 0.250000 0.061004 0.380831
O O22 0.000000 0.000000 0.432808
#
# Coordination Sequence:
#
# PCOD8191832 Si02
#       8
#     8   8   8   8   8   8   8   8
#     4  10  22  40  59  79 107 145 187 230 273 318
#     4  11  22  36  57  84 114 146 181 221 269 327
#     4  11  23  38  57  81 110 144 184 229 275 324
#     4   9  18  33  54  78 104 137 174 214 263 318
#     4  10  20  33  53  81 110 139 172 213 264 322
#     4   9  19  37  57  74  98 136 179 218 259 311
#     4  10  20  33  51  78 109 138 169 208 257 313
#     4  10  19  32  51  77 108 137 170 213 263 319
#
# _framework density 19.604313000000001
#
# number of rings (size 3 to 8) (size 9 to 14) (size 15 to 20)
#    0.000    2.000    0.000    4.500    0.000    8.500 
#    0.000    0.625    0.000    0.000    0.000    0.000 
#    0.000    0.000    0.000    0.000    0.000    0.000 
#
# Total GULP energy -396537.127554 kJ/mol
# GULP energy per Si atom -12391.785236 kJ/mol
# Density = 1.955969 g / cm^3
# Si number density = 19.604313 Si / 1000 Ang^3
#
#
#
# Elastic Constant Matrix: (Units=GPa)
#
#
# Indices 1 2 3 4 5 6 
#
# 1 74.3963 36.4110 23.7218 0.0000 0.0000 0.0000
# 2 36.4110 98.8189 42.0045 0.0000 0.0000 0.0000
# 3 23.7218 42.0045 75.1466 0.0000 0.0000 0.0000
# 4 0.0000 0.0000 0.0000 14.1338 0.0000 0.0000
# 5 0.0000 0.0000 0.0000 0.0000 21.4282 0.0000
# 6 0.0000 0.0000 0.0000 0.0000 0.0000 32.2265
#
#
#
# Elastic Compliance Matrix: (Units=1/GPa)
#
#
# Indices 1 2 3 4 5 6 
#
# 1 0.016724 -0.005139 -0.002407 0.000000 0.000000 0.000000
# 2 -0.005139 0.014852 -0.006680 0.000000 0.000000 0.000000
# 3 -0.002407 -0.006680 0.017801 0.000000 0.000000 0.000000
# 4 0.000000 0.000000 0.000000 0.070753 0.000000 0.000000
# 5 0.000000 0.000000 0.000000 0.000000 0.046668 0.000000
# 6 0.000000 0.000000 0.000000 0.000000 0.000000 0.031030
#
#
# Mechanical properties :
#
#
# Convention : Reuss Voigt Hill
#
# Bulk Modulus (GPa) = 47.78718 50.29293 49.04005
# Shear Modulus (GPa) = 21.43580 23.30598 22.37089
#
# Velocity S-wave (km/s) = 3.31028 3.45167 3.38171
# Velocity P-wave (km/s) = 6.24815 6.44942 6.34958
#
# Compressibility (1/GPa) = 0.02092611
#
# Stress axis : x y z
#
# Youngs Moduli (GPa) = 59.79371 67.32902 56.17724
#
# Poissons Ratio (x) = 0.34602 0.13520
# Poissons Ratio (y) = 0.30729 0.37525
# Poissons Ratio (z) = 0.14391 0.44974
#
# Static dielectric constant tensor:
#      x y z
#    x 3.715000 0.000000 0.000000 
#    y 0.000000 3.694910 0.000000 
#    z 0.000000 0.000000 3.594420 
# 
# 
# High freq. dielectric constant tensor:
#      x y z
#    x 1.765620 0.000000 0.000000 
#    y 0.000000 1.755600 0.000000 
#    z 0.000000 0.000000 1.757550 
# 
# From -- ./inp_files/23229.got.cif
#   From: 2010.03.12/outbox.cif.g09.slc.cpg/sg46_12_cif.got.tgz:23229.got - 2010.04.14 02:56:35.
