data_PCOD8191505
_publ_section_title
;
Structure prediction by ZEFSAII (Michael W. Deem and Ramdas Pophale) SiO2 
 PCOD8191505
Probable space group: I M A 2
;
_chemical_formula_sum "Si O2"
_cell_formula_units_Z 56
_cell_length_a 15.851106
_cell_length_b 21.160382
_cell_length_c 9.030716
_cell_angle_alpha 90.000000
_cell_angle_beta 90.000000
_cell_angle_gamma 90.000000
_cell_volume 3029.041744
_symmetry_space_group_name_H-M "I M A 2"
_symmetry_group_IT_number 46
_symmetry_cell_setting 'orthorhombic'
loop_
_space_group_symop_operation_xyz
x,y,z
-x,-y,z
1/2-x,y,z
1/2+x,-y,z
1/2+x,1/2+y,1/2+z
1/2-x,1/2-y,1/2+z
-x,1/2+y,1/2+z
x,1/2-y,1/2+z
loop_
_atom_site_type_symbol
_atom_site_label
_atom_site_fract_x
_atom_site_fract_y
_atom_site_fract_z
Si Si1 0.750000 0.326077 0.326890
Si Si2 0.485758 0.067929 0.091016
Si Si3 0.407369 0.914428 0.812133
Si Si4 0.564330 0.839699 0.731543
Si Si5 0.250000 0.692665 0.670607
Si Si6 0.568374 0.173247 0.235307
Si Si7 0.510990 0.753079 0.486818
Si Si8 0.847163 0.550994 0.353790
O O1 0.829694 0.368737 0.287823
O O2 0.750000 0.304905 0.494989
O O3 0.750000 0.264712 0.224969
O O4 0.498476 0.117246 0.223988
O O5 0.500000 0.000000 0.163294
O O6 0.562787 0.085655 0.981860
O O7 0.396727 0.069369 0.005101
O O8 0.482559 0.885376 0.713149
O O9 0.385396 0.987959 0.775537
O O10 0.575503 0.796099 0.585288
O O11 0.560015 0.796523 0.881437
O O12 0.643062 0.888222 0.745323
O O13 0.167418 0.654796 0.729930
O O14 0.551704 0.204630 0.391908
O O15 0.552335 0.220607 0.100326
O O16 0.750000 0.539387 0.393707
#
# Coordination Sequence:
#
# PCOD8191505 Si02
#       8
#     4   8   8   8   4   8   8   8
#     4  12  20  32  48  84 114 150 178 212 262 316
#     4   9  18  33  52  76 105 142 183 225 266 316
#     4  10  18  32  54  78 109 140 182 221 261 325
#     4  10  19  36  55  82 107 142 178 222 277 327
#     4  12  22  28  50  80 124 144 176 212 260 322
#     4  11  19  35  50  81 109 149 178 216 264 325
#     4  10  20  33  56  75 111 144 180 215 265 331
#     4  10  19  34  58  82 103 136 189 239 267 307
#
# _framework density 18.487694999999999
#
# number of rings (size 3 to 8) (size 9 to 14) (size 15 to 20)
#    0.000    1.714    5.000    3.857    0.000    0.000 
#    0.000    2.143    0.000    0.857    0.000    0.000 
#    0.000    0.000    0.000    0.000    0.000    0.000 
#
# Total GULP energy -346936.435505 kJ/mol
# GULP energy per Si atom -12390.586982 kJ/mol
# Density = 1.844562 g / cm^3
# Si number density = 18.487695 Si / 1000 Ang^3
#
#
#
# Elastic Constant Matrix: (Units=GPa)
#
#
# Indices 1 2 3 4 5 6 
#
# 1 72.8919 41.6511 8.5625 0.0000 0.0000 0.0000
# 2 41.6511 115.6579 36.8928 0.0000 0.0000 0.0000
# 3 8.5625 36.8928 68.6800 0.0000 0.0000 0.0000
# 4 0.0000 0.0000 0.0000 13.2689 0.0000 0.0000
# 5 0.0000 0.0000 0.0000 0.0000 10.9701 0.0000
# 6 0.0000 0.0000 0.0000 0.0000 0.0000 26.3692
#
#
#
# Elastic Compliance Matrix: (Units=1/GPa)
#
#
# Indices 1 2 3 4 5 6 
#
# 1 0.017391 -0.006723 0.001443 0.000000 0.000000 0.000000
# 2 -0.006723 0.013033 -0.006163 0.000000 0.000000 0.000000
# 3 0.001443 -0.006163 0.017691 0.000000 0.000000 0.000000
# 4 0.000000 0.000000 0.000000 0.075364 0.000000 0.000000
# 5 0.000000 0.000000 0.000000 0.000000 0.091157 0.000000
# 6 0.000000 0.000000 0.000000 0.000000 0.000000 0.037923
#
#
# Mechanical properties :
#
#
# Convention : Reuss Voigt Hill
#
# Bulk Modulus (GPa) = 39.63596 47.93806 43.78701
# Shear Modulus (GPa) = 17.61464 21.46321 19.53892
#
# Velocity S-wave (km/s) = 3.09006 3.41096 3.25447
# Velocity P-wave (km/s) = 5.84952 6.44196 6.15288
#
# Compressibility (1/GPa) = 0.02522962
#
# Stress axis : x y z
#
# Youngs Moduli (GPa) = 57.50038 76.72667 56.52644
#
# Poissons Ratio (x) = 0.51586 -0.08159
# Poissons Ratio (y) = 0.38660 0.34836
# Poissons Ratio (z) = -0.08300 0.47286
#
# Static dielectric constant tensor:
#      x y z
#    x 3.295440 0.000000 0.000000 
#    y 0.000000 3.853110 0.000000 
#    z 0.000000 0.000000 3.173240 
# 
# 
# High freq. dielectric constant tensor:
#      x y z
#    x 1.695680 0.000000 0.000000 
#    y 0.000000 1.735620 0.000000 
#    z 0.000000 0.000000 1.680150 
# 
# From -- ./inp_files/6990.got.cif
#   From: 2010.03.12/outbox.cif.g09.slc.cpg/sg46_4_cif.got.tgz:6990.got - 2010.04.14 02:56:35.
