data_PCOD8191767
_publ_section_title
;
Structure prediction by ZEFSAII (Michael W. Deem and Ramdas Pophale) SiO2 
 PCOD8191767
Probable space group: I M A 2
;
_chemical_formula_sum "Si O2"
_cell_formula_units_Z 56
_cell_length_a 8.951120
_cell_length_b 25.245912
_cell_length_c 12.494936
_cell_angle_alpha 90.000000
_cell_angle_beta 90.000000
_cell_angle_gamma 90.000000
_cell_volume 2823.595489
_symmetry_space_group_name_H-M "I M A 2"
_symmetry_group_IT_number 46
_symmetry_cell_setting 'orthorhombic'
loop_
_space_group_symop_operation_xyz
x,y,z
-x,-y,z
1/2-x,y,z
1/2+x,-y,z
1/2+x,1/2+y,1/2+z
1/2-x,1/2-y,1/2+z
-x,1/2+y,1/2+z
x,1/2-y,1/2+z
loop_
_atom_site_type_symbol
_atom_site_label
_atom_site_fract_x
_atom_site_fract_y
_atom_site_fract_z
Si Si1 0.084151 0.225889 0.403560
Si Si2 0.428135 0.131497 0.674085
Si Si3 0.912967 0.748285 0.139094
Si Si4 0.424170 0.944694 0.253540
Si Si5 0.425771 0.670350 0.365359
Si Si6 0.923438 0.151377 0.113171
Si Si7 0.424858 0.618534 0.962023
O O1 0.250000 0.210435 0.361551
O O2 0.101101 0.257431 0.513190
O O3 0.004897 0.272433 0.331692
O O4 0.985436 0.173500 0.414420
O O5 0.250000 0.123394 0.677872
O O6 0.486363 0.190902 0.650850
O O7 0.504504 0.122714 0.790794
O O8 0.495083 0.099175 0.573072
O O9 0.750000 0.748878 0.194483
O O10 0.005546 0.799195 0.179866
O O11 0.250000 0.952419 0.236463
O O12 0.486069 0.902249 0.166767
O O13 0.459558 0.926393 0.374561
O O14 0.500000 0.000000 0.228898
O O15 0.250000 0.676728 0.344959
O O16 0.457470 0.652096 0.486619
O O17 0.750000 0.156675 0.136503
O O18 0.250000 0.625011 0.984005
#
# Coordination Sequence:
#
# PCOD8191767 Si02
#       7
#     8   8   8   8   8   8   8
#     4   9  17  30  47  72 109 147 184 220 259 315
#     4  10  20  33  50  78 114 148 184 222 266 325
#     4   8  16  29  45  70 103 142 180 214 254 306
#     4  10  23  41  60  82 105 135 181 235 284 333
#     4  10  19  31  51  78 111 150 185 220 266 323
#     4   9  19  35  53  76 106 139 178 223 270 322
#     4  10  20  35  54  78 107 141 184 228 276 331
#
# _framework density 19.832868000000001
#
# number of rings (size 3 to 8) (size 9 to 14) (size 15 to 20)
#    0.000    2.571    0.000    2.571    2.000    6.286 
#    0.000    0.000    0.000    0.857    0.000    2.000 
#    0.000    0.000    0.000    0.000    0.000    0.000 
#
# Total GULP energy -346870.128016 kJ/mol
# GULP energy per Si atom -12388.218858 kJ/mol
# Density = 1.978773 g / cm^3
# Si number density = 19.832868 Si / 1000 Ang^3
#
#
#
# Elastic Constant Matrix: (Units=GPa)
#
#
# Indices 1 2 3 4 5 6 
#
# 1 91.7629 27.6722 21.0373 0.0001 0.0000 0.0000
# 2 27.6722 76.5110 10.2486 0.0000 -0.0001 0.0000
# 3 21.0373 10.2486 44.3301 0.0001 -0.0001 0.0000
# 4 0.0001 0.0000 0.0001 19.5686 0.0000 0.0000
# 5 0.0000 -0.0001 -0.0001 0.0000 16.0535 0.0001
# 6 0.0000 0.0000 0.0000 0.0000 0.0001 26.8985
#
#
#
# Elastic Compliance Matrix: (Units=1/GPa)
#
#
# Indices 1 2 3 4 5 6 
#
# 1 0.013376 -0.004115 -0.005396 0.000000 0.000000 0.000000
# 2 -0.004115 0.014754 -0.001458 0.000000 0.000000 0.000000
# 3 -0.005396 -0.001458 0.025456 0.000000 0.000000 0.000000
# 4 0.000000 0.000000 0.000000 0.051102 0.000000 0.000000
# 5 0.000000 0.000000 0.000000 0.000000 0.062292 0.000000
# 6 0.000000 0.000000 0.000000 0.000000 0.000000 0.037177
#
#
# Mechanical properties :
#
#
# Convention : Reuss Voigt Hill
#
# Bulk Modulus (GPa) = 31.59874 36.72445 34.16160
# Shear Modulus (GPa) = 21.12885 22.74718 21.93801
#
# Velocity S-wave (km/s) = 3.26750 3.39033 3.32948
# Velocity P-wave (km/s) = 5.49568 5.82091 5.66063
#
# Compressibility (1/GPa) = 0.03164683
#
# Stress axis : x y z
#
# Youngs Moduli (GPa) = 74.76265 67.78018 39.28348
#
# Poissons Ratio (x) = 0.27890 0.21198
# Poissons Ratio (y) = 0.30764 0.05728
# Poissons Ratio (z) = 0.40344 0.09883
#
# Static dielectric constant tensor:
#      x y z
#    x 3.684650 0.000000 0.000000 
#    y 0.000000 3.199020 0.000000 
#    z 0.000000 0.000000 4.138060 
# 
# 
# High freq. dielectric constant tensor:
#      x y z
#    x 1.775440 0.000000 0.000000 
#    y 0.000000 1.716280 0.000000 
#    z 0.000000 0.000000 1.805820 
# 
# From -- ./inp_files/14171.got.cif
#   From: 2010.03.12/outbox.cif.g09.slc.cpg/sg46_8_cif.got.tgz:14171.got - 2010.04.14 02:56:35.
