data_PCOD8191161
_publ_section_title
;
Structure prediction by ZEFSAII (Michael W. Deem and Ramdas Pophale) SiO2 
 PCOD8191161
Probable space group: I M A 2
;
_chemical_formula_sum "Si O2"
_cell_formula_units_Z 56
_cell_length_a 9.364304
_cell_length_b 22.041022
_cell_length_c 17.448168
_cell_angle_alpha 90.000000
_cell_angle_beta 90.000000
_cell_angle_gamma 90.000000
_cell_volume 3601.281469
_symmetry_space_group_name_H-M "I M A 2"
_symmetry_group_IT_number 46
_symmetry_cell_setting 'orthorhombic'
loop_
_space_group_symop_operation_xyz
x,y,z
-x,-y,z
1/2-x,y,z
1/2+x,-y,z
1/2+x,1/2+y,1/2+z
1/2-x,1/2-y,1/2+z
-x,1/2+y,1/2+z
x,1/2-y,1/2+z
loop_
_atom_site_type_symbol
_atom_site_label
_atom_site_fract_x
_atom_site_fract_y
_atom_site_fract_z
Si Si1 0.919738 0.937308 0.452360
Si Si2 0.582822 0.711975 0.368580
Si Si3 0.408141 0.680303 0.680233
Si Si4 0.583280 0.145155 0.565313
Si Si5 0.408166 0.818905 0.730850
Si Si6 0.085591 0.153151 0.317678
Si Si7 0.082275 0.719265 0.517844
O O1 0.750000 0.946194 0.462138
O O2 0.958491 0.898008 0.377789
O O3 0.982049 0.904759 0.527319
O O4 0.000000 0.000000 0.440805
O O5 0.750000 0.699774 0.375212
O O6 0.520911 0.670844 0.299333
O O7 0.544684 0.782096 0.353593
O O8 0.507475 0.692600 0.447353
O O9 0.250000 0.652573 0.686266
O O10 0.407139 0.749720 0.705042
O O11 0.506426 0.641220 0.737054
O O12 0.460607 0.678650 0.591923
O O13 0.750000 0.131330 0.549015
O O14 0.550877 0.141426 0.656363
O O15 0.541192 0.210752 0.532024
O O16 0.250000 0.836940 0.760201
O O17 0.250000 0.150749 0.297021
O O18 0.250000 0.713615 0.500568
#
# Coordination Sequence:
#
# PCOD8191161 Si02
#       7
#     8   8   8   8   8   8   8
#     4  11  22  34  46  63  86 113 151 189 223 259
#     4  10  17  25  39  62  88 115 145 174 211 255
#     4   8  15  26  41  60  80 108 144 174 206 255
#     4   9  17  30  46  61  81 112 147 182 221 258
#     4   8  15  27  41  59  82 110 143 175 211 258
#     4   9  18  30  41  57  83 111 141 180 219 253
#     4   9  16  26  41  62  87 114 144 175 209 255
#
# _framework density 15.550020999999999
#
# number of rings (size 3 to 8) (size 9 to 14) (size 15 to 20)
#    0.000    2.857    1.429    2.571    0.000    2.857 
#    0.000    2.857    0.000    0.000    0.000    0.000 
#    0.000    1.143    0.000    8.000    0.000    5.857 
#
# Total GULP energy -347082.351611 kJ/mol
# GULP energy per Si atom -12395.798272 kJ/mol
# Density = 1.551463 g / cm^3
# Si number density = 15.550021 Si / 1000 Ang^3
#
#
#
# Elastic Constant Matrix: (Units=GPa)
#
#
# Indices 1 2 3 4 5 6 
#
# 1 82.3867 29.8311 74.5680 0.0000 0.0000 0.0000
# 2 29.8311 41.3384 33.8472 0.0000 0.0000 0.0000
# 3 74.5680 33.8472 142.4011 0.0000 0.0000 0.0000
# 4 0.0000 0.0000 0.0000 14.1084 0.0000 0.0000
# 5 0.0000 0.0000 0.0000 0.0000 31.5714 0.0000
# 6 0.0000 0.0000 0.0000 0.0000 0.0000 17.1813
#
#
#
# Elastic Compliance Matrix: (Units=1/GPa)
#
#
# Indices 1 2 3 4 5 6 
#
# 1 0.025683 -0.009340 -0.011229 0.000000 0.000000 0.000000
# 2 -0.009340 0.033432 -0.003056 0.000000 0.000000 0.000000
# 3 -0.011229 -0.003056 0.013629 0.000000 0.000000 0.000000
# 4 0.000000 0.000000 0.000000 0.070880 0.000000 0.000000
# 5 0.000000 0.000000 0.000000 0.000000 0.031674 0.000000
# 6 0.000000 0.000000 0.000000 0.000000 0.000000 0.058203
#
#
# Mechanical properties :
#
#
# Convention : Reuss Voigt Hill
#
# Bulk Modulus (GPa) = 39.22277 60.29098 49.75688
# Shear Modulus (GPa) = 17.28623 21.09755 19.19189
#
# Velocity S-wave (km/s) = 3.33776 3.68741 3.51693
# Velocity P-wave (km/s) = 6.33503 7.54889 6.96844
#
# Compressibility (1/GPa) = 0.02549539
#
# Stress axis : x y z
#
# Youngs Moduli (GPa) = 38.93660 29.91113 73.37447
#
# Poissons Ratio (x) = 0.27936 0.82391
# Poissons Ratio (y) = 0.36365 0.22422
# Poissons Ratio (z) = 0.43721 0.09141
#
# Static dielectric constant tensor:
#      x y z
#    x 3.022930 0.000000 0.000000 
#    y 0.000000 2.514760 0.000000 
#    z 0.000000 0.000000 3.211670 
# 
# 
# High freq. dielectric constant tensor:
#      x y z
#    x 1.602170 0.000000 0.000000 
#    y 0.000000 1.527950 0.000000 
#    z 0.000000 0.000000 1.608700 
# 
# From -- ./inp_files/18438.got.cif
#   From: 2010.03.12/outbox.cif.g09.slc.cpg/sg46_10_cif.got.tgz:18438.got - 2010.04.14 02:56:35.
