data_PCOD8191198
_publ_section_title
;
Structure prediction by ZEFSAII (Michael W. Deem and Ramdas Pophale) SiO2 
 PCOD8191198
Probable space group: I M A 2
;
_chemical_formula_sum "Si O2"
_cell_formula_units_Z 64
_cell_length_a 17.004378
_cell_length_b 8.935745
_cell_length_c 23.615741
_cell_angle_alpha 90.000000
_cell_angle_beta 90.000000
_cell_angle_gamma 90.000000
_cell_volume 3588.335937
_symmetry_space_group_name_H-M "I M A 2"
_symmetry_group_IT_number 46
_symmetry_cell_setting 'orthorhombic'
loop_
_space_group_symop_operation_xyz
x,y,z
-x,-y,z
1/2-x,y,z
1/2+x,-y,z
1/2+x,1/2+y,1/2+z
1/2-x,1/2-y,1/2+z
-x,1/2+y,1/2+z
x,1/2-y,1/2+z
loop_
_atom_site_type_symbol
_atom_site_label
_atom_site_fract_x
_atom_site_fract_y
_atom_site_fract_z
Si Si1 0.657965 0.313810 0.346750
Si Si2 0.937482 0.867114 0.557633
Si Si3 0.659046 0.125729 0.578297
Si Si4 0.159929 0.674847 0.476229
Si Si5 0.025104 0.664802 0.163748
Si Si6 0.424241 0.102112 0.845645
Si Si7 0.518423 0.326887 0.778800
Si Si8 0.575224 0.606275 0.470315
O O1 0.750000 0.271022 0.338319
O O2 0.628480 0.293812 0.412240
O O3 0.646645 0.488915 0.327818
O O4 0.601117 0.207932 0.309982
O O5 0.934839 0.750773 0.507756
O O6 0.961381 0.784926 0.616246
O O7 0.853073 0.949721 0.563511
O O8 0.000000 0.000000 0.546500
O O9 0.750000 0.161294 0.589517
O O10 0.622539 0.221476 0.525348
O O11 0.611654 0.164234 0.635479
O O12 0.250000 0.714867 0.476137
O O13 0.146599 0.499747 0.491082
O O14 0.026779 0.785232 0.213237
O O15 0.000000 0.500000 0.187122
O O16 0.442149 0.237558 0.802865
O O17 0.407550 0.169794 0.907683
O O18 0.500000 0.000000 0.848598
O O19 0.500000 0.500000 0.785427
O O20 0.500000 0.500000 0.473079
#
# Coordination Sequence:
#
# PCOD8191198 Si02
#       8
#     8   8   8   8   8   8   8   8
#     4   9  18  35  56  74  99 138 174 200 239 302
#     4   9  19  31  48  73  99 127 162 201 241 289
#     4   9  18  33  52  73  98 128 162 200 243 293
#     4   9  18  32  50  75 104 131 160 197 242 290
#     4   9  19  35  50  67  95 132 171 202 239 294
#     4   8  17  32  50  73  99 132 170 202 238 294
#     4  11  22  34  52  77 103 128 164 217 265 297
#     4  10  17  28  49  74 100 130 165 197 233 287
#
# _framework density 17.835566
#
# number of rings (size 3 to 8) (size 9 to 14) (size 15 to 20)
#    0.000    3.000    0.000    3.375    0.000    4.000 
#    0.000    1.250    0.000    3.000    0.000    0.000 
#    0.000    0.000    0.000    0.000    0.000    0.000 
#
# Total GULP energy -396451.103289 kJ/mol
# GULP energy per Si atom -12389.096978 kJ/mol
# Density = 1.779497 g / cm^3
# Si number density = 17.835566 Si / 1000 Ang^3
#
#
#
# Elastic Constant Matrix: (Units=GPa)
#
#
# Indices 1 2 3 4 5 6 
#
# 1 61.9017 34.8753 39.9055 0.0000 0.0000 0.0000
# 2 34.8753 103.1336 71.5469 0.0000 0.0000 0.0000
# 3 39.9055 71.5469 111.4617 0.0000 0.0000 0.0000
# 4 0.0000 0.0000 0.0000 29.0824 0.0000 0.0000
# 5 0.0000 0.0000 0.0000 0.0000 15.1704 0.0000
# 6 0.0000 0.0000 0.0000 0.0000 0.0000 20.9720
#
#
#
# Elastic Compliance Matrix: (Units=1/GPa)
#
#
# Indices 1 2 3 4 5 6 
#
# 1 0.021685 -0.003510 -0.005510 0.000000 0.000000 0.000000
# 2 -0.003510 0.018048 -0.010328 0.000000 0.000000 0.000000
# 3 -0.005510 -0.010328 0.017574 0.000000 0.000000 0.000000
# 4 0.000000 0.000000 0.000000 0.034385 0.000000 0.000000
# 5 0.000000 0.000000 0.000000 0.000000 0.065918 0.000000
# 6 0.000000 0.000000 0.000000 0.000000 0.000000 0.047683
#
#
# Mechanical properties :
#
#
# Convention : Reuss Voigt Hill
#
# Bulk Modulus (GPa) = 53.73650 63.23912 58.48781
# Shear Modulus (GPa) = 19.98453 21.72291 20.85372
#
# Velocity S-wave (km/s) = 3.35100 3.49371 3.42310
# Velocity P-wave (km/s) = 6.72060 7.19780 6.96329
#
# Compressibility (1/GPa) = 0.01860932
#
# Stress axis : x y z
#
# Youngs Moduli (GPa) = 46.11586 55.40697 56.90115
#
# Poissons Ratio (x) = 0.19448 0.31355
# Poissons Ratio (y) = 0.16187 0.58770
# Poissons Ratio (z) = 0.25412 0.57227
#
# Static dielectric constant tensor:
#      x y z
#    x 3.522070 0.000000 0.000000 
#    y 0.000000 3.624100 0.000000 
#    z 0.000000 0.000000 3.436040 
# 
# 
# High freq. dielectric constant tensor:
#      x y z
#    x 1.678880 0.000000 0.000000 
#    y 0.000000 1.670990 0.000000 
#    z 0.000000 0.000000 1.690730 
# 
# From -- ./inp_files/23788.got.cif
#   From: 2010.03.12/outbox.cif.g09.slc.cpg/sg46_12_cif.got.tgz:23788.got - 2010.04.14 02:56:35.
