data_PCOD8191176
_publ_section_title
;
Structure prediction by ZEFSAII (Michael W. Deem and Ramdas Pophale) SiO2 
 PCOD8191176
Probable space group: I M A 2
;
_chemical_formula_sum "Si O2"
_cell_formula_units_Z 48
_cell_length_a 8.669521
_cell_length_b 31.132749
_cell_length_c 9.066455
_cell_angle_alpha 90.000000
_cell_angle_beta 90.000000
_cell_angle_gamma 90.000000
_cell_volume 2447.090796
_symmetry_space_group_name_H-M "I M A 2"
_symmetry_group_IT_number 46
_symmetry_cell_setting 'orthorhombic'
loop_
_space_group_symop_operation_xyz
x,y,z
-x,-y,z
1/2-x,y,z
1/2+x,-y,z
1/2+x,1/2+y,1/2+z
1/2-x,1/2-y,1/2+z
-x,1/2+y,1/2+z
x,1/2-y,1/2+z
loop_
_atom_site_type_symbol
_atom_site_label
_atom_site_fract_x
_atom_site_fract_y
_atom_site_fract_z
Si Si1 0.569283 0.130137 0.404930
Si Si2 0.929894 0.542921 0.907333
Si Si3 0.071114 0.212413 0.907935
Si Si4 0.572398 0.364630 0.566415
Si Si5 0.928349 0.459222 0.587301
Si Si6 0.430538 0.712633 0.091222
O O1 0.750000 0.122348 0.408009
O O2 0.493017 0.087510 0.475718
O O3 0.517253 0.138444 0.236263
O O4 0.518004 0.170690 0.501030
O O5 0.750000 0.541534 0.931289
O O6 0.000000 0.500000 0.984466
O O7 0.974290 0.543024 0.736397
O O8 0.250000 0.223465 0.931694
O O9 0.032171 0.214859 0.736656
O O10 0.035923 0.164862 0.967218
O O11 0.964355 0.245746 0.994168
O O12 0.750000 0.349770 0.551390
O O13 0.552822 0.413542 0.505088
O O14 0.750000 0.467436 0.625741
O O15 0.000000 0.500000 0.495787
O O16 0.250000 0.711419 0.131352
#
# Coordination Sequence:
#
# PCOD8191176 Si02
#       6
#     8   8   8   8   8   8
#     4   9  19  35  56  81 107 140 184 228 268 318
#     4  10  17  26  45  73 108 144 178 220 267 315
#     4  12  25  39  58  85 114 141 179 231 276 320
#     4   9  18  34  55  80 111 147 185 223 271 330
#     4   9  16  27  46  73 106 141 180 224 266 314
#     4  11  23  41  63  82 108 147 184 220 272 337
#
# _framework density 19.615130000000001
#
# number of rings (size 3 to 8) (size 9 to 14) (size 15 to 20)
#    0.000    2.000    0.000    7.000    0.000    6.000 
#    0.000    0.000    0.000    1.000    0.000    4.667 
#    0.000    0.000    0.000    0.000    0.000    0.000 
#
# Total GULP energy -297538.791451 kJ/mol
# GULP energy per Si atom -12397.449644 kJ/mol
# Density = 1.957049 g / cm^3
# Si number density = 19.615130 Si / 1000 Ang^3
#
#
#
# Elastic Constant Matrix: (Units=GPa)
#
#
# Indices 1 2 3 4 5 6 
#
# 1 68.9693 39.5420 17.6174 0.0010 -0.0014 -0.0007
# 2 39.5420 153.3272 37.8523 0.0063 0.0006 0.0005
# 3 17.6174 37.8523 62.1826 0.0190 0.0020 0.0012
# 4 0.0010 0.0063 0.0190 22.1866 0.0018 0.0010
# 5 -0.0014 0.0006 0.0020 0.0018 22.7617 0.0024
# 6 -0.0007 0.0005 0.0012 0.0010 0.0024 36.4833
#
#
#
# Elastic Compliance Matrix: (Units=1/GPa)
#
#
# Indices 1 2 3 4 5 6 
#
# 1 0.017360 -0.003840 -0.002581 0.000003 0.000001 0.000000
# 2 -0.003840 0.008525 -0.004101 0.000001 0.000000 0.000000
# 3 -0.002581 -0.004101 0.019310 -0.000015 -0.000002 -0.000001
# 4 0.000003 0.000001 -0.000015 0.045072 -0.000003 -0.000001
# 5 0.000001 0.000000 -0.000002 -0.000003 0.043934 -0.000003
# 6 0.000000 0.000000 -0.000001 -0.000001 -0.000003 0.027410
#
#
# Mechanical properties :
#
#
# Convention : Reuss Voigt Hill
#
# Bulk Modulus (GPa) = 41.40799 52.72249 47.06524
# Shear Modulus (GPa) = 26.21862 28.91748 27.56805
#
# Velocity S-wave (km/s) = 3.65999 3.84375 3.75300
# Velocity P-wave (km/s) = 6.24634 6.82906 6.54419
#
# Compressibility (1/GPa) = 0.02414993
#
# Stress axis : x y z
#
# Youngs Moduli (GPa) = 57.60381 117.30496 51.78789
#
# Poissons Ratio (x) = 0.45043 0.13366
# Poissons Ratio (y) = 0.22119 0.21240
# Poissons Ratio (z) = 0.14867 0.48111
#
# Static dielectric constant tensor:
#      x y z
#    x 3.531020 0.000000 0.000000 
#    y 0.000000 4.338500 -0.000010 
#    z 0.000000 -0.000010 3.159060 
# 
# 
# High freq. dielectric constant tensor:
#      x y z
#    x 1.766610 0.000000 0.000000 
#    y 0.000000 1.794370 0.000000 
#    z 0.000000 0.000000 1.709070 
# 
# From -- ./inp_files/3936.got.cif
#   From: 2010.03.12/outbox.cif.g09.slc.cpg/sg46_2_cif.got.tgz:3936.got - 2010.04.14 02:56:35.
