data_PCOD8191649
_publ_section_title
;
Structure prediction by ZEFSAII (Michael W. Deem and Ramdas Pophale) SiO2 
 PCOD8191649
Probable space group: I M A 2
;
_chemical_formula_sum "Si O2"
_cell_formula_units_Z 64
_cell_length_a 8.925076
_cell_length_b 20.574020
_cell_length_c 22.494491
_cell_angle_alpha 90.000000
_cell_angle_beta 90.000000
_cell_angle_gamma 90.000000
_cell_volume 4130.543984
_symmetry_space_group_name_H-M "I M A 2"
_symmetry_group_IT_number 46
_symmetry_cell_setting 'orthorhombic'
loop_
_space_group_symop_operation_xyz
x,y,z
-x,-y,z
1/2-x,y,z
1/2+x,-y,z
1/2+x,1/2+y,1/2+z
1/2-x,1/2-y,1/2+z
-x,1/2+y,1/2+z
x,1/2-y,1/2+z
loop_
_atom_site_type_symbol
_atom_site_label
_atom_site_fract_x
_atom_site_fract_y
_atom_site_fract_z
Si Si1 0.425114 0.729536 0.531720
Si Si2 0.570777 0.432229 0.017137
Si Si3 0.572695 0.067574 0.213847
Si Si4 0.081341 0.354319 0.618193
Si Si5 0.925952 0.318221 0.930151
Si Si6 0.072998 0.155894 0.602876
Si Si7 0.573799 0.183791 0.298372
Si Si8 0.915561 0.735402 0.208772
O O1 0.250000 0.717160 0.541479
O O2 0.512162 0.664885 0.553707
O O3 0.462174 0.749507 0.463297
O O4 0.473862 0.791350 0.569328
O O5 0.500000 0.500000 0.996680
O O6 0.750000 0.436350 0.023423
O O7 0.494622 0.412877 0.080786
O O8 0.516213 0.380208 0.967572
O O9 0.750000 0.060778 0.211495
O O10 0.513891 0.088345 0.148703
O O11 0.519212 0.120049 0.262835
O O12 0.500000 0.000000 0.233358
O O13 0.250000 0.379403 0.608687
O O14 0.075096 0.290961 0.658962
O O15 0.750000 0.326718 0.923789
O O16 0.998933 0.317145 0.864303
O O17 0.250000 0.162415 0.587795
O O18 0.047496 0.167761 0.674034
O O19 0.750000 0.185288 0.302627
O O20 0.525786 0.249146 0.263236
O O21 0.750000 0.732632 0.236393
#
# Coordination Sequence:
#
# PCOD8191649 Si02
#       8
#     8   8   8   8   8   8   8   8
#     4   9  15  25  42  61  81 104 133 169 210 251
#     4  10  19  30  43  59  82 111 144 177 209 245
#     4  10  19  29  42  59  81 111 145 177 209 245
#     4   9  16  27  42  59  80 103 132 171 213 253
#     4   8  16  29  42  58  82 112 143 174 204 239
#     4   9  16  27  42  59  80 104 133 170 212 252
#     4   9  17  29  43  58  80 112 146 174 202 240
#     4   8  15  26  40  59  80 101 128 168 213 249
#
# _framework density 15.494327
#
# number of rings (size 3 to 8) (size 9 to 14) (size 15 to 20)
#    0.000    3.000    0.000    3.375    0.000    4.500 
#    0.000    3.750    0.000    0.000    0.000    0.000 
#    0.000    1.000    0.000    5.250    0.000    4.750 
#
# Total GULP energy -396476.068516 kJ/mol
# GULP energy per Si atom -12389.877141 kJ/mol
# Density = 1.545906 g / cm^3
# Si number density = 15.494327 Si / 1000 Ang^3
#
#
#
# Elastic Constant Matrix: (Units=GPa)
#
#
# Indices 1 2 3 4 5 6 
#
# 1 55.0106 20.8601 38.0435 0.0000 0.0000 0.0000
# 2 20.8601 32.0360 51.9655 0.0000 0.0000 0.0000
# 3 38.0435 51.9655 102.2068 0.0000 0.0000 0.0000
# 4 0.0000 0.0000 0.0000 16.5380 0.0000 0.0000
# 5 0.0000 0.0000 0.0000 0.0000 15.3743 0.0000
# 6 0.0000 0.0000 0.0000 0.0000 0.0000 24.5001
#
#
#
# Elastic Compliance Matrix: (Units=1/GPa)
#
#
# Indices 1 2 3 4 5 6 
#
# 1 0.024728 -0.006683 -0.005806 0.000000 0.000000 0.000000
# 2 -0.006683 0.179903 -0.088981 0.000000 0.000000 0.000000
# 3 -0.005806 -0.088981 0.057186 0.000000 0.000000 0.000000
# 4 0.000000 0.000000 0.000000 0.060467 0.000000 0.000000
# 5 0.000000 0.000000 0.000000 0.000000 0.065044 0.000000
# 6 0.000000 0.000000 0.000000 0.000000 0.000000 0.040816
#
#
# Mechanical properties :
#
#
# Convention : Reuss Voigt Hill
#
# Bulk Modulus (GPa) = 16.98486 45.66571 31.32529
# Shear Modulus (GPa) = 7.68391 16.50810 12.09601
#
# Velocity S-wave (km/s) = 2.22934 3.26763 2.79708
# Velocity P-wave (km/s) = 4.19671 6.61612 5.54010
#
# Compressibility (1/GPa) = 0.05887596
#
# Stress axis : x y z
#
# Youngs Moduli (GPa) = 40.43993 5.55856 17.48665
#
# Poissons Ratio (x) = 0.03715 0.10153
# Poissons Ratio (y) = 0.27026 1.55598
# Poissons Ratio (z) = 0.23481 0.49461
#
# Static dielectric constant tensor:
#      x y z
#    x 2.977870 0.000000 0.000000 
#    y 0.000000 2.895960 0.000000 
#    z 0.000000 0.000000 3.261020 
# 
# 
# High freq. dielectric constant tensor:
#      x y z
#    x 1.598800 0.000000 0.000000 
#    y 0.000000 1.558050 0.000000 
#    z 0.000000 0.000000 1.575330 
# 
# From -- ./inp_files/21422.got.cif
#   From: 2010.03.12/outbox.cif.g09.slc.cpg/sg46_11_cif.got.tgz:21422.got - 2010.04.14 02:56:35.
