data_PCOD8191617
_publ_section_title
;
Structure prediction by ZEFSAII (Michael W. Deem and Ramdas Pophale) SiO2 
 PCOD8191617
Probable space group: I M A 2
;
_chemical_formula_sum "Si O2"
_cell_formula_units_Z 64
_cell_length_a 17.165197
_cell_length_b 9.819018
_cell_length_c 18.904102
_cell_angle_alpha 90.000000
_cell_angle_beta 90.000000
_cell_angle_gamma 90.000000
_cell_volume 3186.199023
_symmetry_space_group_name_H-M "I M A 2"
_symmetry_group_IT_number 46
_symmetry_cell_setting 'orthorhombic'
loop_
_space_group_symop_operation_xyz
x,y,z
-x,-y,z
1/2-x,y,z
1/2+x,-y,z
1/2+x,1/2+y,1/2+z
1/2-x,1/2-y,1/2+z
-x,1/2+y,1/2+z
x,1/2-y,1/2+z
loop_
_atom_site_type_symbol
_atom_site_label
_atom_site_fract_x
_atom_site_fract_y
_atom_site_fract_z
Si Si1 0.157751 0.790020 0.395530
Si Si2 0.586893 0.944155 0.758598
Si Si3 0.157386 0.891988 0.245227
Si Si4 0.410174 0.496713 0.418186
Si Si5 0.659656 0.791240 0.029808
Si Si6 0.158555 0.315993 0.693126
Si Si7 0.657244 0.488292 0.018628
Si Si8 0.340360 0.648375 0.158288
O O1 0.250000 0.773787 0.394309
O O2 0.123842 0.835176 0.319426
O O3 0.122339 0.648955 0.421745
O O4 0.131253 0.908048 0.449151
O O5 0.605942 0.932112 0.841403
O O6 0.600921 0.797281 0.724077
O O7 0.500000 0.000000 0.744364
O O8 0.648172 0.046545 0.723722
O O9 0.250000 0.883210 0.247856
O O10 0.125417 0.795756 0.181535
O O11 0.131552 0.046103 0.231886
O O12 0.500000 0.500000 0.435824
O O13 0.372561 0.404378 0.477808
O O14 0.750000 0.782682 0.013985
O O15 0.643025 0.834481 0.110166
O O16 0.622858 0.641531 0.015222
O O17 0.250000 0.281300 0.707239
O O18 0.750000 0.495230 0.026939
O O19 0.620340 0.410509 0.086971
O O20 0.250000 0.664947 0.143023
#
# Coordination Sequence:
#
# PCOD8191617 Si02
#       8
#     8   8   8   8   8   8   8   8
#     4  10  20  37  60  89 118 153 200 248 300 360
#     4  11  23  40  60  83 121 162 203 247 296 363
#     4   9  19  33  58  91 118 146 195 250 302 358
#     4  11  25  42  58  82 125 165 206 247 298 365
#     4  10  21  39  63  93 122 154 199 252 307 362
#     4  10  21  39  64  94 123 151 198 261 306 355
#     4   9  19  34  58  91 120 146 191 249 302 356
#     4  10  18  36  61  85 115 153 196 246 297 353
#
# _framework density 20.08663
#
# number of rings (size 3 to 8) (size 9 to 14) (size 15 to 20)
#    0.000    2.000    2.500    0.750    3.500    1.500 
#    2.250    1.250    0.000    0.000    0.000    0.000 
#    0.000    0.000    0.000    0.000    0.000    0.000 
#
# Total GULP energy -396740.179910 kJ/mol
# GULP energy per Si atom -12398.130622 kJ/mol
# Density = 2.004091 g / cm^3
# Si number density = 20.086630 Si / 1000 Ang^3
#
#
#
# Elastic Constant Matrix: (Units=GPa)
#
#
# Indices 1 2 3 4 5 6 
#
# 1 20.0076 35.1804 31.2052 0.0000 0.0000 0.0000
# 2 35.1804 181.4022 79.5383 0.0000 0.0000 0.0000
# 3 31.2052 79.5383 121.8826 0.0000 0.0000 0.0000
# 4 0.0000 0.0000 0.0000 80.3162 0.0000 0.0000
# 5 0.0000 0.0000 0.0000 0.0000 28.9487 0.0000
# 6 0.0000 0.0000 0.0000 0.0000 0.0000 16.0024
#
#
#
# Elastic Compliance Matrix: (Units=1/GPa)
#
#
# Indices 1 2 3 4 5 6 
#
# 1 0.096871 -0.011084 -0.017569 0.000000 0.000000 0.000000
# 2 -0.011084 0.008990 -0.003029 0.000000 0.000000 0.000000
# 3 -0.017569 -0.003029 0.014679 0.000000 0.000000 0.000000
# 4 0.000000 0.000000 0.000000 0.012451 0.000000 0.000000
# 5 0.000000 0.000000 0.000000 0.000000 0.034544 0.000000
# 6 0.000000 0.000000 0.000000 0.000000 0.000000 0.062491
#
#
# Mechanical properties :
#
#
# Convention : Reuss Voigt Hill
#
# Bulk Modulus (GPa) = 17.48920 68.34890 42.91905
# Shear Modulus (GPa) = 16.00261 36.87801 26.44031
#
# Velocity S-wave (km/s) = 2.82561 4.28944 3.63204
# Velocity P-wave (km/s) = 4.40128 7.65724 6.24518
#
# Compressibility (1/GPa) = 0.05717816
#
# Stress axis : x y z
#
# Youngs Moduli (GPa) = 10.32296 111.23070 68.12228
#
# Poissons Ratio (x) = 1.23284 1.19682
# Poissons Ratio (y) = 0.11442 0.20636
# Poissons Ratio (z) = 0.18136 0.33694
#
# Static dielectric constant tensor:
#      x y z
#    x 3.252410 0.000000 0.000000 
#    y 0.000000 -3.429700 0.000000 
#    z 0.000000 0.000000 3.841730 
# 
# 
# High freq. dielectric constant tensor:
#      x y z
#    x 1.741280 0.000000 0.000000 
#    y 0.000000 1.799460 0.000000 
#    z 0.000000 0.000000 1.795460 
# 
# From -- ./inp_files/20265.got.cif
#   From: 2010.03.12/outbox.cif.g09.slc.cpg/sg46_11_cif.got.tgz:20265.got - 2010.04.14 02:56:35.
