data_PCOD8191893
_publ_section_title
;
Structure prediction by ZEFSAII (Michael W. Deem and Ramdas Pophale) SiO2 
 PCOD8191893
Probable space group: I M A 2
;
_chemical_formula_sum "Si O2"
_cell_formula_units_Z 64
_cell_length_a 9.509832
_cell_length_b 28.558517
_cell_length_c 12.116266
_cell_angle_alpha 90.000000
_cell_angle_beta 90.000000
_cell_angle_gamma 90.000000
_cell_volume 3290.616685
_symmetry_space_group_name_H-M "I M A 2"
_symmetry_group_IT_number 46
_symmetry_cell_setting 'orthorhombic'
loop_
_space_group_symop_operation_xyz
x,y,z
-x,-y,z
1/2-x,y,z
1/2+x,-y,z
1/2+x,1/2+y,1/2+z
1/2-x,1/2-y,1/2+z
-x,1/2+y,1/2+z
x,1/2-y,1/2+z
loop_
_atom_site_type_symbol
_atom_site_label
_atom_site_fract_x
_atom_site_fract_y
_atom_site_fract_z
Si Si1 0.091661 0.842397 0.842300
Si Si2 0.586200 0.650365 0.696158
Si Si3 0.590366 0.819039 0.440273
Si Si4 0.087363 0.045079 0.147589
Si Si5 0.909306 0.127296 0.604223
Si Si6 0.592227 0.958941 0.667698
Si Si7 0.405217 0.428023 0.404174
Si Si8 0.090083 0.287160 0.492127
O O1 0.250000 0.840336 0.887257
O O2 0.089152 0.838785 0.709954
O O3 0.024752 0.889547 0.890459
O O4 0.003417 0.798845 0.885891
O O5 0.750000 0.645412 0.675875
O O6 0.553502 0.677137 0.810465
O O7 0.528435 0.596214 0.690738
O O8 0.528306 0.684810 0.599000
O O9 0.750000 0.838278 0.459219
O O10 0.466932 0.848137 0.496084
O O11 0.580163 0.768622 0.498203
O O12 0.250000 0.038402 0.183215
O O13 0.069316 0.043272 0.015522
O O14 0.000000 0.000000 0.195051
O O15 0.750000 0.108839 0.583489
O O16 0.020963 0.087748 0.628141
O O17 0.750000 0.961717 0.620471
O O18 0.591535 0.963205 0.800584
O O19 0.500000 0.000000 0.615534
O O20 0.250000 0.403768 0.409111
O O21 0.250000 0.302430 0.470421
#
# Coordination Sequence:
#
# PCOD8191893 Si02
#       8
#     8   8   8   8   8   8   8   8
#     4  10  20  33  53  82 116 150 184 228 279 340
#     4   9  19  38  58  84 119 150 187 245 299 346
#     4  10  22  38  62  87 109 148 198 244 290 350
#     4  10  19  33  54  79 115 152 190 235 287 345
#     4  10  22  39  56  79 117 155 191 238 287 338
#     4  10  19  32  54  83 114 150 196 241 291 348
#     4   9  17  31  51  77 112 153 186 228 285 343
#     4  10  20  36  61  87 114 147 188 235 293 355
#
# _framework density 19.449241000000001
#
# number of rings (size 3 to 8) (size 9 to 14) (size 15 to 20)
#    0.000    2.250    1.250    1.500    1.750    3.000 
#    0.000    1.875    0.000    1.500    0.000    0.000 
#    0.000    0.000    0.000    0.000    0.000    0.000 
#
# Total GULP energy -396505.515866 kJ/mol
# GULP energy per Si atom -12390.797371 kJ/mol
# Density = 1.940497 g / cm^3
# Si number density = 19.449241 Si / 1000 Ang^3
#
#
#
# Elastic Constant Matrix: (Units=GPa)
#
#
# Indices 1 2 3 4 5 6 
#
# 1 115.9394 34.0883 38.6217 0.0004 0.0001 -0.0001
# 2 34.0883 84.7621 37.7578 0.0011 -0.0009 -0.0001
# 3 38.6217 37.7578 71.4533 0.0067 -0.0067 -0.0008
# 4 0.0004 0.0011 0.0067 12.6150 -0.0035 -0.0004
# 5 0.0001 -0.0009 -0.0067 -0.0035 -0.8310 0.0007
# 6 -0.0001 -0.0001 -0.0008 -0.0004 0.0007 32.0688
#
#
#
# Elastic Compliance Matrix: (Units=1/GPa)
#
#
# Indices 1 2 3 4 5 6 
#
# 1 0.010849 -0.002290 -0.004654 0.000002 0.000042 0.000000
# 2 -0.002290 0.015913 -0.007171 0.000003 0.000041 0.000000
# 3 -0.004654 -0.007171 0.020300 -0.000010 -0.000158 0.000000
# 4 0.000002 0.000003 -0.000010 0.079271 -0.000335 0.000001
# 5 0.000042 0.000041 -0.000158 -0.000335 -1.203428 0.000028
# 6 0.000000 0.000000 0.000000 0.000001 0.000028 0.031183
#
#
# Mechanical properties :
#
#
# Convention : Reuss Voigt Hill
#
# Bulk Modulus (GPa) = 53.10101 54.78782 53.94442
# Shear Modulus (GPa) = -4.94362 19.54969 7.30303
#
# Velocity S-wave (km/s) = -1.59603 3.17387 1.93986
# Velocity P-wave (km/s) = 4.89543 6.45462 5.72832
#
# Compressibility (1/GPa) = 0.01883203
#
# Stress axis : x y z
#
# Youngs Moduli (GPa) = 92.17635 62.84139 49.26080
#
# Poissons Ratio (x) = 0.14390 0.22926
# Poissons Ratio (y) = 0.21107 0.35326
# Poissons Ratio (z) = 0.42898 0.45065
#
# Static dielectric constant tensor:
#      x y z
#    x 3.604150 0.000000 0.000000 
#    y 0.000000 3.477450 0.000000 
#    z 0.000000 0.000000 3.425730 
# 
# 
# High freq. dielectric constant tensor:
#      x y z
#    x 1.749570 0.000000 0.000000 
#    y 0.000000 1.748440 0.000000 
#    z 0.000000 0.000000 1.738600 
# 
# From -- ./inp_files/9779.got.cif
#   From: 2010.03.12/outbox.cif.g09.slc.cpg/sg46_5_cif.got.tgz:9779.got - 2010.04.14 02:56:35.
