data_PCOD8191075
_publ_section_title
;
Structure prediction by ZEFSAII (Michael W. Deem and Ramdas Pophale) SiO2 
 PCOD8191075
Probable space group: I B A 2
;
_chemical_formula_sum "Si O2"
_cell_formula_units_Z 64
_cell_length_a 13.168187
_cell_length_b 12.301023
_cell_length_c 18.609719
_cell_angle_alpha 90.000000
_cell_angle_beta 90.000000
_cell_angle_gamma 90.000000
_cell_volume 3014.442688
_symmetry_space_group_name_H-M "I B A 2"
_symmetry_group_IT_number 45
_symmetry_cell_setting 'orthorhombic'
loop_
_space_group_symop_operation_xyz
x,y,z
-x,-y,z
-x,y,1/2+z
x,-y,1/2+z
1/2+x,1/2+y,1/2+z
1/2-x,1/2-y,1/2+z
1/2-x,1/2+y,z
1/2+x,1/2-y,z
loop_
_atom_site_type_symbol
_atom_site_label
_atom_site_fract_x
_atom_site_fract_y
_atom_site_fract_z
Si Si1 0.352524 0.266906 0.382420
Si Si2 0.801355 0.544770 0.814414
Si Si3 0.897590 0.557911 0.669958
Si Si4 0.888676 0.803837 0.619077
Si Si5 0.700564 0.915999 0.560760
Si Si6 0.602783 0.560909 0.261365
Si Si7 0.308631 0.089953 0.949594
Si Si8 0.993062 0.293291 0.503076
O O1 0.296891 0.158822 0.355527
O O2 0.379820 0.338985 0.314413
O O3 0.276463 0.317795 0.441379
O O4 0.457435 0.247195 0.425096
O O5 0.888787 0.545195 0.755188
O O6 0.694238 0.523801 0.774147
O O7 0.833850 0.450132 0.869184
O O8 0.892252 0.684697 0.652860
O O9 0.807614 0.494254 0.629874
O O10 0.000000 0.500000 0.644235
O O11 0.781405 0.823054 0.579790
O O12 0.906633 0.894892 0.679836
O O13 0.975499 0.805953 0.556654
O O14 0.593899 0.862230 0.541107
O O15 0.738806 0.989307 0.494017
O O16 0.500000 0.500000 0.282026
O O17 0.408180 0.130668 0.991443
#
# Coordination Sequence:
#
# PCOD8191075 Si02
#       8
#     8   8   8   8   8   8   8   8
#     4  11  26  44  72 105 137 189 233 296 358 418
#     4  11  25  45  72 101 142 180 240 296 353 422
#     4  12  24  44  71 103 134 182 240 293 346 426
#     4  12  26  44  71 104 140 188 233 291 362 419
#     4  12  24  44  70 101 142 179 238 296 350 425
#     4  11  27  48  68 105 145 185 235 292 357 433
#     4  11  25  43  69 103 138 180 234 291 353 419
#     4  12  25  43  69 104 137 185 234 285 353 429
#
# _framework density 21.231121000000002
#
# number of rings (size 3 to 8) (size 9 to 14) (size 15 to 20)
#    0.000    0.500    6.250    1.125    3.500    3.000 
#    2.250    0.000    0.000    0.000    0.000    0.000 
#    0.000    0.000    0.000    0.000    0.000    0.000 
#
# Total GULP energy -396818.264087 kJ/mol
# GULP energy per Si atom -12400.570753 kJ/mol
# Density = 2.118280 g / cm^3
# Si number density = 21.231121 Si / 1000 Ang^3
#
#
#
# Elastic Constant Matrix: (Units=GPa)
#
#
# Indices 1 2 3 4 5 6 
#
# 1 87.7792 47.3779 39.3740 0.0000 0.0000 0.0000
# 2 47.3779 88.2976 36.7171 0.0000 0.0000 0.0000
# 3 39.3740 36.7171 117.3416 0.0000 0.0000 0.0000
# 4 0.0000 0.0000 0.0000 43.8843 0.0000 0.0000
# 5 0.0000 0.0000 0.0000 0.0000 35.8715 0.0000
# 6 0.0000 0.0000 0.0000 0.0000 0.0000 28.5792
#
#
#
# Elastic Compliance Matrix: (Units=1/GPa)
#
#
# Indices 1 2 3 4 5 6 
#
# 1 0.017075 -0.007793 -0.003291 0.000000 0.000000 0.000000
# 2 -0.007793 0.016576 -0.002572 0.000000 0.000000 0.000000
# 3 -0.003291 -0.002572 0.010431 0.000000 0.000000 0.000000
# 4 0.000000 0.000000 0.000000 0.022787 0.000000 0.000000
# 5 0.000000 0.000000 0.000000 0.000000 0.027877 0.000000
# 6 0.000000 0.000000 0.000000 0.000000 0.000000 0.034990
#
#
# Mechanical properties :
#
#
# Convention : Reuss Voigt Hill
#
# Bulk Modulus (GPa) = 59.62937 60.03961 59.83449
# Shear Modulus (GPa) = 30.74287 32.99698 31.86993
#
# Velocity S-wave (km/s) = 3.80940 3.94659 3.87860
# Velocity P-wave (km/s) = 6.89170 7.00770 6.94994
#
# Compressibility (1/GPa) = 0.01677026
#
# Stress axis : x y z
#
# Youngs Moduli (GPa) = 58.56611 60.32645 95.86698
#
# Poissons Ratio (x) = 0.47015 0.31548
# Poissons Ratio (y) = 0.45643 0.24656
# Poissons Ratio (z) = 0.19273 0.15515
#
# Static dielectric constant tensor:
#      x y z
#    x 3.791220 0.000000 0.000000 
#    y 0.000000 3.831570 0.000000 
#    z 0.000000 0.000000 4.128410 
# 
# 
# High freq. dielectric constant tensor:
#      x y z
#    x 1.821250 0.000000 0.000000 
#    y 0.000000 1.833060 0.000000 
#    z 0.000000 0.000000 1.859100 
# 
# From -- ./inp_files/8247.got.cif
#   From: 2010.03.12/outbox.cif.g09.slc.cpg/sg45_5_cif.got.tgz:8247.got - 2010.04.14 02:50:11.
