data_PCOD8191479
_publ_section_title
;
Structure prediction by ZEFSAII (Michael W. Deem and Ramdas Pophale) SiO2 
 PCOD8191479
Probable space group: I M A 2
;
_chemical_formula_sum "Si O2"
_cell_formula_units_Z 56
_cell_length_a 32.325924
_cell_length_b 15.831861
_cell_length_c 5.101295
_cell_angle_alpha 90.000000
_cell_angle_beta 90.000000
_cell_angle_gamma 90.000000
_cell_volume 2610.738385
_symmetry_space_group_name_H-M "I M A 2"
_symmetry_group_IT_number 46
_symmetry_cell_setting 'orthorhombic'
loop_
_space_group_symop_operation_xyz
x,y,z
-x,-y,z
1/2-x,y,z
1/2+x,-y,z
1/2+x,1/2+y,1/2+z
1/2-x,1/2-y,1/2+z
-x,1/2+y,1/2+z
x,1/2-y,1/2+z
loop_
_atom_site_type_symbol
_atom_site_label
_atom_site_fract_x
_atom_site_fract_y
_atom_site_fract_z
Si Si1 0.796823 0.549966 0.625000
Si Si2 0.360867 0.194927 0.052117
Si Si3 0.586827 0.553013 0.371306
Si Si4 0.065561 0.791026 0.367338
Si Si5 0.046769 0.516645 0.880153
Si Si6 0.331597 0.528532 0.154206
Si Si7 0.842845 0.281018 0.256753
O O1 0.750000 0.574652 0.697666
O O2 0.821238 0.633745 0.536499
O O3 0.796383 0.487176 0.373563
O O4 0.817999 0.502658 0.868734
O O5 0.358908 0.228125 0.349064
O O6 0.404067 0.147382 0.979396
O O7 0.574812 0.500220 0.627048
O O8 0.628741 0.522308 0.242738
O O9 0.553960 0.544274 0.133474
O O10 0.044250 0.732639 0.592208
O O11 0.057642 0.887150 0.453988
O O12 0.113850 0.763522 0.354363
O O13 0.000000 0.500000 0.792497
O O14 0.345688 0.625195 0.145581
O O15 0.818971 0.275410 0.535836
#
# Coordination Sequence:
#
# PCOD8191479 Si02
#       7
#     8   8   8   8   8   8   8
#     4  11  24  41  64  95 129 165 204 258 328 392
#     4  11  23  41  65  94 124 163 216 266 313 379
#     4  11  22  41  64  89 123 169 217 263 315 387
#     4  10  20  35  57  87 119 150 201 265 309 357
#     4  12  24  41  63  93 131 171 213 267 333 394
#     4  11  21  38  65  92 121 165 214 258 312 383
#     4  10  18  31  56  88 114 147 200 259 301 346
#
# _framework density 21.449871999999999
#
# number of rings (size 3 to 8) (size 9 to 14) (size 15 to 20)
#    0.000    1.143    0.000   10.286    0.000    0.571 
#    0.000    4.286    0.000    8.571    0.000    0.000 
#    0.000    0.000    0.000    0.000    0.000    0.000 
#
# Total GULP energy -346889.273421 kJ/mol
# GULP energy per Si atom -12388.902622 kJ/mol
# Density = 2.140105 g / cm^3
# Si number density = 21.449872 Si / 1000 Ang^3
#
#
#
# Elastic Constant Matrix: (Units=GPa)
#
#
# Indices 1 2 3 4 5 6 
#
# 1 64.9979 34.7821 17.7446 0.0016 0.0007 0.0001
# 2 34.7821 104.3372 35.0182 0.0042 -0.0002 -0.0001
# 3 17.7446 35.0182 159.5389 0.0061 -0.0033 0.0016
# 4 0.0016 0.0042 0.0061 49.9220 -0.0002 0.0001
# 5 0.0007 -0.0002 -0.0033 -0.0002 19.3607 0.0013
# 6 0.0001 -0.0001 0.0016 0.0001 0.0013 19.5485
#
#
#
# Elastic Compliance Matrix: (Units=1/GPa)
#
#
# Indices 1 2 3 4 5 6 
#
# 1 0.018813 -0.006012 -0.000773 0.000000 -0.000001 0.000000
# 2 -0.006012 0.012268 -0.002024 -0.000001 0.000000 0.000000
# 3 -0.000773 -0.002024 0.006798 -0.000001 0.000001 -0.000001
# 4 0.000000 -0.000001 -0.000001 0.020031 0.000000 0.000000
# 5 -0.000001 0.000000 0.000001 0.000000 0.051651 -0.000003
# 6 0.000000 0.000000 -0.000001 0.000000 -0.000003 0.051155
#
#
# Mechanical properties :
#
#
# Convention : Reuss Voigt Hill
#
# Bulk Modulus (GPa) = 49.35524 55.99598 52.67561
# Shear Modulus (GPa) = 27.01404 33.85483 30.43444
#
# Velocity S-wave (km/s) = 3.55266 3.97712 3.77087
# Velocity P-wave (km/s) = 6.31570 6.87402 6.60077
#
# Compressibility (1/GPa) = 0.02026127
#
# Stress axis : x y z
#
# Youngs Moduli (GPa) = 53.15346 81.51351 147.09579
#
# Poissons Ratio (x) = 0.49008 0.11368
# Poissons Ratio (y) = 0.31957 0.29773
# Poissons Ratio (z) = 0.04108 0.16499
#
# Static dielectric constant tensor:
#      x y z
#    x 3.675260 0.000000 0.000010 
#    y 0.000000 4.051780 -0.000100 
#    z 0.000010 -0.000100 5.034870 
# 
# 
# High freq. dielectric constant tensor:
#      x y z
#    x 1.797550 0.000000 0.000000 
#    y 0.000000 1.840150 0.000000 
#    z 0.000000 0.000000 1.883750 
# 
# From -- ./inp_files/2722.got.cif
#   From: 2010.03.12/outbox.cif.g09.slc.cpg/sg46_2_cif.got.tgz:2722.got - 2010.04.14 02:56:35.
