data_PCOD8191982
_publ_section_title
;
Structure prediction by ZEFSAII (Michael W. Deem and Ramdas Pophale) SiO2 
 PCOD8191982
Probable space group: I M A 2
;
_chemical_formula_sum "Si O2"
_cell_formula_units_Z 48
_cell_length_a 9.262612
_cell_length_b 22.703515
_cell_length_c 11.520154
_cell_angle_alpha 90.000000
_cell_angle_beta 90.000000
_cell_angle_gamma 90.000000
_cell_volume 2422.617543
_symmetry_space_group_name_H-M "I M A 2"
_symmetry_group_IT_number 46
_symmetry_cell_setting 'orthorhombic'
loop_
_space_group_symop_operation_xyz
x,y,z
-x,-y,z
1/2-x,y,z
1/2+x,-y,z
1/2+x,1/2+y,1/2+z
1/2-x,1/2-y,1/2+z
-x,1/2+y,1/2+z
x,1/2-y,1/2+z
loop_
_atom_site_type_symbol
_atom_site_label
_atom_site_fract_x
_atom_site_fract_y
_atom_site_fract_z
Si Si1 0.917012 0.643891 0.831230
Si Si2 0.909946 0.356111 0.209927
Si Si3 0.576873 0.437337 0.998626
Si Si4 0.917840 0.774434 0.863996
Si Si5 0.415791 0.363193 0.563037
Si Si6 0.409646 0.945786 0.918925
O O1 0.750000 0.627789 0.856698
O O2 0.961531 0.706660 0.886590
O O3 0.945375 0.652428 0.695255
O O4 0.018762 0.592173 0.880171
O O5 0.750000 0.332699 0.179348
O O6 0.903142 0.398898 0.318293
O O7 0.006936 0.300680 0.247982
O O8 0.972291 0.392801 0.101050
O O9 0.500000 0.500000 0.017894
O O10 0.750000 0.445985 0.994713
O O11 0.750000 0.779117 0.835425
O O12 0.961303 0.808236 0.981753
O O13 0.250000 0.379745 0.539990
O O14 0.511920 0.419697 0.532086
O O15 0.250000 0.966375 0.955531
O O16 0.500000 0.000000 0.869525
#
# Coordination Sequence:
#
# PCOD8191982 Si02
#       6
#     8   8   8   8   8   8
#     4  10  22  38  59  85 115 152 192 238 287 345
#     4   9  20  37  57  85 117 148 187 236 289 341
#     4  11  24  41  60  85 118 158 200 243 291 348
#     4   9  19  35  60  88 114 147 189 236 288 343
#     4   9  19  36  54  80 113 144 184 230 280 338
#     4  10  19  33  55  81 109 143 183 229 280 333
#
# _framework density 19.813279999999999
#
# number of rings (size 3 to 8) (size 9 to 14) (size 15 to 20)
#    0.000    2.333    0.000    1.500    2.333    4.000 
#    0.000    0.000    0.000    0.000    0.000    0.000 
#    0.000    0.000    0.000    0.000    0.000    0.000 
#
# Total GULP energy -297571.457568 kJ/mol
# GULP energy per Si atom -12398.810732 kJ/mol
# Density = 1.976818 g / cm^3
# Si number density = 19.813280 Si / 1000 Ang^3
#
#
#
# Elastic Constant Matrix: (Units=GPa)
#
#
# Indices 1 2 3 4 5 6 
#
# 1 85.5592 36.7029 31.5241 0.0000 -0.0001 0.0001
# 2 36.7029 70.8320 22.5539 -0.0002 0.0000 0.0000
# 3 31.5241 22.5539 83.3347 -0.0021 0.0007 0.0000
# 4 0.0000 -0.0002 -0.0021 23.9057 0.0003 0.0001
# 5 -0.0001 0.0000 0.0007 0.0003 27.0133 -0.0001
# 6 0.0001 0.0000 0.0000 0.0001 -0.0001 31.4919
#
#
#
# Elastic Compliance Matrix: (Units=1/GPa)
#
#
# Indices 1 2 3 4 5 6 
#
# 1 0.016294 -0.007091 -0.004244 0.000000 0.000000 0.000000
# 2 -0.007091 0.018536 -0.002334 0.000000 0.000000 0.000000
# 3 -0.004244 -0.002334 0.014237 0.000001 0.000000 0.000000
# 4 0.000000 0.000000 0.000001 0.041831 0.000000 0.000000
# 5 0.000000 0.000000 0.000000 0.000000 0.037019 0.000000
# 6 0.000000 0.000000 0.000000 0.000000 0.000000 0.031754
#
#
# Mechanical properties :
#
#
# Convention : Reuss Voigt Hill
#
# Bulk Modulus (GPa) = 46.02599 46.80973 46.41786
# Shear Modulus (GPa) = 25.73973 26.41184 26.07578
#
# Velocity S-wave (km/s) = 3.60823 3.65504 3.63171
# Velocity P-wave (km/s) = 6.37491 6.44121 6.40814
#
# Compressibility (1/GPa) = 0.02172685
#
# Stress axis : x y z
#
# Youngs Moduli (GPa) = 61.37342 53.95016 70.23930
#
# Poissons Ratio (x) = 0.38258 0.29812
# Poissons Ratio (y) = 0.43522 0.16394
# Poissons Ratio (z) = 0.26049 0.12592
#
# Static dielectric constant tensor:
#      x y z
#    x 3.839210 0.000000 0.000000 
#    y 0.000000 3.661310 0.000000 
#    z 0.000000 0.000000 3.512250 
# 
# 
# High freq. dielectric constant tensor:
#      x y z
#    x 1.770530 0.000000 0.000000 
#    y 0.000000 1.771940 0.000000 
#    z 0.000000 0.000000 1.766830 
# 
# From -- ./inp_files/9281.got.cif
#   From: 2010.03.12/outbox.cif.g09.slc.cpg/sg46_5_cif.got.tgz:9281.got - 2010.04.14 02:56:35.
