data_PCOD8191559
_publ_section_title
;
Structure prediction by ZEFSAII (Michael W. Deem and Ramdas Pophale) SiO2 
 PCOD8191559
Probable space group: I M A 2
;
_chemical_formula_sum "Si O2"
_cell_formula_units_Z 64
_cell_length_a 8.420603
_cell_length_b 30.178592
_cell_length_c 14.788881
_cell_angle_alpha 90.000000
_cell_angle_beta 90.000000
_cell_angle_gamma 90.000000
_cell_volume 3758.179165
_symmetry_space_group_name_H-M "I M A 2"
_symmetry_group_IT_number 46
_symmetry_cell_setting 'orthorhombic'
loop_
_space_group_symop_operation_xyz
x,y,z
-x,-y,z
1/2-x,y,z
1/2+x,-y,z
1/2+x,1/2+y,1/2+z
1/2-x,1/2-y,1/2+z
-x,1/2+y,1/2+z
x,1/2-y,1/2+z
loop_
_atom_site_type_symbol
_atom_site_label
_atom_site_fract_x
_atom_site_fract_y
_atom_site_fract_z
Si Si1 0.434235 0.135239 0.540120
Si Si2 0.063136 0.292432 0.571976
Si Si3 0.429253 0.814848 0.376820
Si Si4 0.436876 0.952511 0.481431
Si Si5 0.931859 0.777568 0.876819
Si Si6 0.436876 0.952511 0.272217
Si Si7 0.934234 0.635238 0.713520
Si Si8 0.936864 0.792429 0.681660
O O1 0.250000 0.141546 0.515070
O O2 0.546117 0.154993 0.463666
O O3 0.477961 0.083395 0.546486
O O4 0.474937 0.161122 0.632790
O O5 0.250000 0.284129 0.562204
O O6 0.988083 0.295234 0.470352
O O7 0.025067 0.338882 0.620845
O O8 0.991538 0.250002 0.626818
O O9 0.250000 0.796329 0.376822
O O10 0.555508 0.775461 0.376824
O O11 0.453881 0.845003 0.289968
O O12 0.250000 0.950140 0.495337
O O13 0.484604 0.943922 0.376824
O O14 0.500000 0.000000 0.513394
O O15 0.750000 0.792174 0.876817
O O16 0.011918 0.795231 0.783283
O O17 0.250000 0.950140 0.258312
O O18 0.522039 0.916606 0.207161
O O19 0.500000 0.000000 0.240255
O O20 0.750000 0.641546 0.738571
O O21 0.750000 0.784127 0.691431
#
# Coordination Sequence:
#
# PCOD8191559 Si02
#       8
#     8   8   8   8   8   8   8   8
#     4  11  20  32  50  71  97 132 169 201 241 287
#     4   9  17  29  49  75  95 125 168 205 240 285
#     4  12  22  30  43  69 100 131 167 204 245 285
#     4  10  20  33  49  72 101 129 161 196 241 292
#     4  10  18  34  52  67  96 131 168 208 241 285
#     4  10  20  33  49  72 101 129 161 196 241 292
#     4  11  20  32  50  71  97 132 169 201 241 287
#     4   9  17  29  49  75  95 125 168 205 240 285
#
# _framework density 17.029523999999999
#
# number of rings (size 3 to 8) (size 9 to 14) (size 15 to 20)
#    0.000    1.750    3.750    2.625    0.000    1.000 
#    0.000    3.750    0.000    0.000    0.000    0.875 
#    0.000    0.000    0.000    0.000    0.000    0.000 
#
# Total GULP energy -396699.255070 kJ/mol
# GULP energy per Si atom -12396.851721 kJ/mol
# Density = 1.699076 g / cm^3
# Si number density = 17.029524 Si / 1000 Ang^3
#
#
#
# Elastic Constant Matrix: (Units=GPa)
#
#
# Indices 1 2 3 4 5 6 
#
# 1 41.2577 17.7262 20.4211 -0.0001 -0.0001 0.0000
# 2 17.7262 129.5366 63.2802 -0.0004 -0.0001 0.0000
# 3 20.4211 63.2802 135.5355 -0.0043 -0.0006 -0.0001
# 4 -0.0001 -0.0004 -0.0043 -36.5892 -0.0005 -0.0001
# 5 -0.0001 -0.0001 -0.0006 -0.0005 3.3777 -0.0001
# 6 0.0000 0.0000 -0.0001 -0.0001 -0.0001 24.6129
#
#
#
# Elastic Compliance Matrix: (Units=1/GPa)
#
#
# Indices 1 2 3 4 5 6 
#
# 1 0.026660 -0.002184 -0.002997 0.000000 0.000000 0.000000
# 2 -0.002184 0.010180 -0.004424 0.000000 -0.000001 0.000000
# 3 -0.002997 -0.004424 0.009895 -0.000001 0.000002 0.000000
# 4 0.000000 0.000000 -0.000001 -0.027330 -0.000004 0.000000
# 5 0.000000 -0.000001 0.000002 -0.000004 0.296063 0.000001
# 6 0.000000 0.000000 0.000000 0.000000 0.000001 0.040629
#
#
# Mechanical properties :
#
#
# Convention : Reuss Voigt Hill
#
# Bulk Modulus (GPa) = 36.33096 56.57611 46.45354
# Shear Modulus (GPa) = 13.00455 11.94043 12.47249
#
# Velocity S-wave (km/s) = 2.76641 2.65082 2.70923
# Velocity P-wave (km/s) = 5.62001 6.53174 6.09295
#
# Compressibility (1/GPa) = 0.02752473
#
# Stress axis : x y z
#
# Youngs Moduli (GPa) = 37.50978 98.23418 101.05999
#
# Poissons Ratio (x) = 0.21455 0.30289
# Poissons Ratio (y) = 0.08192 0.44706
# Poissons Ratio (z) = 0.11242 0.43456
#
# Static dielectric constant tensor:
#      x y z
#    x 2.951160 0.000000 0.000000 
#    y 0.000000 3.195340 0.000000 
#    z 0.000000 0.000000 3.360930 
# 
# 
# High freq. dielectric constant tensor:
#      x y z
#    x 1.642160 0.000000 0.000000 
#    y 0.000000 1.647470 0.000000 
#    z 0.000000 0.000000 1.631790 
# 
# From -- ./inp_files/14745.got.cif
#   From: 2010.03.12/outbox.cif.g09.slc.cpg/sg46_8_cif.got.tgz:14745.got - 2010.04.14 02:56:35.
