data_PCOD8191488
_publ_section_title
;
Structure prediction by ZEFSAII (Michael W. Deem and Ramdas Pophale) SiO2 
 PCOD8191488
Probable space group: I M A 2
;
_chemical_formula_sum "Si O2"
_cell_formula_units_Z 36
_cell_length_a 18.775380
_cell_length_b 10.040624
_cell_length_c 8.824200
_cell_angle_alpha 90.000000
_cell_angle_beta 90.000000
_cell_angle_gamma 90.000000
_cell_volume 1663.507573
_symmetry_space_group_name_H-M "I M A 2"
_symmetry_group_IT_number 46
_symmetry_cell_setting 'orthorhombic'
loop_
_space_group_symop_operation_xyz
x,y,z
-x,-y,z
1/2-x,y,z
1/2+x,-y,z
1/2+x,1/2+y,1/2+z
1/2-x,1/2-y,1/2+z
-x,1/2+y,1/2+z
x,1/2-y,1/2+z
loop_
_atom_site_type_symbol
_atom_site_label
_atom_site_fract_x
_atom_site_fract_y
_atom_site_fract_z
Si Si1 0.250000 0.936122 0.809280
Si Si2 0.250000 0.671885 0.641606
Si Si3 0.985304 0.315082 0.198710
Si Si4 0.500000 0.000000 0.428092
Si Si5 0.102015 0.038698 0.855079
Si Si6 0.100450 0.549234 0.687037
O O1 0.250000 0.830246 0.671791
O O2 0.183742 0.036725 0.802196
O O3 0.250000 0.846880 0.961491
O O4 0.179685 0.604948 0.713943
O O5 0.062863 0.334564 0.278891
O O6 0.930680 0.399488 0.299704
O O7 0.959895 0.164884 0.184880
O O8 0.986655 0.369382 0.027878
O O9 0.427893 0.033510 0.331181
O O10 0.096028 0.042166 0.037645
#
# Coordination Sequence:
#
# PCOD8191488 Si02
#       6
#     4   4   8   4   8   8
#     4  10  18  32  50  81 112 141 178 229 277 329
#     4  10  22  30  58  83 108 145 174 231 299 309
#     4  10  20  34  52  80 109 148 184 216 279 326
#     4  10  22  32  54  80 110 148 180 222 272 326
#     4   9  19  32  51  78 110 143 177 219 274 325
#     4  11  20  37  55  83 115 140 182 228 274 330
#
# _framework density 21.641017999999999
#
# number of rings (size 3 to 8) (size 9 to 14) (size 15 to 20)
#    0.000    2.222    2.222    2.667    3.111    0.000 
#    0.000    0.000    0.000    1.333    0.000   23.333 
#    0.000    0.000    0.000    0.000    0.000    0.000 
#
# Total GULP energy -223120.799596 kJ/mol
# GULP energy per Si atom -12395.599978 kJ/mol
# Density = 2.159176 g / cm^3
# Si number density = 21.641018 Si / 1000 Ang^3
#
#
#
# Elastic Constant Matrix: (Units=GPa)
#
#
# Indices 1 2 3 4 5 6 
#
# 1 178.8216 18.5691 44.8309 0.0000 0.0000 0.0000
# 2 18.5691 24.6002 2.7581 0.0000 0.0000 0.0000
# 3 44.8309 2.7581 97.0967 0.0000 0.0000 0.0000
# 4 0.0000 0.0000 0.0000 11.3916 0.0000 0.0000
# 5 0.0000 0.0000 0.0000 0.0000 30.8063 0.0000
# 6 0.0000 0.0000 0.0000 0.0000 0.0000 27.3090
#
#
#
# Elastic Compliance Matrix: (Units=1/GPa)
#
#
# Indices 1 2 3 4 5 6 
#
# 1 0.006853 -0.004833 -0.003027 0.000000 0.000000 0.000000
# 2 -0.004833 0.044189 0.000976 0.000000 0.000000 0.000000
# 3 -0.003027 0.000976 0.011669 0.000000 0.000000 0.000000
# 4 0.000000 0.000000 0.000000 0.087784 0.000000 0.000000
# 5 0.000000 0.000000 0.000000 0.000000 0.032461 0.000000
# 6 0.000000 0.000000 0.000000 0.000000 0.000000 0.036618
#
#
# Mechanical properties :
#
#
# Convention : Reuss Voigt Hill
#
# Bulk Modulus (GPa) = 20.43183 48.09274 34.26229
# Shear Modulus (GPa) = 20.02757 29.52540 24.77649
#
# Velocity S-wave (km/s) = 3.04541 3.69769 3.38729
# Velocity P-wave (km/s) = 4.67202 6.36409 5.58254
#
# Compressibility (1/GPa) = 0.04894323
#
# Stress axis : x y z
#
# Youngs Moduli (GPa) = 145.92355 22.63001 85.69878
#
# Poissons Ratio (x) = 0.10938 0.25939
# Poissons Ratio (y) = 0.70532 -0.08368
# Poissons Ratio (z) = 0.44168 -0.02210
#
# Static dielectric constant tensor:
#      x y z
#    x 4.287240 0.000000 0.000000 
#    y 0.000000 3.399740 0.000000 
#    z 0.000000 0.000000 4.114920 
# 
# 
# High freq. dielectric constant tensor:
#      x y z
#    x 1.855790 0.000000 0.000000 
#    y 0.000000 1.812030 0.000000 
#    z 0.000000 0.000000 1.862440 
# 
# From -- ./inp_files/7226.got.cif
#   From: 2010.03.12/outbox.cif.g09.slc.cpg/sg46_4_cif.got.tgz:7226.got - 2010.04.14 02:56:35.
