data_PCOD8191553
_publ_section_title
;
Structure prediction by ZEFSAII (Michael W. Deem and Ramdas Pophale) SiO2 
 PCOD8191553
Probable space group: I M A 2
;
_chemical_formula_sum "Si O2"
_cell_formula_units_Z 56
_cell_length_a 27.366368
_cell_length_b 6.564691
_cell_length_c 14.312436
_cell_angle_alpha 90.000000
_cell_angle_beta 90.000000
_cell_angle_gamma 90.000000
_cell_volume 2571.254170
_symmetry_space_group_name_H-M "I M A 2"
_symmetry_group_IT_number 46
_symmetry_cell_setting 'orthorhombic'
loop_
_space_group_symop_operation_xyz
x,y,z
-x,-y,z
1/2-x,y,z
1/2+x,-y,z
1/2+x,1/2+y,1/2+z
1/2-x,1/2-y,1/2+z
-x,1/2+y,1/2+z
x,1/2-y,1/2+z
loop_
_atom_site_type_symbol
_atom_site_label
_atom_site_fract_x
_atom_site_fract_y
_atom_site_fract_z
Si Si1 0.302609 0.210819 0.768490
Si Si2 0.054849 0.423205 0.765229
Si Si3 0.402166 0.819870 0.113320
Si Si4 0.804219 0.968747 0.101357
Si Si5 0.898096 0.501722 0.267122
Si Si6 0.892837 0.317513 0.921457
Si Si7 0.194420 0.103314 0.465913
O O1 0.250000 0.099823 0.754621
O O2 0.302807 0.423363 0.712132
O O3 0.345812 0.073457 0.728965
O O4 0.312361 0.257539 0.875485
O O5 0.076211 0.476020 0.661611
O O6 0.061571 0.180380 0.777588
O O7 0.082037 0.519336 0.854133
O O8 0.000000 0.500000 0.770547
O O9 0.416918 0.652577 0.189508
O O10 0.344799 0.856745 0.088350
O O11 0.424747 0.744650 0.014150
O O12 0.750000 0.043456 0.067823
O O13 0.818369 0.754965 0.051137
O O14 0.887385 0.393162 0.365713
O O15 0.841805 0.410991 0.959119
O O16 0.250000 0.020287 0.474279
#
# Coordination Sequence:
#
# PCOD8191553 Si02
#       7
#     8   8   8   8   8   8   8
#     4  10  18  33  59  87 123 176 217 253 320 391
#     4  11  26  50  68  93 130 170 213 293 349 400
#     4  11  24  40  67 102 127 173 226 269 334 408
#     4  10  20  36  60  93 138 181 222 270 324 393
#     4  11  22  42  68  92 137 174 218 284 343 396
#     4  11  24  40  67 102 127 173 226 269 334 408
#     4  10  20  36  60  93 138 181 222 270 324 393
#
# _framework density 21.779254999999999
#
# number of rings (size 3 to 8) (size 9 to 14) (size 15 to 20)
#    0.000    1.429    2.857    2.571    0.000    4.000 
#    5.143    0.000    0.000    0.000    0.000    0.000 
#    0.000    0.000    0.000    0.000    0.000    0.000 
#
# Total GULP energy -346948.650594 kJ/mol
# GULP energy per Si atom -12391.023235 kJ/mol
# Density = 2.172968 g / cm^3
# Si number density = 21.779255 Si / 1000 Ang^3
#
#
#
# Elastic Constant Matrix: (Units=GPa)
#
#
# Indices 1 2 3 4 5 6 
#
# 1 103.6731 42.4655 13.9300 0.0000 0.0000 0.0000
# 2 42.4655 107.1844 28.1816 0.0000 0.0000 0.0000
# 3 13.9300 28.1816 115.0494 0.0000 0.0000 0.0000
# 4 0.0000 0.0000 0.0000 28.9063 0.0000 0.0000
# 5 0.0000 0.0000 0.0000 0.0000 15.5594 0.0000
# 6 0.0000 0.0000 0.0000 0.0000 0.0000 24.9485
#
#
#
# Elastic Compliance Matrix: (Units=1/GPa)
#
#
# Indices 1 2 3 4 5 6 
#
# 1 0.011524 -0.004488 -0.000296 0.000000 0.000000 0.000000
# 2 -0.004488 0.011720 -0.002327 0.000000 0.000000 0.000000
# 3 -0.000296 -0.002327 0.009298 0.000000 0.000000 0.000000
# 4 0.000000 0.000000 0.000000 0.034595 0.000000 0.000000
# 5 0.000000 0.000000 0.000000 0.000000 0.064270 0.000000
# 6 0.000000 0.000000 0.000000 0.000000 0.000000 0.040083
#
#
# Mechanical properties :
#
#
# Convention : Reuss Voigt Hill
#
# Bulk Modulus (GPa) = 54.58829 55.00679 54.79754
# Shear Modulus (GPa) = 26.06652 29.97148 28.01900
#
# Velocity S-wave (km/s) = 3.46331 3.71367 3.59067
# Velocity P-wave (km/s) = 6.41182 6.61058 6.51196
#
# Compressibility (1/GPa) = 0.01831895
#
# Stress axis : x y z
#
# Youngs Moduli (GPa) = 86.77769 85.32670 107.55168
#
# Poissons Ratio (x) = 0.38293 0.03183
# Poissons Ratio (y) = 0.38944 0.25031
# Poissons Ratio (z) = 0.02569 0.19859
#
# Static dielectric constant tensor:
#      x y z
#    x 3.877120 0.000000 0.000000 
#    y 0.000000 3.757150 0.000000 
#    z 0.000000 0.000000 4.168960 
# 
# 
# High freq. dielectric constant tensor:
#      x y z
#    x 1.832710 0.000000 0.000000 
#    y 0.000000 1.843690 0.000000 
#    z 0.000000 0.000000 1.874060 
# 
# From -- ./inp_files/17677.got.cif
#   From: 2010.03.12/outbox.cif.g09.slc.cpg/sg46_9_cif.got.tgz:17677.got - 2010.04.14 02:56:35.
