data_PCOD8191513
_publ_section_title
;
Structure prediction by ZEFSAII (Michael W. Deem and Ramdas Pophale) SiO2 
 PCOD8191513
Probable space group: I M A 2
;
_chemical_formula_sum "Si O2"
_cell_formula_units_Z 64
_cell_length_a 14.452820
_cell_length_b 15.593452
_cell_length_c 15.198588
_cell_angle_alpha 90.000000
_cell_angle_beta 90.000000
_cell_angle_gamma 90.000000
_cell_volume 3425.295973
_symmetry_space_group_name_H-M "I M A 2"
_symmetry_group_IT_number 46
_symmetry_cell_setting 'orthorhombic'
loop_
_space_group_symop_operation_xyz
x,y,z
-x,-y,z
1/2-x,y,z
1/2+x,-y,z
1/2+x,1/2+y,1/2+z
1/2-x,1/2-y,1/2+z
-x,1/2+y,1/2+z
x,1/2-y,1/2+z
loop_
_atom_site_type_symbol
_atom_site_label
_atom_site_fract_x
_atom_site_fract_y
_atom_site_fract_z
Si Si1 0.525980 0.760329 0.120300
Si Si2 0.610493 0.498380 0.808495
Si Si3 0.558522 0.084495 0.668566
Si Si4 0.145957 0.680448 0.322311
Si Si5 0.992332 0.745352 0.926789
Si Si6 0.420056 0.567599 0.981169
Si Si7 0.648722 0.337827 0.697355
Si Si8 0.146669 0.191311 0.278419
O O1 0.512796 0.661701 0.148653
O O2 0.431208 0.815503 0.128348
O O3 0.606354 0.797397 0.180978
O O4 0.556390 0.771681 0.018641
O O5 0.500000 0.500000 0.812966
O O6 0.648238 0.468045 0.905172
O O7 0.641928 0.434992 0.731549
O O8 0.653347 0.590300 0.793019
O O9 0.623517 0.106198 0.751363
O O10 0.623215 0.078033 0.579614
O O11 0.500000 0.000000 0.691807
O O12 0.250000 0.664409 0.358727
O O13 0.137468 0.774189 0.279391
O O14 0.069577 0.682958 0.400024
O O15 0.915687 0.739353 0.850542
O O16 0.041078 0.655156 0.941598
O O17 0.500000 0.500000 0.000268
O O18 0.750000 0.325236 0.653103
O O19 0.250000 0.230026 0.283062
#
# Coordination Sequence:
#
# PCOD8191513 Si02
#       8
#     8   8   8   8   8   8   8   8
#     4  10  21  37  58  81 113 152 190 233 285 332
#     4  11  16  32  58  82 118 148 179 229 295 341
#     4   9  18  33  57  79 110 153 184 229 284 336
#     4  10  19  34  56  84 112 144 189 231 279 343
#     4  11  19  36  59  82 111 152 186 231 285 335
#     4   9  15  28  55  81 114 144 178 222 284 345
#     4  10  18  32  54  83 113 145 181 225 286 345
#     4  12  23  37  57  86 117 152 193 233 280 341
#
# _framework density 18.684517
#
# number of rings (size 3 to 8) (size 9 to 14) (size 15 to 20)
#    0.000    1.750    7.500    0.375    0.000    1.000 
#    0.000    3.750    2.750    0.000    0.000    0.000 
#    0.000    0.000    0.000    0.000    0.000    0.000 
#
# Total GULP energy -396532.860199 kJ/mol
# GULP energy per Si atom -12391.651881 kJ/mol
# Density = 1.864199 g / cm^3
# Si number density = 18.684517 Si / 1000 Ang^3
#
#
#
# Elastic Constant Matrix: (Units=GPa)
#
#
# Indices 1 2 3 4 5 6 
#
# 1 110.1766 26.4535 49.5887 0.0000 0.0000 0.0000
# 2 26.4535 62.2573 41.9434 0.0000 0.0000 0.0000
# 3 49.5887 41.9434 124.9545 0.0000 0.0000 0.0000
# 4 0.0000 0.0000 0.0000 37.7380 0.0000 0.0000
# 5 0.0000 0.0000 0.0000 0.0000 2.7342 0.0000
# 6 0.0000 0.0000 0.0000 0.0000 0.0000 15.0072
#
#
#
# Elastic Compliance Matrix: (Units=1/GPa)
#
#
# Indices 1 2 3 4 5 6 
#
# 1 0.011299 -0.002300 -0.003712 0.000000 0.000000 0.000000
# 2 -0.002300 0.021225 -0.006212 0.000000 0.000000 0.000000
# 3 -0.003712 -0.006212 0.011561 0.000000 0.000000 0.000000
# 4 0.000000 0.000000 0.000000 0.026498 0.000000 0.000000
# 5 0.000000 0.000000 0.000000 0.000000 0.365741 0.000000
# 6 0.000000 0.000000 0.000000 0.000000 0.000000 0.066635
#
#
# Mechanical properties :
#
#
# Convention : Reuss Voigt Hill
#
# Bulk Modulus (GPa) = 50.92380 59.26218 55.09299
# Shear Modulus (GPa) = 9.36411 23.05606 16.21008
#
# Velocity S-wave (km/s) = 2.24111 3.51660 2.94865
# Velocity P-wave (km/s) = 5.83185 6.94800 6.41425
#
# Compressibility (1/GPa) = 0.01963718
#
# Stress axis : x y z
#
# Youngs Moduli (GPa) = 88.50033 47.11521 86.49712
#
# Poissons Ratio (x) = 0.10838 0.32108
# Poissons Ratio (y) = 0.20358 0.53728
# Poissons Ratio (z) = 0.32852 0.29266
#
# Static dielectric constant tensor:
#      x y z
#    x 3.145690 0.000000 0.000000 
#    y 0.000000 3.230470 0.000000 
#    z 0.000000 0.000000 3.628850 
# 
# 
# High freq. dielectric constant tensor:
#      x y z
#    x 1.701530 0.000000 0.000000 
#    y 0.000000 1.710500 0.000000 
#    z 0.000000 0.000000 1.722160 
# 
# From -- ./inp_files/16180.got.cif
#   From: 2010.03.12/outbox.cif.g09.slc.cpg/sg46_9_cif.got.tgz:16180.got - 2010.04.14 02:56:35.
