data_PCOD8191029
_publ_section_title
;
Structure prediction by ZEFSAII (Michael W. Deem and Ramdas Pophale) SiO2 
 PCOD8191029
Probable space group: I B A 2
;
_chemical_formula_sum "Si O2"
_cell_formula_units_Z 48
_cell_length_a 17.734046
_cell_length_b 7.505500
_cell_length_c 14.056821
_cell_angle_alpha 90.000000
_cell_angle_beta 90.000000
_cell_angle_gamma 90.000000
_cell_volume 1871.003390
_symmetry_space_group_name_H-M "I B A 2"
_symmetry_group_IT_number 45
_symmetry_cell_setting 'orthorhombic'
loop_
_space_group_symop_operation_xyz
x,y,z
-x,-y,z
-x,y,1/2+z
x,-y,1/2+z
1/2+x,1/2+y,1/2+z
1/2-x,1/2-y,1/2+z
1/2-x,1/2+y,z
1/2+x,1/2-y,z
loop_
_atom_site_type_symbol
_atom_site_label
_atom_site_fract_x
_atom_site_fract_y
_atom_site_fract_z
Si Si1 0.635717 0.951791 0.005880
Si Si2 0.915519 0.479654 0.795627
Si Si3 0.781743 0.989013 0.403180
Si Si4 0.791019 0.259006 0.261788
Si Si5 0.415434 0.431887 0.037377
Si Si6 0.850241 0.768043 0.153251
O O1 0.596076 0.779487 0.056276
O O2 0.627052 0.124475 0.072679
O O3 0.589474 0.988224 0.909029
O O4 0.723585 0.916671 0.978384
O O5 0.868420 0.637223 0.744209
O O6 0.883640 0.292633 0.755548
O O7 0.000000 0.500000 0.760556
O O8 0.796520 0.053233 0.291906
O O9 0.741531 0.807718 0.369431
O O10 0.864331 0.978282 0.446704
O O11 0.740404 0.281004 0.166948
O O12 0.500000 0.500000 0.015749
O O13 0.383886 0.538217 0.128730
#
# Coordination Sequence:
#
# PCOD8191029 Si02
#       6
#     8   8   8   8   8   8
#     4  11  27  50  81 110 158 215 268 328 409 490
#     4  11  27  49  79 114 162 212 262 345 418 478
#     4  11  22  49  76 108 147 207 265 324 399 479
#     4  11  23  49  76 109 147 204 273 317 403 487
#     4  12  29  46  75 120 158 207 273 338 403 479
#     4  12  28  49  76 115 159 209 270 328 404 491
#
# _framework density 25.654682000000001
#
# number of rings (size 3 to 8) (size 9 to 14) (size 15 to 20)
#    0.000    0.667    5.000    2.000    9.333    1.333 
#    0.000    2.500    0.000    0.000    0.000    0.000 
#    0.000    0.000    0.000    0.000    0.000    0.000 
#
# Total GULP energy -297395.205183 kJ/mol
# GULP energy per Si atom -12391.466883 kJ/mol
# Density = 2.559629 g / cm^3
# Si number density = 25.654682 Si / 1000 Ang^3
#
#
#
# Elastic Constant Matrix: (Units=GPa)
#
#
# Indices 1 2 3 4 5 6 
#
# 1 168.4506 12.2370 19.4260 0.0000 0.0000 0.0000
# 2 12.2370 58.8223 2.4541 0.0000 0.0000 0.0000
# 3 19.4260 2.4541 88.0525 0.0000 0.0000 0.0000
# 4 0.0000 0.0000 0.0000 24.4321 0.0000 0.0000
# 5 0.0000 0.0000 0.0000 0.0000 29.5089 0.0000
# 6 0.0000 0.0000 0.0000 0.0000 0.0000 33.9531
#
#
#
# Elastic Compliance Matrix: (Units=1/GPa)
#
#
# Indices 1 2 3 4 5 6 
#
# 1 0.006179 -0.001230 -0.001329 0.000000 0.000000 0.000000
# 2 -0.001230 0.017265 -0.000210 0.000000 0.000000 0.000000
# 3 -0.001329 -0.000210 0.011656 0.000000 0.000000 0.000000
# 4 0.000000 0.000000 0.000000 0.040930 0.000000 0.000000
# 5 0.000000 0.000000 0.000000 0.000000 0.033888 0.000000
# 6 0.000000 0.000000 0.000000 0.000000 0.000000 0.029452
#
#
# Mechanical properties :
#
#
# Convention : Reuss Voigt Hill
#
# Bulk Modulus (GPa) = 33.82672 42.61773 38.22223
# Shear Modulus (GPa) = 32.30773 36.32607 34.31690
#
# Velocity S-wave (km/s) = 3.55255 3.76701 3.66135
# Velocity P-wave (km/s) = 5.48102 5.96394 5.72757
#
# Compressibility (1/GPa) = 0.02956243
#
# Stress axis : x y z
#
# Youngs Moduli (GPa) = 161.83677 57.92066 85.79350
#
# Poissons Ratio (x) = 0.07124 0.11401
# Poissons Ratio (y) = 0.19906 0.01800
# Poissons Ratio (z) = 0.21507 0.01215
#
# Static dielectric constant tensor:
#      x y z
#    x 4.499620 0.000000 0.000000 
#    y 0.000000 4.913910 0.000000 
#    z 0.000000 0.000000 4.432180 
# 
# 
# High freq. dielectric constant tensor:
#      x y z
#    x 2.005420 0.000000 0.000000 
#    y 0.000000 2.042040 0.000000 
#    z 0.000000 0.000000 2.035620 
# 
# From -- ./inp_files/6751.got.cif
#   From: 2010.03.12/outbox.cif.g09.slc.cpg/sg45_4_cif.got.tgz:6751.got - 2010.04.14 02:50:11.
