data_PCOD8191001
_publ_section_title
;
Structure prediction by ZEFSAII (Michael W. Deem and Ramdas Pophale) SiO2 
 PCOD8191001
Probable space group: I B A 2
;
_chemical_formula_sum "Si O2"
_cell_formula_units_Z 56
_cell_length_a 11.308508
_cell_length_b 13.977430
_cell_length_c 16.741992
_cell_angle_alpha 90.000000
_cell_angle_beta 90.000000
_cell_angle_gamma 90.000000
_cell_volume 2646.304197
_symmetry_space_group_name_H-M "I B A 2"
_symmetry_group_IT_number 45
_symmetry_cell_setting 'orthorhombic'
loop_
_space_group_symop_operation_xyz
x,y,z
-x,-y,z
-x,y,1/2+z
x,-y,1/2+z
1/2+x,1/2+y,1/2+z
1/2-x,1/2-y,1/2+z
1/2-x,1/2+y,z
1/2+x,1/2-y,z
loop_
_atom_site_type_symbol
_atom_site_label
_atom_site_fract_x
_atom_site_fract_y
_atom_site_fract_z
Si Si1 0.253241 0.331528 0.827200
Si Si2 0.220516 0.840351 0.231917
Si Si3 0.462260 0.606581 0.237306
Si Si4 0.390939 0.129534 0.485999
Si Si5 0.182500 0.786492 0.600406
Si Si6 0.863596 0.428437 0.039525
Si Si7 0.123279 0.528578 0.218772
O O1 0.279270 0.220788 0.804032
O O2 0.380595 0.385659 0.817850
O O3 0.183649 0.338693 0.909345
O O4 0.169726 0.376278 0.759581
O O5 0.232892 0.785714 0.148177
O O6 0.279116 0.945026 0.226830
O O7 0.082910 0.838661 0.253850
O O8 0.500000 0.500000 0.215731
O O9 0.394668 0.649312 0.160360
O O10 0.397578 0.218032 0.546710
O O11 0.531090 0.104353 0.478836
O O12 0.320529 0.034396 0.513921
O O13 0.255650 0.854046 0.539442
O O14 0.910296 0.439562 0.129630
O O15 0.000000 0.500000 0.261050
#
# Coordination Sequence:
#
# PCOD8191001 Si02
#       7
#     8   8   8   8   8   8   8
#     4  11  27  41  65 103 134 182 223 281 358 404
#     4  11  22  40  71  97 132 177 231 283 334 410
#     4  11  22  43  69  98 135 176 234 283 337 420
#     4  11  25  43  62 101 140 170 228 284 348 413
#     4  11  22  39  69  99 130 178 228 283 344 402
#     4  11  21  42  68  94 131 175 226 285 330 405
#     4  12  22  41  70  97 126 178 238 281 327 409
#
# _framework density 21.161588999999999
#
# number of rings (size 3 to 8) (size 9 to 14) (size 15 to 20)
#    0.000    0.857    7.143    0.857    6.000    2.286 
#    0.000    0.000    0.000    0.000    0.000    0.000 
#    0.000    0.000    0.000    0.000    0.000    0.000 
#
# Total GULP energy -346918.876744 kJ/mol
# GULP energy per Si atom -12389.959884 kJ/mol
# Density = 2.111342 g / cm^3
# Si number density = 21.161589 Si / 1000 Ang^3
#
#
#
# Elastic Constant Matrix: (Units=GPa)
#
#
# Indices 1 2 3 4 5 6 
#
# 1 117.2270 18.0027 21.8005 0.0000 0.0000 0.0000
# 2 18.0027 100.2842 24.3756 0.0000 0.0000 0.0000
# 3 21.8005 24.3756 83.1971 0.0000 0.0000 0.0000
# 4 0.0000 0.0000 0.0000 22.5946 0.0000 0.0000
# 5 0.0000 0.0000 0.0000 0.0000 24.6548 0.0000
# 6 0.0000 0.0000 0.0000 0.0000 0.0000 38.3824
#
#
#
# Elastic Compliance Matrix: (Units=1/GPa)
#
#
# Indices 1 2 3 4 5 6 
#
# 1 0.009085 -0.001133 -0.002049 0.000000 0.000000 0.000000
# 2 -0.001133 0.010878 -0.002890 0.000000 0.000000 0.000000
# 3 -0.002049 -0.002890 0.013403 0.000000 0.000000 0.000000
# 4 0.000000 0.000000 0.000000 0.044258 0.000000 0.000000
# 5 0.000000 0.000000 0.000000 0.000000 0.040560 0.000000
# 6 0.000000 0.000000 0.000000 0.000000 0.000000 0.026054
#
#
# Mechanical properties :
#
#
# Convention : Reuss Voigt Hill
#
# Bulk Modulus (GPa) = 47.11966 47.67398 47.39682
# Shear Modulus (GPa) = 30.58923 32.89499 31.74211
#
# Velocity S-wave (km/s) = 3.80611 3.94695 3.87717
# Velocity P-wave (km/s) = 6.45215 6.58397 6.51839
#
# Compressibility (1/GPa) = 0.02122256
#
# Stress axis : x y z
#
# Youngs Moduli (GPa) = 110.06604 91.93261 74.60883
#
# Poissons Ratio (x) = 0.10416 0.15285
# Poissons Ratio (y) = 0.12471 0.21562
# Poissons Ratio (z) = 0.22550 0.26569
#
# Static dielectric constant tensor:
#      x y z
#    x 3.957440 0.000000 0.000000 
#    y 0.000000 4.146500 0.000000 
#    z 0.000000 0.000000 3.614950 
# 
# 
# High freq. dielectric constant tensor:
#      x y z
#    x 1.830020 0.000000 0.000000 
#    y 0.000000 1.853960 0.000000 
#    z 0.000000 0.000000 1.795630 
# 
# From -- ./inp_files/6183.got.cif
#   From: 2010.03.12/outbox.cif.g09.slc.cpg/sg45_4_cif.got.tgz:6183.got - 2010.04.14 02:50:11.
