data_PCOD8191830
_publ_section_title
;
Structure prediction by ZEFSAII (Michael W. Deem and Ramdas Pophale) SiO2 
 PCOD8191830
Probable space group: I M A 2
;
_chemical_formula_sum "Si O2"
_cell_formula_units_Z 64
_cell_length_a 8.979255
_cell_length_b 16.364802
_cell_length_c 22.622524
_cell_angle_alpha 90.000000
_cell_angle_beta 90.000000
_cell_angle_gamma 90.000000
_cell_volume 3324.238063
_symmetry_space_group_name_H-M "I M A 2"
_symmetry_group_IT_number 46
_symmetry_cell_setting 'orthorhombic'
loop_
_space_group_symop_operation_xyz
x,y,z
-x,-y,z
1/2-x,y,z
1/2+x,-y,z
1/2+x,1/2+y,1/2+z
1/2-x,1/2-y,1/2+z
-x,1/2+y,1/2+z
x,1/2-y,1/2+z
loop_
_atom_site_type_symbol
_atom_site_label
_atom_site_fract_x
_atom_site_fract_y
_atom_site_fract_z
Si Si1 0.082471 0.423379 0.329510
Si Si2 0.414161 0.276954 0.412653
Si Si3 0.426504 0.580444 0.995404
Si Si4 0.424637 0.263122 0.041210
Si Si5 0.574391 0.236846 0.157727
Si Si6 0.573209 0.083408 0.238973
Si Si7 0.427155 0.913102 0.708827
Si Si8 0.575428 0.131169 0.366816
O O1 0.250000 0.442703 0.306888
O O2 0.087073 0.364851 0.384830
O O3 0.000000 0.500000 0.357651
O O4 0.984414 0.393276 0.274471
O O5 0.250000 0.235898 0.410203
O O6 0.462030 0.286155 0.481078
O O7 0.524731 0.224415 0.372626
O O8 0.500000 0.500000 0.022259
O O9 0.250000 0.579133 0.001776
O O10 0.491739 0.650856 0.036150
O O11 0.478704 0.586379 0.926673
O O12 0.250000 0.276524 0.051018
O O13 0.492995 0.214246 0.096427
O O14 0.750000 0.232614 0.149036
O O15 0.524373 0.166061 0.204120
O O16 0.525708 0.330131 0.174165
O O17 0.750000 0.073150 0.236312
O O18 0.511640 0.092043 0.306551
O O19 0.500000 0.000000 0.212759
O O20 0.250000 0.923816 0.707363
O O21 0.500000 0.000000 0.686125
O O22 0.750000 0.130881 0.361825
#
# Coordination Sequence:
#
# PCOD8191830 Si02
#       8
#     8   8   8   8   8   8   8   8
#     4  10  19  32  51  77 107 134 166 209 259 315
#     4   9  19  34  52  76 104 134 170 214 260 310
#     4  10  19  32  52  79 110 140 171 208 256 314
#     4  10  21  37  55  74 100 136 179 222 263 310
#     4  10  22  39  56  76 107 145 183 225 270 316
#     4  10  21  37  56  80 109 141 180 224 270 319
#     4  10  20  35  56  82 112 142 174 214 262 319
#     4   9  18  32  53  80 108 138 169 206 258 319
#
# _framework density 19.252531000000001
#
# number of rings (size 3 to 8) (size 9 to 14) (size 15 to 20)
#    0.000    2.250    0.000    3.375    0.000    5.500 
#    0.000    1.875    0.000    3.000    0.000    0.000 
#    0.000    0.000    0.000    0.000    0.000    0.000 
#
# Total GULP energy -396544.440748 kJ/mol
# GULP energy per Si atom -12392.013773 kJ/mol
# Density = 1.920871 g / cm^3
# Si number density = 19.252531 Si / 1000 Ang^3
#
#
#
# Elastic Constant Matrix: (Units=GPa)
#
#
# Indices 1 2 3 4 5 6 
#
# 1 41.2152 29.1364 25.9645 0.0000 0.0000 0.0000
# 2 29.1364 93.7779 42.5431 0.0000 0.0000 0.0000
# 3 25.9645 42.5431 85.1015 0.0000 0.0000 0.0000
# 4 0.0000 0.0000 0.0000 126.7486 0.0000 0.0000
# 5 0.0000 0.0000 0.0000 0.0000 25.4074 0.0000
# 6 0.0000 0.0000 0.0000 0.0000 0.0000 31.1243
#
#
#
# Elastic Compliance Matrix: (Units=1/GPa)
#
#
# Indices 1 2 3 4 5 6 
#
# 1 0.033677 -0.007504 -0.006524 0.000000 0.000000 0.000000
# 2 -0.007504 0.015463 -0.005441 0.000000 0.000000 0.000000
# 3 -0.006524 -0.005441 0.016461 0.000000 0.000000 0.000000
# 4 0.000000 0.000000 0.000000 0.007890 0.000000 0.000000
# 5 0.000000 0.000000 0.000000 0.000000 0.039359 0.000000
# 6 0.000000 0.000000 0.000000 0.000000 0.000000 0.032129
#
#
# Mechanical properties :
#
#
# Convention : Reuss Voigt Hill
#
# Bulk Modulus (GPa) = 37.50260 46.15362 41.82811
# Shear Modulus (GPa) = 25.93306 44.81943 35.37624
#
# Velocity S-wave (km/s) = 3.67412 4.83014 4.29124
# Velocity P-wave (km/s) = 6.12540 7.42508 6.80633
#
# Compressibility (1/GPa) = 0.02666482
#
# Stress axis : x y z
#
# Youngs Moduli (GPa) = 29.69348 64.66982 60.74983
#
# Poissons Ratio (x) = 0.48528 0.39631
# Poissons Ratio (y) = 0.22282 0.33053
# Poissons Ratio (z) = 0.19371 0.35185
#
# Static dielectric constant tensor:
#      x y z
#    x 3.583620 0.000000 0.000000 
#    y 0.000000 2.890980 0.000000 
#    z 0.000000 0.000000 3.565370 
# 
# 
# High freq. dielectric constant tensor:
#      x y z
#    x 1.751540 0.000000 0.000000 
#    y 0.000000 1.741060 0.000000 
#    z 0.000000 0.000000 1.744870 
# 
# From -- ./inp_files/21349.got.cif
#   From: 2010.03.12/outbox.cif.g09.slc.cpg/sg46_11_cif.got.tgz:21349.got - 2010.04.14 02:56:35.
