data_PCOD8191780
_publ_section_title
;
Structure prediction by ZEFSAII (Michael W. Deem and Ramdas Pophale) SiO2 
 PCOD8191780
Probable space group: I M A 2
;
_chemical_formula_sum "Si O2"
_cell_formula_units_Z 64
_cell_length_a 8.805534
_cell_length_b 14.850107
_cell_length_c 27.676487
_cell_angle_alpha 90.000000
_cell_angle_beta 90.000000
_cell_angle_gamma 90.000000
_cell_volume 3619.063849
_symmetry_space_group_name_H-M "I M A 2"
_symmetry_group_IT_number 46
_symmetry_cell_setting 'orthorhombic'
loop_
_space_group_symop_operation_xyz
x,y,z
-x,-y,z
1/2-x,y,z
1/2+x,-y,z
1/2+x,1/2+y,1/2+z
1/2-x,1/2-y,1/2+z
-x,1/2+y,1/2+z
x,1/2-y,1/2+z
loop_
_atom_site_type_symbol
_atom_site_label
_atom_site_fract_x
_atom_site_fract_y
_atom_site_fract_z
Si Si1 0.071969 0.716344 0.531780
Si Si2 0.570127 0.408002 0.892657
Si Si3 0.927961 0.092841 0.118578
Si Si4 0.930213 0.094402 0.227161
Si Si5 0.070478 0.778160 0.310446
Si Si6 0.930218 0.907164 0.953562
Si Si7 0.569604 0.092053 0.849175
Si Si8 0.573090 0.409366 0.001675
O O1 0.250000 0.701614 0.520456
O O2 0.023993 0.673557 0.583005
O O3 0.032323 0.822588 0.534269
O O4 0.974577 0.672928 0.489180
O O5 0.500000 0.500000 0.872405
O O6 0.750000 0.415026 0.890410
O O7 0.508770 0.328303 0.858366
O O8 0.512899 0.390385 0.947297
O O9 0.750000 0.077859 0.118063
O O10 0.984517 0.117041 0.172610
O O11 0.000000 0.000000 0.099902
O O12 0.750000 0.086122 0.230308
O O13 0.992671 0.174048 0.261921
O O14 0.000000 0.000000 0.244541
O O15 0.250000 0.785522 0.310029
O O16 0.022284 0.673295 0.313137
O O17 0.750000 0.915993 0.949455
O O18 0.000559 0.886759 0.901406
O O19 0.000000 0.000000 0.974280
O O20 0.750000 0.082774 0.854350
O O21 0.500000 0.000000 0.827620
O O22 0.500000 0.500000 0.023770
O O23 0.750000 0.427310 0.000632
#
# Coordination Sequence:
#
# PCOD8191780 Si02
#       8
#     8   8   8   8   8   8   8   8
#     4  10  19  32  49  69  93 126 162 197 236 282
#     4   9  16  27  42  63  88 116 145 177 217 265
#     4   9  18  31  49  71  96 122 152 189 233 281
#     4   9  17  31  49  72  97 122 151 187 231 281
#     4   9  17  29  48  68  90 121 154 184 224 274
#     4  11  21  32  47  70  98 127 157 194 235 282
#     4  10  19  33  49  66  91 125 160 196 233 273
#     4   9  18  31  46  63  89 121 155 192 230 270
#
# _framework density 17.684131000000001
#
# number of rings (size 3 to 8) (size 9 to 14) (size 15 to 20)
#    0.000    2.500    0.000    3.750    0.000    4.000 
#    0.000    5.000    0.000    0.750    0.000    0.000 
#    0.000    0.000    0.000    0.000    0.000    0.000 
#
# Total GULP energy -396715.515900 kJ/mol
# GULP energy per Si atom -12397.359872 kJ/mol
# Density = 1.764388 g / cm^3
# Si number density = 17.684131 Si / 1000 Ang^3
#
#
#
# Elastic Constant Matrix: (Units=GPa)
#
#
# Indices 1 2 3 4 5 6 
#
# 1 48.5471 37.8695 24.1349 0.0000 0.0000 0.0000
# 2 37.8695 166.2494 79.6528 0.0000 0.0000 0.0000
# 3 24.1349 79.6528 86.3968 0.0000 0.0000 0.0000
# 4 0.0000 0.0000 0.0000 30.0701 0.0000 0.0000
# 5 0.0000 0.0000 0.0000 0.0000 14.1945 0.0000
# 6 0.0000 0.0000 0.0000 0.0000 0.0000 28.2431
#
#
#
# Elastic Compliance Matrix: (Units=1/GPa)
#
#
# Indices 1 2 3 4 5 6 
#
# 1 0.025525 -0.004295 -0.003170 0.000000 0.000000 0.000000
# 2 -0.004295 0.011497 -0.009400 0.000000 0.000000 0.000000
# 3 -0.003170 -0.009400 0.021126 0.000000 0.000000 0.000000
# 4 0.000000 0.000000 0.000000 0.033256 0.000000 0.000000
# 5 0.000000 0.000000 0.000000 0.000000 0.070450 0.000000
# 6 0.000000 0.000000 0.000000 0.000000 0.000000 0.035407
#
#
# Mechanical properties :
#
#
# Convention : Reuss Voigt Hill
#
# Bulk Modulus (GPa) = 40.95414 64.94531 52.94973
# Shear Modulus (GPa) = 20.90907 25.13730 23.02318
#
# Velocity S-wave (km/s) = 3.44228 3.77432 3.61212
# Velocity P-wave (km/s) = 6.24564 7.46986 6.88502
#
# Compressibility (1/GPa) = 0.02441755
#
# Stress axis : x y z
#
# Youngs Moduli (GPa) = 39.17678 86.97899 47.33469
#
# Poissons Ratio (x) = 0.37360 0.15007
# Poissons Ratio (y) = 0.16828 0.44493
# Poissons Ratio (z) = 0.12421 0.81758
#
# Static dielectric constant tensor:
#      x y z
#    x 3.126780 0.000000 0.000000 
#    y 0.000000 3.562700 0.000000 
#    z 0.000000 0.000000 3.361010 
# 
# 
# High freq. dielectric constant tensor:
#      x y z
#    x 1.669580 0.000000 0.000000 
#    y 0.000000 1.686890 0.000000 
#    z 0.000000 0.000000 1.661480 
# 
# From -- ./inp_files/25319.got.cif
#   From: 2010.03.12/outbox.cif.g09.slc.cpg/sg46_13_cif.got.tgz:25319.got - 2010.04.14 02:56:35.
