data_PCOD8191356
_publ_section_title
;
Structure prediction by ZEFSAII (Michael W. Deem and Ramdas Pophale) SiO2 
 PCOD8191356
Probable space group: I M A 2
;
_chemical_formula_sum "Si O2"
_cell_formula_units_Z 48
_cell_length_a 8.770047
_cell_length_b 23.849172
_cell_length_c 13.875689
_cell_angle_alpha 90.000000
_cell_angle_beta 90.000000
_cell_angle_gamma 90.000000
_cell_volume 2902.216346
_symmetry_space_group_name_H-M "I M A 2"
_symmetry_group_IT_number 46
_symmetry_cell_setting 'orthorhombic'
loop_
_space_group_symop_operation_xyz
x,y,z
-x,-y,z
1/2-x,y,z
1/2+x,-y,z
1/2+x,1/2+y,1/2+z
1/2-x,1/2-y,1/2+z
-x,1/2+y,1/2+z
x,1/2-y,1/2+z
loop_
_atom_site_type_symbol
_atom_site_label
_atom_site_fract_x
_atom_site_fract_y
_atom_site_fract_z
Si Si1 0.072459 0.169062 0.611770
Si Si2 0.069461 0.721742 0.934884
Si Si3 0.570193 0.333652 0.535422
Si Si4 0.568232 0.058345 0.928277
Si Si5 0.930293 0.270967 0.719300
Si Si6 0.429047 0.057265 0.721400
O O1 0.250000 0.181565 0.608040
O O2 0.036556 0.106120 0.645459
O O3 0.004172 0.175408 0.504591
O O4 0.999953 0.211853 0.687927
O O5 0.250000 0.716400 0.944456
O O6 0.013181 0.711696 0.825597
O O7 0.011961 0.783280 0.967227
O O8 0.750000 0.336663 0.527818
O O9 0.504343 0.392939 0.499121
O O10 0.519513 0.320314 0.645386
O O11 0.750000 0.054938 0.927445
O O12 0.509850 0.072195 0.821716
O O13 0.500000 0.000000 0.966814
O O14 0.750000 0.262252 0.717810
O O15 0.250000 0.049322 0.740317
O O16 0.500000 0.000000 0.678717
#
# Coordination Sequence:
#
# PCOD8191356 Si02
#       6
#     8   8   8   8   8   8
#     4  10  20  31  45  69  98 122 146 185 234 277
#     4   9  17  30  49  69  89 118 154 189 224 268
#     4   8  15  27  44  67  91 115 146 184 223 263
#     4  10  18  29  46  67  92 120 150 186 226 267
#     4   9  17  31  50  70  91 120 159 191 219 265
#     4  10  20  32  46  66  91 119 151 185 224 270
#
# _framework density 16.539083999999999
#
# number of rings (size 3 to 8) (size 9 to 14) (size 15 to 20)
#    0.000    2.667    0.000    4.500    0.000    4.667 
#    0.000    8.333    0.000    1.000    0.000    4.667 
#    0.000    0.000    0.000    0.000    0.000    0.000 
#
# Total GULP energy -297523.275782 kJ/mol
# GULP energy per Si atom -12396.803158 kJ/mol
# Density = 1.650144 g / cm^3
# Si number density = 16.539084 Si / 1000 Ang^3
#
#
#
# Elastic Constant Matrix: (Units=GPa)
#
#
# Indices 1 2 3 4 5 6 
#
# 1 55.5972 39.6734 38.9327 0.0000 0.0000 0.0000
# 2 39.6734 128.3495 81.5980 0.0001 0.0000 0.0000
# 3 38.9327 81.5980 145.3033 0.0003 -0.0001 0.0000
# 4 0.0000 0.0001 0.0003 27.0577 0.0000 0.0000
# 5 0.0000 0.0000 -0.0001 0.0000 18.7110 0.0000
# 6 0.0000 0.0000 0.0000 0.0000 0.0000 23.8318
#
#
#
# Elastic Compliance Matrix: (Units=1/GPa)
#
#
# Indices 1 2 3 4 5 6 
#
# 1 0.024200 -0.005223 -0.003551 0.000000 0.000000 0.000000
# 2 -0.005223 0.013244 -0.006038 0.000000 0.000000 0.000000
# 3 -0.003551 -0.006038 0.011225 0.000000 0.000000 0.000000
# 4 0.000000 0.000000 0.000000 0.036958 0.000000 0.000000
# 5 0.000000 0.000000 0.000000 0.000000 0.053445 0.000000
# 6 0.000000 0.000000 0.000000 0.000000 0.000000 0.041961
#
#
# Mechanical properties :
#
#
# Convention : Reuss Voigt Hill
#
# Bulk Modulus (GPa) = 52.50813 72.18425 62.34619
# Shear Modulus (GPa) = 23.04091 25.18984 24.11538
#
# Velocity S-wave (km/s) = 3.73650 3.90686 3.82263
# Velocity P-wave (km/s) = 7.10155 8.00567 7.56713
#
# Compressibility (1/GPa) = 0.01904467
#
# Stress axis : x y z
#
# Youngs Moduli (GPa) = 41.32203 75.50356 89.08970
#
# Poissons Ratio (x) = 0.39433 0.31639
# Poissons Ratio (y) = 0.21581 0.53795
# Poissons Ratio (z) = 0.14675 0.45591
#
# Static dielectric constant tensor:
#      x y z
#    x 3.026310 0.000000 0.000000 
#    y 0.000000 3.311430 0.000000 
#    z 0.000000 0.000000 3.258300 
# 
# 
# High freq. dielectric constant tensor:
#      x y z
#    x 1.630640 0.000000 0.000000 
#    y 0.000000 1.628580 0.000000 
#    z 0.000000 0.000000 1.629820 
# 
# From -- ./inp_files/14020.got.cif
#   From: 2010.03.12/outbox.cif.g09.slc.cpg/sg46_8_cif.got.tgz:14020.got - 2010.04.14 02:56:35.
