data_PCOD8191358
_publ_section_title
;
Structure prediction by ZEFSAII (Michael W. Deem and Ramdas Pophale) SiO2 
 PCOD8191358
Probable space group: I M A 2
;
_chemical_formula_sum "Si O2"
_cell_formula_units_Z 56
_cell_length_a 8.783088
_cell_length_b 18.445110
_cell_length_c 20.636715
_cell_angle_alpha 90.000000
_cell_angle_beta 90.000000
_cell_angle_gamma 90.000000
_cell_volume 3343.251515
_symmetry_space_group_name_H-M "I M A 2"
_symmetry_group_IT_number 46
_symmetry_cell_setting 'orthorhombic'
loop_
_space_group_symop_operation_xyz
x,y,z
-x,-y,z
1/2-x,y,z
1/2+x,-y,z
1/2+x,1/2+y,1/2+z
1/2-x,1/2-y,1/2+z
-x,1/2+y,1/2+z
x,1/2-y,1/2+z
loop_
_atom_site_type_symbol
_atom_site_label
_atom_site_fract_x
_atom_site_fract_y
_atom_site_fract_z
Si Si1 0.574439 0.787223 0.445560
Si Si2 0.072829 0.708934 0.328445
Si Si3 0.076957 0.150077 0.019602
Si Si4 0.931339 0.077795 0.402478
Si Si5 0.928026 0.577447 0.384214
Si Si6 0.570944 0.422258 0.637795
Si Si7 0.069893 0.648233 0.768285
O O1 0.750000 0.788890 0.421004
O O2 0.462242 0.750801 0.394321
O O3 0.564820 0.737213 0.509778
O O4 0.507733 0.868079 0.455797
O O5 0.250000 0.690406 0.324327
O O6 0.023004 0.766156 0.272007
O O7 0.982370 0.632961 0.327662
O O8 0.250000 0.127850 0.036713
O O9 0.966560 0.129518 0.077838
O O10 0.024126 0.107782 0.954678
O O11 0.750000 0.077240 0.409814
O O12 0.987066 0.103346 0.330994
O O13 0.000000 0.000000 0.417377
O O14 0.750000 0.569736 0.378457
O O15 0.000000 0.500000 0.371345
O O16 0.500000 0.500000 0.624815
O O17 0.750000 0.430891 0.643891
O O18 0.500525 0.387355 0.703384
O O19 0.250000 0.643236 0.766582
#
# Coordination Sequence:
#
# PCOD8191358 Si02
#       7
#     8   8   8   8   8   8   8
#     4   9  17  30  46  64  88 116 149 187 226 269
#     4   9  16  29  47  65  88 116 148 185 226 270
#     4   9  19  33  46  63  89 120 153 187 221 261
#     4  10  18  29  46  68  94 120 149 184 226 270
#     4  10  19  30  45  67  93 119 149 185 227 270
#     4  11  21  32  46  65  91 122 156 187 217 256
#     4   8  17  31  45  64  90 121 153 185 219 260
#
# _framework density 16.750160999999999
#
# number of rings (size 3 to 8) (size 9 to 14) (size 15 to 20)
#    0.000    2.571    0.000    4.714    0.000    4.571 
#    0.000    7.857    0.000    0.000    0.000    1.000 
#    0.000    6.857    0.000    0.000    0.000    0.000 
#
# Total GULP energy -347011.781748 kJ/mol
# GULP energy per Si atom -12393.277920 kJ/mol
# Density = 1.671204 g / cm^3
# Si number density = 16.750161 Si / 1000 Ang^3
#
#
#
# Elastic Constant Matrix: (Units=GPa)
#
#
# Indices 1 2 3 4 5 6 
#
# 1 57.1637 40.0545 23.0384 0.0000 0.0000 0.0000
# 2 40.0545 149.5799 40.3047 0.0000 0.0000 0.0000
# 3 23.0384 40.3047 49.3476 0.0000 0.0000 0.0000
# 4 0.0000 0.0000 0.0000 22.9245 0.0000 0.0000
# 5 0.0000 0.0000 0.0000 0.0000 15.9747 0.0000
# 6 0.0000 0.0000 0.0000 0.0000 0.0000 30.3645
#
#
#
# Elastic Compliance Matrix: (Units=1/GPa)
#
#
# Indices 1 2 3 4 5 6 
#
# 1 0.023506 -0.004279 -0.007479 0.000000 0.000000 0.000000
# 2 -0.004279 0.009351 -0.005640 0.000000 0.000000 0.000000
# 3 -0.007479 -0.005640 0.028362 0.000000 0.000000 0.000000
# 4 0.000000 0.000000 0.000000 0.043621 0.000000 0.000000
# 5 0.000000 0.000000 0.000000 0.000000 0.062599 0.000000
# 6 0.000000 0.000000 0.000000 0.000000 0.000000 0.032933
#
#
# Mechanical properties :
#
#
# Convention : Reuss Voigt Hill
#
# Bulk Modulus (GPa) = 37.84483 51.43182 44.63832
# Shear Modulus (GPa) = 20.49377 24.03231 22.26304
#
# Velocity S-wave (km/s) = 3.50165 3.79192 3.64967
# Velocity P-wave (km/s) = 6.24431 7.06707 6.66839
#
# Compressibility (1/GPa) = 0.02642369
#
# Stress axis : x y z
#
# Youngs Moduli (GPa) = 42.54178 106.94181 35.25823
#
# Poissons Ratio (x) = 0.45763 0.26370
# Poissons Ratio (y) = 0.18205 0.19884
# Poissons Ratio (z) = 0.31817 0.60310
#
# Static dielectric constant tensor:
#      x y z
#    x 3.136970 0.000000 0.000000 
#    y 0.000000 3.518910 0.000000 
#    z 0.000000 0.000000 2.990130 
# 
# 
# High freq. dielectric constant tensor:
#      x y z
#    x 1.649350 0.000000 0.000000 
#    y 0.000000 1.656980 0.000000 
#    z 0.000000 0.000000 1.594150 
# 
# From -- ./inp_files/21220.got.cif
#   From: 2010.03.12/outbox.cif.g09.slc.cpg/sg46_11_cif.got.tgz:21220.got - 2010.04.14 02:56:35.
