data_PCOD8191644
_publ_section_title
;
Structure prediction by ZEFSAII (Michael W. Deem and Ramdas Pophale) SiO2 
 PCOD8191644
Probable space group: I M A 2
;
_chemical_formula_sum "Si O2"
_cell_formula_units_Z 64
_cell_length_a 9.260415
_cell_length_b 20.111828
_cell_length_c 22.470130
_cell_angle_alpha 90.000000
_cell_angle_beta 90.000000
_cell_angle_gamma 90.000000
_cell_volume 4184.924053
_symmetry_space_group_name_H-M "I M A 2"
_symmetry_group_IT_number 46
_symmetry_cell_setting 'orthorhombic'
loop_
_space_group_symop_operation_xyz
x,y,z
-x,-y,z
1/2-x,y,z
1/2+x,-y,z
1/2+x,1/2+y,1/2+z
1/2-x,1/2-y,1/2+z
-x,1/2+y,1/2+z
x,1/2-y,1/2+z
loop_
_atom_site_type_symbol
_atom_site_label
_atom_site_fract_x
_atom_site_fract_y
_atom_site_fract_z
Si Si1 0.912756 0.356153 0.580940
Si Si2 0.579913 0.566447 0.675941
Si Si3 0.088502 0.281630 0.491457
Si Si4 0.079315 0.432020 0.970513
Si Si5 0.088931 0.729210 0.165282
Si Si6 0.590015 0.844394 0.577257
Si Si7 0.578306 0.687995 0.891128
Si Si8 0.918571 0.692083 0.756899
O O1 0.750000 0.383291 0.571341
O O2 0.909710 0.290724 0.620696
O O3 0.010563 0.411511 0.613128
O O4 0.983054 0.338838 0.516821
O O5 0.500000 0.500000 0.698010
O O6 0.750000 0.553987 0.666944
O O7 0.549953 0.621281 0.726432
O O8 0.250000 0.311527 0.484339
O O9 0.095154 0.220614 0.536670
O O10 0.028254 0.253472 0.428298
O O11 0.250000 0.442176 0.964672
O O12 0.020658 0.379165 0.922075
O O13 0.000000 0.500000 0.956864
O O14 0.038788 0.406315 0.036791
O O15 0.250000 0.709176 0.184455
O O16 0.017326 0.665749 0.132742
O O17 0.999376 0.748159 0.223755
O O18 0.750000 0.857716 0.602938
O O19 0.750000 0.685810 0.892760
O O20 0.520003 0.690617 0.823925
O O21 0.750000 0.708711 0.754935
#
# Coordination Sequence:
#
# PCOD8191644 Si02
#       8
#     8   8   8   8   8   8   8   8
#     4   9  16  26  40  58  79 100 126 164 209 250
#     4  10  19  29  41  57  79 109 143 174 203 236
#     4   8  13  24  42  59  75  98 130 166 202 239
#     4   9  17  28  41  58  81 109 141 173 202 235
#     4   9  16  25  39  59  79  98 126 168 211 244
#     4   8  14  25  40  56  75 101 131 163 202 246
#     4   8  15  28  43  58  79 110 144 171 196 235
#     4   9  17  29  43  57  78 111 144 169 198 239
#
# _framework density 15.292989
#
# number of rings (size 3 to 8) (size 9 to 14) (size 15 to 20)
#    0.000    3.250    0.000    2.625    0.000    4.500 
#    0.000    3.125    0.000    0.000    0.000    0.000 
#    0.000    1.000    0.000    6.500    0.000    5.375 
#
# Total GULP energy -396627.053985 kJ/mol
# GULP energy per Si atom -12394.595437 kJ/mol
# Density = 1.525818 g / cm^3
# Si number density = 15.292989 Si / 1000 Ang^3
#
#
#
# Elastic Constant Matrix: (Units=GPa)
#
#
# Indices 1 2 3 4 5 6 
#
# 1 77.1437 23.1881 51.0688 0.0000 0.0000 0.0000
# 2 23.1881 22.6787 46.3508 0.0000 0.0000 0.0000
# 3 51.0688 46.3508 110.4692 0.0000 0.0000 0.0000
# 4 0.0000 0.0000 0.0000 15.6491 0.0000 0.0000
# 5 0.0000 0.0000 0.0000 0.0000 13.7361 0.0000
# 6 0.0000 0.0000 0.0000 0.0000 0.0000 22.7922
#
#
#
# Elastic Compliance Matrix: (Units=1/GPa)
#
#
# Indices 1 2 3 4 5 6 
#
# 1 0.019020 -0.010365 -0.004444 0.000000 0.000000 0.000000
# 2 -0.010365 0.315173 -0.127449 0.000000 0.000000 0.000000
# 3 -0.004444 -0.127449 0.064582 0.000000 0.000000 0.000000
# 4 0.000000 0.000000 0.000000 0.063901 0.000000 0.000000
# 5 0.000000 0.000000 0.000000 0.000000 0.072801 0.000000
# 6 0.000000 0.000000 0.000000 0.000000 0.000000 0.043875
#
#
# Mechanical properties :
#
#
# Convention : Reuss Voigt Hill
#
# Bulk Modulus (GPa) = 8.75201 50.16745 29.45973
# Shear Modulus (GPa) = 5.54351 16.41442 10.97897
#
# Velocity S-wave (km/s) = 1.90598 3.27973 2.68229
# Velocity P-wave (km/s) = 3.25253 6.87150 5.37571
#
# Compressibility (1/GPa) = 0.11425951
#
# Stress axis : x y z
#
# Youngs Moduli (GPa) = 52.57574 3.17286 15.48419
#
# Poissons Ratio (x) = 0.03289 0.06881
# Poissons Ratio (y) = 0.54493 1.97345
# Poissons Ratio (z) = 0.23365 0.40438
#
# Static dielectric constant tensor:
#      x y z
#    x 2.997000 0.000000 0.000000 
#    y 0.000000 2.694330 0.000000 
#    z 0.000000 0.000000 3.039210 
# 
# 
# High freq. dielectric constant tensor:
#      x y z
#    x 1.583560 0.000000 0.000000 
#    y 0.000000 1.547360 0.000000 
#    z 0.000000 0.000000 1.568560 
# 
# From -- ./inp_files/21424.got.cif
#   From: 2010.03.12/outbox.cif.g09.slc.cpg/sg46_11_cif.got.tgz:21424.got - 2010.04.14 02:56:35.
