data_PCOD8191636
_publ_section_title
;
Structure prediction by ZEFSAII (Michael W. Deem and Ramdas Pophale) SiO2 
 PCOD8191636
Probable space group: I M A 2
;
_chemical_formula_sum "Si O2"
_cell_formula_units_Z 64
_cell_length_a 9.197543
_cell_length_b 18.254371
_cell_length_c 26.087564
_cell_angle_alpha 90.000000
_cell_angle_beta 90.000000
_cell_angle_gamma 90.000000
_cell_volume 4379.981007
_symmetry_space_group_name_H-M "I M A 2"
_symmetry_group_IT_number 46
_symmetry_cell_setting 'orthorhombic'
loop_
_space_group_symop_operation_xyz
x,y,z
-x,-y,z
1/2-x,y,z
1/2+x,-y,z
1/2+x,1/2+y,1/2+z
1/2-x,1/2-y,1/2+z
-x,1/2+y,1/2+z
x,1/2-y,1/2+z
loop_
_atom_site_type_symbol
_atom_site_label
_atom_site_fract_x
_atom_site_fract_y
_atom_site_fract_z
Si Si1 0.589357 0.786312 0.485770
Si Si2 0.581092 0.926391 0.234935
Si Si3 0.917265 0.168411 0.037420
Si Si4 0.082425 0.924011 0.935027
Si Si5 0.420855 0.075257 0.117903
Si Si6 0.577623 0.665518 0.829121
Si Si7 0.920918 0.924920 0.425189
Si Si8 0.912087 0.694917 0.382137
O O1 0.750000 0.785079 0.511285
O O2 0.473026 0.750098 0.524192
O O3 0.543335 0.869210 0.471909
O O4 0.596137 0.740791 0.433844
O O5 0.750000 0.942584 0.242795
O O6 0.546766 0.903437 0.176761
O O7 0.528744 0.861264 0.272696
O O8 0.500000 0.000000 0.250779
O O9 0.750000 0.172921 0.054251
O O10 0.013789 0.140015 0.084246
O O11 0.939296 0.114968 0.989421
O O12 0.250000 0.938380 0.922716
O O13 0.017380 0.874571 0.889095
O O14 0.000000 0.000000 0.937422
O O15 0.250000 0.065956 0.106942
O O16 0.500000 0.000000 0.102983
O O17 0.750000 0.668381 0.835341
O O18 0.517723 0.608816 0.871831
O O19 0.522766 0.749163 0.838987
O O20 0.750000 0.939493 0.421140
O O21 0.000000 0.000000 0.437920
O O22 0.750000 0.666732 0.367588
#
# Coordination Sequence:
#
# PCOD8191636 Si02
#       8
#     8   8   8   8   8   8   8   8
#     4   8  15  27  40  55  77 104 132 161 195 234
#     4   9  17  28  41  58  80 106 136 167 196 227
#     4  10  19  29  42  58  76 102 135 168 201 236
#     4  10  19  28  39  57  79 102 130 162 195 233
#     4  10  19  29  41  57  79 106 135 168 200 230
#     4   8  14  26  42  58  78 106 137 163 192 230
#     4   9  16  25  39  59  82 108 135 163 194 229
#     4   8  14  26  42  56  74 102 131 160 193 229
#
# _framework density 14.611936999999999
#
# number of rings (size 3 to 8) (size 9 to 14) (size 15 to 20)
#    0.000    3.000    0.000    3.375    0.000    3.500 
#    0.000    2.500    0.000    0.000    0.000    0.000 
#    0.000    1.000    0.000    6.250    0.000    3.875 
#
# Total GULP energy -396651.104535 kJ/mol
# GULP energy per Si atom -12395.347017 kJ/mol
# Density = 1.457868 g / cm^3
# Si number density = 14.611937 Si / 1000 Ang^3
#
#
#
# Elastic Constant Matrix: (Units=GPa)
#
#
# Indices 1 2 3 4 5 6 
#
# 1 74.5586 48.4260 34.0505 0.0000 0.0000 0.0000
# 2 48.4260 86.7135 35.7564 0.0000 0.0000 0.0000
# 3 34.0505 35.7564 59.8302 0.0000 0.0000 0.0000
# 4 0.0000 0.0000 0.0000 24.1703 0.0000 0.0000
# 5 0.0000 0.0000 0.0000 0.0000 13.7965 0.0000
# 6 0.0000 0.0000 0.0000 0.0000 0.0000 25.9595
#
#
#
# Elastic Compliance Matrix: (Units=1/GPa)
#
#
# Indices 1 2 3 4 5 6 
#
# 1 0.023193 -0.009965 -0.007244 0.000000 0.000000 0.000000
# 2 -0.009965 0.019585 -0.006033 0.000000 0.000000 0.000000
# 3 -0.007244 -0.006033 0.024442 0.000000 0.000000 0.000000
# 4 0.000000 0.000000 0.000000 0.041373 0.000000 0.000000
# 5 0.000000 0.000000 0.000000 0.000000 0.072482 0.000000
# 6 0.000000 0.000000 0.000000 0.000000 0.000000 0.038521
#
#
# Mechanical properties :
#
#
# Convention : Reuss Voigt Hill
#
# Bulk Modulus (GPa) = 48.22672 50.84091 49.53381
# Shear Modulus (GPa) = 18.31534 19.64320 18.97927
#
# Velocity S-wave (km/s) = 3.54425 3.67048 3.60792
# Velocity P-wave (km/s) = 7.05873 7.26862 7.16444
#
# Compressibility (1/GPa) = 0.02073539
#
# Stress axis : x y z
#
# Youngs Moduli (GPa) = 43.11624 51.05859 40.91248
#
# Poissons Ratio (x) = 0.50882 0.29637
# Poissons Ratio (y) = 0.42967 0.24684
# Poissons Ratio (z) = 0.31234 0.30805
#
# Static dielectric constant tensor:
#      x y z
#    x 2.862790 0.000000 0.000000 
#    y 0.000000 2.921710 0.000000 
#    z 0.000000 0.000000 2.754320 
# 
# 
# High freq. dielectric constant tensor:
#      x y z
#    x 1.557480 0.000000 0.000000 
#    y 0.000000 1.548030 0.000000 
#    z 0.000000 0.000000 1.525550 
# 
# From -- ./inp_files/23293.got.cif
#   From: 2010.03.12/outbox.cif.g09.slc.cpg/sg46_12_cif.got.tgz:23293.got - 2010.04.14 02:56:35.
