data_PCOD8191136
_publ_section_title
;
Structure prediction by ZEFSAII (Michael W. Deem and Ramdas Pophale) SiO2 
 PCOD8191136
Probable space group: I M A 2
;
_chemical_formula_sum "Si O2"
_cell_formula_units_Z 40
_cell_length_a 8.629440
_cell_length_b 9.604167
_cell_length_c 26.308651
_cell_angle_alpha 90.000000
_cell_angle_beta 90.000000
_cell_angle_gamma 90.000000
_cell_volume 2180.423712
_symmetry_space_group_name_H-M "I M A 2"
_symmetry_group_IT_number 46
_symmetry_cell_setting 'orthorhombic'
loop_
_space_group_symop_operation_xyz
x,y,z
-x,-y,z
1/2-x,y,z
1/2+x,-y,z
1/2+x,1/2+y,1/2+z
1/2-x,1/2-y,1/2+z
-x,1/2+y,1/2+z
x,1/2-y,1/2+z
loop_
_atom_site_type_symbol
_atom_site_label
_atom_site_fract_x
_atom_site_fract_y
_atom_site_fract_z
Si Si1 0.428335 0.650570 0.461960
Si Si2 0.932416 0.847148 0.658381
Si Si3 0.069774 0.653436 0.574294
Si Si4 0.433475 0.845012 0.761311
Si Si5 0.932521 0.655498 0.362675
O O1 0.500000 0.500000 0.468432
O O2 0.250000 0.637646 0.446412
O O3 0.448738 0.720217 0.517513
O O4 0.515667 0.731757 0.415511
O O5 0.750000 0.859149 0.664624
O O6 0.974520 0.752506 0.610971
O O7 0.002928 0.775377 0.709519
O O8 0.000000 0.000000 0.649240
O O9 0.250000 0.648045 0.589806
O O10 0.000000 0.500000 0.578199
O O11 0.250000 0.845019 0.761117
O O12 0.495835 0.768672 0.812600
O O13 0.500000 0.000000 0.762140
O O14 0.750000 0.653825 0.357274
O O15 0.000000 0.500000 0.366158
#
# Coordination Sequence:
#
# PCOD8191136 Si02
#       5
#     8   8   8   8   8
#     4   9  16  26  41  62  90 121 154 192 235 282
#     4  11  21  34  51  72  99 130 165 204 246 291
#     4  10  20  34  51  73 100 131 166 203 244 289
#     4  10  17  27  42  62  90 121 155 194 239 287
#     4  10  16  23  37  59  88 119 152 189 235 285
#
# _framework density 18.345058000000002
#
# number of rings (size 3 to 8) (size 9 to 14) (size 15 to 20)
#    0.000    2.000    0.000   10.200    0.000    2.400 
#    0.000    0.000    0.000    0.000    0.000    1.400 
#    0.000    6.400    0.000    0.000    0.000    0.000 
#
# Total GULP energy -247810.107664 kJ/mol
# GULP energy per Si atom -12390.505383 kJ/mol
# Density = 1.830330 g / cm^3
# Si number density = 18.345058 Si / 1000 Ang^3
#
#
#
# Elastic Constant Matrix: (Units=GPa)
#
#
# Indices 1 2 3 4 5 6 
#
# 1 184.6474 19.6447 74.1363 0.0000 0.0000 0.0000
# 2 19.6447 27.7694 31.9218 0.0000 0.0000 0.0000
# 3 74.1363 31.9218 173.5965 0.0000 0.0000 0.0000
# 4 0.0000 0.0000 0.0000 29.1238 0.0000 0.0000
# 5 0.0000 0.0000 0.0000 0.0000 48.4033 0.0000
# 6 0.0000 0.0000 0.0000 0.0000 0.0000 16.7768
#
#
#
# Elastic Compliance Matrix: (Units=1/GPa)
#
#
# Indices 1 2 3 4 5 6 
#
# 1 0.006608 -0.001814 -0.002488 0.000000 0.000000 0.000000
# 2 -0.001814 0.046161 -0.007714 0.000000 0.000000 0.000000
# 3 -0.002488 -0.007714 0.008242 0.000000 0.000000 0.000000
# 4 0.000000 0.000000 0.000000 0.034336 0.000000 0.000000
# 5 0.000000 0.000000 0.000000 0.000000 0.020660 0.000000
# 6 0.000000 0.000000 0.000000 0.000000 0.000000 0.059606
#
#
# Mechanical properties :
#
#
# Convention : Reuss Voigt Hill
#
# Bulk Modulus (GPa) = 27.04269 70.82434 48.93352
# Shear Modulus (GPa) = 23.58813 36.21481 29.90147
#
# Velocity S-wave (km/s) = 3.58970 4.44789 4.04164
# Velocity P-wave (km/s) = 5.65282 8.06653 6.96503
#
# Compressibility (1/GPa) = 0.03697857
#
# Stress axis : x y z
#
# Youngs Moduli (GPa) = 151.33615 21.66314 121.33572
#
# Poissons Ratio (x) = 0.03930 0.30193
# Poissons Ratio (y) = 0.27453 0.93594
# Poissons Ratio (z) = 0.37658 0.16710
#
# Static dielectric constant tensor:
#      x y z
#    x 3.498340 0.000000 0.000000 
#    y 0.000000 2.614010 0.000000 
#    z 0.000000 0.000000 5.111600 
# 
# 
# High freq. dielectric constant tensor:
#      x y z
#    x 1.737530 0.000000 0.000000 
#    y 0.000000 1.611650 0.000000 
#    z 0.000000 0.000000 1.752770 
# 
# From -- ./inp_files/20834.got.cif
#   From: 2010.03.12/outbox.cif.g09.slc.cpg/sg46_11_cif.got.tgz:20834.got - 2010.04.14 02:56:35.
