data_PCOD8191425
_publ_section_title
;
Structure prediction by ZEFSAII (Michael W. Deem and Ramdas Pophale) SiO2 
 PCOD8191425
Probable space group: I M A 2
;
_chemical_formula_sum "Si O2"
_cell_formula_units_Z 64
_cell_length_a 15.298016
_cell_length_b 13.829829
_cell_length_c 16.566864
_cell_angle_alpha 90.000000
_cell_angle_beta 90.000000
_cell_angle_gamma 90.000000
_cell_volume 3505.033944
_symmetry_space_group_name_H-M "I M A 2"
_symmetry_group_IT_number 46
_symmetry_cell_setting 'orthorhombic'
loop_
_space_group_symop_operation_xyz
x,y,z
-x,-y,z
1/2-x,y,z
1/2+x,-y,z
1/2+x,1/2+y,1/2+z
1/2-x,1/2-y,1/2+z
-x,1/2+y,1/2+z
x,1/2-y,1/2+z
loop_
_atom_site_type_symbol
_atom_site_label
_atom_site_fract_x
_atom_site_fract_y
_atom_site_fract_z
Si Si1 0.650374 0.296604 0.875000
Si Si2 0.462847 0.767294 0.011167
Si Si3 0.074855 0.427796 0.440019
Si Si4 0.446135 0.911660 0.240774
Si Si5 0.151204 0.410475 0.273096
Si Si6 0.652093 0.133765 0.754368
Si Si7 0.147133 0.938661 0.077735
Si Si8 0.488304 0.219029 0.678880
O O1 0.750000 0.319720 0.899832
O O2 0.622130 0.371749 0.806052
O O3 0.642141 0.185623 0.842056
O O4 0.586452 0.308111 0.951998
O O5 0.388062 0.836840 0.046098
O O6 0.518214 0.714231 0.081774
O O7 0.534517 0.825406 0.961842
O O8 0.141560 0.399888 0.369210
O O9 0.121770 0.474149 0.517757
O O10 0.000000 0.500000 0.406906
O O11 0.394312 0.957610 0.165154
O O12 0.514568 0.828505 0.212626
O O13 0.500000 0.000000 0.280117
O O14 0.250000 0.382524 0.248750
O O15 0.129996 0.521583 0.256710
O O16 0.086337 0.343711 0.221582
O O17 0.750000 0.152254 0.721780
O O18 0.585692 0.180413 0.692657
O O19 0.250000 0.932095 0.085370
#
# Coordination Sequence:
#
# PCOD8191425 Si02
#       8
#     8   8   8   8   8   8   8   8
#     4  10  19  33  55  83 107 135 176 226 274 323
#     4  10  20  32  50  74 106 140 177 219 269 321
#     4  10  18  31  52  80 108 136 169 217 281 338
#     4  10  20  36  53  73 106 147 186 222 268 321
#     4  11  21  35  55  81 109 141 177 218 271 332
#     4   9  18  32  56  85 108 129 165 217 277 333
#     4  10  18  30  51  82 111 135 169 224 283 334
#     4  10  20  35  54  76 107 145 179 219 269 322
#
# _framework density 18.259453000000001
#
# number of rings (size 3 to 8) (size 9 to 14) (size 15 to 20)
#    0.000    2.000    0.000    7.125    0.000    4.500 
#    0.000    5.000    0.000    0.000    0.000    0.000 
#    0.000    0.000    0.000    0.000    0.000    0.000 
#
# Total GULP energy -396715.154144 kJ/mol
# GULP energy per Si atom -12397.348567 kJ/mol
# Density = 1.821789 g / cm^3
# Si number density = 18.259453 Si / 1000 Ang^3
#
#
#
# Elastic Constant Matrix: (Units=GPa)
#
#
# Indices 1 2 3 4 5 6 
#
# 1 75.9915 49.5971 30.3672 0.0000 0.0000 0.0000
# 2 49.5971 83.4676 42.2168 0.0000 0.0000 0.0000
# 3 30.3672 42.2168 97.5587 0.0000 0.0000 0.0000
# 4 0.0000 0.0000 0.0000 17.5732 0.0000 0.0000
# 5 0.0000 0.0000 0.0000 0.0000 25.7265 0.0000
# 6 0.0000 0.0000 0.0000 0.0000 0.0000 21.0154
#
#
#
# Elastic Compliance Matrix: (Units=1/GPa)
#
#
# Indices 1 2 3 4 5 6 
#
# 1 0.021666 -0.012115 -0.001502 0.000000 0.000000 0.000000
# 2 -0.012115 0.022112 -0.005797 0.000000 0.000000 0.000000
# 3 -0.001502 -0.005797 0.013226 0.000000 0.000000 0.000000
# 4 0.000000 0.000000 0.000000 0.056905 0.000000 0.000000
# 5 0.000000 0.000000 0.000000 0.000000 0.038870 0.000000
# 6 0.000000 0.000000 0.000000 0.000000 0.000000 0.047584
#
#
# Mechanical properties :
#
#
# Convention : Reuss Voigt Hill
#
# Bulk Modulus (GPa) = 55.01564 55.70887 55.36225
# Shear Modulus (GPa) = 20.38730 21.85212 21.11971
#
# Velocity S-wave (km/s) = 3.34508 3.46317 3.40464
# Velocity P-wave (km/s) = 6.71675 6.82402 6.77060
#
# Compressibility (1/GPa) = 0.01817665
#
# Stress axis : x y z
#
# Youngs Moduli (GPa) = 46.15447 45.22499 75.60641
#
# Poissons Ratio (x) = 0.54789 0.11353
# Poissons Ratio (y) = 0.55915 0.43832
# Poissons Ratio (z) = 0.06931 0.26219
#
# Static dielectric constant tensor:
#      x y z
#    x 3.351830 0.000000 0.000000 
#    y 0.000000 3.222820 0.000000 
#    z 0.000000 0.000000 3.377580 
# 
# 
# High freq. dielectric constant tensor:
#      x y z
#    x 1.707010 0.000000 0.000000 
#    y 0.000000 1.684900 0.000000 
#    z 0.000000 0.000000 1.702790 
# 
# From -- ./inp_files/19720.got.cif
#   From: 2010.03.12/outbox.cif.g09.slc.cpg/sg46_10_cif.got.tgz:19720.got - 2010.04.14 02:56:35.
