data_PCOD8191888
_publ_section_title
;
Structure prediction by ZEFSAII (Michael W. Deem and Ramdas Pophale) SiO2 
 PCOD8191888
Probable space group: I M A 2
;
_chemical_formula_sum "Si O2"
_cell_formula_units_Z 48
_cell_length_a 18.839101
_cell_length_b 13.039560
_cell_length_c 8.741445
_cell_angle_alpha 90.000000
_cell_angle_beta 90.000000
_cell_angle_gamma 90.000000
_cell_volume 2147.367327
_symmetry_space_group_name_H-M "I M A 2"
_symmetry_group_IT_number 46
_symmetry_cell_setting 'orthorhombic'
loop_
_space_group_symop_operation_xyz
x,y,z
-x,-y,z
1/2-x,y,z
1/2+x,-y,z
1/2+x,1/2+y,1/2+z
1/2-x,1/2-y,1/2+z
-x,1/2+y,1/2+z
x,1/2-y,1/2+z
loop_
_atom_site_type_symbol
_atom_site_label
_atom_site_fract_x
_atom_site_fract_y
_atom_site_fract_z
Si Si1 0.461296 0.391811 0.068960
Si Si2 0.670662 0.577139 0.661290
Si Si3 0.327078 0.497094 0.005901
Si Si4 0.392855 0.873134 0.087997
Si Si5 0.966485 0.811008 0.226597
Si Si6 0.667759 0.211002 0.391395
O O1 0.500000 0.500000 0.085001
O O2 0.378986 0.420837 0.094385
O O3 0.482431 0.310088 0.199670
O O4 0.474604 0.339618 0.904148
O O5 0.750000 0.612035 0.604117
O O6 0.638579 0.486208 0.556333
O O7 0.612820 0.668747 0.659781
O O8 0.677414 0.533923 0.829924
O O9 0.250000 0.486994 0.084214
O O10 0.352896 0.615545 0.003366
O O11 0.475670 0.879142 0.135438
O O12 0.347300 0.815161 0.216624
O O13 0.381872 0.807097 0.934608
O O14 0.750000 0.239482 0.409764
#
# Coordination Sequence:
#
# PCOD8191888 Si02
#       6
#     8   8   8   8   8   8
#     4  11  22  40  60  85 119 154 193 242 292 345
#     4   9  18  34  55  80 112 152 194 236 285 346
#     4   8  16  32  54  76 105 148 193 234 283 341
#     4  11  19  33  54  81 114 149 190 240 290 344
#     4  11  22  37  61  87 115 154 199 243 293 351
#     4  10  19  32  54  83 111 147 192 237 289 345
#
# _framework density 22.352951000000001
#
# number of rings (size 3 to 8) (size 9 to 14) (size 15 to 20)
#    0.000    2.000    0.000    8.000    0.000    0.667 
#    0.000    5.833    0.000    2.000    0.000    0.000 
#    0.000    0.000    0.000    0.000    0.000    0.000 
#
# Total GULP energy -297465.763032 kJ/mol
# GULP energy per Si atom -12394.406793 kJ/mol
# Density = 2.230208 g / cm^3
# Si number density = 22.352951 Si / 1000 Ang^3
#
#
#
# Elastic Constant Matrix: (Units=GPa)
#
#
# Indices 1 2 3 4 5 6 
#
# 1 128.3049 39.8460 10.3087 0.0000 0.0000 0.0000
# 2 39.8460 118.0194 27.5364 0.0000 0.0000 0.0000
# 3 10.3087 27.5364 22.1426 0.0000 0.0000 0.0000
# 4 0.0000 0.0000 0.0000 33.4091 0.0000 0.0000
# 5 0.0000 0.0000 0.0000 0.0000 16.6611 0.0000
# 6 0.0000 0.0000 0.0000 0.0000 0.0000 36.1055
#
#
#
# Elastic Compliance Matrix: (Units=1/GPa)
#
#
# Indices 1 2 3 4 5 6 
#
# 1 0.008712 -0.002810 -0.000561 0.000000 0.000000 0.000000
# 2 -0.002810 0.012843 -0.014663 0.000000 0.000000 0.000000
# 3 -0.000561 -0.014663 0.063658 0.000000 0.000000 0.000000
# 4 0.000000 0.000000 0.000000 0.029932 0.000000 0.000000
# 5 0.000000 0.000000 0.000000 0.000000 0.060020 0.000000
# 6 0.000000 0.000000 0.000000 0.000000 0.000000 0.027697
#
#
# Mechanical properties :
#
#
# Convention : Reuss Voigt Hill
#
# Bulk Modulus (GPa) = 20.34841 47.09434 33.72138
# Shear Modulus (GPa) = 19.58386 29.95354 24.76870
#
# Velocity S-wave (km/s) = 2.96314 3.66461 3.33238
# Velocity P-wave (km/s) = 4.56398 6.24660 5.47038
#
# Compressibility (1/GPa) = 0.04914389
#
# Stress axis : x y z
#
# Youngs Moduli (GPa) = 114.78688 77.86149 15.70893
#
# Poissons Ratio (x) = 0.21883 0.00881
# Poissons Ratio (y) = 0.32260 0.23035
# Poissons Ratio (z) = 0.06437 1.14171
#
# Static dielectric constant tensor:
#      x y z
#    x 4.660890 0.000000 0.000000 
#    y 0.000000 4.060640 0.000000 
#    z 0.000000 0.000000 3.424060 
# 
# 
# High freq. dielectric constant tensor:
#      x y z
#    x 1.902070 0.000000 0.000000 
#    y 0.000000 1.872580 0.000000 
#    z 0.000000 0.000000 1.826710 
# 
# From -- ./inp_files/12350.got.cif
#   From: 2010.03.12/outbox.cif.g09.slc.cpg/sg46_7_cif.got.tgz:12350.got - 2010.04.14 02:56:35.
