data_PCOD8191932
_publ_section_title
;
Structure prediction by ZEFSAII (Michael W. Deem and Ramdas Pophale) SiO2 
 PCOD8191932
Probable space group: I M A 2
;
_chemical_formula_sum "Si O2"
_cell_formula_units_Z 56
_cell_length_a 8.764714
_cell_length_b 18.916250
_cell_length_c 17.981238
_cell_angle_alpha 90.000000
_cell_angle_beta 90.000000
_cell_angle_gamma 90.000000
_cell_volume 2981.208726
_symmetry_space_group_name_H-M "I M A 2"
_symmetry_group_IT_number 46
_symmetry_cell_setting 'orthorhombic'
loop_
_space_group_symop_operation_xyz
x,y,z
-x,-y,z
1/2-x,y,z
1/2+x,-y,z
1/2+x,1/2+y,1/2+z
1/2-x,1/2-y,1/2+z
-x,1/2+y,1/2+z
x,1/2-y,1/2+z
loop_
_atom_site_type_symbol
_atom_site_label
_atom_site_fract_x
_atom_site_fract_y
_atom_site_fract_z
Si Si1 0.079312 0.338525 0.182710
Si Si2 0.431408 0.576157 0.311674
Si Si3 0.426736 0.690997 0.030091
Si Si4 0.571355 0.430251 0.778108
Si Si5 0.582732 0.796570 0.282543
Si Si6 0.574594 0.289626 0.403429
Si Si7 0.070907 0.069268 0.440376
O O1 0.250000 0.364480 0.158556
O O2 0.097187 0.269715 0.230863
O O3 0.997563 0.399307 0.231619
O O4 0.974745 0.311631 0.115504
O O5 0.500000 0.500000 0.333277
O O6 0.250000 0.569804 0.305265
O O7 0.481233 0.631908 0.377471
O O8 0.250000 0.668873 0.022511
O O9 0.450412 0.769158 0.991016
O O10 0.537279 0.635803 0.991030
O O11 0.500000 0.500000 0.739471
O O12 0.750000 0.436685 0.772997
O O13 0.513969 0.357669 0.739941
O O14 0.513254 0.422854 0.862030
O O15 0.750000 0.827292 0.301594
O O16 0.507890 0.773234 0.359799
O O17 0.750000 0.284652 0.380584
O O18 0.250000 0.059416 0.428382
O O19 0.000000 0.000000 0.480574
#
# Coordination Sequence:
#
# PCOD8191932 Si02
#       7
#     8   8   8   8   8   8   8
#     4  10  22  37  54  79 109 143 181 223 272 329
#     4  10  20  37  59  84 111 144 184 231 280 333
#     4  11  21  35  54  79 109 144 182 224 271 326
#     4  11  20  31  49  74 103 134 170 210 256 306
#     4  10  19  33  53  76 103 135 176 222 266 315
#     4   9  19  34  55  79 106 139 180 225 273 326
#     4  11  21  33  49  73 105 139 173 211 254 304
#
# _framework density 18.784327000000001
#
# number of rings (size 3 to 8) (size 9 to 14) (size 15 to 20)
#    0.000    1.714    1.429    5.143    0.000    3.429 
#    0.000    2.857    0.000    0.857    0.000    4.000 
#    0.000    0.000    0.000    0.000    0.000    0.000 
#
# Total GULP energy -346960.694143 kJ/mol
# GULP energy per Si atom -12391.453362 kJ/mol
# Density = 1.874157 g / cm^3
# Si number density = 18.784327 Si / 1000 Ang^3
#
#
#
# Elastic Constant Matrix: (Units=GPa)
#
#
# Indices 1 2 3 4 5 6 
#
# 1 114.5019 48.0357 7.4902 0.0000 0.0000 0.0000
# 2 48.0357 114.9052 20.6028 0.0000 0.0000 0.0000
# 3 7.4902 20.6028 51.7946 0.0000 0.0000 0.0000
# 4 0.0000 0.0000 0.0000 15.7917 0.0000 0.0000
# 5 0.0000 0.0000 0.0000 0.0000 20.8408 0.0000
# 6 0.0000 0.0000 0.0000 0.0000 0.0000 32.0165
#
#
#
# Elastic Compliance Matrix: (Units=1/GPa)
#
#
# Indices 1 2 3 4 5 6 
#
# 1 0.010594 -0.004473 0.000247 0.000000 0.000000 0.000000
# 2 -0.004473 0.011260 -0.003832 0.000000 0.000000 0.000000
# 3 0.000247 -0.003832 0.020796 0.000000 0.000000 0.000000
# 4 0.000000 0.000000 0.000000 0.063324 0.000000 0.000000
# 5 0.000000 0.000000 0.000000 0.000000 0.047983 0.000000
# 6 0.000000 0.000000 0.000000 0.000000 0.000000 0.031234
#
#
# Mechanical properties :
#
#
# Convention : Reuss Voigt Hill
#
# Bulk Modulus (GPa) = 37.68810 48.16213 42.92511
# Shear Modulus (GPa) = 23.79247 27.40134 25.59690
#
# Velocity S-wave (km/s) = 3.56281 3.82348 3.69545
# Velocity P-wave (km/s) = 6.08539 6.72214 6.41168
#
# Compressibility (1/GPa) = 0.02653358
#
# Stress axis : x y z
#
# Youngs Moduli (GPa) = 94.39452 88.81102 48.08717
#
# Poissons Ratio (x) = 0.39726 -0.01189
# Poissons Ratio (y) = 0.42223 0.18427
# Poissons Ratio (z) = -0.02334 0.34033
#
# Static dielectric constant tensor:
#      x y z
#    x 3.801400 0.000000 0.000000 
#    y 0.000000 4.173810 0.000000 
#    z 0.000000 0.000000 3.296990 
# 
# 
# High freq. dielectric constant tensor:
#      x y z
#    x 1.749130 0.000000 0.000000 
#    y 0.000000 1.738880 0.000000 
#    z 0.000000 0.000000 1.685700 
# 
# From -- ./inp_files/21238.got.cif
#   From: 2010.03.12/outbox.cif.g09.slc.cpg/sg46_11_cif.got.tgz:21238.got - 2010.04.14 02:56:35.
