data_PCOD8191872
_publ_section_title
;
Structure prediction by ZEFSAII (Michael W. Deem and Ramdas Pophale) SiO2 
 PCOD8191872
Probable space group: I M A 2
;
_chemical_formula_sum "Si O2"
_cell_formula_units_Z 56
_cell_length_a 8.752827
_cell_length_b 23.840652
_cell_length_c 13.800096
_cell_angle_alpha 90.000000
_cell_angle_beta 90.000000
_cell_angle_gamma 90.000000
_cell_volume 2879.708847
_symmetry_space_group_name_H-M "I M A 2"
_symmetry_group_IT_number 46
_symmetry_cell_setting 'orthorhombic'
loop_
_space_group_symop_operation_xyz
x,y,z
-x,-y,z
1/2-x,y,z
1/2+x,-y,z
1/2+x,1/2+y,1/2+z
1/2-x,1/2-y,1/2+z
-x,1/2+y,1/2+z
x,1/2-y,1/2+z
loop_
_atom_site_type_symbol
_atom_site_label
_atom_site_fract_x
_atom_site_fract_y
_atom_site_fract_z
Si Si1 0.573470 0.839594 0.875000
Si Si2 0.428922 0.115970 0.153241
Si Si3 0.430501 0.560167 0.051167
Si Si4 0.570453 0.559176 0.849275
Si Si5 0.570681 0.441921 0.477181
Si Si6 0.071516 0.161452 0.653713
Si Si7 0.070943 0.227949 0.056506
O O1 0.750000 0.855061 0.893361
O O2 0.542833 0.821503 0.765178
O O3 0.475608 0.893956 0.901275
O O4 0.527833 0.787464 0.945444
O O5 0.250000 0.110084 0.130968
O O6 0.465478 0.104006 0.265369
O O7 0.513359 0.071180 0.085569
O O8 0.488397 0.178334 0.127240
O O9 0.500000 0.500000 0.078941
O O10 0.250000 0.554458 0.047174
O O11 0.479402 0.604986 0.131592
O O12 0.493373 0.581277 0.947537
O O13 0.500000 0.500000 0.817673
O O14 0.750000 0.551758 0.867042
O O15 0.500000 0.500000 0.440165
O O16 0.750000 0.448092 0.478790
O O17 0.250000 0.150503 0.633163
O O18 0.001517 0.212158 0.588614
O O19 0.250000 0.234215 0.071438
#
# Coordination Sequence:
#
# PCOD8191872 Si02
#       7
#     8   8   8   8   8   8   8
#     4   9  19  36  56  80 111 143 179 223 266 315
#     4   9  18  33  54  81 112 145 182 223 265 315
#     4  11  23  39  57  78 108 141 178 225 271 321
#     4  10  19  32  53  80 111 145 182 223 268 319
#     4  11  21  33  52  77 109 147 185 227 273 322
#     4  10  20  36  60  84 107 141 180 219 267 318
#     4   8  16  33  56  82 110 140 178 220 261 312
#
# _framework density 19.44641
#
# number of rings (size 3 to 8) (size 9 to 14) (size 15 to 20)
#    0.000    2.286    0.000    5.143    0.000    4.571 
#    0.000    7.143    0.000    1.714    0.000    0.000 
#    0.000    0.000    0.000    0.000    0.000    0.000 
#
# Total GULP energy -347194.323258 kJ/mol
# GULP energy per Si atom -12399.797259 kJ/mol
# Density = 1.940215 g / cm^3
# Si number density = 19.446410 Si / 1000 Ang^3
#
#
#
# Elastic Constant Matrix: (Units=GPa)
#
#
# Indices 1 2 3 4 5 6 
#
# 1 96.5501 38.1816 37.3658 0.0000 0.0000 0.0000
# 2 38.1816 115.8128 61.2552 -0.0003 0.0000 0.0000
# 3 37.3658 61.2552 114.8225 -0.0003 0.0000 0.0000
# 4 0.0000 -0.0003 -0.0003 25.9809 0.0000 0.0000
# 5 0.0000 0.0000 0.0000 0.0000 25.8263 0.0000
# 6 0.0000 0.0000 0.0000 0.0000 0.0000 23.0575
#
#
#
# Elastic Compliance Matrix: (Units=1/GPa)
#
#
# Indices 1 2 3 4 5 6 
#
# 1 0.012440 -0.002731 -0.002592 0.000000 0.000000 0.000000
# 2 -0.002731 0.012628 -0.005848 0.000000 0.000000 0.000000
# 3 -0.002592 -0.005848 0.012672 0.000000 0.000000 0.000000
# 4 0.000000 0.000000 0.000000 0.038490 0.000000 0.000000
# 5 0.000000 0.000000 0.000000 0.000000 0.038720 0.000000
# 6 0.000000 0.000000 0.000000 0.000000 0.000000 0.043370
#
#
# Mechanical properties :
#
#
# Convention : Reuss Voigt Hill
#
# Bulk Modulus (GPa) = 64.93595 66.75452 65.84524
# Shear Modulus (GPa) = 26.91146 27.66511 27.28828
#
# Velocity S-wave (km/s) = 3.72409 3.77587 3.75007
# Velocity P-wave (km/s) = 7.20809 7.30832 7.25838
#
# Compressibility (1/GPa) = 0.01539979
#
# Stress axis : x y z
#
# Youngs Moduli (GPa) = 80.38508 79.18882 78.91215
#
# Poissons Ratio (x) = 0.21623 0.20451
# Poissons Ratio (y) = 0.21950 0.46149
# Poissons Ratio (z) = 0.20833 0.46311
#
# Static dielectric constant tensor:
#      x y z
#    x 3.371560 0.000000 0.000000 
#    y 0.000000 3.572300 0.000000 
#    z 0.000000 0.000000 3.569130 
# 
# 
# High freq. dielectric constant tensor:
#      x y z
#    x 1.739010 0.000000 0.000000 
#    y 0.000000 1.754700 0.000000 
#    z 0.000000 0.000000 1.757760 
# 
# From -- ./inp_files/14217.got.cif
#   From: 2010.03.12/outbox.cif.g09.slc.cpg/sg46_8_cif.got.tgz:14217.got - 2010.04.14 02:56:35.
