data_PCOD8191314
_publ_section_title
;
Structure prediction by ZEFSAII (Michael W. Deem and Ramdas Pophale) SiO2 
 PCOD8191314
Probable space group: I M A 2
;
_chemical_formula_sum "Si O2"
_cell_formula_units_Z 56
_cell_length_a 9.284723
_cell_length_b 18.080273
_cell_length_c 20.653237
_cell_angle_alpha 90.000000
_cell_angle_beta 90.000000
_cell_angle_gamma 90.000000
_cell_volume 3467.065640
_symmetry_space_group_name_H-M "I M A 2"
_symmetry_group_IT_number 46
_symmetry_cell_setting 'orthorhombic'
loop_
_space_group_symop_operation_xyz
x,y,z
-x,-y,z
1/2-x,y,z
1/2+x,-y,z
1/2+x,1/2+y,1/2+z
1/2-x,1/2-y,1/2+z
-x,1/2+y,1/2+z
x,1/2-y,1/2+z
loop_
_atom_site_type_symbol
_atom_site_label
_atom_site_fract_x
_atom_site_fract_y
_atom_site_fract_z
Si Si1 0.909225 0.781706 0.630320
Si Si2 0.418162 0.152506 0.428023
Si Si3 0.919880 0.575270 0.061238
Si Si4 0.421142 0.577330 0.814428
Si Si5 0.418939 0.575742 0.549750
Si Si6 0.917123 0.155205 0.182212
Si Si7 0.408539 0.300141 0.494390
O O1 0.750000 0.785575 0.661131
O O2 0.967719 0.864459 0.615644
O O3 0.902487 0.741003 0.562253
O O4 0.008155 0.735694 0.679661
O O5 0.250000 0.139731 0.411015
O O6 0.462879 0.103104 0.489752
O O7 0.522169 0.131718 0.369530
O O8 0.449275 0.239262 0.440632
O O9 0.750000 0.562610 0.064858
O O10 0.000000 0.500000 0.078042
O O11 0.500000 0.500000 0.822837
O O12 0.250000 0.566504 0.820465
O O13 0.466542 0.611796 0.745795
O O14 0.500000 0.500000 0.536987
O O15 0.250000 0.563827 0.541012
O O16 0.459688 0.604289 0.621317
O O17 0.473751 0.634618 0.496216
O O18 0.750000 0.172555 0.182756
O O19 0.250000 0.333750 0.479688
#
# Coordination Sequence:
#
# PCOD8191314 Si02
#       7
#     8   8   8   8   8   8   8
#     4   8  15  28  45  63  84 112 145 180 219 264
#     4   9  18  32  47  64  89 120 152 183 217 259
#     4   9  17  28  43  66  92 116 144 179 219 261
#     4  11  22  33  45  64  91 121 154 186 215 252
#     4  10  18  28  44  66  91 117 147 182 222 265
#     4   9  19  32  44  62  88 118 151 185 218 256
#     4   8  15  29  46  63  86 114 144 181 223 265
#
# _framework density 16.151986000000001
#
# number of rings (size 3 to 8) (size 9 to 14) (size 15 to 20)
#    0.000    2.857    0.000    3.429    0.000    4.571 
#    0.000    2.857    0.000    0.000    0.000    1.000 
#    0.000    4.571    0.000    0.000    0.000    0.000 
#
# Total GULP energy -347100.205220 kJ/mol
# GULP energy per Si atom -12396.435901 kJ/mol
# Density = 1.611522 g / cm^3
# Si number density = 16.151986 Si / 1000 Ang^3
#
#
#
# Elastic Constant Matrix: (Units=GPa)
#
#
# Indices 1 2 3 4 5 6 
#
# 1 69.0826 59.0786 33.0050 0.0000 0.0000 0.0000
# 2 59.0786 122.7471 39.1559 0.0000 0.0000 0.0000
# 3 33.0050 39.1559 52.7671 0.0000 0.0000 0.0000
# 4 0.0000 0.0000 0.0000 24.5106 0.0000 0.0000
# 5 0.0000 0.0000 0.0000 0.0000 22.2072 0.0000
# 6 0.0000 0.0000 0.0000 0.0000 0.0000 33.7915
#
#
#
# Elastic Compliance Matrix: (Units=1/GPa)
#
#
# Indices 1 2 3 4 5 6 
#
# 1 0.028035 -0.010349 -0.009855 0.000000 0.000000 0.000000
# 2 -0.010349 0.014494 -0.004282 0.000000 0.000000 0.000000
# 3 -0.009855 -0.004282 0.028293 0.000000 0.000000 0.000000
# 4 0.000000 0.000000 0.000000 0.040799 0.000000 0.000000
# 5 0.000000 0.000000 0.000000 0.000000 0.045030 0.000000
# 6 0.000000 0.000000 0.000000 0.000000 0.000000 0.029593
#
#
# Mechanical properties :
#
#
# Convention : Reuss Voigt Hill
#
# Bulk Modulus (GPa) = 45.77042 56.34176 51.05609
# Shear Modulus (GPa) = 20.61856 23.65901 22.13878
#
# Velocity S-wave (km/s) = 3.57674 3.83139 3.70625
# Velocity P-wave (km/s) = 6.74213 7.38449 7.07061
#
# Compressibility (1/GPa) = 0.02184817
#
# Stress axis : x y z
#
# Youngs Moduli (GPa) = 35.67021 68.99460 35.34439
#
# Poissons Ratio (x) = 0.71404 0.34834
# Poissons Ratio (y) = 0.36916 0.15134
# Poissons Ratio (z) = 0.35155 0.29543
#
# Static dielectric constant tensor:
#      x y z
#    x 3.127160 0.000000 0.000000 
#    y 0.000000 3.201080 0.000000 
#    z 0.000000 0.000000 2.885150 
# 
# 
# High freq. dielectric constant tensor:
#      x y z
#    x 1.624650 0.000000 0.000000 
#    y 0.000000 1.623610 0.000000 
#    z 0.000000 0.000000 1.581510 
# 
# From -- ./inp_files/21209.got.cif
#   From: 2010.03.12/outbox.cif.g09.slc.cpg/sg46_11_cif.got.tgz:21209.got - 2010.04.14 02:56:35.
