data_PCOD8191167
_publ_section_title
;
Structure prediction by ZEFSAII (Michael W. Deem and Ramdas Pophale) SiO2 
 PCOD8191167
Probable space group: I M A 2
;
_chemical_formula_sum "Si O2"
_cell_formula_units_Z 56
_cell_length_a 9.055561
_cell_length_b 22.220966
_cell_length_c 17.615007
_cell_angle_alpha 90.000000
_cell_angle_beta 90.000000
_cell_angle_gamma 90.000000
_cell_volume 3544.550069
_symmetry_space_group_name_H-M "I M A 2"
_symmetry_group_IT_number 46
_symmetry_cell_setting 'orthorhombic'
loop_
_space_group_symop_operation_xyz
x,y,z
-x,-y,z
1/2-x,y,z
1/2+x,-y,z
1/2+x,1/2+y,1/2+z
1/2-x,1/2-y,1/2+z
-x,1/2+y,1/2+z
x,1/2-y,1/2+z
loop_
_atom_site_type_symbol
_atom_site_label
_atom_site_fract_x
_atom_site_fract_y
_atom_site_fract_z
Si Si1 0.419929 0.220254 0.858340
Si Si2 0.078364 0.658424 0.656010
Si Si3 0.422422 0.219713 0.688499
Si Si4 0.917363 0.319859 0.047467
Si Si5 0.086823 0.817267 0.994631
Si Si6 0.925871 0.852430 0.402372
Si Si7 0.923123 0.063223 0.283141
O O1 0.250000 0.222162 0.878040
O O2 0.451501 0.195779 0.773929
O O3 0.488858 0.174176 0.919556
O O4 0.480012 0.288467 0.867919
O O5 0.250000 0.679204 0.659724
O O6 0.036191 0.643273 0.567786
O O7 0.048802 0.599892 0.705904
O O8 0.976914 0.711730 0.686937
O O9 0.250000 0.218948 0.667823
O O10 0.509124 0.175937 0.630947
O O11 0.750000 0.344657 0.050699
O O12 0.921138 0.250949 0.023015
O O13 0.013560 0.358818 0.988348
O O14 0.250000 0.835685 0.969198
O O15 0.750000 0.860223 0.401269
O O16 0.001030 0.904614 0.354102
O O17 0.750000 0.055522 0.300102
O O18 0.000000 0.000000 0.270104
#
# Coordination Sequence:
#
# PCOD8191167 Si02
#       7
#     8   8   8   8   8   8   8
#     4   9  17  26  39  62  89 115 144 176 214 261
#     4   9  18  31  44  59  82 114 149 185 224 264
#     4  10  17  26  41  63  89 117 147 179 215 260
#     4   9  17  28  41  61  85 114 148 179 216 264
#     4   8  15  26  40  58  80 109 144 176 211 259
#     4  10  18  31  46  62  85 115 149 186 227 266
#     4  11  22  34  48  65  87 116 154 195 231 268
#
# _framework density 15.798901000000001
#
# number of rings (size 3 to 8) (size 9 to 14) (size 15 to 20)
#    0.000    2.571    1.429    2.571    0.000    5.714 
#    0.000    0.000    0.000    0.000    0.000    0.000 
#    0.000    1.143    0.000    6.000    0.000    5.571 
#
# Total GULP energy -347075.348332 kJ/mol
# GULP energy per Si atom -12395.548155 kJ/mol
# Density = 1.576294 g / cm^3
# Si number density = 15.798901 Si / 1000 Ang^3
#
#
#
# Elastic Constant Matrix: (Units=GPa)
#
#
# Indices 1 2 3 4 5 6 
#
# 1 84.2789 24.9701 60.8025 0.0000 0.0000 0.0000
# 2 24.9701 40.9021 39.9326 0.0000 0.0000 0.0000
# 3 60.8025 39.9326 134.2047 0.0000 0.0000 0.0000
# 4 0.0000 0.0000 0.0000 15.3897 0.0000 0.0000
# 5 0.0000 0.0000 0.0000 0.0000 31.6740 0.0000
# 6 0.0000 0.0000 0.0000 0.0000 0.0000 17.1766
#
#
#
# Elastic Compliance Matrix: (Units=1/GPa)
#
#
# Indices 1 2 3 4 5 6 
#
# 1 0.018148 -0.004302 -0.006942 0.000000 0.000000 0.000000
# 2 -0.004302 0.035478 -0.008608 0.000000 0.000000 0.000000
# 3 -0.006942 -0.008608 0.013158 0.000000 0.000000 0.000000
# 4 0.000000 0.000000 0.000000 0.064978 0.000000 0.000000
# 5 0.000000 0.000000 0.000000 0.000000 0.031572 0.000000
# 6 0.000000 0.000000 0.000000 0.000000 0.000000 0.058219
#
#
# Mechanical properties :
#
#
# Convention : Reuss Voigt Hill
#
# Bulk Modulus (GPa) = 36.92583 56.75514 46.84049
# Shear Modulus (GPa) = 18.49908 21.76010 20.12959
#
# Velocity S-wave (km/s) = 3.42557 3.71525 3.57334
# Velocity P-wave (km/s) = 6.25053 7.37601 6.83647
#
# Compressibility (1/GPa) = 0.02708131
#
# Stress axis : x y z
#
# Youngs Moduli (GPa) = 55.10155 28.18620 76.00046
#
# Poissons Ratio (x) = 0.12124 0.52762
# Poissons Ratio (y) = 0.23702 0.65419
# Poissons Ratio (z) = 0.38253 0.24262
#
# Static dielectric constant tensor:
#      x y z
#    x 3.127740 0.000000 0.000000 
#    y 0.000000 2.506250 0.000000 
#    z 0.000000 0.000000 3.332740 
# 
# 
# High freq. dielectric constant tensor:
#      x y z
#    x 1.619640 0.000000 0.000000 
#    y 0.000000 1.531640 0.000000 
#    z 0.000000 0.000000 1.623340 
# 
# From -- ./inp_files/18441.got.cif
#   From: 2010.03.12/outbox.cif.g09.slc.cpg/sg46_10_cif.got.tgz:18441.got - 2010.04.14 02:56:35.
