data_PCOD8191512
_publ_section_title
;
Structure prediction by ZEFSAII (Michael W. Deem and Ramdas Pophale) SiO2 
 PCOD8191512
Probable space group: I M A 2
;
_chemical_formula_sum "Si O2"
_cell_formula_units_Z 52
_cell_length_a 11.864899
_cell_length_b 25.171991
_cell_length_c 9.377288
_cell_angle_alpha 90.000000
_cell_angle_beta 90.000000
_cell_angle_gamma 90.000000
_cell_volume 2800.650193
_symmetry_space_group_name_H-M "I M A 2"
_symmetry_group_IT_number 46
_symmetry_cell_setting 'orthorhombic'
loop_
_space_group_symop_operation_xyz
x,y,z
-x,-y,z
1/2-x,y,z
1/2+x,-y,z
1/2+x,1/2+y,1/2+z
1/2-x,1/2-y,1/2+z
-x,1/2+y,1/2+z
x,1/2-y,1/2+z
loop_
_atom_site_type_symbol
_atom_site_label
_atom_site_fract_x
_atom_site_fract_y
_atom_site_fract_z
Si Si1 0.621402 0.168698 0.035200
Si Si2 0.750000 0.613753 0.103821
Si Si3 0.486177 0.363065 0.793862
Si Si4 0.250000 0.168203 0.298264
Si Si5 0.516996 0.937834 0.549475
Si Si6 0.750000 0.775972 0.656533
Si Si7 0.007411 0.222231 0.534625
Si Si8 0.120831 0.859112 0.720434
O O1 0.750000 0.182573 0.069606
O O2 0.574040 0.133341 0.164958
O O3 0.555237 0.222904 0.016389
O O4 0.609751 0.135107 0.890469
O O5 0.859917 0.577115 0.112211
O O6 0.750000 0.662542 0.219736
O O7 0.750000 0.651242 0.963620
O O8 0.360770 0.357802 0.726667
O O9 0.497598 0.415838 0.889216
O O10 0.509297 0.310924 0.889548
O O11 0.250000 0.232408 0.282787
O O12 0.421896 0.913997 0.652282
O O13 0.500000 0.000000 0.544722
O O14 0.861615 0.766585 0.561389
O O15 0.954858 0.189713 0.666379
O O16 0.250000 0.849417 0.674386
#
# Coordination Sequence:
#
# PCOD8191512 Si02
#       8
#     8   4   8   4   8   4   8   8
#     4  11  23  36  52  80 120 156 185 232 279 341
#     4  10  20  38  56  91 120 139 199 246 278 356
#     4  10  20  37  56  84 115 146 198 232 279 348
#     4  10  18  32  54  82 122 150 173 237 288 346
#     4  10  22  41  64  85 108 147 193 253 291 329
#     4  12  18  32  56  85 122 151 178 235 290 348
#     4  11  20  34  56  82 117 157 191 227 275 340
#     4  10  22  38  55  83 114 149 194 232 281 342
#
# _framework density 18.567118000000001
#
# number of rings (size 3 to 8) (size 9 to 14) (size 15 to 20)
#    0.000    1.538    6.154    1.385    1.077    4.308 
#    0.000    1.538    0.000    0.000    0.000    0.000 
#    0.000    0.000    0.000    0.000    0.000    0.000 
#
# Total GULP energy -322333.671535 kJ/mol
# GULP energy per Si atom -12397.448905 kJ/mol
# Density = 1.852486 g / cm^3
# Si number density = 18.567118 Si / 1000 Ang^3
#
#
#
# Elastic Constant Matrix: (Units=GPa)
#
#
# Indices 1 2 3 4 5 6 
#
# 1 150.5926 48.5440 53.4543 0.0002 -0.0003 -0.0001
# 2 48.5440 133.0128 33.3199 0.0000 -0.0003 -0.0001
# 3 53.4543 33.3199 79.0820 0.0032 -0.0024 -0.0004
# 4 0.0002 0.0000 0.0032 11.8072 -0.0003 -0.0001
# 5 -0.0003 -0.0003 -0.0024 -0.0003 25.6094 0.0004
# 6 -0.0001 -0.0001 -0.0004 -0.0001 0.0004 20.8912
#
#
#
# Elastic Compliance Matrix: (Units=1/GPa)
#
#
# Indices 1 2 3 4 5 6 
#
# 1 0.009194 -0.002011 -0.005367 0.000001 0.000000 0.000000
# 2 -0.002011 0.008845 -0.002368 0.000001 0.000000 0.000000
# 3 -0.005367 -0.002368 0.017270 -0.000005 0.000001 0.000000
# 4 0.000001 0.000001 -0.000005 0.084694 0.000001 0.000000
# 5 0.000000 0.000000 0.000001 0.000001 0.039048 -0.000001
# 6 0.000000 0.000000 0.000000 0.000000 -0.000001 0.047867
#
#
# Mechanical properties :
#
#
# Convention : Reuss Voigt Hill
#
# Bulk Modulus (GPa) = 63.21818 70.36930 66.79374
# Shear Modulus (GPa) = 21.58127 26.81950 24.20039
#
# Velocity S-wave (km/s) = 3.41301 3.80473 3.61418
# Velocity P-wave (km/s) = 7.04655 7.56859 7.31223
#
# Compressibility (1/GPa) = 0.01581824
#
# Stress axis : x y z
#
# Youngs Moduli (GPa) = 108.76951 113.05805 57.90237
#
# Poissons Ratio (x) = 0.22734 0.31077
# Poissons Ratio (y) = 0.21872 0.13708
# Poissons Ratio (z) = 0.58378 0.26767
#
# Static dielectric constant tensor:
#      x y z
#    x 3.912310 0.000000 0.000000 
#    y 0.000000 3.141900 0.000000 
#    z 0.000000 0.000000 3.332420 
# 
# 
# High freq. dielectric constant tensor:
#      x y z
#    x 1.745050 0.000000 0.000000 
#    y 0.000000 1.690860 0.000000 
#    z 0.000000 0.000000 1.703520 
# 
# From -- ./inp_files/4891.got.cif
#   From: 2010.03.12/outbox.cif.g09.slc.cpg/sg46_3_cif.got.tgz:4891.got - 2010.04.14 02:56:35.
