data_PCOD8191627
_publ_section_title
;
Structure prediction by ZEFSAII (Michael W. Deem and Ramdas Pophale) SiO2 
 PCOD8191627
Probable space group: I M A 2
;
_chemical_formula_sum "Si O2"
_cell_formula_units_Z 40
_cell_length_a 11.618609
_cell_length_b 11.218389
_cell_length_c 14.009658
_cell_angle_alpha 90.000000
_cell_angle_beta 90.000000
_cell_angle_gamma 90.000000
_cell_volume 1826.047899
_symmetry_space_group_name_H-M "I M A 2"
_symmetry_group_IT_number 46
_symmetry_cell_setting 'orthorhombic'
loop_
_space_group_symop_operation_xyz
x,y,z
-x,-y,z
1/2-x,y,z
1/2+x,-y,z
1/2+x,1/2+y,1/2+z
1/2-x,1/2-y,1/2+z
-x,1/2+y,1/2+z
x,1/2-y,1/2+z
loop_
_atom_site_type_symbol
_atom_site_label
_atom_site_fract_x
_atom_site_fract_y
_atom_site_fract_z
Si Si1 0.750000 0.576368 0.295900
Si Si2 0.250000 0.660037 0.421479
Si Si3 0.011230 0.626765 0.673496
Si Si4 0.942572 0.207109 0.515120
Si Si5 0.250000 0.693948 0.741664
Si Si6 0.250000 0.923473 0.611847
Si Si7 0.623596 0.701810 0.849719
O O1 0.750000 0.464910 0.367397
O O2 0.750000 0.538754 0.182592
O O3 0.863104 0.656955 0.320800
O O4 0.137057 0.679300 0.485857
O O5 0.250000 0.773602 0.352271
O O6 0.988550 0.740156 0.605593
O O7 0.136823 0.620675 0.719958
O O8 0.000000 0.500000 0.619305
O O9 0.917456 0.631871 0.757083
O O10 0.865660 0.090292 0.545557
O O11 0.034102 0.175670 0.434144
O O12 0.250000 0.812847 0.681067
O O13 0.750000 0.652294 0.880689
#
# Coordination Sequence:
#
# PCOD8191627 Si02
#       7
#     4   4   8   8   4   4   8
#     4   9  22  39  67  98 136 167 216 284 353 381
#     4  10  18  38  68  93 120 160 223 275 318 401
#     4  11  24  40  66  91 129 174 212 272 332 402
#     4  10  21  40  68  96 127 168 228 276 320 413
#     4   9  18  39  62  89 122 164 214 261 323 388
#     4   8  18  40  65 102 122 171 221 278 328 398
#     4  10  24  43  61  97 136 172 216 284 337 407
#
# _framework density 21.905231000000001
#
# number of rings (size 3 to 8) (size 9 to 14) (size 15 to 20)
#    0.600    1.600    2.000    0.600    4.200    0.800 
#    0.000    2.000    0.000    0.000    2.600    0.000 
#    0.000    0.000    0.000    0.000    0.000    0.000 
#
# Total GULP energy -247786.468880 kJ/mol
# GULP energy per Si atom -12389.323444 kJ/mol
# Density = 2.185537 g / cm^3
# Si number density = 21.905231 Si / 1000 Ang^3
#
#
#
# Elastic Constant Matrix: (Units=GPa)
#
#
# Indices 1 2 3 4 5 6 
#
# 1 105.5833 -2.7187 34.7961 0.0000 0.0000 0.0000
# 2 -2.7187 26.6894 3.0105 0.0000 0.0000 0.0000
# 3 34.7961 3.0105 101.3832 0.0000 0.0000 0.0000
# 4 0.0000 0.0000 0.0000 24.9163 0.0000 0.0000
# 5 0.0000 0.0000 0.0000 0.0000 21.1033 0.0000
# 6 0.0000 0.0000 0.0000 0.0000 0.0000 30.3204
#
#
#
# Elastic Compliance Matrix: (Units=1/GPa)
#
#
# Indices 1 2 3 4 5 6 
#
# 1 0.010740 0.001515 -0.003731 0.000000 0.000000 0.000000
# 2 0.001515 0.037808 -0.001643 0.000000 0.000000 0.000000
# 3 -0.003731 -0.001643 0.011193 0.000000 0.000000 0.000000
# 4 0.000000 0.000000 0.000000 0.040134 0.000000 0.000000
# 5 0.000000 0.000000 0.000000 0.000000 0.047386 0.000000
# 6 0.000000 0.000000 0.000000 0.000000 0.000000 0.032981
#
#
# Mechanical properties :
#
#
# Convention : Reuss Voigt Hill
#
# Bulk Modulus (GPa) = 19.22233 33.75906 26.49070
# Shear Modulus (GPa) = 24.35455 28.50585 26.43020
#
# Velocity S-wave (km/s) = 3.33801 3.61130 3.47734
# Velocity P-wave (km/s) = 4.86319 5.73006 5.31433
#
# Compressibility (1/GPa) = 0.05202284
#
# Stress axis : x y z
#
# Youngs Moduli (GPa) = 93.11162 26.44966 89.34251
#
# Poissons Ratio (x) = -0.04007 0.33334
# Poissons Ratio (y) = -0.14105 0.14675
# Poissons Ratio (z) = 0.34740 0.04345
#
# Static dielectric constant tensor:
#      x y z
#    x 4.046150 0.000000 0.000000 
#    y 0.000000 3.592940 0.000000 
#    z 0.000000 0.000000 4.146020 
# 
# 
# High freq. dielectric constant tensor:
#      x y z
#    x 1.858100 0.000000 0.000000 
#    y 0.000000 1.836130 0.000000 
#    z 0.000000 0.000000 1.869610 
# 
# From -- ./inp_files/15068.got.cif
#   From: 2010.03.12/outbox.cif.g09.slc.cpg/sg46_8_cif.got.tgz:15068.got - 2010.04.14 02:56:35.
