data_PCOD8191943
_publ_section_title
;
Structure prediction by ZEFSAII (Michael W. Deem and Ramdas Pophale) SiO2 
 PCOD8191943
Probable space group: I M A 2
;
_chemical_formula_sum "Si O2"
_cell_formula_units_Z 48
_cell_length_a 15.767086
_cell_length_b 9.338589
_cell_length_c 15.471430
_cell_angle_alpha 90.000000
_cell_angle_beta 90.000000
_cell_angle_gamma 90.000000
_cell_volume 2278.049493
_symmetry_space_group_name_H-M "I M A 2"
_symmetry_group_IT_number 46
_symmetry_cell_setting 'orthorhombic'
loop_
_space_group_symop_operation_xyz
x,y,z
-x,-y,z
1/2-x,y,z
1/2+x,-y,z
1/2+x,1/2+y,1/2+z
1/2-x,1/2-y,1/2+z
-x,1/2+y,1/2+z
x,1/2-y,1/2+z
loop_
_atom_site_type_symbol
_atom_site_label
_atom_site_fract_x
_atom_site_fract_y
_atom_site_fract_z
Si Si1 0.649322 0.421281 0.773300
Si Si2 0.349761 0.881638 0.958536
Si Si3 0.090586 0.565049 0.959813
Si Si4 0.653847 0.905897 0.616796
Si Si5 0.651104 0.102041 0.765419
Si Si6 0.649047 0.909388 0.107327
O O1 0.750000 0.416822 0.781181
O O2 0.613906 0.483797 0.863055
O O3 0.613530 0.262011 0.754752
O O4 0.617127 0.522883 0.696975
O O5 0.250000 0.844466 0.971027
O O6 0.403697 0.736478 0.969063
O O7 0.364861 0.950429 0.863644
O O8 0.384877 0.996058 0.027323
O O9 0.000000 0.500000 0.984814
O O10 0.154430 0.495861 0.028689
O O11 0.750000 0.874752 0.644475
O O12 0.610161 0.750563 0.602736
O O13 0.608687 0.993356 0.695831
O O14 0.750000 0.109878 0.743464
O O15 0.750000 0.909576 0.101543
#
# Coordination Sequence:
#
# PCOD8191943 Si02
#       6
#     8   8   8   8   8   8
#     4   9  17  33  54  76 101 135 174 217 263 313
#     4   9  17  34  58  83 107 138 176 218 266 323
#     4  11  22  35  51  75 105 142 185 221 257 311
#     4  10  19  33  53  80 108 135 169 220 271 315
#     4   8  15  28  52  79 102 130 168 208 255 309
#     4   9  18  31  55  85 107 130 170 218 271 323
#
# _framework density 21.070656
#
# number of rings (size 3 to 8) (size 9 to 14) (size 15 to 20)
#    0.000    2.667    0.000    3.500    0.000    4.000 
#    0.000   10.833    0.000    0.000    0.000    0.000 
#    0.000    0.000    0.000    0.000    0.000    0.000 
#
# Total GULP energy -297510.905365 kJ/mol
# GULP energy per Si atom -12396.287724 kJ/mol
# Density = 2.102270 g / cm^3
# Si number density = 21.070656 Si / 1000 Ang^3
#
#
#
# Elastic Constant Matrix: (Units=GPa)
#
#
# Indices 1 2 3 4 5 6 
#
# 1 24.8413 15.1069 4.8713 0.0000 0.0000 0.0000
# 2 15.1069 149.7680 101.5413 0.0000 0.0000 0.0000
# 3 4.8713 101.5413 177.7633 0.0000 0.0000 0.0000
# 4 0.0000 0.0000 0.0000 29.6428 0.0000 0.0000
# 5 0.0000 0.0000 0.0000 0.0000 6.4857 0.0000
# 6 0.0000 0.0000 0.0000 0.0000 0.0000 13.7578
#
#
#
# Elastic Compliance Matrix: (Units=1/GPa)
#
#
# Indices 1 2 3 4 5 6 
#
# 1 0.043379 -0.005826 0.002139 0.000000 0.000000 0.000000
# 2 -0.005826 0.011680 -0.006512 0.000000 0.000000 0.000000
# 3 0.002139 -0.006512 0.009287 0.000000 0.000000 0.000000
# 4 0.000000 0.000000 0.000000 0.033735 0.000000 0.000000
# 5 0.000000 0.000000 0.000000 0.000000 0.154186 0.000000
# 6 0.000000 0.000000 0.000000 0.000000 0.000000 0.072686
#
#
# Mechanical properties :
#
#
# Convention : Reuss Voigt Hill
#
# Bulk Modulus (GPa) = 22.75427 66.15682 44.45555
# Shear Modulus (GPa) = 13.88891 25.36746 19.62819
#
# Velocity S-wave (km/s) = 2.57019 3.47352 3.05543
# Velocity P-wave (km/s) = 4.43061 6.89586 5.79583
#
# Compressibility (1/GPa) = 0.04394779
#
# Stress axis : x y z
#
# Youngs Moduli (GPa) = 23.05264 85.61854 107.68208
#
# Poissons Ratio (x) = 0.49880 -0.23034
# Poissons Ratio (y) = 0.13430 0.70123
# Poissons Ratio (z) = -0.04931 0.55755
#
# Static dielectric constant tensor:
#      x y z
#    x 3.156540 0.000000 0.000000 
#    y 0.000000 4.022210 0.000000 
#    z 0.000000 0.000000 3.987280 
# 
# 
# High freq. dielectric constant tensor:
#      x y z
#    x 1.770790 0.000000 0.000000 
#    y 0.000000 1.825720 0.000000 
#    z 0.000000 0.000000 1.840980 
# 
# From -- ./inp_files/16541.got.cif
#   From: 2010.03.12/outbox.cif.g09.slc.cpg/sg46_9_cif.got.tgz:16541.got - 2010.04.14 02:56:35.
