data_PCOD8191947
_publ_section_title
;
Structure prediction by ZEFSAII (Michael W. Deem and Ramdas Pophale) SiO2 
 PCOD8191947
Probable space group: I M A 2
;
_chemical_formula_sum "Si O2"
_cell_formula_units_Z 64
_cell_length_a 9.265056
_cell_length_b 24.853870
_cell_length_c 14.961684
_cell_angle_alpha 90.000000
_cell_angle_beta 90.000000
_cell_angle_gamma 90.000000
_cell_volume 3445.264339
_symmetry_space_group_name_H-M "I M A 2"
_symmetry_group_IT_number 46
_symmetry_cell_setting 'orthorhombic'
loop_
_space_group_symop_operation_xyz
x,y,z
-x,-y,z
1/2-x,y,z
1/2+x,-y,z
1/2+x,1/2+y,1/2+z
1/2-x,1/2-y,1/2+z
-x,1/2+y,1/2+z
x,1/2-y,1/2+z
loop_
_atom_site_type_symbol
_atom_site_label
_atom_site_fract_x
_atom_site_fract_y
_atom_site_fract_z
Si Si1 0.584054 0.402740 0.426800
Si Si2 0.422693 0.444502 0.255152
Si Si3 0.414386 0.783699 0.888151
Si Si4 0.916105 0.758049 0.717025
Si Si5 0.585661 0.860884 0.604665
Si Si6 0.580763 0.053546 0.118728
Si Si7 0.080916 0.653126 0.736112
Si Si8 0.584400 0.332192 0.939687
O O1 0.750000 0.416246 0.401246
O O2 0.478358 0.423991 0.350637
O O3 0.566067 0.338675 0.443293
O O4 0.537382 0.431251 0.518002
O O5 0.500000 0.500000 0.230105
O O6 0.250000 0.451232 0.260183
O O7 0.471827 0.402135 0.179542
O O8 0.250000 0.777261 0.852589
O O9 0.519544 0.786666 0.804121
O O10 0.451453 0.731672 0.948789
O O11 0.750000 0.744507 0.735949
O O12 0.934028 0.799664 0.636357
O O13 0.999362 0.703596 0.692145
O O14 0.750000 0.874871 0.584171
O O15 0.501818 0.867328 0.511662
O O16 0.750000 0.043941 0.127519
O O17 0.528297 0.099809 0.186137
O O18 0.500000 0.000000 0.148448
O O19 0.250000 0.663169 0.721932
O O20 0.041006 0.648155 0.840577
O O21 0.750000 0.343966 0.959401
#
# Coordination Sequence:
#
# PCOD8191947 Si02
#       8
#     8   8   8   8   8   8   8   8
#     4  10  20  35  57  85 114 149 186 223 275 333
#     4  11  23  40  58  80 113 150 190 233 278 330
#     4   9  18  33  53  82 115 147 185 221 267 330
#     4  10  19  33  53  81 113 146 181 222 277 332
#     4  10  22  37  53  80 116 148 182 228 280 329
#     4  10  22  39  59  82 112 146 188 236 280 331
#     4   9  20  39  59  81 110 146 187 234 279 329
#     4   9  19  34  56  83 111 145 186 228 272 327
#
# _framework density 18.576224
#
# number of rings (size 3 to 8) (size 9 to 14) (size 15 to 20)
#    0.000    2.250    1.250    1.875    1.750    6.000 
#    0.000    0.625    0.000    3.000    0.000    0.000 
#    0.000    0.000    0.000    0.000    0.000    0.000 
#
# Total GULP energy -396823.734627 kJ/mol
# GULP energy per Si atom -12400.741707 kJ/mol
# Density = 1.853394 g / cm^3
# Si number density = 18.576224 Si / 1000 Ang^3
#
#
#
# Elastic Constant Matrix: (Units=GPa)
#
#
# Indices 1 2 3 4 5 6 
#
# 1 68.9545 47.0903 46.4431 0.0000 0.0000 0.0000
# 2 47.0903 125.1077 52.5994 -0.0001 0.0000 0.0000
# 3 46.4431 52.5994 88.4317 -0.0001 0.0000 0.0000
# 4 0.0000 -0.0001 -0.0001 29.1937 0.0000 0.0000
# 5 0.0000 0.0000 0.0000 0.0000 29.6617 0.0000
# 6 0.0000 0.0000 0.0000 0.0000 0.0000 30.5580
#
#
#
# Elastic Compliance Matrix: (Units=1/GPa)
#
#
# Indices 1 2 3 4 5 6 
#
# 1 0.024676 -0.005120 -0.009914 0.000000 0.000000 0.000000
# 2 -0.005120 0.011721 -0.004283 0.000000 0.000000 0.000000
# 3 -0.009914 -0.004283 0.019062 0.000000 0.000000 0.000000
# 4 0.000000 0.000000 0.000000 0.034254 0.000000 0.000000
# 5 0.000000 0.000000 0.000000 0.000000 0.033714 0.000000
# 6 0.000000 0.000000 0.000000 0.000000 0.000000 0.032725
#
#
# Mechanical properties :
#
#
# Convention : Reuss Voigt Hill
#
# Bulk Modulus (GPa) = 59.43269 63.86218 61.64744
# Shear Modulus (GPa) = 24.95080 26.97341 25.96211
#
# Velocity S-wave (km/s) = 3.66889 3.81470 3.74250
# Velocity P-wave (km/s) = 7.07185 7.33864 7.20648
#
# Compressibility (1/GPa) = 0.01682576
#
# Stress axis : x y z
#
# Youngs Moduli (GPa) = 40.52449 85.31846 52.45914
#
# Poissons Ratio (x) = 0.43681 0.52010
# Poissons Ratio (y) = 0.20748 0.22467
# Poissons Ratio (z) = 0.40178 0.36539
#
# Static dielectric constant tensor:
#      x y z
#    x 3.358040 0.000000 0.000000 
#    y 0.000000 3.504690 0.000000 
#    z 0.000000 0.000000 3.259330 
# 
# 
# High freq. dielectric constant tensor:
#      x y z
#    x 1.718270 0.000000 0.000000 
#    y 0.000000 1.720350 0.000000 
#    z 0.000000 0.000000 1.711520 
# 
# From -- ./inp_files/14499.got.cif
#   From: 2010.03.12/outbox.cif.g09.slc.cpg/sg46_8_cif.got.tgz:14499.got - 2010.04.14 02:56:35.
