data_PCOD8191965
_publ_section_title
;
Structure prediction by ZEFSAII (Michael W. Deem and Ramdas Pophale) SiO2 
 PCOD8191965
Probable space group: I M A 2
;
_chemical_formula_sum "Si O2"
_cell_formula_units_Z 64
_cell_length_a 15.428963
_cell_length_b 9.097199
_cell_length_c 20.597908
_cell_angle_alpha 90.000000
_cell_angle_beta 90.000000
_cell_angle_gamma 90.000000
_cell_volume 2891.129510
_symmetry_space_group_name_H-M "I M A 2"
_symmetry_group_IT_number 46
_symmetry_cell_setting 'orthorhombic'
loop_
_space_group_symop_operation_xyz
x,y,z
-x,-y,z
1/2-x,y,z
1/2+x,-y,z
1/2+x,1/2+y,1/2+z
1/2-x,1/2-y,1/2+z
-x,1/2+y,1/2+z
x,1/2-y,1/2+z
loop_
_atom_site_type_symbol
_atom_site_label
_atom_site_fract_x
_atom_site_fract_y
_atom_site_fract_z
Si Si1 0.646300 0.627291 0.042670
Si Si2 0.352265 0.139217 0.785527
Si Si3 0.352638 0.793860 0.559531
Si Si4 0.352578 0.636477 0.689625
Si Si5 0.646398 0.688223 0.663695
Si Si6 0.351972 0.811160 0.812504
Si Si7 0.911694 0.406958 0.445400
Si Si8 0.653823 0.704625 0.422490
O O1 0.750000 0.635657 0.042968
O O2 0.614892 0.460836 0.051277
O O3 0.609834 0.732729 0.099449
O O4 0.606074 0.692406 0.975527
O O5 0.250000 0.164012 0.788637
O O6 0.392489 0.221678 0.724255
O O7 0.393295 0.207652 0.852024
O O8 0.372901 0.967590 0.779559
O O9 0.250000 0.778417 0.547080
O O10 0.378705 0.748036 0.632367
O O11 0.403951 0.692528 0.508968
O O12 0.250000 0.627385 0.694654
O O13 0.390301 0.476723 0.670653
O O14 0.387073 0.691465 0.760132
O O15 0.750000 0.690540 0.663304
O O16 0.250000 0.790165 0.825649
O O17 0.401184 0.801901 0.881804
O O18 0.838512 0.534057 0.445608
O O19 0.000000 0.500000 0.444057
O O20 0.750000 0.767966 0.415446
#
# Coordination Sequence:
#
# PCOD8191965 Si02
#       8
#     8   8   8   8   8   8   8   8
#     4   9  17  28  48  76 105 133 169 219 279 335
#     4   8  14  24  41  64  94 126 159 199 250 305
#     4  10  19  33  54  82 110 140 181 236 289 338
#     4   9  17  28  50  81 110 135 169 220 278 330
#     4   9  15  24  41  73 109 134 158 205 268 327
#     4   9  17  32  53  78 106 141 183 232 282 332
#     4  11  22  35  53  76 110 153 191 227 276 344
#     4   9  17  32  52  74  98 130 172 222 272 325
#
# _framework density 22.136676999999999
#
# number of rings (size 3 to 8) (size 9 to 14) (size 15 to 20)
#    0.000    2.750    0.000    3.375    0.000    6.000 
#    0.000    4.375    0.000    7.500    0.000    0.000 
#    0.000    0.000    0.000    0.000    0.000    0.000 
#
# Total GULP energy -396549.660986 kJ/mol
# GULP energy per Si atom -12392.176906 kJ/mol
# Density = 2.208629 g / cm^3
# Si number density = 22.136677 Si / 1000 Ang^3
#
#
#
# Elastic Constant Matrix: (Units=GPa)
#
#
# Indices 1 2 3 4 5 6 
#
# 1 27.6210 0.6222 10.2567 0.0000 0.0000 0.0000
# 2 0.6222 95.4454 46.8067 0.0000 0.0000 0.0000
# 3 10.2567 46.8067 136.4438 0.0000 0.0000 0.0000
# 4 0.0000 0.0000 0.0000 55.5573 0.0000 0.0000
# 5 0.0000 0.0000 0.0000 0.0000 5.2579 0.0000
# 6 0.0000 0.0000 0.0000 0.0000 0.0000 11.0518
#
#
#
# Elastic Compliance Matrix: (Units=1/GPa)
#
#
# Indices 1 2 3 4 5 6 
#
# 1 0.037391 0.001364 -0.003279 0.000000 0.000000 0.000000
# 2 0.001364 0.012646 -0.004441 0.000000 0.000000 0.000000
# 3 -0.003279 -0.004441 0.009099 0.000000 0.000000 0.000000
# 4 0.000000 0.000000 0.000000 0.017999 0.000000 0.000000
# 5 0.000000 0.000000 0.000000 0.000000 0.190192 0.000000
# 6 0.000000 0.000000 0.000000 0.000000 0.000000 0.090483
#
#
# Mechanical properties :
#
#
# Convention : Reuss Voigt Hill
#
# Bulk Modulus (GPa) = 21.53992 41.65348 31.59670
# Shear Modulus (GPa) = 12.95351 27.82838 20.39094
#
# Velocity S-wave (km/s) = 2.42163 3.54943 3.03832
# Velocity P-wave (km/s) = 4.19173 5.97120 5.15877
#
# Compressibility (1/GPa) = 0.04642542
#
# Stress axis : x y z
#
# Youngs Moduli (GPa) = 26.74432 79.07604 109.90365
#
# Poissons Ratio (x) = -0.10787 0.36034
# Poissons Ratio (y) = -0.03648 0.48805
# Poissons Ratio (z) = 0.08769 0.35116
#
# Static dielectric constant tensor:
#      x y z
#    x 3.378330 0.000000 0.000000 
#    y 0.000000 4.097540 0.000000 
#    z 0.000000 0.000000 4.361790 
# 
# 
# High freq. dielectric constant tensor:
#      x y z
#    x 1.818740 0.000000 0.000000 
#    y 0.000000 1.862370 0.000000 
#    z 0.000000 0.000000 1.886500 
# 
# From -- ./inp_files/22472.got.cif
#   From: 2010.03.12/outbox.cif.g09.slc.cpg/sg46_12_cif.got.tgz:22472.got - 2010.04.14 02:56:35.
