data_PCOD8191828
_publ_section_title
;
Structure prediction by ZEFSAII (Michael W. Deem and Ramdas Pophale) SiO2 
 PCOD8191828
Probable space group: I M A 2
;
_chemical_formula_sum "Si O2"
_cell_formula_units_Z 64
_cell_length_a 9.373106
_cell_length_b 37.493988
_cell_length_c 10.051984
_cell_angle_alpha 90.000000
_cell_angle_beta 90.000000
_cell_angle_gamma 90.000000
_cell_volume 3532.620242
_symmetry_space_group_name_H-M "I M A 2"
_symmetry_group_IT_number 46
_symmetry_cell_setting 'orthorhombic'
loop_
_space_group_symop_operation_xyz
x,y,z
-x,-y,z
1/2-x,y,z
1/2+x,-y,z
1/2+x,1/2+y,1/2+z
1/2-x,1/2-y,1/2+z
-x,1/2+y,1/2+z
x,1/2-y,1/2+z
loop_
_atom_site_type_symbol
_atom_site_label
_atom_site_fract_x
_atom_site_fract_y
_atom_site_fract_z
Si Si1 0.916063 0.035356 0.692450
Si Si2 0.081340 0.278623 0.844586
Si Si3 0.414182 0.597481 0.692876
Si Si4 0.919008 0.832232 0.568831
Si Si5 0.419435 0.199117 0.844592
Si Si6 0.914185 0.402520 0.996291
Si Si7 0.419014 0.332230 0.620354
Si Si8 0.083942 0.535355 0.496690
O O1 0.750000 0.027307 0.672088
O O2 0.968485 0.066696 0.595350
O O3 0.949850 0.046552 0.844572
O O4 0.000000 0.000000 0.651801
O O5 0.250000 0.275137 0.844532
O O6 0.013897 0.238991 0.844585
O O7 0.030797 0.299763 0.713932
O O8 0.030863 0.299753 0.975285
O O9 0.250000 0.607023 0.662918
O O10 0.508289 0.631974 0.668726
O O11 0.468436 0.566695 0.593805
O O12 0.433817 0.584335 0.844582
O O13 0.750000 0.837905 0.560745
O O14 0.972002 0.822684 0.716503
O O15 0.991760 0.868017 0.520423
O O16 0.250000 0.202384 0.844599
O O17 0.472014 0.177320 0.972687
O O18 0.750000 0.392994 0.026293
O O19 0.250000 0.337888 0.628445
O O20 0.250000 0.527299 0.517030
O O21 0.000000 0.500000 0.537346
#
# Coordination Sequence:
#
# PCOD8191828 Si02
#       8
#     8   8   8   8   8   8   8   8
#     4   9  19  36  56  78 103 133 167 204 249 299
#     4   9  16  30  51  73 102 135 168 211 262 307
#     4  10  21  36  53  74 105 141 171 205 253 303
#     4  10  19  32  51  77 103 132 173 215 255 301
#     4   9  18  30  49  77 104 131 168 217 264 303
#     4  10  21  36  53  74 105 141 171 205 253 303
#     4  10  19  32  51  77 103 132 173 215 255 301
#     4   9  19  36  56  78 103 133 167 204 249 299
#
# _framework density 18.116864
#
# number of rings (size 3 to 8) (size 9 to 14) (size 15 to 20)
#    0.000    2.500    1.250    0.750    1.750    4.500 
#    0.000    0.000    0.000    4.500    0.000    0.000 
#    0.000    0.000    0.000    0.000    0.000    0.000 
#
# Total GULP energy -396823.443425 kJ/mol
# GULP energy per Si atom -12400.732607 kJ/mol
# Density = 1.807563 g / cm^3
# Si number density = 18.116864 Si / 1000 Ang^3
#
#
#
# Elastic Constant Matrix: (Units=GPa)
#
#
# Indices 1 2 3 4 5 6 
#
# 1 30.0752 30.8876 21.5712 -0.0014 -0.0004 0.0006
# 2 30.8876 102.1714 46.0773 -0.0399 -0.0081 -0.0079
# 3 21.5712 46.0773 123.3497 -0.0185 -0.0044 -0.0057
# 4 -0.0014 -0.0399 -0.0185 63.3441 -0.0077 -0.0148
# 5 -0.0004 -0.0081 -0.0044 -0.0077 18.1208 -0.0035
# 6 0.0006 -0.0079 -0.0057 -0.0148 -0.0035 22.9332
#
#
#
# Elastic Compliance Matrix: (Units=1/GPa)
#
#
# Indices 1 2 3 4 5 6 
#
# 1 0.049583 -0.013324 -0.003694 -0.000008 -0.000006 -0.000007
# 2 -0.013324 0.015351 -0.003404 0.000008 0.000006 0.000005
# 3 -0.003694 -0.003404 0.010025 0.000001 0.000001 0.000001
# 4 -0.000008 0.000008 0.000001 0.015787 0.000007 0.000010
# 5 -0.000006 0.000006 0.000001 0.000007 0.055185 0.000008
# 6 -0.000007 0.000005 0.000001 0.000010 0.000008 0.043605
#
#
# Mechanical properties :
#
#
# Convention : Reuss Voigt Hill
#
# Bulk Modulus (GPa) = 29.31293 50.29649 39.80471
# Shear Modulus (GPa) = 20.68255 31.35032 26.01643
#
# Velocity S-wave (km/s) = 3.38245 4.16438 3.79362
# Velocity P-wave (km/s) = 5.60978 7.13760 6.41930
#
# Compressibility (1/GPa) = 0.03411464
#
# Stress axis : x y z
#
# Youngs Moduli (GPa) = 20.16829 65.14417 99.75397
#
# Poissons Ratio (x) = 0.86795 0.36848
# Poissons Ratio (y) = 0.26871 0.33958
# Poissons Ratio (z) = 0.07450 0.22176
#
# Static dielectric constant tensor:
#      x y z
#    x 3.023090 0.000000 0.000000 
#    y 0.000000 3.365520 -0.000010 
#    z 0.000000 -0.000010 3.660890 
# 
# 
# High freq. dielectric constant tensor:
#      x y z
#    x 1.665860 0.000000 0.000000 
#    y 0.000000 1.704370 0.000000 
#    z 0.000000 0.000000 1.719900 
# 
# From -- ./inp_files/5028.got.cif
#   From: 2010.03.12/outbox.cif.g09.slc.cpg/sg46_3_cif.got.tgz:5028.got - 2010.04.14 02:56:35.
