data_PCOD8191009
_publ_section_title
;
Structure prediction by ZEFSAII (Michael W. Deem and Ramdas Pophale) SiO2 
 PCOD8191009
Probable space group: I B A 2
;
_chemical_formula_sum "Si O2"
_cell_formula_units_Z 64
_cell_length_a 15.281974
_cell_length_b 23.216497
_cell_length_c 8.581563
_cell_angle_alpha 90.000000
_cell_angle_beta 90.000000
_cell_angle_gamma 90.000000
_cell_volume 3044.686235
_symmetry_space_group_name_H-M "I B A 2"
_symmetry_group_IT_number 45
_symmetry_cell_setting 'orthorhombic'
loop_
_space_group_symop_operation_xyz
x,y,z
-x,-y,z
-x,y,1/2+z
x,-y,1/2+z
1/2+x,1/2+y,1/2+z
1/2-x,1/2-y,1/2+z
1/2-x,1/2+y,z
1/2+x,1/2-y,z
loop_
_atom_site_type_symbol
_atom_site_label
_atom_site_fract_x
_atom_site_fract_y
_atom_site_fract_z
Si Si1 0.093654 0.617954 0.916270
Si Si2 0.346531 0.754736 0.048865
Si Si3 0.238930 0.938685 0.548985
Si Si4 0.593667 0.882049 0.549421
Si Si5 0.910041 0.140885 0.416503
Si Si6 0.589953 0.640880 0.049191
Si Si7 0.346539 0.245265 0.916821
Si Si8 0.738922 0.438695 0.416703
O O1 0.096452 0.608280 0.732846
O O2 0.114104 0.683622 0.961631
O O3 0.163634 0.575727 0.993837
O O4 0.999992 0.600091 0.982836
O O5 0.385866 0.816384 0.004052
O O6 0.345615 0.744014 0.232843
O O7 0.406985 0.707660 0.965400
O O8 0.249996 0.749993 0.982848
O O9 0.173273 0.890507 0.487584
O O10 0.234910 0.940220 0.732844
O O11 0.209031 0.999992 0.482828
O O12 0.663646 0.924282 0.471879
O O13 0.907770 0.134084 0.232848
O O14 0.999993 0.113826 0.482856
O O15 0.593018 0.707652 0.000280
O O16 0.673257 0.609476 0.978111
#
# Coordination Sequence:
#
# PCOD8191009 Si02
#       8
#     8   8   8   8   8   8   8   8
#     4  11  24  42  66  98 133 172 217 266 322 385
#     4  11  22  38  65  98 135 174 215 263 323 386
#     4  12  26  46  70  95 128 169 218 271 327 385
#     4  11  24  42  66  98 133 172 217 266 322 385
#     4  12  25  43  67  98 134 172 219 267 323 387
#     4  12  25  43  67  98 134 172 219 267 323 387
#     4  11  22  38  65  98 135 174 215 263 323 386
#     4  12  26  46  70  95 128 169 218 271 327 385
#
# _framework density 21.020227999999999
#
# number of rings (size 3 to 8) (size 9 to 14) (size 15 to 20)
#    0.000    0.500    2.500    6.750    0.000    6.000 
#    0.000    5.000    0.000    0.000    0.000    0.000 
#    0.000    0.000    0.000    0.000    0.000    0.000 
#
# Total GULP energy -397074.350117 kJ/mol
# GULP energy per Si atom -12408.573441 kJ/mol
# Density = 2.097239 g / cm^3
# Si number density = 21.020228 Si / 1000 Ang^3
#
#
#
# Elastic Constant Matrix: (Units=GPa)
#
#
# Indices 1 2 3 4 5 6 
#
# 1 118.8701 4.7787 34.6516 0.0000 0.0000 0.0000
# 2 4.7787 71.0586 33.3855 0.0000 0.0000 0.0000
# 3 34.6516 33.3855 153.0443 0.0005 0.0006 0.0001
# 4 0.0000 0.0000 0.0005 34.9227 0.0001 0.0000
# 5 0.0000 0.0000 0.0006 0.0001 41.1819 0.0000
# 6 0.0000 0.0000 0.0001 0.0000 0.0000 13.9757
#
#
#
# Elastic Compliance Matrix: (Units=1/GPa)
#
#
# Indices 1 2 3 4 5 6 
#
# 1 0.009017 0.000393 -0.002127 0.000000 0.000000 0.000000
# 2 0.000393 0.015697 -0.003513 0.000000 0.000000 0.000000
# 3 -0.002127 -0.003513 0.007782 0.000000 0.000000 0.000000
# 4 0.000000 0.000000 0.000000 0.028635 0.000000 0.000000
# 5 0.000000 0.000000 0.000000 0.000000 0.024283 0.000000
# 6 0.000000 0.000000 0.000000 0.000000 0.000000 0.071553
#
#
# Mechanical properties :
#
#
# Convention : Reuss Voigt Hill
#
# Bulk Modulus (GPa) = 45.45213 54.28943 49.87078
# Shear Modulus (GPa) = 28.60504 36.02654 32.31579
#
# Velocity S-wave (km/s) = 3.69295 4.14442 3.92518
# Velocity P-wave (km/s) = 6.31299 6.98462 6.65728
#
# Compressibility (1/GPa) = 0.02200117
#
# Stress axis : x y z
#
# Youngs Moduli (GPa) = 110.90327 63.70617 128.50015
#
# Poissons Ratio (x) = -0.02504 0.27336
# Poissons Ratio (y) = -0.04359 0.45145
# Poissons Ratio (z) = 0.23593 0.22381
#
# Static dielectric constant tensor:
#      x y z
#    x 3.901460 0.000000 0.000000 
#    y 0.000000 3.968570 0.000000 
#    z 0.000000 0.000000 3.928760 
# 
# 
# High freq. dielectric constant tensor:
#      x y z
#    x 1.840390 0.000000 0.000000 
#    y 0.000000 1.822380 0.000000 
#    z 0.000000 0.000000 1.841890 
# 
# From -- ./inp_files/1936.got.cif
#   From: 2010.03.12/outbox.cif.g09.slc.cpg/sg45_1_cif.got.tgz:1936.got - 2010.04.14 02:50:11.
