data_PCOD8191710
_publ_section_title
;
Structure prediction by ZEFSAII (Michael W. Deem and Ramdas Pophale) SiO2 
 PCOD8191710
Probable space group: I M A 2
;
_chemical_formula_sum "Si O2"
_cell_formula_units_Z 56
_cell_length_a 8.769309
_cell_length_b 13.599201
_cell_length_c 28.969875
_cell_angle_alpha 90.000000
_cell_angle_beta 90.000000
_cell_angle_gamma 90.000000
_cell_volume 3454.819701
_symmetry_space_group_name_H-M "I M A 2"
_symmetry_group_IT_number 46
_symmetry_cell_setting 'orthorhombic'
loop_
_space_group_symop_operation_xyz
x,y,z
-x,-y,z
1/2-x,y,z
1/2+x,-y,z
1/2+x,1/2+y,1/2+z
1/2-x,1/2-y,1/2+z
-x,1/2+y,1/2+z
x,1/2-y,1/2+z
loop_
_atom_site_type_symbol
_atom_site_label
_atom_site_fract_x
_atom_site_fract_y
_atom_site_fract_z
Si Si1 0.428455 0.604425 0.776030
Si Si2 0.071453 0.392490 0.596454
Si Si3 0.426417 0.894201 0.006157
Si Si4 0.571826 0.107565 0.904131
Si Si5 0.928981 0.398574 0.235206
Si Si6 0.069469 0.291156 0.319523
Si Si7 0.924892 0.205418 0.181072
O O1 0.500000 0.500000 0.787601
O O2 0.250000 0.604709 0.787019
O O3 0.508384 0.682842 0.809031
O O4 0.459523 0.630883 0.722814
O O5 0.250000 0.405271 0.592940
O O6 0.000000 0.500000 0.604480
O O7 0.009081 0.340354 0.549287
O O8 0.032588 0.321107 0.638684
O O9 0.250000 0.903542 0.018600
O O10 0.500000 0.000000 0.003267
O O11 0.450423 0.845963 0.955685
O O12 0.750000 0.099677 0.891658
O O13 0.486107 0.181722 0.870481
O O14 0.500000 0.000000 0.899861
O O15 0.750000 0.409234 0.243716
O O16 0.964018 0.315999 0.196966
O O17 0.000000 0.500000 0.216845
O O18 0.004489 0.370884 0.283814
O O19 0.250000 0.292181 0.316815
O O20 0.750000 0.196532 0.165375
#
# Coordination Sequence:
#
# PCOD8191710 Si02
#       7
#     8   8   8   8   8   8   8
#     4  10  20  34  50  69  94 123 156 194 232 272
#     4  11  20  29  45  67  94 124 154 189 227 272
#     4   9  17  29  45  64  90 121 152 187 228 273
#     4  10  19  31  47  68  94 124 156 191 230 275
#     4  10  20  34  50  68  93 123 155 194 232 272
#     4  11  21  32  48  69  94 125 158 191 228 274
#     4   9  19  33  48  67  92 122 155 188 225 270
#
# _framework density 16.209239
#
# number of rings (size 3 to 8) (size 9 to 14) (size 15 to 20)
#    0.000    2.000    0.000    6.857    0.000    6.286 
#    0.000    0.000    0.000    0.000    0.000    1.000 
#    0.000    4.571    0.000    0.000    0.000    0.000 
#
# Total GULP energy -347169.859555 kJ/mol
# GULP energy per Si atom -12398.923556 kJ/mol
# Density = 1.617235 g / cm^3
# Si number density = 16.209239 Si / 1000 Ang^3
#
#
#
# Elastic Constant Matrix: (Units=GPa)
#
#
# Indices 1 2 3 4 5 6 
#
# 1 140.6230 48.4816 67.1724 0.0000 0.0000 0.0000
# 2 48.4816 88.3786 46.4220 0.0000 0.0000 0.0000
# 3 67.1724 46.4220 117.3553 0.0000 0.0000 0.0000
# 4 0.0000 0.0000 0.0000 22.4166 0.0000 0.0000
# 5 0.0000 0.0000 0.0000 0.0000 27.2812 0.0000
# 6 0.0000 0.0000 0.0000 0.0000 0.0000 27.2720
#
#
#
# Elastic Compliance Matrix: (Units=1/GPa)
#
#
# Indices 1 2 3 4 5 6 
#
# 1 0.010491 -0.003283 -0.004706 0.000000 0.000000 0.000000
# 2 -0.003283 0.015310 -0.004177 0.000000 0.000000 0.000000
# 3 -0.004706 -0.004177 0.012867 0.000000 0.000000 0.000000
# 4 0.000000 0.000000 0.000000 0.044610 0.000000 0.000000
# 5 0.000000 0.000000 0.000000 0.000000 0.036655 0.000000
# 6 0.000000 0.000000 0.000000 0.000000 0.000000 0.036668
#
#
# Mechanical properties :
#
#
# Convention : Reuss Voigt Hill
#
# Bulk Modulus (GPa) = 69.75600 74.50100 72.12850
# Shear Modulus (GPa) = 26.92335 27.67935 27.30135
#
# Velocity S-wave (km/s) = 4.07994 4.13683 4.10848
# Velocity P-wave (km/s) = 8.08225 8.29938 8.19153
#
# Compressibility (1/GPa) = 0.01433569
#
# Stress axis : x y z
#
# Youngs Moduli (GPa) = 95.31805 65.31706 77.71692
#
# Poissons Ratio (x) = 0.21444 0.36576
# Poissons Ratio (y) = 0.31294 0.32462
# Poissons Ratio (z) = 0.44860 0.27282
#
# Static dielectric constant tensor:
#      x y z
#    x 3.215010 0.000000 0.000000 
#    y 0.000000 2.818110 0.000000 
#    z 0.000000 0.000000 3.430860 
# 
# 
# High freq. dielectric constant tensor:
#      x y z
#    x 1.644790 0.000000 0.000000 
#    y 0.000000 1.589360 0.000000 
#    z 0.000000 0.000000 1.623470 
# 
# From -- ./inp_files/25254.got.cif
#   From: 2010.03.12/outbox.cif.g09.slc.cpg/sg46_13_cif.got.tgz:25254.got - 2010.04.14 02:56:35.
