data_PCOD8191660
_publ_section_title
;
Structure prediction by ZEFSAII (Michael W. Deem and Ramdas Pophale) SiO2 
 PCOD8191660
Probable space group: I M A 2
;
_chemical_formula_sum "Si O2"
_cell_formula_units_Z 56
_cell_length_a 8.873039
_cell_length_b 18.170047
_cell_length_c 20.943457
_cell_angle_alpha 90.000000
_cell_angle_beta 90.000000
_cell_angle_gamma 90.000000
_cell_volume 3376.578187
_symmetry_space_group_name_H-M "I M A 2"
_symmetry_group_IT_number 46
_symmetry_cell_setting 'orthorhombic'
loop_
_space_group_symop_operation_xyz
x,y,z
-x,-y,z
1/2-x,y,z
1/2+x,-y,z
1/2+x,1/2+y,1/2+z
1/2-x,1/2-y,1/2+z
-x,1/2+y,1/2+z
x,1/2-y,1/2+z
loop_
_atom_site_type_symbol
_atom_site_label
_atom_site_fract_x
_atom_site_fract_y
_atom_site_fract_z
Si Si1 0.928418 0.159979 0.707080
Si Si2 0.571013 0.078108 0.332407
Si Si3 0.926281 0.851029 0.453375
Si Si4 0.427084 0.420582 0.088634
Si Si5 0.080739 0.291757 0.766594
Si Si6 0.916191 0.796106 0.897574
Si Si7 0.074539 0.577770 0.335767
O O1 0.750000 0.164763 0.700340
O O2 0.975829 0.109051 0.767043
O O3 0.000243 0.125659 0.644785
O O4 0.994228 0.242101 0.714620
O O5 0.750000 0.074066 0.329449
O O6 0.522836 0.102167 0.403402
O O7 0.511419 0.133440 0.277917
O O8 0.500000 0.000000 0.315965
O O9 0.750000 0.861376 0.436057
O O10 0.965105 0.878751 0.523492
O O11 0.969365 0.763813 0.450409
O O12 0.500000 0.500000 0.086000
O O13 0.250000 0.428512 0.100593
O O14 0.250000 0.309378 0.742289
O O15 0.087423 0.248047 0.832067
O O16 0.750000 0.826763 0.913975
O O17 0.027610 0.865422 0.891944
O O18 0.250000 0.566064 0.339318
O O19 0.000000 0.500000 0.348625
#
# Coordination Sequence:
#
# PCOD8191660 Si02
#       7
#     8   8   8   8   8   8   8
#     4  10  20  33  48  68  94 125 161 196 232 278
#     4  11  20  30  47  71  98 126 157 195 239 283
#     4   9  19  34  49  67  93 126 162 197 236 282
#     4  11  22  34  48  68  95 128 164 198 233 275
#     4   9  17  31  49  68  92 122 155 192 236 282
#     4   8  15  29  47  65  88 117 149 188 232 277
#     4  10  19  29  44  67  93 120 151 188 230 275
#
# _framework density 16.584835999999999
#
# number of rings (size 3 to 8) (size 9 to 14) (size 15 to 20)
#    0.000    2.286    0.000    4.714    0.000    8.571 
#    0.000    0.000    0.000    0.000    0.000    1.000 
#    0.000    2.286    0.000    0.000    0.000    0.000 
#
# Total GULP energy -347170.009952 kJ/mol
# GULP energy per Si atom -12398.928927 kJ/mol
# Density = 1.654709 g / cm^3
# Si number density = 16.584836 Si / 1000 Ang^3
#
#
#
# Elastic Constant Matrix: (Units=GPa)
#
#
# Indices 1 2 3 4 5 6 
#
# 1 100.4785 69.0918 40.0663 0.0000 0.0000 0.0000
# 2 69.0918 149.4566 62.8630 0.0000 0.0000 0.0000
# 3 40.0663 62.8630 73.4529 0.0000 0.0000 0.0000
# 4 0.0000 0.0000 0.0000 27.5646 0.0000 0.0000
# 5 0.0000 0.0000 0.0000 0.0000 20.1882 0.0000
# 6 0.0000 0.0000 0.0000 0.0000 0.0000 31.9813
#
#
#
# Elastic Compliance Matrix: (Units=1/GPa)
#
#
# Indices 1 2 3 4 5 6 
#
# 1 0.015160 -0.005516 -0.003549 0.000000 0.000000 0.000000
# 2 -0.005516 0.012461 -0.007656 0.000000 0.000000 0.000000
# 3 -0.003549 -0.007656 0.022102 0.000000 0.000000 0.000000
# 4 0.000000 0.000000 0.000000 0.036278 0.000000 0.000000
# 5 0.000000 0.000000 0.000000 0.000000 0.049534 0.000000
# 6 0.000000 0.000000 0.000000 0.000000 0.000000 0.031268
#
#
# Mechanical properties :
#
#
# Convention : Reuss Voigt Hill
#
# Bulk Modulus (GPa) = 61.41615 74.15891 67.78753
# Shear Modulus (GPa) = 24.31060 26.03795 25.17428
#
# Velocity S-wave (km/s) = 3.83277 3.96660 3.90026
# Velocity P-wave (km/s) = 7.52986 8.11114 7.82590
#
# Compressibility (1/GPa) = 0.01628236
#
# Stress axis : x y z
#
# Youngs Moduli (GPa) = 65.96183 80.25207 45.24489
#
# Poissons Ratio (x) = 0.44264 0.16058
# Poissons Ratio (y) = 0.36382 0.34638
# Poissons Ratio (z) = 0.23410 0.61438
#
# Static dielectric constant tensor:
#      x y z
#    x 3.280820 0.000000 0.000000 
#    y 0.000000 3.375790 0.000000 
#    z 0.000000 0.000000 2.962390 
# 
# 
# High freq. dielectric constant tensor:
#      x y z
#    x 1.653100 0.000000 0.000000 
#    y 0.000000 1.644290 0.000000 
#    z 0.000000 0.000000 1.597900 
# 
# From -- ./inp_files/21215.got.cif
#   From: 2010.03.12/outbox.cif.g09.slc.cpg/sg46_11_cif.got.tgz:21215.got - 2010.04.14 02:56:35.
