data_PCOD8191700
_publ_section_title
;
Structure prediction by ZEFSAII (Michael W. Deem and Ramdas Pophale) SiO2 
 PCOD8191700
Probable space group: I M A 2
;
_chemical_formula_sum "Si O2"
_cell_formula_units_Z 48
_cell_length_a 9.560936
_cell_length_b 27.851595
_cell_length_c 8.891195
_cell_angle_alpha 90.000000
_cell_angle_beta 90.000000
_cell_angle_gamma 90.000000
_cell_volume 2367.612464
_symmetry_space_group_name_H-M "I M A 2"
_symmetry_group_IT_number 46
_symmetry_cell_setting 'orthorhombic'
loop_
_space_group_symop_operation_xyz
x,y,z
-x,-y,z
1/2-x,y,z
1/2+x,-y,z
1/2+x,1/2+y,1/2+z
1/2-x,1/2-y,1/2+z
-x,1/2+y,1/2+z
x,1/2-y,1/2+z
loop_
_atom_site_type_symbol
_atom_site_label
_atom_site_fract_x
_atom_site_fract_y
_atom_site_fract_z
Si Si1 0.250000 0.211714 0.776041
Si Si2 0.750000 0.215379 0.231314
Si Si3 0.750000 0.811333 0.428925
Si Si4 0.750000 0.311912 0.396351
Si Si5 0.463743 0.355340 0.428174
Si Si6 0.912014 0.959144 0.934084
Si Si7 0.414982 0.957272 0.243480
Si Si8 0.997887 0.146333 0.275637
O O1 0.250000 0.207493 0.597500
O O2 0.250000 0.267745 0.811453
O O3 0.114465 0.187917 0.847967
O O4 0.750000 0.271446 0.269745
O O5 0.614650 0.188458 0.294876
O O6 0.750000 0.216145 0.052461
O O7 0.884112 0.844310 0.398950
O O8 0.623686 0.348874 0.384790
O O9 0.412810 0.406381 0.359004
O O10 0.437611 0.353326 0.607469
O O11 0.750000 0.974818 0.960965
O O12 0.000000 0.000000 0.839748
O O13 0.005544 0.953869 0.084285
O O14 0.250000 0.969965 0.228182
O O15 0.430109 0.905104 0.319355
O O16 0.500000 0.000000 0.332505
#
# Coordination Sequence:
#
# PCOD8191700 Si02
#       8
#     4   4   4   4   8   8   8   8
#     4  12  24  44  57  90 114 158 203 250 295 362
#     4  10  20  38  53  84 116 146 193 236 293 342
#     4  12  26  38  65  82 120 156 203 246 303 354
#     4  10  22  34  59  82 114 154 187 242 287 356
#     4  10  21  37  60  86 124 151 197 243 299 346
#     4  10  19  30  54  89 123 157 192 244 294 349
#     4  10  19  31  55  90 126 153 195 245 297 351
#     4  10  21  37  58  90 119 158 191 247 293 353
#
# _framework density 20.273589999999999
#
# number of rings (size 3 to 8) (size 9 to 14) (size 15 to 20)
#    0.000    1.667    1.667    4.500    9.333    4.000 
#    0.000    0.000    0.000    1.000    0.000    0.000 
#    0.000    0.000    0.000    0.000    0.000    0.000 
#
# Total GULP energy -297420.432879 kJ/mol
# GULP energy per Si atom -12392.518037 kJ/mol
# Density = 2.022745 g / cm^3
# Si number density = 20.273590 Si / 1000 Ang^3
#
#
#
# Elastic Constant Matrix: (Units=GPa)
#
#
# Indices 1 2 3 4 5 6 
#
# 1 161.9980 37.0808 26.1997 0.0040 0.0055 0.0006
# 2 37.0808 111.6794 14.8933 0.0024 0.0042 0.0015
# 3 26.1997 14.8933 48.4047 0.0231 0.0454 0.0097
# 4 0.0040 0.0024 0.0231 16.9261 0.0024 0.0010
# 5 0.0055 0.0042 0.0454 0.0024 23.0773 0.0088
# 6 0.0006 0.0015 0.0097 0.0010 0.0088 46.4877
#
#
#
# Elastic Compliance Matrix: (Units=1/GPa)
#
#
# Indices 1 2 3 4 5 6 
#
# 1 0.007145 -0.001936 -0.003272 0.000003 0.000005 0.000001
# 2 -0.001936 0.009862 -0.001986 0.000002 0.000003 0.000000
# 3 -0.003272 -0.001986 0.023041 -0.000030 -0.000044 -0.000005
# 4 0.000003 0.000002 -0.000030 0.059080 -0.000006 -0.000001
# 5 0.000005 0.000003 -0.000044 -0.000006 0.043333 -0.000008
# 6 0.000001 0.000000 -0.000005 -0.000001 -0.000008 0.021511
#
#
# Mechanical properties :
#
#
# Convention : Reuss Voigt Hill
#
# Bulk Modulus (GPa) = 38.97130 53.15885 46.06508
# Shear Modulus (GPa) = 26.75020 33.55877 30.15448
#
# Velocity S-wave (km/s) = 3.63638 4.07295 3.86084
# Velocity P-wave (km/s) = 6.07416 6.95674 6.53038
#
# Compressibility (1/GPa) = 0.02565991
#
# Stress axis : x y z
#
# Youngs Moduli (GPa) = 139.95374 101.39983 43.40039
#
# Poissons Ratio (x) = 0.19632 0.14200
# Poissons Ratio (y) = 0.27097 0.08621
# Poissons Ratio (z) = 0.45789 0.20142
#
# Static dielectric constant tensor:
#      x y z
#    x 3.694680 0.000000 0.000070 
#    y 0.000000 4.669630 -0.000010 
#    z 0.000070 -0.000010 3.088600 
# 
# 
# High freq. dielectric constant tensor:
#      x y z
#    x 1.813550 0.000000 0.000000 
#    y 0.000000 1.818640 0.000000 
#    z 0.000000 0.000000 1.720750 
# 
# From -- ./inp_files/4033.got.cif
#   From: 2010.03.12/outbox.cif.g09.slc.cpg/sg46_3_cif.got.tgz:4033.got - 2010.04.14 02:56:35.
