data_PCOD8191754
_publ_section_title
;
Structure prediction by ZEFSAII (Michael W. Deem and Ramdas Pophale) SiO2 
 PCOD8191754
Probable space group: I M A 2
;
_chemical_formula_sum "Si O2"
_cell_formula_units_Z 64
_cell_length_a 8.789999
_cell_length_b 16.439732
_cell_length_c 22.932344
_cell_angle_alpha 90.000000
_cell_angle_beta 90.000000
_cell_angle_gamma 90.000000
_cell_volume 3313.843595
_symmetry_space_group_name_H-M "I M A 2"
_symmetry_group_IT_number 46
_symmetry_cell_setting 'orthorhombic'
loop_
_space_group_symop_operation_xyz
x,y,z
-x,-y,z
1/2-x,y,z
1/2+x,-y,z
1/2+x,1/2+y,1/2+z
1/2-x,1/2-y,1/2+z
-x,1/2+y,1/2+z
x,1/2-y,1/2+z
loop_
_atom_site_type_symbol
_atom_site_label
_atom_site_fract_x
_atom_site_fract_y
_atom_site_fract_z
Si Si1 0.931189 0.585663 0.349880
Si Si2 0.570114 0.577247 0.591485
Si Si3 0.071686 0.247381 0.143426
Si Si4 0.420998 0.922458 0.440419
Si Si5 0.070390 0.412494 0.820529
Si Si6 0.069044 0.260749 0.272168
Si Si7 0.081483 0.785126 0.532150
Si Si8 0.930463 0.123320 0.974298
O O1 0.750000 0.579768 0.346732
O O2 0.991105 0.664384 0.312563
O O3 0.000000 0.500000 0.325583
O O4 0.983164 0.596220 0.416310
O O5 0.500000 0.500000 0.626339
O O6 0.750000 0.572366 0.583666
O O7 0.520514 0.655478 0.628605
O O8 0.487377 0.571089 0.528778
O O9 0.250000 0.254602 0.145060
O O10 0.008253 0.275857 0.206211
O O11 0.012507 0.303526 0.090846
O O12 0.250000 0.939035 0.416998
O O13 0.524973 0.893937 0.386952
O O14 0.419015 0.864174 0.494366
O O15 0.500000 0.000000 0.468516
O O16 0.250000 0.420353 0.813011
O O17 0.009993 0.330531 0.788292
O O18 0.000000 0.500000 0.799393
O O19 0.250000 0.260106 0.275742
O O20 0.250000 0.759381 0.552131
O O21 0.015834 0.714708 0.490392
O O22 0.750000 0.114442 0.964142
#
# Coordination Sequence:
#
# PCOD8191754 Si02
#       8
#     8   8   8   8   8   8   8   8
#     4  11  22  37  56  78 105 137 177 221 265 312
#     4  10  19  31  50  76 105 135 167 203 248 304
#     4   9  19  36  55  73  96 132 176 213 249 302
#     4  10  19  32  50  75 106 134 165 206 255 309
#     4  10  19  33  54  81 111 140 173 211 256 311
#     4   9  20  38  57  76 103 141 180 218 259 308
#     4   9  19  34  52  76 104 132 165 211 260 304
#     4  10  19  33  53  77 106 135 166 207 258 312
#
# _framework density 19.312922
#
# number of rings (size 3 to 8) (size 9 to 14) (size 15 to 20)
#    0.000    2.250    0.000    3.750    0.000    2.500 
#    0.000    5.000    0.000    3.000    0.000    0.000 
#    0.000    0.000    0.000    0.000    0.000    0.000 
#
# Total GULP energy -396482.609430 kJ/mol
# GULP energy per Si atom -12390.081545 kJ/mol
# Density = 1.926897 g / cm^3
# Si number density = 19.312922 Si / 1000 Ang^3
#
#
#
# Elastic Constant Matrix: (Units=GPa)
#
#
# Indices 1 2 3 4 5 6 
#
# 1 47.6787 29.0731 22.1428 0.0000 0.0000 0.0000
# 2 29.0731 104.3824 44.4057 0.0000 0.0000 0.0000
# 3 22.1428 44.4057 82.9366 0.0000 0.0000 0.0000
# 4 0.0000 0.0000 0.0000 36.4893 0.0000 0.0000
# 5 0.0000 0.0000 0.0000 0.0000 18.0899 0.0000
# 6 0.0000 0.0000 0.0000 0.0000 0.0000 28.4731
#
#
#
# Elastic Compliance Matrix: (Units=1/GPa)
#
#
# Indices 1 2 3 4 5 6 
#
# 1 0.026254 -0.005608 -0.004007 0.000000 0.000000 0.000000
# 2 -0.005608 0.013604 -0.005786 0.000000 0.000000 0.000000
# 3 -0.004007 -0.005786 0.016225 0.000000 0.000000 0.000000
# 4 0.000000 0.000000 0.000000 0.027405 0.000000 0.000000
# 5 0.000000 0.000000 0.000000 0.000000 0.055280 0.000000
# 6 0.000000 0.000000 0.000000 0.000000 0.000000 0.035121
#
#
# Mechanical properties :
#
#
# Convention : Reuss Voigt Hill
#
# Bulk Modulus (GPa) = 39.55576 47.36010 43.45793
# Shear Modulus (GPa) = 23.46115 25.90219 24.68167
#
# Velocity S-wave (km/s) = 3.48917 3.66619 3.57877
# Velocity P-wave (km/s) = 6.06286 6.51897 6.29505
#
# Compressibility (1/GPa) = 0.02528077
#
# Stress axis : x y z
#
# Youngs Moduli (GPa) = 38.08923 73.50931 61.63188
#
# Poissons Ratio (x) = 0.41223 0.24696
# Poissons Ratio (y) = 0.21360 0.35663
# Poissons Ratio (z) = 0.15262 0.42536
#
# Static dielectric constant tensor:
#      x y z
#    x 3.627470 0.000000 0.000000 
#    y 0.000000 3.401670 0.000000 
#    z 0.000000 0.000000 3.526320 
# 
# 
# High freq. dielectric constant tensor:
#      x y z
#    x 1.744150 0.000000 0.000000 
#    y 0.000000 1.757640 0.000000 
#    z 0.000000 0.000000 1.739320 
# 
# From -- ./inp_files/23220.got.cif
#   From: 2010.03.12/outbox.cif.g09.slc.cpg/sg46_12_cif.got.tgz:23220.got - 2010.04.14 02:56:35.
