data_PCOD8191355
_publ_section_title
;
Structure prediction by ZEFSAII (Michael W. Deem and Ramdas Pophale) SiO2 
 PCOD8191355
Probable space group: I M A 2
;
_chemical_formula_sum "Si O2"
_cell_formula_units_Z 56
_cell_length_a 8.683332
_cell_length_b 18.538623
_cell_length_c 20.839238
_cell_angle_alpha 90.000000
_cell_angle_beta 90.000000
_cell_angle_gamma 90.000000
_cell_volume 3354.638398
_symmetry_space_group_name_H-M "I M A 2"
_symmetry_group_IT_number 46
_symmetry_cell_setting 'orthorhombic'
loop_
_space_group_symop_operation_xyz
x,y,z
-x,-y,z
1/2-x,y,z
1/2+x,-y,z
1/2+x,1/2+y,1/2+z
1/2-x,1/2-y,1/2+z
-x,1/2+y,1/2+z
x,1/2-y,1/2+z
loop_
_atom_site_type_symbol
_atom_site_label
_atom_site_fract_x
_atom_site_fract_y
_atom_site_fract_z
Si Si1 0.565548 0.854745 0.959290
Si Si2 0.917857 0.712607 0.905941
Si Si3 0.067020 0.421317 0.592340
Si Si4 0.932156 0.924280 0.829197
Si Si5 0.580664 0.717490 0.267647
Si Si6 0.569617 0.149034 0.214593
Si Si7 0.934702 0.923105 0.338301
O O1 0.750000 0.850058 0.957172
O O2 0.499215 0.771601 0.952481
O O3 0.504486 0.903369 0.900139
O O4 0.505654 0.889982 0.024759
O O5 0.750000 0.695077 0.935030
O O6 0.899018 0.751789 0.838346
O O7 0.999379 0.635331 0.891133
O O8 0.250000 0.424721 0.594384
O O9 0.000000 0.500000 0.603591
O O10 0.004877 0.368662 0.646659
O O11 0.750000 0.929482 0.831545
O O12 0.982103 0.864390 0.776013
O O13 0.000000 0.000000 0.806718
O O14 0.750000 0.718532 0.234295
O O15 0.462597 0.766306 0.227311
O O16 0.750000 0.134039 0.213459
O O17 0.493992 0.097441 0.267808
O O18 0.750000 0.923129 0.336655
O O19 0.000000 0.000000 0.359406
#
# Coordination Sequence:
#
# PCOD8191355 Si02
#       7
#     8   8   8   8   8   8   8
#     4   8  15  28  45  64  87 118 151 180 212 255
#     4   7  12  25  44  63  83 110 143 178 215 256
#     4  11  21  32  46  64  89 119 152 183 213 254
#     4   9  16  27  45  69  95 119 145 179 219 262
#     4   8  15  29  46  63  86 116 147 179 219 265
#     4  11  21  32  45  62  87 117 152 188 222 259
#     4  10  18  29  46  67  92 117 144 179 220 265
#
# _framework density 16.693304000000001
#
# number of rings (size 3 to 8) (size 9 to 14) (size 15 to 20)
#    0.000    2.857    0.000    5.571    0.000    0.571 
#    0.000    0.714    0.000    8.571    0.000    1.000 
#    0.000    2.286    0.000    0.000    0.000    0.000 
#
# Total GULP energy -346889.600077 kJ/mol
# GULP energy per Si atom -12388.914288 kJ/mol
# Density = 1.665531 g / cm^3
# Si number density = 16.693304 Si / 1000 Ang^3
#
#
#
# Elastic Constant Matrix: (Units=GPa)
#
#
# Indices 1 2 3 4 5 6 
#
# 1 51.8267 26.8727 18.3423 0.0000 0.0000 0.0000
# 2 26.8727 144.8385 38.5739 0.0000 0.0000 0.0000
# 3 18.3423 38.5739 50.8657 0.0000 0.0000 0.0000
# 4 0.0000 0.0000 0.0000 25.7673 0.0000 0.0000
# 5 0.0000 0.0000 0.0000 0.0000 10.6419 0.0000
# 6 0.0000 0.0000 0.0000 0.0000 0.0000 24.3478
#
#
#
# Elastic Compliance Matrix: (Units=1/GPa)
#
#
# Indices 1 2 3 4 5 6 
#
# 1 0.022853 -0.002563 -0.006297 0.000000 0.000000 0.000000
# 2 -0.002563 0.008939 -0.005855 0.000000 0.000000 0.000000
# 3 -0.006297 -0.005855 0.026370 0.000000 0.000000 0.000000
# 4 0.000000 0.000000 0.000000 0.038809 0.000000 0.000000
# 5 0.000000 0.000000 0.000000 0.000000 0.093968 0.000000
# 6 0.000000 0.000000 0.000000 0.000000 0.000000 0.041071
#
#
# Mechanical properties :
#
#
# Convention : Reuss Voigt Hill
#
# Bulk Modulus (GPa) = 34.80389 46.12321 40.46355
# Shear Modulus (GPa) = 18.44900 23.06753 20.75827
#
# Velocity S-wave (km/s) = 3.32802 3.72135 3.53017
# Velocity P-wave (km/s) = 5.97176 6.79370 6.39595
#
# Compressibility (1/GPa) = 0.02873242
#
# Stress axis : x y z
#
# Youngs Moduli (GPa) = 43.75860 111.86952 37.92147
#
# Poissons Ratio (x) = 0.28671 0.23880
# Poissons Ratio (y) = 0.11215 0.22202
# Poissons Ratio (z) = 0.27556 0.65496
#
# Static dielectric constant tensor:
#      x y z
#    x 2.893190 0.000000 0.000000 
#    y 0.000000 3.693880 0.000000 
#    z 0.000000 0.000000 2.987400 
# 
# 
# High freq. dielectric constant tensor:
#      x y z
#    x 1.621130 0.000000 0.000000 
#    y 0.000000 1.656340 0.000000 
#    z 0.000000 0.000000 1.599900 
# 
# From -- ./inp_files/18476.got.cif
#   From: 2010.03.12/outbox.cif.g09.slc.cpg/sg46_10_cif.got.tgz:18476.got - 2010.04.14 02:56:35.
