data_PCOD8191969
_publ_section_title
;
Structure prediction by ZEFSAII (Michael W. Deem and Ramdas Pophale) SiO2 
 PCOD8191969
Probable space group: I M A 2
;
_chemical_formula_sum "Si O2"
_cell_formula_units_Z 64
_cell_length_a 8.902817
_cell_length_b 24.694032
_cell_length_c 15.204065
_cell_angle_alpha 90.000000
_cell_angle_beta 90.000000
_cell_angle_gamma 90.000000
_cell_volume 3342.559684
_symmetry_space_group_name_H-M "I M A 2"
_symmetry_group_IT_number 46
_symmetry_cell_setting 'orthorhombic'
loop_
_space_group_symop_operation_xyz
x,y,z
-x,-y,z
1/2-x,y,z
1/2+x,-y,z
1/2+x,1/2+y,1/2+z
1/2-x,1/2-y,1/2+z
-x,1/2+y,1/2+z
x,1/2-y,1/2+z
loop_
_atom_site_type_symbol
_atom_site_label
_atom_site_fract_x
_atom_site_fract_y
_atom_site_fract_z
Si Si1 0.927289 0.146259 0.274630
Si Si2 0.574569 0.640564 0.145622
Si Si3 0.572120 0.441572 0.279060
Si Si4 0.077844 0.163288 0.451230
Si Si5 0.925893 0.388707 0.463407
Si Si6 0.425699 0.215258 0.919802
Si Si7 0.927517 0.233175 0.740600
Si Si8 0.426442 0.556094 0.641966
O O1 0.750000 0.145187 0.277585
O O2 0.981687 0.204581 0.238628
O O3 0.991276 0.101135 0.208800
O O4 0.983897 0.135563 0.373507
O O5 0.750000 0.637203 0.169050
O O6 0.484642 0.595825 0.199779
O O7 0.513102 0.700794 0.164533
O O8 0.546319 0.631363 0.041667
O O9 0.500000 0.500000 0.267759
O O10 0.750000 0.446875 0.272553
O O11 0.522947 0.416684 0.372617
O O12 0.250000 0.158553 0.423249
O O13 0.035804 0.226824 0.462977
O O14 0.750000 0.374938 0.464517
O O15 0.969369 0.429009 0.542198
O O16 0.017750 0.333366 0.482056
O O17 0.250000 0.209231 0.898901
O O18 0.522742 0.206369 0.831967
O O19 0.750000 0.226563 0.728622
O O20 0.500000 0.500000 0.668721
O O21 0.250000 0.550708 0.653693
#
# Coordination Sequence:
#
# PCOD8191969 Si02
#       8
#     8   8   8   8   8   8   8   8
#     4   9  20  38  59  83 113 149 193 240 289 343
#     4  11  22  37  57  84 119 154 192 239 286 341
#     4  11  23  39  59  84 115 154 198 237 286 343
#     4   9  21  38  56  83 118 152 190 237 288 341
#     4  10  21  36  56  83 118 153 189 233 281 343
#     4  10  19  33  54  82 116 153 190 228 279 339
#     4  10  19  33  54  83 115 150 189 230 282 341
#     4  10  22  40  59  84 114 149 194 242 289 340
#
# _framework density 19.147003999999999
#
# number of rings (size 3 to 8) (size 9 to 14) (size 15 to 20)
#    0.000    2.000    1.250    1.875    1.750    3.500 
#    0.000    0.625    0.000    1.500    0.000    0.000 
#    0.000    0.000    0.000    0.000    0.000    0.000 
#
# Total GULP energy -396852.880293 kJ/mol
# GULP energy per Si atom -12401.652509 kJ/mol
# Density = 1.910342 g / cm^3
# Si number density = 19.147004 Si / 1000 Ang^3
#
#
#
# Elastic Constant Matrix: (Units=GPa)
#
#
# Indices 1 2 3 4 5 6 
#
# 1 48.8329 36.6003 34.3649 0.0000 0.0001 0.0000
# 2 36.6003 123.8938 63.2407 0.0001 0.0000 0.0000
# 3 34.3649 63.2407 105.7926 -0.0001 0.0002 0.0000
# 4 0.0000 0.0001 -0.0001 27.6398 0.0000 0.0000
# 5 0.0001 0.0000 0.0002 0.0000 28.2342 0.0000
# 6 0.0000 0.0000 0.0000 0.0000 0.0000 33.3368
#
#
#
# Elastic Compliance Matrix: (Units=1/GPa)
#
#
# Indices 1 2 3 4 5 6 
#
# 1 0.028839 -0.005379 -0.006152 0.000000 0.000000 0.000000
# 2 -0.005379 0.012619 -0.005796 0.000000 0.000000 0.000000
# 3 -0.006152 -0.005796 0.014916 0.000000 0.000000 0.000000
# 4 0.000000 0.000000 0.000000 0.036180 0.000000 0.000000
# 5 0.000000 0.000000 0.000000 0.000000 0.035418 0.000000
# 6 0.000000 0.000000 0.000000 0.000000 0.000000 0.029997
#
#
# Mechanical properties :
#
#
# Convention : Reuss Voigt Hill
#
# Bulk Modulus (GPa) = 46.04309 60.77012 53.40661
# Shear Modulus (GPa) = 25.01705 27.46306 26.24006
#
# Velocity S-wave (km/s) = 3.61858 3.79136 3.70598
# Velocity P-wave (km/s) = 6.44657 7.13957 6.80190
#
# Compressibility (1/GPa) = 0.02171879
#
# Stress axis : x y z
#
# Youngs Moduli (GPa) = 34.67499 79.24483 67.04307
#
# Poissons Ratio (x) = 0.42627 0.41248
# Poissons Ratio (y) = 0.18652 0.38859
# Poissons Ratio (z) = 0.21333 0.45931
#
# Static dielectric constant tensor:
#      x y z
#    x 3.427400 0.000000 0.000000 
#    y 0.000000 3.548360 0.000000 
#    z 0.000000 0.000000 3.491970 
# 
# 
# High freq. dielectric constant tensor:
#      x y z
#    x 1.744360 0.000000 0.000000 
#    y 0.000000 1.739800 0.000000 
#    z 0.000000 0.000000 1.741210 
# 
# From -- ./inp_files/14512.got.cif
#   From: 2010.03.12/outbox.cif.g09.slc.cpg/sg46_8_cif.got.tgz:14512.got - 2010.04.14 02:56:35.
