data_PCOD8191139
_publ_section_title
;
Structure prediction by ZEFSAII (Michael W. Deem and Ramdas Pophale) SiO2 
 PCOD8191139
Probable space group: I M A 2
;
_chemical_formula_sum "Si O2"
_cell_formula_units_Z 64
_cell_length_a 35.812556
_cell_length_b 5.319056
_cell_length_c 12.628858
_cell_angle_alpha 90.000000
_cell_angle_beta 90.000000
_cell_angle_gamma 90.000000
_cell_volume 2405.658416
_symmetry_space_group_name_H-M "I M A 2"
_symmetry_group_IT_number 46
_symmetry_cell_setting 'orthorhombic'
loop_
_space_group_symop_operation_xyz
x,y,z
-x,-y,z
1/2-x,y,z
1/2+x,-y,z
1/2+x,1/2+y,1/2+z
1/2-x,1/2-y,1/2+z
-x,1/2+y,1/2+z
x,1/2-y,1/2+z
loop_
_atom_site_type_symbol
_atom_site_label
_atom_site_fract_x
_atom_site_fract_y
_atom_site_fract_z
Si Si1 0.103510 0.842573 0.205290
Si Si2 0.986499 0.748121 0.945639
Si Si3 0.290877 0.716677 0.391116
Si Si4 0.790679 0.715477 0.756463
Si Si5 0.631420 0.352338 0.468912
Si Si6 0.981616 0.250422 0.676193
Si Si7 0.367870 0.156184 0.694461
Si Si8 0.400092 0.350256 0.963064
O O1 0.117085 0.911143 0.086605
O O2 0.061415 0.750719 0.206940
O O3 0.128843 0.615833 0.255985
O O4 0.109675 0.120752 0.258944
O O5 0.942707 0.738604 0.967205
O O6 0.000000 0.500000 0.880938
O O7 0.012221 0.748744 0.050637
O O8 0.000000 0.000000 0.883482
O O9 0.250000 0.751141 0.446541
O O10 0.291956 0.442568 0.339166
O O11 0.324859 0.723670 0.474630
O O12 0.296868 0.944308 0.309330
O O13 0.750000 0.717430 0.698469
O O14 0.824827 0.761661 0.675553
O O15 0.624372 0.623662 0.410899
O O16 0.607437 0.127176 0.409665
O O17 0.000000 0.500000 0.725709
O O18 0.000000 0.000000 0.726130
O O19 0.386940 0.087719 0.582962
#
# Coordination Sequence:
#
# PCOD8191139 Si02
#       8
#     8   8   8   8   8   8   8   8
#     4  10  19  30  47  76 108 129 155 197 245 299
#     4  10  16  25  41  65 102 133 158 188 227 286
#     4  10  21  37  55  73  94 125 168 210 241 280
#     4  10  21  37  55  73  94 125 168 210 241 280
#     4  10  18  32  49  70 102 131 154 199 251 289
#     4  10  16  25  41  65 102 133 158 188 227 286
#     4  10  18  32  49  70 102 131 154 199 251 289
#     4  10  19  30  47  76 108 129 155 197 245 299
#
# _framework density 26.603943000000001
#
# number of rings (size 3 to 8) (size 9 to 14) (size 15 to 20)
#    0.000    2.000    0.000    9.000    0.000    0.000 
#    0.000    5.000    0.000    0.000    0.000    0.000 
#    0.000  244.000    0.000    0.000    0.000    0.000 
#
# Total GULP energy -396542.873320 kJ/mol
# GULP energy per Si atom -12391.964791 kJ/mol
# Density = 2.654339 g / cm^3
# Si number density = 26.603943 Si / 1000 Ang^3
#
#
#
# Elastic Constant Matrix: (Units=GPa)
#
#
# Indices 1 2 3 4 5 6 
#
# 1 208.0018 69.0748 -2.5650 0.0000 0.0000 0.0000
# 2 69.0748 274.7421 10.0518 0.0000 0.0000 0.0000
# 3 -2.5650 10.0518 24.9476 0.0000 0.0000 0.0000
# 4 0.0000 0.0000 0.0000 6.9367 0.0000 0.0000
# 5 0.0000 0.0000 0.0000 0.0000 18.8278 0.0000
# 6 0.0000 0.0000 0.0000 0.0000 0.0000 47.0754
#
#
#
# Elastic Compliance Matrix: (Units=1/GPa)
#
#
# Indices 1 2 3 4 5 6 
#
# 1 0.005275 -0.001366 0.001093 0.000000 0.000000 0.000000
# 2 -0.001366 0.004048 -0.001771 0.000000 0.000000 0.000000
# 3 0.001093 -0.001771 0.040910 0.000000 0.000000 0.000000
# 4 0.000000 0.000000 0.000000 0.144160 0.000000 0.000000
# 5 0.000000 0.000000 0.000000 0.000000 0.053113 0.000000
# 6 0.000000 0.000000 0.000000 0.000000 0.000000 0.021242
#
#
# Mechanical properties :
#
#
# Convention : Reuss Voigt Hill
#
# Bulk Modulus (GPa) = 21.67162 73.42386 47.54774
# Shear Modulus (GPa) = 17.34788 43.30999 30.32894
#
# Velocity S-wave (km/s) = 2.55635 4.03917 3.38008
# Velocity P-wave (km/s) = 4.10816 7.02936 5.75712
#
# Compressibility (1/GPa) = 0.04614331
#
# Stress axis : x y z
#
# Youngs Moduli (GPa) = 189.58028 247.03163 24.44380
#
# Poissons Ratio (x) = 0.33748 -0.02671
# Poissons Ratio (y) = 0.25900 0.04330
# Poissons Ratio (z) = -0.20717 0.43762
#
# Static dielectric constant tensor:
#      x y z
#    x 4.994640 0.000000 0.000000 
#    y 0.000000 6.009000 0.000000 
#    z 0.000000 0.000000 4.509710 
# 
# 
# High freq. dielectric constant tensor:
#      x y z
#    x 2.062650 0.000000 0.000000 
#    y 0.000000 2.125720 0.000000 
#    z 0.000000 0.000000 2.057540 
# 
# From -- ./inp_files/20559.got.cif
#   From: 2010.03.12/outbox.cif.g09.slc.cpg/sg46_11_cif.got.tgz:20559.got - 2010.04.14 02:56:35.
