data_PCOD8191801
_publ_section_title
;
Structure prediction by ZEFSAII (Michael W. Deem and Ramdas Pophale) SiO2 
 PCOD8191801
Probable space group: I M A 2
;
_chemical_formula_sum "Si O2"
_cell_formula_units_Z 64
_cell_length_a 15.554693
_cell_length_b 20.308557
_cell_length_c 9.317397
_cell_angle_alpha 90.000000
_cell_angle_beta 90.000000
_cell_angle_gamma 90.000000
_cell_volume 2943.303932
_symmetry_space_group_name_H-M "I M A 2"
_symmetry_group_IT_number 46
_symmetry_cell_setting 'orthorhombic'
loop_
_space_group_symop_operation_xyz
x,y,z
-x,-y,z
1/2-x,y,z
1/2+x,-y,z
1/2+x,1/2+y,1/2+z
1/2-x,1/2-y,1/2+z
-x,1/2+y,1/2+z
x,1/2-y,1/2+z
loop_
_atom_site_type_symbol
_atom_site_label
_atom_site_fract_x
_atom_site_fract_y
_atom_site_fract_z
Si Si1 0.647520 0.556263 0.844980
Si Si2 0.849580 0.175738 0.897016
Si Si3 0.647727 0.681265 0.018983
Si Si4 0.852665 0.806382 0.841665
Si Si5 0.653639 0.924088 0.030235
Si Si6 0.651671 0.295762 0.071749
Si Si7 0.910115 0.034451 0.851948
Si Si8 0.352452 0.560359 0.039011
O O1 0.750000 0.557229 0.839196
O O2 0.608005 0.566380 0.685725
O O3 0.613711 0.613194 0.951366
O O4 0.617333 0.485573 0.907516
O O5 0.750000 0.157907 0.930539
O O6 0.857983 0.207947 0.741256
O O7 0.905782 0.109445 0.908266
O O8 0.891010 0.230311 0.003644
O O9 0.750000 0.682267 0.026140
O O10 0.609457 0.689407 0.179744
O O11 0.614655 0.739794 0.916740
O O12 0.750000 0.809328 0.833816
O O13 0.890991 0.867152 0.934202
O O14 0.750000 0.899960 0.062225
O O15 0.658142 0.991998 0.942279
O O16 0.750000 0.293211 0.021018
O O17 0.612306 0.365212 0.013938
O O18 0.890271 0.029597 0.684109
O O19 0.000000 0.000000 0.888463
O O20 0.250000 0.562389 0.059214
#
# Coordination Sequence:
#
# PCOD8191801 Si02
#       8
#     8   8   8   8   8   8   8   8
#     4   9  17  28  48  76 103 128 165 215 270 323
#     4   9  17  32  55  84 111 136 171 223 278 330
#     4   9  15  24  39  66  98 129 162 206 258 303
#     4   9  16  25  42  65  95 129 164 207 257 304
#     4  10  19  32  50  74 100 131 171 221 272 319
#     4   8  15  27  49  79 107 131 162 208 270 328
#     4  11  22  35  52  74 106 147 183 213 257 327
#     4   9  17  33  55  80 106 135 175 227 277 330
#
# _framework density 21.744271000000001
#
# number of rings (size 3 to 8) (size 9 to 14) (size 15 to 20)
#    0.000    2.750    0.000    3.375    0.000    6.000 
#    0.000    4.375    0.000    9.000    0.000    0.000 
#    0.000    0.000    0.000    0.000    0.000    0.000 
#
# Total GULP energy -396644.309600 kJ/mol
# GULP energy per Si atom -12395.134675 kJ/mol
# Density = 2.169478 g / cm^3
# Si number density = 21.744271 Si / 1000 Ang^3
#
#
#
# Elastic Constant Matrix: (Units=GPa)
#
#
# Indices 1 2 3 4 5 6 
#
# 1 22.4516 17.3156 7.3599 0.0000 0.0000 0.0000
# 2 17.3156 174.3054 82.5339 0.0000 0.0000 0.0000
# 3 7.3599 82.5339 127.8166 0.0000 0.0000 0.0000
# 4 0.0000 0.0000 0.0000 49.6176 0.0000 0.0000
# 5 0.0000 0.0000 0.0000 0.0000 5.6364 0.0000
# 6 0.0000 0.0000 0.0000 0.0000 0.0000 11.8269
#
#
#
# Elastic Compliance Matrix: (Units=1/GPa)
#
#
# Indices 1 2 3 4 5 6 
#
# 1 0.048254 -0.005010 0.000456 0.000000 0.000000 0.000000
# 2 -0.005010 0.008784 -0.005383 0.000000 0.000000 0.000000
# 3 0.000456 -0.005383 0.011274 0.000000 0.000000 0.000000
# 4 0.000000 0.000000 0.000000 0.020154 0.000000 0.000000
# 5 0.000000 0.000000 0.000000 0.000000 0.177417 0.000000
# 6 0.000000 0.000000 0.000000 0.000000 0.000000 0.084553
#
#
# Mechanical properties :
#
#
# Convention : Reuss Voigt Hill
#
# Bulk Modulus (GPa) = 20.64489 59.88804 40.26647
# Shear Modulus (GPa) = 12.93808 27.90713 20.42261
#
# Velocity S-wave (km/s) = 2.44193 3.58638 3.06799
# Velocity P-wave (km/s) = 4.17920 6.68964 5.57750
#
# Compressibility (1/GPa) = 0.04843813
#
# Stress axis : x y z
#
# Youngs Moduli (GPa) = 20.72355 113.84628 88.70269
#
# Poissons Ratio (x) = 0.57033 -0.04047
# Poissons Ratio (y) = 0.10382 0.47752
# Poissons Ratio (z) = -0.00946 0.61288
#
# Static dielectric constant tensor:
#      x y z
#    x 3.212860 0.000000 0.000000 
#    y 0.000000 4.183990 0.000000 
#    z 0.000000 0.000000 4.021960 
# 
# 
# High freq. dielectric constant tensor:
#      x y z
#    x 1.792450 0.000000 0.000000 
#    y 0.000000 1.868820 0.000000 
#    z 0.000000 0.000000 1.856080 
# 
# From -- ./inp_files/6956.got.cif
#   From: 2010.03.12/outbox.cif.g09.slc.cpg/sg46_4_cif.got.tgz:6956.got - 2010.04.14 02:56:35.
