data_PCOD8191630
_publ_section_title
;
Structure prediction by ZEFSAII (Michael W. Deem and Ramdas Pophale) SiO2 
 PCOD8191630
Probable space group: I M A 2
;
_chemical_formula_sum "Si O2"
_cell_formula_units_Z 64
_cell_length_a 9.321133
_cell_length_b 26.719717
_cell_length_c 18.095067
_cell_angle_alpha 90.000000
_cell_angle_beta 90.000000
_cell_angle_gamma 90.000000
_cell_volume 4506.721846
_symmetry_space_group_name_H-M "I M A 2"
_symmetry_group_IT_number 46
_symmetry_cell_setting 'orthorhombic'
loop_
_space_group_symop_operation_xyz
x,y,z
-x,-y,z
1/2-x,y,z
1/2+x,-y,z
1/2+x,1/2+y,1/2+z
1/2-x,1/2-y,1/2+z
-x,1/2+y,1/2+z
x,1/2-y,1/2+z
loop_
_atom_site_type_symbol
_atom_site_label
_atom_site_fract_x
_atom_site_fract_y
_atom_site_fract_z
Si Si1 0.582469 0.758270 0.910700
Si Si2 0.582827 0.351504 0.653572
Si Si3 0.414527 0.848736 0.837479
Si Si4 0.410818 0.711584 0.202864
Si Si5 0.583062 0.048322 0.902221
Si Si6 0.582449 0.048774 0.073133
Si Si7 0.912065 0.254469 0.555748
Si Si8 0.084480 0.298329 0.769193
O O1 0.750000 0.770767 0.916895
O O2 0.503743 0.807757 0.882035
O O3 0.557078 0.710247 0.856843
O O4 0.521427 0.743365 0.990244
O O5 0.750000 0.354526 0.670253
O O6 0.526966 0.402964 0.617828
O O7 0.547813 0.306064 0.597686
O O8 0.504071 0.343994 0.732776
O O9 0.250000 0.844205 0.864626
O O10 0.426959 0.840334 0.748322
O O11 0.472353 0.903922 0.855827
O O12 0.250000 0.734102 0.219155
O O13 0.426758 0.707886 0.113949
O O14 0.535395 0.747281 0.231120
O O15 0.750000 0.038410 0.889769
O O16 0.500000 0.000000 0.872066
O O17 0.546285 0.058475 0.987602
O O18 0.750000 0.039724 0.085289
O O19 0.500000 0.000000 0.102988
O O20 0.750000 0.257726 0.524514
O O21 0.250000 0.307848 0.751909
#
# Coordination Sequence:
#
# PCOD8191630 Si02
#       8
#     8   8   8   8   8   8   8   8
#     4  10  19  27  37  57  82 105 130 160 193 230
#     4   9  17  29  43  57  75 102 135 165 192 226
#     4   9  16  28  44  57  74 104 136 163 193 227
#     4   8  15  27  41  56  74  99 131 162 192 227
#     4   9  17  28  41  57  78 103 130 161 193 223
#     4   9  17  28  40  56  78 102 130 162 192 223
#     4   9  16  26  40  57  77 102 132 162 191 227
#     4   9  17  27  38  55  78 101 127 159 194 231
#
# _framework density 14.201009000000001
#
# number of rings (size 3 to 8) (size 9 to 14) (size 15 to 20)
#    0.000    3.000    0.000    2.250    0.000    6.500 
#    0.000    2.500    0.000    0.000    0.000    0.000 
#    0.000    1.000    0.000    7.000    0.000    3.500 
#
# Total GULP energy -396538.822896 kJ/mol
# GULP energy per Si atom -12391.838216 kJ/mol
# Density = 1.416869 g / cm^3
# Si number density = 14.201009 Si / 1000 Ang^3
#
#
#
# Elastic Constant Matrix: (Units=GPa)
#
#
# Indices 1 2 3 4 5 6 
#
# 1 53.8348 33.2791 43.6793 0.0000 0.0000 0.0000
# 2 33.2791 88.7913 53.4092 0.0000 0.0000 0.0000
# 3 43.6793 53.4092 89.6098 -0.0006 -0.0001 0.0000
# 4 0.0000 0.0000 -0.0006 25.5845 0.0000 0.0000
# 5 0.0000 0.0000 -0.0001 0.0000 20.3708 0.0000
# 6 0.0000 0.0000 0.0000 0.0000 0.0000 20.7077
#
#
#
# Elastic Compliance Matrix: (Units=1/GPa)
#
#
# Indices 1 2 3 4 5 6 
#
# 1 0.031623 -0.004023 -0.013017 0.000000 0.000000 0.000000
# 2 -0.004023 0.018068 -0.008808 0.000000 0.000000 0.000000
# 3 -0.013017 -0.008808 0.022754 0.000001 0.000000 0.000000
# 4 0.000000 0.000000 0.000001 0.039086 0.000000 0.000000
# 5 0.000000 0.000000 0.000000 0.000000 0.049090 0.000000
# 6 0.000000 0.000000 0.000000 0.000000 0.000000 0.048291
#
#
# Mechanical properties :
#
#
# Convention : Reuss Voigt Hill
#
# Bulk Modulus (GPa) = 48.19178 54.77458 51.48318
# Shear Modulus (GPa) = 18.68978 20.12383 19.40680
#
# Velocity S-wave (km/s) = 3.63173 3.76848 3.70074
# Velocity P-wave (km/s) = 7.18297 7.58880 7.38867
#
# Compressibility (1/GPa) = 0.02075043
#
# Stress axis : x y z
#
# Youngs Moduli (GPa) = 31.62210 55.34526 43.94759
#
# Poissons Ratio (x) = 0.22264 0.57206
# Poissons Ratio (y) = 0.12721 0.38710
# Poissons Ratio (z) = 0.41162 0.48750
#
# Static dielectric constant tensor:
#      x y z
#    x 2.809990 0.000000 0.000000 
#    y 0.000000 2.706450 0.000000 
#    z 0.000000 0.000000 2.909280 
# 
# 
# High freq. dielectric constant tensor:
#      x y z
#    x 1.547900 0.000000 0.000000 
#    y 0.000000 1.508830 0.000000 
#    z 0.000000 0.000000 1.530170 
# 
# From -- ./inp_files/18648.got.cif
#   From: 2010.03.12/outbox.cif.g09.slc.cpg/sg46_10_cif.got.tgz:18648.got - 2010.04.14 02:56:35.
