data_PCOD8191572
_publ_section_title
;
Structure prediction by ZEFSAII (Michael W. Deem and Ramdas Pophale) SiO2 
 PCOD8191572
Probable space group: I M A 2
;
_chemical_formula_sum "Si O2"
_cell_formula_units_Z 64
_cell_length_a 17.149012
_cell_length_b 20.655411
_cell_length_c 9.659870
_cell_angle_alpha 90.000000
_cell_angle_beta 90.000000
_cell_angle_gamma 90.000000
_cell_volume 3421.718099
_symmetry_space_group_name_H-M "I M A 2"
_symmetry_group_IT_number 46
_symmetry_cell_setting 'orthorhombic'
loop_
_space_group_symop_operation_xyz
x,y,z
-x,-y,z
1/2-x,y,z
1/2+x,-y,z
1/2+x,1/2+y,1/2+z
1/2-x,1/2-y,1/2+z
-x,1/2+y,1/2+z
x,1/2-y,1/2+z
loop_
_atom_site_type_symbol
_atom_site_label
_atom_site_fract_x
_atom_site_fract_y
_atom_site_fract_z
Si Si1 0.842060 0.613538 0.951310
Si Si2 0.569031 0.279073 0.958574
Si Si3 0.040145 0.932103 0.135455
Si Si4 0.658392 0.031674 0.370890
Si Si5 0.838420 0.127603 0.605780
Si Si6 0.442295 0.639936 0.374672
Si Si7 0.950073 0.683896 0.746753
Si Si8 0.440752 0.178161 0.663312
O O1 0.750000 0.623304 0.949569
O O2 0.865683 0.542904 0.894864
O O3 0.883386 0.666228 0.855376
O O4 0.873785 0.629734 0.106038
O O5 0.576086 0.201981 0.973400
O O6 0.534351 0.292987 0.806769
O O7 0.651499 0.310953 0.000283
O O8 0.513724 0.319866 0.060902
O O9 0.110051 0.933218 0.247991
O O10 0.972735 0.877582 0.154413
O O11 0.068605 0.921145 0.977433
O O12 0.000000 0.000000 0.147445
O O13 0.750000 0.038608 0.334754
O O14 0.637142 0.064587 0.517155
O O15 0.750000 0.123969 0.651123
O O16 0.882289 0.131396 0.750839
O O17 0.529716 0.649038 0.310754
O O18 0.912800 0.746429 0.670239
#
# Coordination Sequence:
#
# PCOD8191572 Si02
#       8
#     8   8   8   8   8   8   8   8
#     4  10  21  37  60  86 113 152 199 243 289 348
#     4   9  17  34  56  80 108 144 186 240 281 327
#     4  12  22  36  59  88 115 150 194 238 298 352
#     4  10  22  39  58  83 118 157 200 241 285 346
#     4  10  21  36  56  81 113 156 196 235 283 341
#     4  10  22  35  54  86 118 148 187 239 296 342
#     4  10  18  34  58  86 110 141 192 242 283 339
#     4   9  19  36  60  81 116 147 187 239 290 342
#
# _framework density 18.704053999999999
#
# number of rings (size 3 to 8) (size 9 to 14) (size 15 to 20)
#    0.000    2.000    3.750    0.000    0.000    2.500 
#    0.000    1.250    0.000    0.750    0.000    0.000 
#    0.000    0.000    0.000    0.000    0.000    0.000 
#
# Total GULP energy -396455.369294 kJ/mol
# GULP energy per Si atom -12389.230290 kJ/mol
# Density = 1.866148 g / cm^3
# Si number density = 18.704054 Si / 1000 Ang^3
#
#
#
# Elastic Constant Matrix: (Units=GPa)
#
#
# Indices 1 2 3 4 5 6 
#
# 1 69.0277 35.1903 42.0504 0.0000 0.0000 0.0000
# 2 35.1903 67.4408 28.8306 0.0000 0.0000 0.0000
# 3 42.0504 28.8306 82.4795 0.0000 0.0000 0.0000
# 4 0.0000 0.0000 0.0000 38.2092 0.0000 0.0000
# 5 0.0000 0.0000 0.0000 0.0000 19.8413 0.0000
# 6 0.0000 0.0000 0.0000 0.0000 0.0000 23.1655
#
#
#
# Elastic Compliance Matrix: (Units=1/GPa)
#
#
# Indices 1 2 3 4 5 6 
#
# 1 0.024833 -0.008871 -0.009560 0.000000 0.000000 0.000000
# 2 -0.008871 0.020602 -0.002679 0.000000 0.000000 0.000000
# 3 -0.009560 -0.002679 0.017934 0.000000 0.000000 0.000000
# 4 0.000000 0.000000 0.000000 0.026172 0.000000 0.000000
# 5 0.000000 0.000000 0.000000 0.000000 0.050400 0.000000
# 6 0.000000 0.000000 0.000000 0.000000 0.000000 0.043168
#
#
# Mechanical properties :
#
#
# Convention : Reuss Voigt Hill
#
# Bulk Modulus (GPa) = 47.28042 47.89895 47.58968
# Shear Modulus (GPa) = 21.51673 23.76831 22.64252
#
# Velocity S-wave (km/s) = 3.39540 3.56864 3.48310
# Velocity P-wave (km/s) = 6.38002 6.53029 6.45559
#
# Compressibility (1/GPa) = 0.02115041
#
# Stress axis : x y z
#
# Youngs Moduli (GPa) = 40.26900 48.53947 55.75892
#
# Poissons Ratio (x) = 0.43060 0.53304
# Poissons Ratio (y) = 0.35723 0.14936
# Poissons Ratio (z) = 0.38496 0.13002
#
# Static dielectric constant tensor:
#      x y z
#    x 3.318230 0.000000 0.000000 
#    y 0.000000 3.539560 0.000000 
#    z 0.000000 0.000000 3.545680 
# 
# 
# High freq. dielectric constant tensor:
#      x y z
#    x 1.701260 0.000000 0.000000 
#    y 0.000000 1.732220 0.000000 
#    z 0.000000 0.000000 1.725970 
# 
# From -- ./inp_files/6929.got.cif
#   From: 2010.03.12/outbox.cif.g09.slc.cpg/sg46_4_cif.got.tgz:6929.got - 2010.04.14 02:56:35.
