data_PCOD8191763
_publ_section_title
;
Structure prediction by ZEFSAII (Michael W. Deem and Ramdas Pophale) SiO2 
 PCOD8191763
Probable space group: I M A 2
;
_chemical_formula_sum "Si O2"
_cell_formula_units_Z 48
_cell_length_a 10.981869
_cell_length_b 24.146384
_cell_length_c 9.543401
_cell_angle_alpha 90.000000
_cell_angle_beta 90.000000
_cell_angle_gamma 90.000000
_cell_volume 2530.646795
_symmetry_space_group_name_H-M "I M A 2"
_symmetry_group_IT_number 46
_symmetry_cell_setting 'orthorhombic'
loop_
_space_group_symop_operation_xyz
x,y,z
-x,-y,z
1/2-x,y,z
1/2+x,-y,z
1/2+x,1/2+y,1/2+z
1/2-x,1/2-y,1/2+z
-x,1/2+y,1/2+z
x,1/2-y,1/2+z
loop_
_atom_site_type_symbol
_atom_site_label
_atom_site_fract_x
_atom_site_fract_y
_atom_site_fract_z
Si Si1 0.110569 0.717256 0.909050
Si Si2 0.000345 0.666699 0.405962
Si Si3 0.610680 0.366965 0.680555
Si Si4 0.750000 0.778869 0.859987
Si Si5 0.109143 0.544115 0.908876
Si Si6 0.996605 0.364789 0.101711
Si Si7 0.250000 0.176928 0.553600
O O1 0.250000 0.701305 0.919538
O O2 0.057152 0.683126 0.776118
O O3 0.093183 0.782219 0.893479
O O4 0.049862 0.695819 0.052762
O O5 0.865414 0.689924 0.423228
O O6 0.031649 0.629110 0.539539
O O7 0.015135 0.628911 0.268654
O O8 0.750000 0.354777 0.639414
O O9 0.598241 0.425165 0.760274
O O10 0.750000 0.782394 0.690383
O O11 0.750000 0.715233 0.913882
O O12 0.250000 0.521378 0.926071
O O13 0.000000 0.500000 0.915649
O O14 0.084073 0.587089 0.034089
O O15 0.137514 0.365828 0.054762
#
# Coordination Sequence:
#
# PCOD8191763 Si02
#       7
#     8   8   8   4   8   8   4
#     4  10  19  31  50  79 113 151 188 219 262 326
#     4  11  20  33  51  82 116 153 184 223 272 325
#     4   9  20  36  55  81 112 144 185 229 274 330
#     4  10  22  32  48  80 122 158 192 226 258 319
#     4  10  23  44  65  86 107 137 185 240 292 344
#     4  10  21  35  56  81 113 147 188 230 276 329
#     4  10  20  34  52  80 118 156 192 226 268 321
#
# _framework density 18.967483000000001
#
# number of rings (size 3 to 8) (size 9 to 14) (size 15 to 20)
#    0.000    2.000    1.667    3.000    3.500    4.000 
#    1.500    0.833    0.000    0.000    0.000    0.000 
#    0.000    0.000    0.000    0.000    0.000    0.000 
#
# Total GULP energy -297530.045803 kJ/mol
# GULP energy per Si atom -12397.085242 kJ/mol
# Density = 1.892431 g / cm^3
# Si number density = 18.967483 Si / 1000 Ang^3
#
#
#
# Elastic Constant Matrix: (Units=GPa)
#
#
# Indices 1 2 3 4 5 6 
#
# 1 105.6542 27.7747 41.4222 0.0000 0.0002 0.0001
# 2 27.7747 57.6448 19.1299 -0.0001 0.0000 0.0000
# 3 41.4222 19.1299 96.1398 0.0009 0.0003 0.0005
# 4 0.0000 -0.0001 0.0009 13.5837 -0.0002 -0.0001
# 5 0.0002 0.0000 0.0003 -0.0002 25.5068 -0.0001
# 6 0.0001 0.0000 0.0005 -0.0001 -0.0001 29.1870
#
#
#
# Elastic Compliance Matrix: (Units=1/GPa)
#
#
# Indices 1 2 3 4 5 6 
#
# 1 0.012388 -0.004495 -0.004443 0.000000 0.000000 0.000000
# 2 -0.004495 0.020205 -0.002084 0.000000 0.000000 0.000000
# 3 -0.004443 -0.002084 0.012731 -0.000001 0.000000 0.000000
# 4 0.000000 0.000000 -0.000001 0.073618 0.000000 0.000000
# 5 0.000000 0.000000 0.000000 0.000000 0.039205 0.000000
# 6 0.000000 0.000000 0.000000 0.000000 0.000000 0.034262
#
#
# Mechanical properties :
#
#
# Convention : Reuss Voigt Hill
#
# Bulk Modulus (GPa) = 42.95457 48.45471 45.70464
# Shear Modulus (GPa) = 22.50104 25.06296 23.78200
#
# Velocity S-wave (km/s) = 3.44800 3.63900 3.54479
# Velocity P-wave (km/s) = 6.20864 6.57709 6.39552
#
# Compressibility (1/GPa) = 0.02328041
#
# Stress axis : x y z
#
# Youngs Moduli (GPa) = 80.72086 49.49335 78.55116
#
# Poissons Ratio (x) = 0.22245 0.34902
# Poissons Ratio (y) = 0.36280 0.16369
# Poissons Ratio (z) = 0.35866 0.10314
#
# Static dielectric constant tensor:
#      x y z
#    x 3.654250 0.000000 0.000000 
#    y 0.000000 3.055710 0.000000 
#    z 0.000000 0.000000 3.518030 
# 
# 
# High freq. dielectric constant tensor:
#      x y z
#    x 1.754080 0.000000 0.000000 
#    y 0.000000 1.690850 0.000000 
#    z 0.000000 0.000000 1.739190 
# 
# From -- ./inp_files/4741.got.cif
#   From: 2010.03.12/outbox.cif.g09.slc.cpg/sg46_3_cif.got.tgz:4741.got - 2010.04.14 02:56:35.
