data_PCOD8191090
_publ_section_title
;
Structure prediction by ZEFSAII (Michael W. Deem and Ramdas Pophale) SiO2 
 PCOD8191090
Probable space group: I B A 2
;
_chemical_formula_sum "Si O2"
_cell_formula_units_Z 64
_cell_length_a 22.307392
_cell_length_b 9.241297
_cell_length_c 14.003184
_cell_angle_alpha 90.000000
_cell_angle_beta 90.000000
_cell_angle_gamma 90.000000
_cell_volume 2886.745666
_symmetry_space_group_name_H-M "I B A 2"
_symmetry_group_IT_number 45
_symmetry_cell_setting 'orthorhombic'
loop_
_space_group_symop_operation_xyz
x,y,z
-x,-y,z
-x,y,1/2+z
x,-y,1/2+z
1/2+x,1/2+y,1/2+z
1/2-x,1/2-y,1/2+z
1/2-x,1/2+y,z
1/2+x,1/2-y,z
loop_
_atom_site_type_symbol
_atom_site_label
_atom_site_fract_x
_atom_site_fract_y
_atom_site_fract_z
Si Si1 0.717678 0.436267 0.990820
Si Si2 0.581024 0.690752 0.836118
Si Si3 0.006133 0.331735 0.965857
Si Si4 0.307362 0.884519 0.312236
Si Si5 0.393859 0.377985 0.380693
Si Si6 0.741011 0.295631 0.622087
Si Si7 0.860593 0.673467 0.733183
Si Si8 0.996053 0.663103 0.685757
O O1 0.766763 0.414286 0.905880
O O2 0.648681 0.445565 0.960501
O O3 0.730201 0.582350 0.045236
O O4 0.713981 0.309282 0.068065
O O5 0.649782 0.745360 0.828178
O O6 0.574187 0.516983 0.834042
O O7 0.539942 0.740527 0.748402
O O8 0.555391 0.754016 0.935479
O O9 0.000000 0.500000 0.934751
O O10 0.017691 0.318187 0.077657
O O11 0.060176 0.247605 0.913381
O O12 0.266106 0.853971 0.221446
O O13 0.349562 0.020455 0.285395
O O14 0.347678 0.300942 0.308503
O O15 0.682187 0.198280 0.642668
O O16 0.927251 0.704807 0.696494
O O17 0.000000 0.500000 0.721652
#
# Coordination Sequence:
#
# PCOD8191090 Si02
#       8
#     8   8   8   8   8   8   8   8
#     4  12  28  48  74 111 150 196 251 309 390 446
#     4  12  26  48  72 109 146 193 246 308 378 433
#     4  11  26  48  73 106 147 193 251 298 366 453
#     4  12  27  49  79 103 152 201 249 313 377 456
#     4  12  27  46  75 107 152 194 242 314 374 442
#     4  12  28  47  73 112 148 194 255 311 374 460
#     4  12  25  48  73 103 146 197 247 305 372 442
#     4  11  25  47  76 108 142 197 248 300 369 447
#
# _framework density 22.170293999999998
#
# number of rings (size 3 to 8) (size 9 to 14) (size 15 to 20)
#    0.000    0.250    5.000    3.000    8.750    0.000 
#    2.250    0.000    0.000    0.000    0.000    0.000 
#    0.000    0.000    0.000    0.000    0.000    0.000 
#
# Total GULP energy -396718.065203 kJ/mol
# GULP energy per Si atom -12397.439538 kJ/mol
# Density = 2.211983 g / cm^3
# Si number density = 22.170294 Si / 1000 Ang^3
#
#
#
# Elastic Constant Matrix: (Units=GPa)
#
#
# Indices 1 2 3 4 5 6 
#
# 1 104.9166 36.7070 34.5098 0.0000 0.0000 0.0000
# 2 36.7070 189.6656 57.4332 0.0000 0.0000 0.0000
# 3 34.5098 57.4332 107.7789 0.0000 0.0000 0.0000
# 4 0.0000 0.0000 0.0000 18.4050 0.0000 0.0000
# 5 0.0000 0.0000 0.0000 0.0000 24.4144 0.0000
# 6 0.0000 0.0000 0.0000 0.0000 0.0000 33.8465
#
#
#
# Elastic Compliance Matrix: (Units=1/GPa)
#
#
# Indices 1 2 3 4 5 6 
#
# 1 0.010898 -0.001255 -0.002821 0.000000 0.000000 0.000000
# 2 -0.001255 0.006431 -0.003025 0.000000 0.000000 0.000000
# 3 -0.002821 -0.003025 0.011794 0.000000 0.000000 0.000000
# 4 0.000000 0.000000 0.000000 0.054333 0.000000 0.000000
# 5 0.000000 0.000000 0.000000 0.000000 0.040959 0.000000
# 6 0.000000 0.000000 0.000000 0.000000 0.000000 0.029545
#
#
# Mechanical properties :
#
#
# Convention : Reuss Voigt Hill
#
# Bulk Modulus (GPa) = 67.01936 73.29568 70.15752
# Shear Modulus (GPa) = 28.87888 33.58059 31.22974
#
# Velocity S-wave (km/s) = 3.61306 3.89609 3.75724
# Velocity P-wave (km/s) = 6.90656 7.30558 7.10887
#
# Compressibility (1/GPa) = 0.01492106
#
# Stress axis : x y z
#
# Youngs Moduli (GPa) = 91.75743 155.48617 84.79200
#
# Poissons Ratio (x) = 0.19514 0.23918
# Poissons Ratio (y) = 0.11516 0.25652
# Poissons Ratio (z) = 0.25882 0.47040
#
# Static dielectric constant tensor:
#      x y z
#    x 3.988110 0.000000 0.000000 
#    y 0.000000 4.518150 0.000000 
#    z 0.000000 0.000000 4.239360 
# 
# 
# High freq. dielectric constant tensor:
#      x y z
#    x 1.880330 0.000000 0.000000 
#    y 0.000000 1.886660 0.000000 
#    z 0.000000 0.000000 1.883650 
# 
# From -- ./inp_files/7061.got.cif
#   From: 2010.03.12/outbox.cif.g09.slc.cpg/sg45_4_cif.got.tgz:7061.got - 2010.04.14 02:50:11.
