data_PCOD8191833
_publ_section_title
;
Structure prediction by ZEFSAII (Michael W. Deem and Ramdas Pophale) SiO2 
 PCOD8191833
Probable space group: I M A 2
;
_chemical_formula_sum "Si O2"
_cell_formula_units_Z 64
_cell_length_a 9.015567
_cell_length_b 15.715825
_cell_length_c 22.767389
_cell_angle_alpha 90.000000
_cell_angle_beta 90.000000
_cell_angle_gamma 90.000000
_cell_volume 3225.844713
_symmetry_space_group_name_H-M "I M A 2"
_symmetry_group_IT_number 46
_symmetry_cell_setting 'orthorhombic'
loop_
_space_group_symop_operation_xyz
x,y,z
-x,-y,z
1/2-x,y,z
1/2+x,-y,z
1/2+x,1/2+y,1/2+z
1/2-x,1/2-y,1/2+z
-x,1/2+y,1/2+z
x,1/2-y,1/2+z
loop_
_atom_site_type_symbol
_atom_site_label
_atom_site_fract_x
_atom_site_fract_y
_atom_site_fract_z
Si Si1 0.576710 0.580044 0.539030
Si Si2 0.583540 0.307800 0.970994
Si Si3 0.416638 0.881147 0.925649
Si Si4 0.920199 0.760401 0.579742
Si Si5 0.076186 0.264859 0.211445
Si Si6 0.573079 0.410460 0.290662
Si Si7 0.921612 0.092715 0.238146
Si Si8 0.582995 0.084633 0.368044
O O1 0.500000 0.500000 0.571722
O O2 0.750000 0.569898 0.545531
O O3 0.531389 0.575049 0.470134
O O4 0.515677 0.664610 0.571077
O O5 0.750000 0.336421 0.984534
O O6 0.580294 0.217110 0.940776
O O7 0.505102 0.364935 0.920966
O O8 0.498664 0.320300 0.032142
O O9 0.250000 0.917449 0.934841
O O10 0.468939 0.895775 0.858771
O O11 0.750000 0.757117 0.561841
O O12 0.943882 0.798134 0.644536
O O13 0.250000 0.260110 0.228910
O O14 0.992162 0.331233 0.253484
O O15 0.010052 0.169150 0.206831
O O16 0.500000 0.500000 0.269906
O O17 0.750000 0.413647 0.280993
O O18 0.750000 0.085090 0.216567
O O19 0.923622 0.129503 0.304785
O O20 0.000000 0.000000 0.229348
O O21 0.750000 0.066393 0.387097
O O22 0.500000 0.000000 0.356471
#
# Coordination Sequence:
#
# PCOD8191833 Si02
#       8
#     8   8   8   8   8   8   8   8
#     4  10  19  32  51  77 108 139 171 209 258 316
#     4   9  17  32  54  78 104 136 173 213 262 320
#     4   9  18  33  54  80 109 138 170 213 266 324
#     4   9  21  38  53  73 102 136 178 225 266 312
#     4  11  23  40  59  80 110 149 193 237 280 327
#     4  11  23  39  59  84 113 146 186 232 282 334
#     4  10  20  36  58  86 119 151 185 226 275 332
#     4   9  18  32  51  78 109 137 169 213 265 323
#
# _framework density 19.839765
#
# number of rings (size 3 to 8) (size 9 to 14) (size 15 to 20)
#    0.000    2.250    0.000    2.625    0.000    7.000 
#    0.000    4.375    0.000    1.500    0.000    0.000 
#    0.000    0.000    0.000    0.000    0.000    0.000 
#
# Total GULP energy -396489.497378 kJ/mol
# GULP energy per Si atom -12390.296793 kJ/mol
# Density = 1.979461 g / cm^3
# Si number density = 19.839765 Si / 1000 Ang^3
#
#
#
# Elastic Constant Matrix: (Units=GPa)
#
#
# Indices 1 2 3 4 5 6 
#
# 1 80.2553 23.1057 27.6905 0.0000 0.0000 0.0000
# 2 23.1057 46.8018 16.7758 0.0000 0.0000 0.0000
# 3 27.6905 16.7758 67.6904 0.0000 0.0000 0.0000
# 4 0.0000 0.0000 0.0000 17.4782 0.0000 0.0000
# 5 0.0000 0.0000 0.0000 0.0000 29.3211 0.0000
# 6 0.0000 0.0000 0.0000 0.0000 0.0000 27.8545
#
#
#
# Elastic Compliance Matrix: (Units=1/GPa)
#
#
# Indices 1 2 3 4 5 6 
#
# 1 0.015939 -0.006071 -0.005016 0.000000 0.000000 0.000000
# 2 -0.006071 0.025762 -0.003901 0.000000 0.000000 0.000000
# 3 -0.005016 -0.003901 0.017792 0.000000 0.000000 0.000000
# 4 0.000000 0.000000 0.000000 0.057214 0.000000 0.000000
# 5 0.000000 0.000000 0.000000 0.000000 0.034105 0.000000
# 6 0.000000 0.000000 0.000000 0.000000 0.000000 0.035901
#
#
# Mechanical properties :
#
#
# Convention : Reuss Voigt Hill
#
# Bulk Modulus (GPa) = 33.87861 36.65463 35.26662
# Shear Modulus (GPa) = 22.07242 23.40913 22.74078
#
# Velocity S-wave (km/s) = 3.33909 3.43871 3.38926
# Velocity P-wave (km/s) = 5.65501 5.85506 5.75591
#
# Compressibility (1/GPa) = 0.02951715
#
# Stress axis : x y z
#
# Youngs Moduli (GPa) = 62.74088 38.81653 56.20596
#
# Poissons Ratio (x) = 0.23565 0.28190
# Poissons Ratio (y) = 0.38090 0.21927
# Poissons Ratio (z) = 0.31468 0.15143
#
# Static dielectric constant tensor:
#      x y z
#    x 3.625760 0.000000 0.000000 
#    y 0.000000 3.583100 0.000000 
#    z 0.000000 0.000000 3.703250 
# 
# 
# High freq. dielectric constant tensor:
#      x y z
#    x 1.773280 0.000000 0.000000 
#    y 0.000000 1.762970 0.000000 
#    z 0.000000 0.000000 1.773480 
# 
# From -- ./inp_files/23174.got.cif
#   From: 2010.03.12/outbox.cif.g09.slc.cpg/sg46_12_cif.got.tgz:23174.got - 2010.04.14 02:56:35.
