data_PCOD8191600
_publ_section_title
;
Structure prediction by ZEFSAII (Michael W. Deem and Ramdas Pophale) SiO2 
 PCOD8191600
Probable space group: I M A 2
;
_chemical_formula_sum "Si O2"
_cell_formula_units_Z 64
_cell_length_a 17.330897
_cell_length_b 9.968124
_cell_length_c 18.852608
_cell_angle_alpha 90.000000
_cell_angle_beta 90.000000
_cell_angle_gamma 90.000000
_cell_volume 3256.911146
_symmetry_space_group_name_H-M "I M A 2"
_symmetry_group_IT_number 46
_symmetry_cell_setting 'orthorhombic'
loop_
_space_group_symop_operation_xyz
x,y,z
-x,-y,z
1/2-x,y,z
1/2+x,-y,z
1/2+x,1/2+y,1/2+z
1/2-x,1/2-y,1/2+z
-x,1/2+y,1/2+z
x,1/2-y,1/2+z
loop_
_atom_site_type_symbol
_atom_site_label
_atom_site_fract_x
_atom_site_fract_y
_atom_site_fract_z
Si Si1 0.158321 0.798622 0.423150
Si Si2 0.658439 0.897311 0.795325
Si Si3 0.158729 0.856809 0.265459
Si Si4 0.341641 0.499141 0.444248
Si Si5 0.658151 0.786916 0.059541
Si Si6 0.158302 0.360383 0.715682
Si Si7 0.590878 0.498181 0.034629
Si Si8 0.158846 0.603351 0.177870
O O1 0.250000 0.810690 0.427352
O O2 0.127876 0.812901 0.342467
O O3 0.130834 0.653310 0.452818
O O4 0.122005 0.918875 0.467044
O O5 0.750000 0.909780 0.798135
O O6 0.623503 0.936753 0.871610
O O7 0.632016 0.747854 0.774321
O O8 0.627620 0.997091 0.734979
O O9 0.250000 0.868139 0.270532
O O10 0.135385 0.749630 0.205885
O O11 0.122638 0.998278 0.240612
O O12 0.250000 0.495669 0.440009
O O13 0.370622 0.409117 0.509775
O O14 0.750000 0.772101 0.057929
O O15 0.627055 0.818341 0.138340
O O16 0.622899 0.648717 0.031710
O O17 0.250000 0.369339 0.711093
O O18 0.500000 0.500000 0.031346
O O19 0.616895 0.419363 0.104238
O O20 0.250000 0.588207 0.165616
#
# Coordination Sequence:
#
# PCOD8191600 Si02
#       8
#     8   8   8   8   8   8   8   8
#     4  10  20  37  61  89 116 149 193 239 294 350
#     4   9  15  28  51  82 116 141 171 226 286 335
#     4   9  18  31  57  93 119 139 179 239 293 341
#     4   9  18  31  55  90 118 142 181 238 292 345
#     4  10  20  36  58  86 116 147 191 236 289 345
#     4   9  17  28  49  85 120 142 171 227 287 339
#     4  12  26  40  56  78 120 160 199 237 287 349
#     4  10  18  35  62  85 109 146 192 244 294 336
#
# _framework density 19.650521999999999
#
# number of rings (size 3 to 8) (size 9 to 14) (size 15 to 20)
#    0.000    2.250    2.500    1.125    3.500    0.000 
#    0.000    0.625    5.500    0.000    0.000    0.000 
#    0.000    0.000    0.000    0.000    0.000    0.000 
#
# Total GULP energy -396762.941403 kJ/mol
# GULP energy per Si atom -12398.841919 kJ/mol
# Density = 1.960580 g / cm^3
# Si number density = 19.650522 Si / 1000 Ang^3
#
#
#
# Elastic Constant Matrix: (Units=GPa)
#
#
# Indices 1 2 3 4 5 6 
#
# 1 29.2905 25.4980 23.8081 0.0000 0.0000 0.0000
# 2 25.4980 171.3757 55.2057 0.0000 0.0000 0.0000
# 3 23.8081 55.2057 105.1146 0.0000 0.0000 0.0000
# 4 0.0000 0.0000 0.0000 43.8053 0.0000 0.0000
# 5 0.0000 0.0000 0.0000 0.0000 2.5603 0.0000
# 6 0.0000 0.0000 0.0000 0.0000 0.0000 4.6775
#
#
#
# Elastic Compliance Matrix: (Units=1/GPa)
#
#
# Indices 1 2 3 4 5 6 
#
# 1 0.044029 -0.004018 -0.007862 0.000000 0.000000 0.000000
# 2 -0.004018 0.007390 -0.002971 0.000000 0.000000 0.000000
# 3 -0.007862 -0.002971 0.012855 0.000000 0.000000 0.000000
# 4 0.000000 0.000000 0.000000 0.022828 0.000000 0.000000
# 5 0.000000 0.000000 0.000000 0.000000 0.390582 0.000000
# 6 0.000000 0.000000 0.000000 0.000000 0.000000 0.213790
#
#
# Mechanical properties :
#
#
# Convention : Reuss Voigt Hill
#
# Bulk Modulus (GPa) = 28.92598 57.20049 43.06324
# Shear Modulus (GPa) = 6.82407 23.62654 15.22530
#
# Velocity S-wave (km/s) = 1.86554 3.47123 2.78655
# Velocity P-wave (km/s) = 4.40369 6.72592 5.68465
#
# Compressibility (1/GPa) = 0.03457100
#
# Stress axis : x y z
#
# Youngs Moduli (GPa) = 22.71215 135.31667 77.79323
#
# Poissons Ratio (x) = 0.54373 0.61162
# Poissons Ratio (y) = 0.09126 0.23113
# Poissons Ratio (z) = 0.17857 0.40204
#
# Static dielectric constant tensor:
#      x y z
#    x 2.929650 0.000000 0.000000 
#    y 0.000000 3.882190 0.000000 
#    z 0.000000 0.000000 3.790730 
# 
# 
# High freq. dielectric constant tensor:
#      x y z
#    x 1.693700 0.000000 0.000000 
#    y 0.000000 1.785680 0.000000 
#    z 0.000000 0.000000 1.778290 
# 
# From -- ./inp_files/20263.got.cif
#   From: 2010.03.12/outbox.cif.g09.slc.cpg/sg46_11_cif.got.tgz:20263.got - 2010.04.14 02:56:35.
