data_PCOD8191593
_publ_section_title
;
Structure prediction by ZEFSAII (Michael W. Deem and Ramdas Pophale) SiO2 
 PCOD8191593
Probable space group: I M A 2
;
_chemical_formula_sum "Si O2"
_cell_formula_units_Z 64
_cell_length_a 15.556020
_cell_length_b 9.870811
_cell_length_c 19.139634
_cell_angle_alpha 90.000000
_cell_angle_beta 90.000000
_cell_angle_gamma 90.000000
_cell_volume 2938.901008
_symmetry_space_group_name_H-M "I M A 2"
_symmetry_group_IT_number 46
_symmetry_cell_setting 'orthorhombic'
loop_
_space_group_symop_operation_xyz
x,y,z
-x,-y,z
1/2-x,y,z
1/2+x,-y,z
1/2+x,1/2+y,1/2+z
1/2-x,1/2-y,1/2+z
-x,1/2+y,1/2+z
x,1/2-y,1/2+z
loop_
_atom_site_type_symbol
_atom_site_label
_atom_site_fract_x
_atom_site_fract_y
_atom_site_fract_z
Si Si1 0.147764 0.797589 0.393640
Si Si2 0.590538 0.931408 0.756382
Si Si3 0.147448 0.878351 0.241931
Si Si4 0.352113 0.491792 0.407399
Si Si5 0.648261 0.794505 0.027296
Si Si6 0.148157 0.332623 0.686104
Si Si7 0.647103 0.491376 0.015088
Si Si8 0.346053 0.636185 0.154794
O O1 0.250000 0.802224 0.392901
O O2 0.110440 0.839320 0.318097
O O3 0.115942 0.646955 0.414006
O O4 0.112328 0.904865 0.449903
O O5 0.609191 0.924726 0.838266
O O6 0.594310 0.780317 0.726627
O O7 0.500000 0.000000 0.739268
O O8 0.659815 0.023051 0.715599
O O9 0.250000 0.865700 0.243144
O O10 0.108948 0.772023 0.185173
O O11 0.118154 0.027512 0.220868
O O12 0.250000 0.484987 0.403106
O O13 0.388312 0.405831 0.472974
O O14 0.750000 0.793053 0.020954
O O15 0.620916 0.835673 0.105215
O O16 0.612073 0.644937 0.008798
O O17 0.250000 0.306997 0.695035
O O18 0.750000 0.494045 0.018930
O O19 0.607904 0.422805 0.085503
O O20 0.250000 0.675746 0.132543
#
# Coordination Sequence:
#
# PCOD8191593 Si02
#       8
#     8   8   8   8   8   8   8   8
#     4   9  17  29  48  81 114 140 175 227 287 348
#     4  12  24  38  58  79 114 158 201 238 284 350
#     4   9  18  30  53  85 114 142 185 236 289 348
#     4  10  20  35  58  83 112 149 191 241 296 346
#     4   9  18  31  53  86 115 140 179 232 291 348
#     4  10  20  36  59  88 116 146 192 251 301 346
#     4   9  17  28  49  82 116 142 175 227 287 344
#     4  10  18  35  59  82 110 147 189 238 291 349
#
# _framework density 21.776847
#
# number of rings (size 3 to 8) (size 9 to 14) (size 15 to 20)
#    0.000    2.250    2.500    1.125    3.500    0.000 
#    0.000    0.625    2.750    0.000    0.000    0.000 
#    0.000    0.000    0.000    0.000    0.000    0.000 
#
# Total GULP energy -396749.091689 kJ/mol
# GULP energy per Si atom -12398.409115 kJ/mol
# Density = 2.172728 g / cm^3
# Si number density = 21.776847 Si / 1000 Ang^3
#
#
#
# Elastic Constant Matrix: (Units=GPa)
#
#
# Indices 1 2 3 4 5 6 
#
# 1 16.6044 16.7453 14.6879 0.0000 0.0000 0.0000
# 2 16.7453 230.6530 123.3666 0.0000 0.0000 0.0000
# 3 14.6879 123.3666 181.3149 0.0000 0.0000 0.0000
# 4 0.0000 0.0000 0.0000 54.2641 0.0000 0.0000
# 5 0.0000 0.0000 0.0000 0.0000 4.0629 0.0000
# 6 0.0000 0.0000 0.0000 0.0000 0.0000 10.0222
#
#
#
# Elastic Compliance Matrix: (Units=1/GPa)
#
#
# Indices 1 2 3 4 5 6 
#
# 1 0.066208 -0.003047 -0.003290 0.000000 0.000000 0.000000
# 2 -0.003047 0.006956 -0.004486 0.000000 0.000000 0.000000
# 3 -0.003290 -0.004486 0.008834 0.000000 0.000000 0.000000
# 4 0.000000 0.000000 0.000000 0.018428 0.000000 0.000000
# 5 0.000000 0.000000 0.000000 0.000000 0.246132 0.000000
# 6 0.000000 0.000000 0.000000 0.000000 0.000000 0.099778
#
#
# Mechanical properties :
#
#
# Convention : Reuss Voigt Hill
#
# Bulk Modulus (GPa) = 16.56948 82.01911 49.29429
# Shear Modulus (GPa) = 10.24379 31.92133 21.08256
#
# Velocity S-wave (km/s) = 2.17122 3.83278 3.11484
# Velocity P-wave (km/s) = 3.72973 7.57180 5.96838
#
# Compressibility (1/GPa) = 0.06035191
#
# Stress axis : x y z
#
# Youngs Moduli (GPa) = 15.10388 143.75711 113.19650
#
# Poissons Ratio (x) = 0.43800 0.37245
# Poissons Ratio (y) = 0.04602 0.50782
# Poissons Ratio (z) = 0.04970 0.64492
#
# Static dielectric constant tensor:
#      x y z
#    x 3.213380 0.000000 0.000000 
#    y 0.000000 4.167110 0.000000 
#    z 0.000000 0.000000 4.106840 
# 
# 
# High freq. dielectric constant tensor:
#      x y z
#    x 1.797130 0.000000 0.000000 
#    y 0.000000 1.868080 0.000000 
#    z 0.000000 0.000000 1.864450 
# 
# From -- ./inp_files/20264.got.cif
#   From: 2010.03.12/outbox.cif.g09.slc.cpg/sg46_11_cif.got.tgz:20264.got - 2010.04.14 02:56:35.
