data_PCOD8191605
_publ_section_title
;
Structure prediction by ZEFSAII (Michael W. Deem and Ramdas Pophale) SiO2 
 PCOD8191605
Probable space group: I M A 2
;
_chemical_formula_sum "Si O2"
_cell_formula_units_Z 56
_cell_length_a 18.796939
_cell_length_b 16.420018
_cell_length_c 9.286410
_cell_angle_alpha 90.000000
_cell_angle_beta 90.000000
_cell_angle_gamma 90.000000
_cell_volume 2866.214013
_symmetry_space_group_name_H-M "I M A 2"
_symmetry_group_IT_number 46
_symmetry_cell_setting 'orthorhombic'
loop_
_space_group_symop_operation_xyz
x,y,z
-x,-y,z
1/2-x,y,z
1/2+x,-y,z
1/2+x,1/2+y,1/2+z
1/2-x,1/2-y,1/2+z
-x,1/2+y,1/2+z
x,1/2-y,1/2+z
loop_
_atom_site_type_symbol
_atom_site_label
_atom_site_fract_x
_atom_site_fract_y
_atom_site_fract_z
Si Si1 0.030518 0.290118 0.582900
Si Si2 0.171875 0.365265 0.493008
Si Si3 0.007453 0.138405 0.402051
Si Si4 0.325430 0.974341 0.172680
Si Si5 0.941668 0.428903 0.475364
Si Si6 0.667176 0.996915 0.768191
Si Si7 0.110207 0.991308 0.451509
O O1 0.113461 0.300083 0.540459
O O2 0.013675 0.197559 0.540693
O O3 0.012562 0.312401 0.749399
O O4 0.984089 0.344762 0.472190
O O5 0.250000 0.322900 0.490044
O O6 0.169736 0.435916 0.609457
O O7 0.155906 0.407362 0.337810
O O8 0.934614 0.091329 0.434435
O O9 0.068631 0.071358 0.401777
O O10 0.250000 0.933976 0.123929
O O11 0.323809 0.980713 0.344405
O O12 0.395381 0.926013 0.122198
O O13 0.884870 0.437955 0.346315
O O14 0.000000 0.500000 0.477296
O O15 0.750000 0.023865 0.783801
O O16 0.642531 0.993973 0.606285
#
# Coordination Sequence:
#
# PCOD8191605 Si02
#       7
#     8   8   8   8   8   8   8
#     4  12  23  41  61  94 127 163 206 260 308 371
#     4   9  19  37  61  90 126 164 204 242 302 376
#     4  11  27  38  65  93 125 158 215 256 314 361
#     4  10  18  35  64  90 115 161 209 251 297 366
#     4  11  19  35  64  90 123 162 205 248 305 364
#     4  10  22  36  61  96 125 162 208 253 304 367
#     4  11  22  42  61  92 123 163 209 260 302 367
#
# _framework density 19.537969
#
# number of rings (size 3 to 8) (size 9 to 14) (size 15 to 20)
#    0.000    1.429    5.714    1.714    6.000    0.000 
#    0.000    2.143    0.000    5.143    0.000    0.000 
#    0.000    0.000    0.000    0.000    0.000    0.000 
#
# Total GULP energy -346893.445047 kJ/mol
# GULP energy per Si atom -12389.051609 kJ/mol
# Density = 1.949350 g / cm^3
# Si number density = 19.537969 Si / 1000 Ang^3
#
#
#
# Elastic Constant Matrix: (Units=GPa)
#
#
# Indices 1 2 3 4 5 6 
#
# 1 123.3746 30.6117 38.2095 0.0000 0.0000 0.0000
# 2 30.6117 79.5679 22.1700 0.0000 0.0000 0.0000
# 3 38.2095 22.1700 136.3518 0.0000 0.0000 0.0000
# 4 0.0000 0.0000 0.0000 18.4267 0.0000 0.0000
# 5 0.0000 0.0000 0.0000 0.0000 9.7328 0.0000
# 6 0.0000 0.0000 0.0000 0.0000 0.0000 22.7891
#
#
#
# Elastic Compliance Matrix: (Units=1/GPa)
#
#
# Indices 1 2 3 4 5 6 
#
# 1 0.009539 -0.003064 -0.002175 0.000000 0.000000 0.000000
# 2 -0.003064 0.014148 -0.001442 0.000000 0.000000 0.000000
# 3 -0.002175 -0.001442 0.008178 0.000000 0.000000 0.000000
# 4 0.000000 0.000000 0.000000 0.054269 0.000000 0.000000
# 5 0.000000 0.000000 0.000000 0.000000 0.102745 0.000000
# 6 0.000000 0.000000 0.000000 0.000000 0.000000 0.043881
#
#
# Mechanical properties :
#
#
# Convention : Reuss Voigt Hill
#
# Bulk Modulus (GPa) = 54.04243 57.91962 55.98103
# Shear Modulus (GPa) = 19.81846 26.74326 23.28086
#
# Velocity S-wave (km/s) = 3.18835 3.70372 3.45566
# Velocity P-wave (km/s) = 6.42451 6.92814 6.68107
#
# Compressibility (1/GPa) = 0.01850398
#
# Stress axis : x y z
#
# Youngs Moduli (GPa) = 104.83033 70.67931 122.28097
#
# Poissons Ratio (x) = 0.21656 0.26596
# Poissons Ratio (y) = 0.32120 0.17631
# Poissons Ratio (z) = 0.22800 0.10191
#
# Static dielectric constant tensor:
#      x y z
#    x 4.073390 0.000000 0.000000 
#    y 0.000000 3.246060 0.000000 
#    z 0.000000 0.000000 3.680840 
# 
# 
# High freq. dielectric constant tensor:
#      x y z
#    x 1.779120 0.000000 0.000000 
#    y 0.000000 1.716620 0.000000 
#    z 0.000000 0.000000 1.771610 
# 
# From -- ./inp_files/7422.got.cif
#   From: 2010.03.12/outbox.cif.g09.slc.cpg/sg46_4_cif.got.tgz:7422.got - 2010.04.14 02:56:35.
