data_PCOD8191003
_publ_section_title
;
Structure prediction by ZEFSAII (Michael W. Deem and Ramdas Pophale) SiO2 
 PCOD8191003
Probable space group: I B A 2
;
_chemical_formula_sum "Si O2"
_cell_formula_units_Z 56
_cell_length_a 15.076109
_cell_length_b 11.663929
_cell_length_c 14.195276
_cell_angle_alpha 90.000000
_cell_angle_beta 90.000000
_cell_angle_gamma 90.000000
_cell_volume 2496.191943
_symmetry_space_group_name_H-M "I B A 2"
_symmetry_group_IT_number 45
_symmetry_cell_setting 'orthorhombic'
loop_
_space_group_symop_operation_xyz
x,y,z
-x,-y,z
-x,y,1/2+z
x,-y,1/2+z
1/2+x,1/2+y,1/2+z
1/2-x,1/2-y,1/2+z
1/2-x,1/2+y,z
1/2+x,1/2-y,z
loop_
_atom_site_type_symbol
_atom_site_label
_atom_site_fract_x
_atom_site_fract_y
_atom_site_fract_z
Si Si1 0.843956 0.131734 0.477700
Si Si2 0.150086 0.366271 0.077896
Si Si3 0.668008 0.964945 0.924029
Si Si4 0.174330 0.033698 0.633187
Si Si5 0.259522 0.862683 0.776657
Si Si6 0.087559 0.186557 0.779717
Si Si7 0.902893 0.305780 0.777217
O O1 0.873015 0.249290 0.525688
O O2 0.737386 0.127617 0.464902
O O3 0.891115 0.122456 0.377092
O O4 0.874784 0.026887 0.545176
O O5 0.255872 0.371673 0.096749
O O6 0.098038 0.370364 0.176762
O O7 0.118858 0.471319 0.010758
O O8 0.594953 0.903606 0.858130
O O9 0.727632 0.057454 0.867446
O O10 0.100268 0.092410 0.697868
O O11 0.232918 0.937855 0.686941
O O12 0.351841 0.796917 0.759071
O O13 0.185004 0.767903 0.794997
O O14 0.986126 0.223184 0.783183
#
# Coordination Sequence:
#
# PCOD8191003 Si02
#       7
#     8   8   8   8   8   8   8
#     4  11  21  42  72 102 137 181 241 293 353 441
#     4  11  21  42  72 102 137 181 241 293 353 441
#     4  11  22  42  74 101 136 197 233 287 370 433
#     4  11  22  42  74 101 136 197 233 287 370 433
#     4  12  20  46  72  94 148 184 238 296 364 438
#     4  12  25  44  71 106 145 186 237 306 365 429
#     4  12  25  44  71 106 145 186 237 306 365 429
#
# _framework density 22.434173999999999
#
# number of rings (size 3 to 8) (size 9 to 14) (size 15 to 20)
#    0.000    0.571    8.571    0.000    0.000    1.143 
#    0.000   10.000    0.000    0.000    0.000    0.000 
#    0.000    0.000    0.000    0.000    0.000    0.000 
#
# Total GULP energy -347260.366967 kJ/mol
# GULP energy per Si atom -12402.155963 kJ/mol
# Density = 2.238311 g / cm^3
# Si number density = 22.434174 Si / 1000 Ang^3
#
#
#
# Elastic Constant Matrix: (Units=GPa)
#
#
# Indices 1 2 3 4 5 6 
#
# 1 49.3970 23.7834 27.1274 0.0000 0.0000 0.0000
# 2 23.7834 80.1516 57.5750 0.0000 0.0000 0.0000
# 3 27.1274 57.5750 148.1307 0.0000 0.0000 0.0000
# 4 0.0000 0.0000 0.0000 57.8608 0.0000 0.0000
# 5 0.0000 0.0000 0.0000 0.0000 15.4800 0.0000
# 6 0.0000 0.0000 0.0000 0.0000 0.0000 28.1344
#
#
#
# Elastic Compliance Matrix: (Units=1/GPa)
#
#
# Indices 1 2 3 4 5 6 
#
# 1 0.024157 -0.005536 -0.002272 0.000000 0.000000 0.000000
# 2 -0.005536 0.018578 -0.006207 0.000000 0.000000 0.000000
# 3 -0.002272 -0.006207 0.009579 0.000000 0.000000 0.000000
# 4 0.000000 0.000000 0.000000 0.017283 0.000000 0.000000
# 5 0.000000 0.000000 0.000000 0.000000 0.064599 0.000000
# 6 0.000000 0.000000 0.000000 0.000000 0.000000 0.035544
#
#
# Mechanical properties :
#
#
# Convention : Reuss Voigt Hill
#
# Bulk Modulus (GPa) = 41.17911 54.96120 48.07015
# Shear Modulus (GPa) = 24.28772 31.57463 27.93117
#
# Velocity S-wave (km/s) = 3.29389 3.75565 3.53232
# Velocity P-wave (km/s) = 5.73251 6.58472 6.17334
#
# Compressibility (1/GPa) = 0.02428416
#
# Stress axis : x y z
#
# Youngs Moduli (GPa) = 41.39511 53.82822 104.39082
#
# Poissons Ratio (x) = 0.29799 0.23720
# Poissons Ratio (y) = 0.22916 0.64794
# Poissons Ratio (z) = 0.09406 0.33411
#
# Static dielectric constant tensor:
#      x y z
#    x 3.581850 0.000000 0.000000 
#    y 0.000000 4.211550 0.000000 
#    z 0.000000 0.000000 4.427320 
# 
# 
# High freq. dielectric constant tensor:
#      x y z
#    x 1.840250 0.000000 0.000000 
#    y 0.000000 1.893320 0.000000 
#    z 0.000000 0.000000 1.905760 
# 
# From -- ./inp_files/6165.got.cif
#   From: 2010.03.12/outbox.cif.g09.slc.cpg/sg45_4_cif.got.tgz:6165.got - 2010.04.14 02:50:11.
