data_PCOD8191860
_publ_section_title
;
Structure prediction by ZEFSAII (Michael W. Deem and Ramdas Pophale) SiO2 
 PCOD8191860
Probable space group: I M A 2
;
_chemical_formula_sum "Si O2"
_cell_formula_units_Z 64
_cell_length_a 8.947384
_cell_length_b 25.823867
_cell_length_c 13.899409
_cell_angle_alpha 90.000000
_cell_angle_beta 90.000000
_cell_angle_gamma 90.000000
_cell_volume 3211.542602
_symmetry_space_group_name_H-M "I M A 2"
_symmetry_group_IT_number 46
_symmetry_cell_setting 'orthorhombic'
loop_
_space_group_symop_operation_xyz
x,y,z
-x,-y,z
1/2-x,y,z
1/2+x,-y,z
1/2+x,1/2+y,1/2+z
1/2-x,1/2-y,1/2+z
-x,1/2+y,1/2+z
x,1/2-y,1/2+z
loop_
_atom_site_type_symbol
_atom_site_label
_atom_site_fract_x
_atom_site_fract_y
_atom_site_fract_z
Si Si1 0.427334 0.335931 0.396900
Si Si2 0.587695 0.679373 0.061882
Si Si3 0.912467 0.854577 0.359056
Si Si4 0.074579 0.721427 0.561409
Si Si5 0.573774 0.551572 0.316016
Si Si6 0.420000 0.552729 0.915213
Si Si7 0.573710 0.256768 0.782463
Si Si8 0.920773 0.089110 0.633687
O O1 0.250000 0.327509 0.398438
O O2 0.494078 0.325451 0.504246
O O3 0.469548 0.395377 0.371653
O O4 0.497077 0.296446 0.318166
O O5 0.750000 0.696160 0.106324
O O6 0.492090 0.726315 0.016844
O O7 0.491160 0.647146 0.139477
O O8 0.619975 0.642372 0.972486
O O9 0.750000 0.854105 0.305251
O O10 0.007616 0.906205 0.340225
O O11 0.011000 0.804676 0.340373
O O12 0.250000 0.716717 0.543270
O O13 0.032678 0.727774 0.673218
O O14 0.500000 0.500000 0.364728
O O15 0.750000 0.543769 0.313465
O O16 0.512578 0.553634 0.207083
O O17 0.500000 0.500000 0.892267
O O18 0.250000 0.547991 0.884011
O O19 0.433672 0.565854 0.027712
O O20 0.750000 0.251109 0.798552
O O21 0.750000 0.093310 0.667941
#
# Coordination Sequence:
#
# PCOD8191860 Si02
#       8
#     8   8   8   8   8   8   8   8
#     4  11  24  41  61  88 120 158 200 247 301 360
#     4  10  19  32  52  80 114 151 189 232 283 341
#     4  10  20  34  54  79 110 149 188 231 285 341
#     4  11  23  37  58  86 117 154 194 240 294 351
#     4  11  24  40  59  83 114 153 199 248 302 359
#     4  10  20  33  51  77 111 151 194 241 290 350
#     4  11  23  38  59  88 120 154 194 242 298 359
#     4  10  20  33  53  81 115 154 196 239 290 349
#
# _framework density 19.928118000000001
#
# number of rings (size 3 to 8) (size 9 to 14) (size 15 to 20)
#    0.000    1.500    1.250    4.125    0.000    9.500 
#    0.000    0.000    0.000    0.750    0.000    1.750 
#    0.000    0.000    0.000    0.000    0.000    0.000 
#
# Total GULP energy -396530.914642 kJ/mol
# GULP energy per Si atom -12391.591083 kJ/mol
# Density = 1.988276 g / cm^3
# Si number density = 19.928118 Si / 1000 Ang^3
#
#
#
# Elastic Constant Matrix: (Units=GPa)
#
#
# Indices 1 2 3 4 5 6 
#
# 1 142.2133 79.2011 38.0243 0.0001 0.0000 0.0000
# 2 79.2011 159.3187 37.5007 0.0001 -0.0001 0.0000
# 3 38.0243 37.5007 64.9238 0.0006 -0.0003 -0.0001
# 4 0.0001 0.0001 0.0006 26.1546 -0.0001 0.0000
# 5 0.0000 -0.0001 -0.0003 -0.0001 22.9871 0.0000
# 6 0.0000 0.0000 -0.0001 0.0000 0.0000 36.4814
#
#
#
# Elastic Compliance Matrix: (Units=1/GPa)
#
#
# Indices 1 2 3 4 5 6 
#
# 1 0.010401 -0.004325 -0.003594 0.000000 0.000000 0.000000
# 2 -0.004325 0.009063 -0.002702 0.000000 0.000000 0.000000
# 3 -0.003594 -0.002702 0.019068 0.000000 0.000000 0.000000
# 4 0.000000 0.000000 0.000000 0.038234 0.000000 0.000000
# 5 0.000000 0.000000 0.000000 0.000000 0.043503 0.000000
# 6 0.000000 0.000000 0.000000 0.000000 0.000000 0.027411
#
#
# Mechanical properties :
#
#
# Convention : Reuss Voigt Hill
#
# Bulk Modulus (GPa) = 57.83244 75.10090 66.46667
# Shear Modulus (GPa) = 28.62316 31.23993 29.93154
#
# Velocity S-wave (km/s) = 3.79399 3.96363 3.87974
# Velocity P-wave (km/s) = 6.94810 7.66256 7.31406
#
# Compressibility (1/GPa) = 0.01729133
#
# Stress axis : x y z
#
# Youngs Moduli (GPa) = 96.14407 110.34363 52.44405
#
# Poissons Ratio (x) = 0.47721 0.18846
# Poissons Ratio (y) = 0.41580 0.14169
# Poissons Ratio (z) = 0.34551 0.29812
#
# Static dielectric constant tensor:
#      x y z
#    x 3.995050 0.000000 0.000000 
#    y 0.000000 3.643360 0.000000 
#    z 0.000000 0.000000 3.434010 
# 
# 
# High freq. dielectric constant tensor:
#      x y z
#    x 1.800410 0.000000 0.000000 
#    y 0.000000 1.775260 0.000000 
#    z 0.000000 0.000000 1.740530 
# 
# From -- ./inp_files/14525.got.cif
#   From: 2010.03.12/outbox.cif.g09.slc.cpg/sg46_8_cif.got.tgz:14525.got - 2010.04.14 02:56:35.
