data_PCOD8191861
_publ_section_title
;
Structure prediction by ZEFSAII (Michael W. Deem and Ramdas Pophale) SiO2 
 PCOD8191861
Probable space group: I M A 2
;
_chemical_formula_sum "Si O2"
_cell_formula_units_Z 56
_cell_length_a 8.828694
_cell_length_b 21.015968
_cell_length_c 13.937739
_cell_angle_alpha 90.000000
_cell_angle_beta 90.000000
_cell_angle_gamma 90.000000
_cell_volume 2586.057581
_symmetry_space_group_name_H-M "I M A 2"
_symmetry_group_IT_number 46
_symmetry_cell_setting 'orthorhombic'
loop_
_space_group_symop_operation_xyz
x,y,z
-x,-y,z
1/2-x,y,z
1/2+x,-y,z
1/2+x,1/2+y,1/2+z
1/2-x,1/2-y,1/2+z
-x,1/2+y,1/2+z
x,1/2-y,1/2+z
loop_
_atom_site_type_symbol
_atom_site_label
_atom_site_fract_x
_atom_site_fract_y
_atom_site_fract_z
Si Si1 0.071535 0.144961 0.101590
Si Si2 0.925589 0.109366 0.471507
Si Si3 0.085140 0.659544 0.295391
Si Si4 0.929481 0.255656 0.462435
Si Si5 0.927503 0.565496 0.159041
Si Si6 0.085533 0.558955 0.457407
Si Si7 0.927150 0.067011 0.258603
O O1 0.250000 0.153677 0.110121
O O2 0.001386 0.128239 0.205483
O O3 0.002991 0.208743 0.053854
O O4 0.027902 0.084600 0.037662
O O5 0.750000 0.103624 0.501024
O O6 0.976304 0.182706 0.468248
O O7 0.958505 0.076545 0.370651
O O8 0.027085 0.072509 0.548272
O O9 0.250000 0.678164 0.249874
O O10 0.013455 0.718151 0.357341
O O11 0.114813 0.606608 0.373224
O O12 0.978359 0.630387 0.213428
O O13 0.750000 0.267056 0.467843
O O14 0.750000 0.558641 0.170646
O O15 0.000000 0.500000 0.199912
O O16 0.250000 0.541735 0.502990
O O17 0.000000 0.500000 0.410220
O O18 0.750000 0.065904 0.235036
O O19 0.000000 0.000000 0.225651
#
# Coordination Sequence:
#
# PCOD8191861 Si02
#       7
#     8   8   8   8   8   8   8
#     4  11  22  36  57  86 120 156 193 241 295 350
#     4  10  23  43  66  88 116 157 202 248 297 350
#     4   9  19  36  59  86 117 153 195 242 292 349
#     4   9  20  41  65  90 120 157 199 241 291 355
#     4  12  25  40  61  89 122 159 200 247 299 352
#     4  10  19  32  52  80 114 152 193 240 293 351
#     4  11  23  40  62  89 119 156 201 249 300 353
#
# _framework density 21.654582999999999
#
# number of rings (size 3 to 8) (size 9 to 14) (size 15 to 20)
#    0.000    1.714    0.000    5.571    0.000    8.000 
#    0.000    2.857    0.000    0.000    0.000    0.000 
#    0.000    0.000    0.000    0.000    0.000    0.000 
#
# Total GULP energy -347087.332229 kJ/mol
# GULP energy per Si atom -12395.976151 kJ/mol
# Density = 2.160530 g / cm^3
# Si number density = 21.654583 Si / 1000 Ang^3
#
#
#
# Elastic Constant Matrix: (Units=GPa)
#
#
# Indices 1 2 3 4 5 6 
#
# 1 109.5618 27.7070 27.7968 0.0004 0.0000 0.0000
# 2 27.7070 80.6189 5.4172 -0.0001 0.0000 0.0000
# 3 27.7968 5.4172 75.7755 -0.0032 -0.0001 -0.0001
# 4 0.0004 -0.0001 -0.0032 249.6431 0.0007 0.0005
# 5 0.0000 0.0000 -0.0001 0.0007 30.6761 0.0000
# 6 0.0000 0.0000 -0.0001 0.0005 0.0000 24.5699
#
#
#
# Elastic Compliance Matrix: (Units=1/GPa)
#
#
# Indices 1 2 3 4 5 6 
#
# 1 0.010975 -0.003518 -0.003774 0.000000 0.000000 0.000000
# 2 -0.003518 0.013592 0.000319 0.000000 0.000000 0.000000
# 3 -0.003774 0.000319 0.014559 0.000000 0.000000 0.000000
# 4 0.000000 0.000000 0.000000 0.004006 0.000000 0.000000
# 5 0.000000 0.000000 0.000000 0.000000 0.032599 0.000000
# 6 0.000000 0.000000 0.000000 0.000000 0.000000 0.040700
#
#
# Mechanical properties :
#
#
# Convention : Reuss Voigt Hill
#
# Bulk Modulus (GPa) = 39.71751 43.08869 41.40310
# Shear Modulus (GPa) = 36.03110 74.64684 55.33897
#
# Velocity S-wave (km/s) = 4.08352 5.87762 5.06071
# Velocity P-wave (km/s) = 6.37297 8.12424 7.30130
#
# Compressibility (1/GPa) = 0.02517781
#
# Stress axis : x y z
#
# Youngs Moduli (GPa) = 91.12003 73.57430 68.68789
#
# Poissons Ratio (x) = 0.25884 0.25925
# Poissons Ratio (y) = 0.32057 -0.02190
# Poissons Ratio (z) = 0.34391 -0.02346
#
# Static dielectric constant tensor:
#      x y z
#    x 3.734860 0.000010 0.000000 
#    y 0.000010 -1.081990 -0.000010 
#    z 0.000000 -0.000010 4.140750 
# 
# 
# High freq. dielectric constant tensor:
#      x y z
#    x 1.842500 0.000000 0.000000 
#    y 0.000000 1.851380 0.000000 
#    z 0.000000 0.000000 1.850840 
# 
# From -- ./inp_files/14200.got.cif
#   From: 2010.03.12/outbox.cif.g09.slc.cpg/sg46_8_cif.got.tgz:14200.got - 2010.04.14 02:56:35.
