data_PCOD8191092
_publ_section_title
;
Structure prediction by ZEFSAII (Michael W. Deem and Ramdas Pophale) SiO2 
 PCOD8191092
Probable space group: I B A 2
;
_chemical_formula_sum "Si O2"
_cell_formula_units_Z 56
_cell_length_a 7.843173
_cell_length_b 20.378088
_cell_length_c 14.517800
_cell_angle_alpha 90.000000
_cell_angle_beta 90.000000
_cell_angle_gamma 90.000000
_cell_volume 2320.363563
_symmetry_space_group_name_H-M "I B A 2"
_symmetry_group_IT_number 45
_symmetry_cell_setting 'orthorhombic'
loop_
_space_group_symop_operation_xyz
x,y,z
-x,-y,z
-x,y,1/2+z
x,-y,1/2+z
1/2+x,1/2+y,1/2+z
1/2-x,1/2-y,1/2+z
1/2-x,1/2+y,z
1/2+x,1/2-y,z
loop_
_atom_site_type_symbol
_atom_site_label
_atom_site_fract_x
_atom_site_fract_y
_atom_site_fract_z
Si Si1 0.267523 0.792192 0.997520
Si Si2 0.325655 0.910134 0.714422
Si Si3 0.865854 0.574994 0.917851
Si Si4 0.128807 0.690070 0.695697
Si Si5 0.922477 0.837280 0.959305
Si Si6 0.491133 0.327141 0.756038
Si Si7 0.211674 0.456712 0.518214
O O1 0.329343 0.847677 0.925847
O O2 0.277730 0.719465 0.951938
O O3 0.071188 0.806813 0.023686
O O4 0.383160 0.792825 0.088196
O O5 0.334100 0.948113 0.812083
O O6 0.491103 0.864836 0.715899
O O7 0.147751 0.870763 0.701833
O O8 0.337674 0.958977 0.626678
O O9 0.741699 0.530828 0.984569
O O10 0.058457 0.564144 0.950861
O O11 0.318715 0.664734 0.716878
O O12 0.076276 0.752761 0.755764
O O13 0.861025 0.904783 0.003530
O O14 0.004011 0.852579 0.860526
#
# Coordination Sequence:
#
# PCOD8191092 Si02
#       7
#     8   8   8   8   8   8   8
#     4  12  23  43  71 105 148 186 238 305 368 430
#     4  12  24  48  74 104 150 195 250 303 371 450
#     4  11  25  48  74 105 142 197 245 305 365 441
#     4  12  23  40  70 108 150 188 245 298 373 444
#     4  12  25  44  72 109 151 189 245 308 369 440
#     4  12  24  42  69 112 148 194 241 305 371 442
#     4  11  26  48  77 104 143 201 248 301 379 441
#
# _framework density 24.134148
#
# number of rings (size 3 to 8) (size 9 to 14) (size 15 to 20)
#    0.000    0.286    4.286    6.000    0.000    2.857 
#    2.571    0.000    0.000    0.000    0.000    0.000 
#    0.000    0.000    0.000    0.000    0.000    0.000 
#
# Total GULP energy -347157.697793 kJ/mol
# GULP energy per Si atom -12398.489207 kJ/mol
# Density = 2.407922 g / cm^3
# Si number density = 24.134148 Si / 1000 Ang^3
#
#
#
# Elastic Constant Matrix: (Units=GPa)
#
#
# Indices 1 2 3 4 5 6 
#
# 1 129.0429 13.6532 16.7810 0.0000 0.0000 0.0000
# 2 13.6532 54.3733 19.9429 -0.0001 0.0000 0.0000
# 3 16.7810 19.9429 150.5990 0.0000 0.0000 0.0000
# 4 0.0000 -0.0001 0.0000 36.6626 0.0000 0.0000
# 5 0.0000 0.0000 0.0000 0.0000 28.2987 0.0000
# 6 0.0000 0.0000 0.0000 0.0000 0.0000 30.0977
#
#
#
# Elastic Compliance Matrix: (Units=1/GPa)
#
#
# Indices 1 2 3 4 5 6 
#
# 1 0.008023 -0.001773 -0.000659 0.000000 0.000000 0.000000
# 2 -0.001773 0.019722 -0.002414 0.000000 0.000000 0.000000
# 3 -0.000659 -0.002414 0.007033 0.000000 0.000000 0.000000
# 4 0.000000 0.000000 0.000000 0.027276 0.000000 0.000000
# 5 0.000000 0.000000 0.000000 0.000000 0.035337 0.000000
# 6 0.000000 0.000000 0.000000 0.000000 0.000000 0.033225
#
#
# Mechanical properties :
#
#
# Convention : Reuss Voigt Hill
#
# Bulk Modulus (GPa) = 39.86315 48.30771 44.08543
# Shear Modulus (GPa) = 33.63150 37.92100 35.77625
#
# Velocity S-wave (km/s) = 3.73704 3.96821 3.85436
# Velocity P-wave (km/s) = 5.93075 6.40745 6.17370
#
# Compressibility (1/GPa) = 0.02508582
#
# Stress axis : x y z
#
# Youngs Moduli (GPa) = 124.64722 50.70487 142.18090
#
# Poissons Ratio (x) = 0.08988 0.09373
# Poissons Ratio (y) = 0.22096 0.34324
# Poissons Ratio (z) = 0.08217 0.12241
#
# Static dielectric constant tensor:
#      x y z
#    x 4.483290 0.000000 0.000000 
#    y 0.000000 4.666410 0.000000 
#    z 0.000000 0.000000 4.526800 
# 
# 
# High freq. dielectric constant tensor:
#      x y z
#    x 1.966490 0.000000 0.000000 
#    y 0.000000 1.941460 0.000000 
#    z 0.000000 0.000000 1.968970 
# 
# From -- ./inp_files/5739.got.cif
#   From: 2010.03.12/outbox.cif.g09.slc.cpg/sg45_3_cif.got.tgz:5739.got - 2010.04.14 02:50:11.
