data_PCOD8191240
_publ_section_title
;
Structure prediction by ZEFSAII (Michael W. Deem and Ramdas Pophale) SiO2 
 PCOD8191240
Probable space group: I M A 2
;
_chemical_formula_sum "Si O2"
_cell_formula_units_Z 64
_cell_length_a 8.638185
_cell_length_b 24.131606
_cell_length_c 15.540552
_cell_angle_alpha 90.000000
_cell_angle_beta 90.000000
_cell_angle_gamma 90.000000
_cell_volume 3239.478990
_symmetry_space_group_name_H-M "I M A 2"
_symmetry_group_IT_number 46
_symmetry_cell_setting 'orthorhombic'
loop_
_space_group_symop_operation_xyz
x,y,z
-x,-y,z
1/2-x,y,z
1/2+x,-y,z
1/2+x,1/2+y,1/2+z
1/2-x,1/2-y,1/2+z
-x,1/2+y,1/2+z
x,1/2-y,1/2+z
loop_
_atom_site_type_symbol
_atom_site_label
_atom_site_fract_x
_atom_site_fract_y
_atom_site_fract_z
Si Si1 0.568708 0.860034 0.139820
Si Si2 0.568350 0.866401 0.331576
Si Si3 0.431650 0.366401 0.331576
Si Si4 0.930007 0.250000 0.077384
Si Si5 0.067103 0.060513 0.486352
Si Si6 0.932897 0.939487 0.986353
Si Si7 0.432211 0.250000 0.392060
Si Si8 0.068708 0.360034 0.139820
O O1 0.750000 0.846058 0.129764
O O2 0.532424 0.885527 0.234212
O O3 0.472033 0.803848 0.132623
O O4 0.513037 0.903820 0.068661
O O5 0.750000 0.862729 0.349281
O O6 0.499581 0.910690 0.399665
O O7 0.495917 0.805328 0.348845
O O8 0.250000 0.362730 0.349281
O O9 0.500419 0.410690 0.399665
O O10 0.504083 0.305329 0.348846
O O11 0.467577 0.385527 0.234212
O O12 0.750000 0.250000 0.053614
O O13 0.972033 0.303848 0.132623
O O14 0.032897 0.250000 0.992469
O O15 0.250000 0.055854 0.483302
O O16 0.013037 0.096179 0.568661
O O17 0.000000 0.000000 0.495804
O O18 0.750000 0.944146 0.983303
O O19 0.000000 0.000000 0.995805
O O20 0.250000 0.250000 0.377786
O O21 0.250000 0.346058 0.129764
#
# Coordination Sequence:
#
# PCOD8191240 Si02
#       8
#     8   8   8   8   8   8   8   8
#     4  10  20  38  62  82 108 149 191 227 268 331
#     4   9  18  34  60  87 105 138 190 232 268 323
#     4   9  18  34  60  87 105 138 190 232 268 323
#     4  12  23  34  54  87 121 146 176 226 287 335
#     4  10  21  37  57  82 111 146 189 232 274 323
#     4  10  21  37  57  82 111 146 189 232 274 323
#     4  10  17  34  60  83 109 142 184 228 273 335
#     4  10  20  38  62  82 108 149 191 227 268 331
#
# _framework density 19.756264999999999
#
# number of rings (size 3 to 8) (size 9 to 14) (size 15 to 20)
#    0.000    2.000    2.500    1.875    0.000    4.000 
#    0.000    3.750    0.000    0.000    0.000    0.000 
#    0.000    0.000    0.000    0.000    0.000    0.000 
#
# Total GULP energy -396777.990694 kJ/mol
# GULP energy per Si atom -12399.312209 kJ/mol
# Density = 1.971130 g / cm^3
# Si number density = 19.756265 Si / 1000 Ang^3
#
#
#
# Elastic Constant Matrix: (Units=GPa)
#
#
# Indices 1 2 3 4 5 6 
#
# 1 18.4119 28.1933 14.8677 -0.0001 0.0000 0.0000
# 2 28.1933 167.7452 80.8841 -0.0002 0.0000 0.0000
# 3 14.8677 80.8841 166.8555 -0.0008 0.0000 0.0001
# 4 -0.0001 -0.0002 -0.0008 18.7465 0.0000 0.0000
# 5 0.0000 0.0000 0.0000 0.0000 9.1316 0.0000
# 6 0.0000 0.0000 0.0001 0.0000 0.0000 28.7681
#
#
#
# Elastic Compliance Matrix: (Units=1/GPa)
#
#
# Indices 1 2 3 4 5 6 
#
# 1 0.073203 -0.011952 -0.000729 0.000000 0.000000 0.000000
# 2 -0.011952 0.009731 -0.003652 0.000000 0.000000 0.000000
# 3 -0.000729 -0.003652 0.007829 0.000000 0.000000 0.000000
# 4 0.000000 0.000000 0.000000 0.053343 0.000000 0.000000
# 5 0.000000 0.000000 0.000000 0.000000 0.109510 0.000000
# 6 0.000000 0.000000 0.000000 0.000000 0.000000 0.034761
#
#
# Mechanical properties :
#
#
# Convention : Reuss Voigt Hill
#
# Bulk Modulus (GPa) = 17.21277 66.76698 41.98988
# Shear Modulus (GPa) = 14.68823 26.60040 20.64431
#
# Velocity S-wave (km/s) = 2.72963 3.67335 3.23608
# Velocity P-wave (km/s) = 4.32041 7.20139 5.93827
#
# Compressibility (1/GPa) = 0.05809640
#
# Stress axis : x y z
#
# Youngs Moduli (GPa) = 13.66067 102.76136 127.73585
#
# Poissons Ratio (x) = 1.22819 0.09313
# Poissons Ratio (y) = 0.16327 0.46653
# Poissons Ratio (z) = 0.00996 0.37532
#
# Static dielectric constant tensor:
#      x y z
#    x 3.142860 0.000000 0.000000 
#    y 0.000000 3.820630 0.000000 
#    z 0.000000 0.000000 3.783880 
# 
# 
# High freq. dielectric constant tensor:
#      x y z
#    x 1.724220 0.000000 0.000000 
#    y 0.000000 1.768810 0.000000 
#    z 0.000000 0.000000 1.786740 
# 
# From -- ./inp_files/14504.got.cif
#   From: 2010.03.12/outbox.cif.g09.slc.cpg/sg46_8_cif.got.tgz:14504.got - 2010.04.14 02:56:35.
