data_PCOD8191407
_publ_section_title
;
Structure prediction by ZEFSAII (Michael W. Deem and Ramdas Pophale) SiO2 
 PCOD8191407
Probable space group: I M A 2
;
_chemical_formula_sum "Si O2"
_cell_formula_units_Z 64
_cell_length_a 8.561340
_cell_length_b 14.632210
_cell_length_c 27.801966
_cell_angle_alpha 90.000000
_cell_angle_beta 90.000000
_cell_angle_gamma 90.000000
_cell_volume 3482.789112
_symmetry_space_group_name_H-M "I M A 2"
_symmetry_group_IT_number 46
_symmetry_cell_setting 'orthorhombic'
loop_
_space_group_symop_operation_xyz
x,y,z
-x,-y,z
1/2-x,y,z
1/2+x,-y,z
1/2+x,1/2+y,1/2+z
1/2-x,1/2-y,1/2+z
-x,1/2+y,1/2+z
x,1/2-y,1/2+z
loop_
_atom_site_type_symbol
_atom_site_label
_atom_site_fract_x
_atom_site_fract_y
_atom_site_fract_z
Si Si1 0.933711 0.903856 0.692770
Si Si2 0.435031 0.710617 0.385191
Si Si3 0.432137 0.275913 0.108879
Si Si4 0.929540 0.343692 0.018208
Si Si5 0.565731 0.090866 0.069988
Si Si6 0.066921 0.336554 0.479667
Si Si7 0.433138 0.907654 0.418335
Si Si8 0.934973 0.597600 0.301898
O O1 0.750000 0.912129 0.689573
O O2 0.991328 0.821359 0.658531
O O3 0.988593 0.883361 0.747108
O O4 0.000000 0.000000 0.674226
O O5 0.250000 0.703168 0.390673
O O6 0.518324 0.643428 0.424418
O O7 0.495957 0.815321 0.392612
O O8 0.488545 0.678158 0.332867
O O9 0.250000 0.253273 0.109946
O O10 0.465731 0.350091 0.066309
O O11 0.523419 0.181419 0.100452
O O12 0.750000 0.357941 0.032891
O O13 0.980938 0.411440 0.975144
O O14 0.952088 0.244234 0.995698
O O15 0.750000 0.086323 0.063626
O O16 0.500000 0.000000 0.097122
O O17 0.477410 0.085477 0.017948
O O18 0.250000 0.312212 0.483302
O O19 0.250000 0.908511 0.412330
O O20 0.500000 0.000000 0.393884
O O21 0.750000 0.598695 0.307772
O O22 0.000000 0.500000 0.319340
#
# Coordination Sequence:
#
# PCOD8191407 Si02
#       8
#     8   8   8   8   8   8   8   8
#     4   9  20  36  55  78 105 131 164 207 255 307
#     4  10  20  35  52  75 104 135 170 212 255 303
#     4  10  19  33  52  76 103 135 171 210 251 299
#     4   9  17  30  45  67  98 132 167 206 245 287
#     4  11  21  34  51  74 104 139 174 212 252 298
#     4  10  18  30  48  71  97 130 168 206 245 292
#     4   9  19  32  48  70 101 136 171 207 246 289
#     4  10  20  36  56  79 102 130 164 206 257 309
#
# _framework density 18.376076000000001
#
# number of rings (size 3 to 8) (size 9 to 14) (size 15 to 20)
#    0.000    2.250    0.000    6.000    0.000    5.500 
#    0.000    5.000    0.000    0.750    0.000    1.750 
#    0.000    0.000    0.000    0.000    0.000    0.000 
#
# Total GULP energy -396565.390388 kJ/mol
# GULP energy per Si atom -12392.668450 kJ/mol
# Density = 1.833425 g / cm^3
# Si number density = 18.376076 Si / 1000 Ang^3
#
#
#
# Elastic Constant Matrix: (Units=GPa)
#
#
# Indices 1 2 3 4 5 6 
#
# 1 68.1019 38.4674 32.1402 0.0000 0.0000 0.0000
# 2 38.4674 112.0202 59.6816 0.0000 0.0000 0.0000
# 3 32.1402 59.6816 98.6463 0.0000 0.0000 0.0000
# 4 0.0000 0.0000 0.0000 22.4996 0.0000 0.0000
# 5 0.0000 0.0000 0.0000 0.0000 24.6281 0.0000
# 6 0.0000 0.0000 0.0000 0.0000 0.0000 27.3036
#
#
#
# Elastic Compliance Matrix: (Units=1/GPa)
#
#
# Indices 1 2 3 4 5 6 
#
# 1 0.018917 -0.004740 -0.003295 0.000000 0.000000 0.000000
# 2 -0.004740 0.014361 -0.007144 0.000000 0.000000 0.000000
# 3 -0.003295 -0.007144 0.015533 0.000000 0.000000 0.000000
# 4 0.000000 0.000000 0.000000 0.044445 0.000000 0.000000
# 5 0.000000 0.000000 0.000000 0.000000 0.040604 0.000000
# 6 0.000000 0.000000 0.000000 0.000000 0.000000 0.036625
#
#
# Mechanical properties :
#
#
# Convention : Reuss Voigt Hill
#
# Bulk Modulus (GPa) = 54.19660 59.92743 57.06201
# Shear Modulus (GPa) = 24.15519 24.78486 24.47003
#
# Velocity S-wave (km/s) = 3.62952 3.67653 3.65310
# Velocity P-wave (km/s) = 6.86452 7.12074 6.99380
#
# Compressibility (1/GPa) = 0.01845134
#
# Stress axis : x y z
#
# Youngs Moduli (GPa) = 52.86360 69.63365 64.37872
#
# Poissons Ratio (x) = 0.33008 0.21215
# Poissons Ratio (y) = 0.25058 0.45992
# Poissons Ratio (z) = 0.17421 0.49746
#
# Static dielectric constant tensor:
#      x y z
#    x 3.309780 0.000000 0.000000 
#    y 0.000000 3.539410 0.000000 
#    z 0.000000 0.000000 3.601020 
# 
# 
# High freq. dielectric constant tensor:
#      x y z
#    x 1.720570 0.000000 0.000000 
#    y 0.000000 1.702350 0.000000 
#    z 0.000000 0.000000 1.691040 
# 
# From -- ./inp_files/25294.got.cif
#   From: 2010.03.12/outbox.cif.g09.slc.cpg/sg46_13_cif.got.tgz:25294.got - 2010.04.14 02:56:35.
