data_PCOD8191185
_publ_section_title
;
Structure prediction by ZEFSAII (Michael W. Deem and Ramdas Pophale) SiO2 
 PCOD8191185
Probable space group: I M A 2
;
_chemical_formula_sum "Si O2"
_cell_formula_units_Z 56
_cell_length_a 8.691165
_cell_length_b 22.232126
_cell_length_c 17.830689
_cell_angle_alpha 90.000000
_cell_angle_beta 90.000000
_cell_angle_gamma 90.000000
_cell_volume 3445.300564
_symmetry_space_group_name_H-M "I M A 2"
_symmetry_group_IT_number 46
_symmetry_cell_setting 'orthorhombic'
loop_
_space_group_symop_operation_xyz
x,y,z
-x,-y,z
1/2-x,y,z
1/2+x,-y,z
1/2+x,1/2+y,1/2+z
1/2-x,1/2-y,1/2+z
-x,1/2+y,1/2+z
x,1/2-y,1/2+z
loop_
_atom_site_type_symbol
_atom_site_label
_atom_site_fract_x
_atom_site_fract_y
_atom_site_fract_z
Si Si1 0.919275 0.822329 0.992200
Si Si2 0.428224 0.935678 0.266685
Si Si3 0.921129 0.684161 0.038182
Si Si4 0.572295 0.162235 0.389548
Si Si5 0.433453 0.215834 0.838331
Si Si6 0.931604 0.279077 0.185196
Si Si7 0.565989 0.651306 0.649544
O O1 0.750000 0.849645 0.981967
O O2 0.998667 0.823793 0.909672
O O3 0.910483 0.753183 0.015885
O O4 0.997582 0.856614 0.062942
O O5 0.250000 0.941335 0.245905
O O6 0.453921 0.897848 0.342023
O O7 0.513979 0.906190 0.195997
O O8 0.500000 0.000000 0.282512
O O9 0.750000 0.656448 0.045177
O O10 0.006289 0.679133 0.118119
O O11 0.015389 0.648585 0.974191
O O12 0.750000 0.182015 0.390720
O O13 0.474081 0.214444 0.350652
O O14 0.250000 0.210444 0.832347
O O15 0.513461 0.190911 0.763313
O O16 0.750000 0.276207 0.180877
O O17 0.996076 0.211429 0.184996
O O18 0.750000 0.657925 0.649133
#
# Coordination Sequence:
#
# PCOD8191185 Si02
#       7
#     8   8   8   8   8   8   8
#     4   7  14  26  41  62  83 110 148 182 216 266
#     4  11  23  35  48  67  90 119 158 197 235 273
#     4   9  17  29  44  62  84 116 153 182 222 276
#     4  10  19  31  45  63  88 115 149 193 235 270
#     4  10  17  27  44  64  90 123 155 182 218 272
#     4  11  19  27  41  65  94 121 152 187 225 267
#     4  10  18  31  48  63  85 118 154 191 232 273
#
# _framework density 16.254023
#
# number of rings (size 3 to 8) (size 9 to 14) (size 15 to 20)
#    0.000    2.286    1.429    5.143    0.000    1.714 
#    0.000    2.143    0.000    0.000    0.000    0.000 
#    0.000    1.143    0.000    8.286    0.000    4.000 
#
# Total GULP energy -346971.011382 kJ/mol
# GULP energy per Si atom -12391.821835 kJ/mol
# Density = 1.621703 g / cm^3
# Si number density = 16.254023 Si / 1000 Ang^3
#
#
#
# Elastic Constant Matrix: (Units=GPa)
#
#
# Indices 1 2 3 4 5 6 
#
# 1 88.4937 17.8094 48.4433 0.0000 0.0000 0.0000
# 2 17.8094 36.1242 32.3595 0.0000 0.0000 0.0000
# 3 48.4433 32.3595 163.3821 0.0001 0.0000 0.0000
# 4 0.0000 0.0000 0.0001 3.7672 0.0000 0.0000
# 5 0.0000 0.0000 0.0000 0.0000 27.7539 0.0000
# 6 0.0000 0.0000 0.0000 0.0000 0.0000 15.6002
#
#
#
# Elastic Compliance Matrix: (Units=1/GPa)
#
#
# Indices 1 2 3 4 5 6 
#
# 1 0.013916 -0.003847 -0.003364 0.000000 0.000000 0.000000
# 2 -0.003847 0.034716 -0.005735 0.000000 0.000000 0.000000
# 3 -0.003364 -0.005735 0.008254 0.000000 0.000000 0.000000
# 4 0.000000 0.000000 0.000000 0.265452 0.000000 0.000000
# 5 0.000000 0.000000 0.000000 0.000000 0.036031 0.000000
# 6 0.000000 0.000000 0.000000 0.000000 0.000000 0.064102
#
#
# Mechanical properties :
#
#
# Convention : Reuss Voigt Hill
#
# Bulk Modulus (GPa) = 32.26489 53.91381 43.08935
# Shear Modulus (GPa) = 10.90049 22.05012 16.47530
#
# Velocity S-wave (km/s) = 2.59247 3.68719 3.18718
# Velocity P-wave (km/s) = 5.37166 7.16720 6.33338
#
# Compressibility (1/GPa) = 0.03099345
#
# Stress axis : x y z
#
# Youngs Moduli (GPa) = 71.85916 28.80480 121.15264
#
# Poissons Ratio (x) = 0.11081 0.40758
# Poissons Ratio (y) = 0.27645 0.69484
# Poissons Ratio (z) = 0.24175 0.16520
#
# Static dielectric constant tensor:
#      x y z
#    x 3.137000 0.000000 0.000000 
#    y 0.000000 2.540370 0.000000 
#    z 0.000000 0.000000 3.680650 
# 
# 
# High freq. dielectric constant tensor:
#      x y z
#    x 1.631570 0.000000 0.000000 
#    y 0.000000 1.544070 0.000000 
#    z 0.000000 0.000000 1.651600 
# 
# From -- ./inp_files/18465.got.cif
#   From: 2010.03.12/outbox.cif.g09.slc.cpg/sg46_10_cif.got.tgz:18465.got - 2010.04.14 02:56:35.
