data_PCOD8191428
_publ_section_title
;
Structure prediction by ZEFSAII (Michael W. Deem and Ramdas Pophale) SiO2 
 PCOD8191428
Probable space group: I M A 2
;
_chemical_formula_sum "Si O2"
_cell_formula_units_Z 64
_cell_length_a 11.269018
_cell_length_b 30.474912
_cell_length_c 9.995111
_cell_angle_alpha 90.000000
_cell_angle_beta 90.000000
_cell_angle_gamma 90.000000
_cell_volume 3432.544327
_symmetry_space_group_name_H-M "I M A 2"
_symmetry_group_IT_number 46
_symmetry_cell_setting 'orthorhombic'
loop_
_space_group_symop_operation_xyz
x,y,z
-x,-y,z
1/2-x,y,z
1/2+x,-y,z
1/2+x,1/2+y,1/2+z
1/2-x,1/2-y,1/2+z
-x,1/2+y,1/2+z
x,1/2-y,1/2+z
loop_
_atom_site_type_symbol
_atom_site_label
_atom_site_fract_x
_atom_site_fract_y
_atom_site_fract_z
Si Si1 0.387078 0.162038 0.675590
Si Si2 0.387833 0.163039 0.971629
Si Si3 0.117905 0.784894 0.274289
Si Si4 0.984575 0.744982 0.038316
Si Si5 0.883604 0.472154 0.739343
Si Si6 0.118957 0.103186 0.449320
Si Si7 0.876705 0.504320 0.024824
Si Si8 0.034261 0.877794 0.198089
O O1 0.250000 0.153023 0.700702
O O2 0.444635 0.159376 0.822827
O O3 0.402937 0.208569 0.605555
O O4 0.444313 0.124072 0.580927
O O5 0.250000 0.149801 0.980304
O O6 0.401173 0.212984 0.019765
O O7 0.464054 0.129730 0.060544
O O8 0.250000 0.772764 0.319497
O O9 0.089031 0.756619 0.142120
O O10 0.032394 0.772762 0.396991
O O11 0.115157 0.836304 0.235640
O O12 0.750000 0.490235 0.696804
O O13 0.887504 0.470128 0.901727
O O14 0.890462 0.422482 0.684451
O O15 0.000000 0.500000 0.686539
O O16 0.250000 0.123984 0.444360
O O17 0.125879 0.051324 0.456716
O O18 0.060362 0.117479 0.313995
O O19 0.750000 0.496401 0.103189
O O20 0.000000 0.500000 0.112593
#
# Coordination Sequence:
#
# PCOD8191428 Si02
#       8
#     8   8   8   8   8   8   8   8
#     4  10  20  35  54  79 112 145 179 226 283 339
#     4  10  22  36  53  79 112 149 185 230 288 343
#     4  11  23  36  53  75 105 145 189 235 280 336
#     4  11  20  37  55  75 105 140 189 234 284 333
#     4  10  19  32  54  85 119 148 180 234 290 341
#     4  10  18  30  52  82 109 138 177 223 276 331
#     4   9  16  28  48  79 110 138 170 219 275 323
#     4  11  20  34  54  82 111 143 186 233 277 340
#
# _framework density 18.645061999999999
#
# number of rings (size 3 to 8) (size 9 to 14) (size 15 to 20)
#    0.000    1.750    5.000    1.500    0.000    0.500 
#    0.000    0.000    0.000    0.750    0.000    1.750 
#    0.000    0.000    0.000    0.000    0.000    0.000 
#
# Total GULP energy -396449.016475 kJ/mol
# GULP energy per Si atom -12389.031765 kJ/mol
# Density = 1.860262 g / cm^3
# Si number density = 18.645062 Si / 1000 Ang^3
#
#
#
# Elastic Constant Matrix: (Units=GPa)
#
#
# Indices 1 2 3 4 5 6 
#
# 1 111.6947 15.9120 19.5421 0.0000 0.0003 -0.0009
# 2 15.9120 65.8046 21.6325 -0.0015 0.0004 -0.0035
# 3 19.5421 21.6325 95.0796 -0.0022 0.0041 -0.0222
# 4 0.0000 -0.0015 -0.0022 10.1058 0.0000 0.0010
# 5 0.0003 0.0004 0.0041 0.0000 15.3149 0.0009
# 6 -0.0009 -0.0035 -0.0222 0.0010 0.0009 1.6496
#
#
#
# Elastic Compliance Matrix: (Units=1/GPa)
#
#
# Indices 1 2 3 4 5 6 
#
# 1 0.009477 -0.001785 -0.001542 -0.000001 0.000000 -0.000019
# 2 -0.001785 0.016761 -0.003447 0.000002 0.000001 -0.000012
# 3 -0.001542 -0.003447 0.011619 0.000002 -0.000003 0.000148
# 4 -0.000001 0.000002 0.000002 0.098953 0.000000 -0.000060
# 5 0.000000 0.000001 -0.000003 0.000000 0.065296 -0.000035
# 6 -0.000019 -0.000012 0.000148 -0.000060 -0.000035 0.606194
#
#
# Mechanical properties :
#
#
# Convention : Reuss Voigt Hill
#
# Bulk Modulus (GPa) = 41.13480 42.97246 42.05363
# Shear Modulus (GPa) = 6.02447 19.78023 12.90235
#
# Velocity S-wave (km/s) = 1.79949 3.26065 2.63344
# Velocity P-wave (km/s) = 5.14076 6.10520 5.64362
#
# Compressibility (1/GPa) = 0.02431032
#
# Stress axis : x y z
#
# Youngs Moduli (GPa) = 105.51886 59.66184 86.06882
#
# Poissons Ratio (x) = 0.10648 0.13270
# Poissons Ratio (y) = 0.18833 0.29665
# Poissons Ratio (z) = 0.16269 0.20563
#
# Static dielectric constant tensor:
#      x y z
#    x 3.645490 0.000000 0.000000 
#    y 0.000000 3.594490 0.000000 
#    z 0.000000 0.000000 3.352570 
# 
# 
# High freq. dielectric constant tensor:
#      x y z
#    x 1.724250 0.000000 0.000000 
#    y 0.000000 1.723140 0.000000 
#    z 0.000000 0.000000 1.694670 
# 
# From -- ./inp_files/4999.got.cif
#   From: 2010.03.12/outbox.cif.g09.slc.cpg/sg46_3_cif.got.tgz:4999.got - 2010.04.14 02:56:35.
