data_PCOD8191839
_publ_section_title
;
Structure prediction by ZEFSAII (Michael W. Deem and Ramdas Pophale) SiO2 
 PCOD8191839
Probable space group: I M A 2
;
_chemical_formula_sum "Si O2"
_cell_formula_units_Z 64
_cell_length_a 8.996035
_cell_length_b 24.778854
_cell_length_c 15.295024
_cell_angle_alpha 90.000000
_cell_angle_beta 90.000000
_cell_angle_gamma 90.000000
_cell_volume 3409.435792
_symmetry_space_group_name_H-M "I M A 2"
_symmetry_group_IT_number 46
_symmetry_cell_setting 'orthorhombic'
loop_
_space_group_symop_operation_xyz
x,y,z
-x,-y,z
1/2-x,y,z
1/2+x,-y,z
1/2+x,1/2+y,1/2+z
1/2-x,1/2-y,1/2+z
-x,1/2+y,1/2+z
x,1/2-y,1/2+z
loop_
_atom_site_type_symbol
_atom_site_label
_atom_site_fract_x
_atom_site_fract_y
_atom_site_fract_z
Si Si1 0.920850 0.224915 0.817210
Si Si2 0.425626 0.332275 0.852034
Si Si3 0.577738 0.395378 0.351573
Si Si4 0.077774 0.136629 0.534245
Si Si5 0.074966 0.943574 0.036386
Si Si6 0.578047 0.640989 0.658178
Si Si7 0.927618 0.942406 0.682239
Si Si8 0.580146 0.762451 0.642213
O O1 0.750000 0.241706 0.817942
O O2 0.948003 0.168335 0.866410
O O3 0.010699 0.272276 0.864108
O O4 0.972416 0.217239 0.717908
O O5 0.250000 0.325572 0.855856
O O6 0.472972 0.358871 0.760141
O O7 0.482479 0.368868 0.934235
O O8 0.750000 0.407529 0.329519
O O9 0.526225 0.424615 0.440122
O O10 0.475853 0.417724 0.274465
O O11 0.250000 0.122993 0.535434
O O12 0.006715 0.094948 0.603473
O O13 0.048436 0.198973 0.560304
O O14 0.250000 0.950044 0.043203
O O15 0.024378 0.900773 0.108360
O O16 0.000000 0.000000 0.058789
O O17 0.750000 0.624003 0.649219
O O18 0.549681 0.700268 0.617113
O O19 0.750000 0.946730 0.681965
O O20 0.000000 0.000000 0.667589
O O21 0.750000 0.768335 0.675790
#
# Coordination Sequence:
#
# PCOD8191839 Si02
#       8
#     8   8   8   8   8   8   8   8
#     4  10  19  32  51  81 118 149 181 223 276 329
#     4   9  19  36  58  82 114 151 189 230 271 330
#     4  10  22  38  55  81 115 149 185 226 277 336
#     4   9  18  34  57  84 112 148 190 229 269 323
#     4  11  24  41  59  79 108 145 190 237 283 335
#     4   9  19  35  57  84 112 143 184 233 281 329
#     4  11  22  37  59  83 113 150 190 231 277 330
#     4   9  17  33  55  82 112 146 187 221 266 331
#
# _framework density 18.771433999999999
#
# number of rings (size 3 to 8) (size 9 to 14) (size 15 to 20)
#    0.000    2.250    1.250    2.250    1.750    4.500 
#    0.000    2.500    0.000    1.500    0.000    0.000 
#    0.000    0.000    0.000    0.000    0.000    0.000 
#
# Total GULP energy -396711.616616 kJ/mol
# GULP energy per Si atom -12397.238019 kJ/mol
# Density = 1.872871 g / cm^3
# Si number density = 18.771434 Si / 1000 Ang^3
#
#
#
# Elastic Constant Matrix: (Units=GPa)
#
#
# Indices 1 2 3 4 5 6 
#
# 1 54.6154 43.6759 42.0670 0.0000 0.0000 0.0000
# 2 43.6759 116.0740 71.7350 -0.0001 0.0000 0.0000
# 3 42.0670 71.7350 131.4214 -0.0002 0.0001 0.0000
# 4 0.0000 -0.0001 -0.0002 27.6091 0.0000 0.0000
# 5 0.0000 0.0000 0.0001 0.0000 21.6044 0.0000
# 6 0.0000 0.0000 0.0000 0.0000 0.0000 30.4757
#
#
#
# Elastic Compliance Matrix: (Units=1/GPa)
#
#
# Indices 1 2 3 4 5 6 
#
# 1 0.028112 -0.007571 -0.004866 0.000000 0.000000 0.000000
# 2 -0.007571 0.015040 -0.005786 0.000000 0.000000 0.000000
# 3 -0.004866 -0.005786 0.012325 0.000000 0.000000 0.000000
# 4 0.000000 0.000000 0.000000 0.036220 0.000000 0.000000
# 5 0.000000 0.000000 0.000000 0.000000 0.046287 0.000000
# 6 0.000000 0.000000 0.000000 0.000000 0.000000 0.032813
#
#
# Mechanical properties :
#
#
# Convention : Reuss Voigt Hill
#
# Bulk Modulus (GPa) = 52.54494 68.56298 60.55396
# Shear Modulus (GPa) = 23.40979 25.58002 24.49491
#
# Velocity S-wave (km/s) = 3.53526 3.69549 3.61626
# Velocity P-wave (km/s) = 6.68706 7.40361 7.05444
#
# Compressibility (1/GPa) = 0.01903133
#
# Stress axis : x y z
#
# Youngs Moduli (GPa) = 35.57173 66.49110 81.13646
#
# Poissons Ratio (x) = 0.50338 0.39482
# Poissons Ratio (y) = 0.26930 0.46945
# Poissons Ratio (z) = 0.17310 0.38471
#
# Static dielectric constant tensor:
#      x y z
#    x 3.305290 0.000000 0.000000 
#    y 0.000000 3.469790 0.000000 
#    z 0.000000 0.000000 3.665010 
# 
# 
# High freq. dielectric constant tensor:
#      x y z
#    x 1.716270 0.000000 0.000000 
#    y 0.000000 1.725240 0.000000 
#    z 0.000000 0.000000 1.729700 
# 
# From -- ./inp_files/14442.got.cif
#   From: 2010.03.12/outbox.cif.g09.slc.cpg/sg46_8_cif.got.tgz:14442.got - 2010.04.14 02:56:35.
