data_PCOD8191883
_publ_section_title
;
Structure prediction by ZEFSAII (Michael W. Deem and Ramdas Pophale) SiO2 
 PCOD8191883
Probable space group: I M A 2
;
_chemical_formula_sum "Si O2"
_cell_formula_units_Z 64
_cell_length_a 9.106410
_cell_length_b 32.393332
_cell_length_c 11.653446
_cell_angle_alpha 90.000000
_cell_angle_beta 90.000000
_cell_angle_gamma 90.000000
_cell_volume 3437.614638
_symmetry_space_group_name_H-M "I M A 2"
_symmetry_group_IT_number 46
_symmetry_cell_setting 'orthorhombic'
loop_
_space_group_symop_operation_xyz
x,y,z
-x,-y,z
1/2-x,y,z
1/2+x,-y,z
1/2+x,1/2+y,1/2+z
1/2-x,1/2-y,1/2+z
-x,1/2+y,1/2+z
x,1/2-y,1/2+z
loop_
_atom_site_type_symbol
_atom_site_label
_atom_site_fract_x
_atom_site_fract_y
_atom_site_fract_z
Si Si1 0.089017 0.687352 0.062160
Si Si2 0.577261 0.873276 0.980901
Si Si3 0.920059 0.724791 0.868754
Si Si4 0.920009 0.860465 0.243494
Si Si5 0.912670 0.101458 0.439375
Si Si6 0.421771 0.458135 0.367970
Si Si7 0.077514 0.041576 0.604678
Si Si8 0.077954 0.691787 0.318728
O O1 0.250000 0.709369 0.063937
O O2 0.040198 0.676299 0.190834
O O3 0.103396 0.646125 0.991399
O O4 0.968756 0.715923 0.999949
O O5 0.750000 0.868475 0.960573
O O6 0.525281 0.919171 0.943684
O O7 0.498533 0.838684 0.906788
O O8 0.532501 0.865268 0.111898
O O9 0.750000 0.737119 0.870204
O O10 0.951290 0.686168 0.785049
O O11 0.016305 0.762201 0.823850
O O12 0.750000 0.871508 0.261365
O O13 0.013571 0.894078 0.314375
O O14 0.750000 0.081146 0.427974
O O15 0.018962 0.076873 0.522754
O O16 0.500000 0.500000 0.411001
O O17 0.250000 0.465868 0.381986
O O18 0.463883 0.448250 0.236237
O O19 0.250000 0.036958 0.588148
O O20 0.000000 0.000000 0.564304
O O21 0.250000 0.692060 0.345419
#
# Coordination Sequence:
#
# PCOD8191883 Si02
#       8
#     8   8   8   8   8   8   8   8
#     4   9  20  37  54  76 105 139 177 221 273 328
#     4  10  21  38  58  83 112 147 192 235 279 335
#     4  10  21  36  55  78 105 142 186 230 277 328
#     4   9  20  38  57  77 107 147 188 230 276 327
#     4  10  19  34  56  79 106 140 180 223 272 328
#     4   9  19  35  57  84 115 148 183 229 281 335
#     4  10  19  32  53  82 113 143 178 223 278 331
#     4  11  23  36  54  81 111 142 179 229 283 336
#
# _framework density 18.617560999999998
#
# number of rings (size 3 to 8) (size 9 to 14) (size 15 to 20)
#    0.000    2.250    0.000    2.250    1.750    3.500 
#    0.000    0.625    0.000    1.500    0.000    0.000 
#    0.000    0.000    0.000    0.000    0.000    0.000 
#
# Total GULP energy -396797.581090 kJ/mol
# GULP energy per Si atom -12399.924409 kJ/mol
# Density = 1.857519 g / cm^3
# Si number density = 18.617561 Si / 1000 Ang^3
#
#
#
# Elastic Constant Matrix: (Units=GPa)
#
#
# Indices 1 2 3 4 5 6 
#
# 1 74.0385 35.8529 51.8151 -0.0014 -0.0001 0.0000
# 2 35.8529 70.5308 43.8651 -0.0019 0.0000 0.0000
# 3 51.8151 43.8651 130.1389 -0.0010 -0.0003 0.0001
# 4 -0.0014 -0.0019 -0.0010 19.8042 -0.0002 0.0002
# 5 -0.0001 0.0000 -0.0003 -0.0002 29.2918 0.0002
# 6 0.0000 0.0000 0.0001 0.0002 0.0002 35.6799
#
#
#
# Elastic Compliance Matrix: (Units=1/GPa)
#
#
# Indices 1 2 3 4 5 6 
#
# 1 0.021122 -0.006967 -0.006062 0.000001 0.000000 0.000000
# 2 -0.006967 0.020237 -0.004047 0.000001 0.000000 0.000000
# 3 -0.006062 -0.004047 0.011462 0.000000 0.000000 0.000000
# 4 0.000001 0.000001 0.000000 0.050494 0.000000 0.000000
# 5 0.000000 0.000000 0.000000 0.000000 0.034139 0.000000
# 6 0.000000 0.000000 0.000000 0.000000 0.000000 0.028027
#
#
# Mechanical properties :
#
#
# Convention : Reuss Voigt Hill
#
# Bulk Modulus (GPa) = 53.56434 59.75271 56.65853
# Shear Modulus (GPa) = 24.28878 26.50020 25.39449
#
# Velocity S-wave (km/s) = 3.61587 3.77689 3.69725
# Velocity P-wave (km/s) = 6.80191 7.15432 6.98034
#
# Compressibility (1/GPa) = 0.01866914
#
# Stress axis : x y z
#
# Youngs Moduli (GPa) = 47.34290 49.41472 87.24771
#
# Poissons Ratio (x) = 0.34429 0.52885
# Poissons Ratio (y) = 0.32985 0.35310
# Poissons Ratio (z) = 0.28697 0.19998
#
# Static dielectric constant tensor:
#      x y z
#    x 3.612090 -0.000010 0.000000 
#    y -0.000010 3.476640 0.000000 
#    z 0.000000 0.000000 3.492390 
# 
# 
# High freq. dielectric constant tensor:
#      x y z
#    x 1.730210 0.000000 0.000000 
#    y 0.000000 1.714070 0.000000 
#    z 0.000000 0.000000 1.722810 
# 
# From -- ./inp_files/9668.got.cif
#   From: 2010.03.12/outbox.cif.g09.slc.cpg/sg46_5_cif.got.tgz:9668.got - 2010.04.14 02:56:35.
