data_PCOD8191563
_publ_section_title
;
Structure prediction by ZEFSAII (Michael W. Deem and Ramdas Pophale) SiO2 
 PCOD8191563
Probable space group: I M A 2
;
_chemical_formula_sum "Si O2"
_cell_formula_units_Z 64
_cell_length_a 8.941801
_cell_length_b 20.818406
_cell_length_c 19.698327
_cell_angle_alpha 90.000000
_cell_angle_beta 90.000000
_cell_angle_gamma 90.000000
_cell_volume 3666.923223
_symmetry_space_group_name_H-M "I M A 2"
_symmetry_group_IT_number 46
_symmetry_cell_setting 'orthorhombic'
loop_
_space_group_symop_operation_xyz
x,y,z
-x,-y,z
1/2-x,y,z
1/2+x,-y,z
1/2+x,1/2+y,1/2+z
1/2-x,1/2-y,1/2+z
-x,1/2+y,1/2+z
x,1/2-y,1/2+z
loop_
_atom_site_type_symbol
_atom_site_label
_atom_site_fract_x
_atom_site_fract_y
_atom_site_fract_z
Si Si1 0.574823 0.434297 0.255680
Si Si2 0.072914 0.811030 0.676750
Si Si3 0.575670 0.124480 0.041515
Si Si4 0.427146 0.730770 0.031882
Si Si5 0.073385 0.689466 0.762478
Si Si6 0.072857 0.233590 0.394363
Si Si7 0.425896 0.565039 0.676777
Si Si8 0.424115 0.870253 0.892701
O O1 0.500000 0.500000 0.231710
O O2 0.750000 0.441318 0.244392
O O3 0.509189 0.375946 0.210592
O O4 0.535041 0.421067 0.334501
O O5 0.250000 0.809661 0.682842
O O6 0.025094 0.810526 0.597686
O O7 0.012524 0.748476 0.716459
O O8 0.750000 0.127824 0.056985
O O9 0.514894 0.196987 0.045525
O O10 0.506534 0.080762 0.101283
O O11 0.540594 0.097084 0.965969
O O12 0.250000 0.728822 0.018897
O O13 0.510054 0.704476 0.965032
O O14 0.250000 0.695474 0.774507
O O15 0.030700 0.623093 0.726237
O O16 0.989329 0.689254 0.834209
O O17 0.250000 0.231316 0.395417
O O18 0.018927 0.306214 0.382145
O O19 0.500000 0.500000 0.704093
O O20 0.250000 0.554259 0.674798
O O21 0.250000 0.849818 0.888433
#
# Coordination Sequence:
#
# PCOD8191563 Si02
#       8
#     8   8   8   8   8   8   8   8
#     4  10  20  33  50  75 105 138 174 214 256 304
#     4   9  16  31  57  80  95 127 181 222 246 293
#     4   8  14  27  49  74  96 128 171 209 242 286
#     4   9  16  31  55  77  98 129 174 218 252 303
#     4  10  18  34  57  77  98 135 181 215 248 304
#     4  11  21  31  48  79 111 133 162 215 272 308
#     4  10  20  33  51  75 105 137 173 214 256 304
#     4   9  17  32  53  71  98 142 184 210 239 298
#
# _framework density 17.453325
#
# number of rings (size 3 to 8) (size 9 to 14) (size 15 to 20)
#    0.000    2.500    2.500    1.875    0.000    1.500 
#    0.000    3.750    0.000    0.750    0.000    1.750 
#    0.000    0.000    0.000    0.000    0.000    0.000 
#
# Total GULP energy -396676.187449 kJ/mol
# GULP energy per Si atom -12396.130858 kJ/mol
# Density = 1.741360 g / cm^3
# Si number density = 17.453325 Si / 1000 Ang^3
#
#
#
# Elastic Constant Matrix: (Units=GPa)
#
#
# Indices 1 2 3 4 5 6 
#
# 1 47.3302 34.3369 41.8544 0.0000 0.0000 0.0000
# 2 34.3369 118.6787 71.6097 0.0000 0.0000 0.0000
# 3 41.8544 71.6097 137.9832 0.0000 0.0000 0.0000
# 4 0.0000 0.0000 0.0000 22.8883 0.0000 0.0000
# 5 0.0000 0.0000 0.0000 0.0000 11.5638 0.0000
# 6 0.0000 0.0000 0.0000 0.0000 0.0000 23.3250
#
#
#
# Elastic Compliance Matrix: (Units=1/GPa)
#
#
# Indices 1 2 3 4 5 6 
#
# 1 0.030598 -0.004735 -0.006824 0.000000 0.000000 0.000000
# 2 -0.004735 0.013001 -0.005311 0.000000 0.000000 0.000000
# 3 -0.006824 -0.005311 0.012073 0.000000 0.000000 0.000000
# 4 0.000000 0.000000 0.000000 0.043690 0.000000 0.000000
# 5 0.000000 0.000000 0.000000 0.000000 0.086477 0.000000
# 6 0.000000 0.000000 0.000000 0.000000 0.000000 0.042872
#
#
# Mechanical properties :
#
#
# Convention : Reuss Voigt Hill
#
# Bulk Modulus (GPa) = 45.59510 66.62155 56.10833
# Shear Modulus (GPa) = 18.53494 21.96818 20.25156
#
# Velocity S-wave (km/s) = 3.26233 3.55164 3.41005
# Velocity P-wave (km/s) = 6.35383 7.42112 6.90811
#
# Compressibility (1/GPa) = 0.02193218
#
# Stress axis : x y z
#
# Youngs Moduli (GPa) = 32.68215 76.92002 82.82878
#
# Poissons Ratio (x) = 0.36425 0.56519
# Poissons Ratio (y) = 0.15476 0.43987
# Poissons Ratio (z) = 0.22301 0.40849
#
# Static dielectric constant tensor:
#      x y z
#    x 2.877930 0.000000 0.000000 
#    y 0.000000 3.082430 0.000000 
#    z 0.000000 0.000000 3.559470 
# 
# 
# High freq. dielectric constant tensor:
#      x y z
#    x 1.640310 0.000000 0.000000 
#    y 0.000000 1.646920 0.000000 
#    z 0.000000 0.000000 1.686300 
# 
# From -- ./inp_files/21435.got.cif
#   From: 2010.03.12/outbox.cif.g09.slc.cpg/sg46_11_cif.got.tgz:21435.got - 2010.04.14 02:56:35.
