data_PCOD8191906
_publ_section_title
;
Structure prediction by ZEFSAII (Michael W. Deem and Ramdas Pophale) SiO2 
 PCOD8191906
Probable space group: I M A 2
;
_chemical_formula_sum "Si O2"
_cell_formula_units_Z 56
_cell_length_a 9.332238
_cell_length_b 18.927894
_cell_length_c 17.366788
_cell_angle_alpha 90.000000
_cell_angle_beta 90.000000
_cell_angle_gamma 90.000000
_cell_volume 3067.662688
_symmetry_space_group_name_H-M "I M A 2"
_symmetry_group_IT_number 46
_symmetry_cell_setting 'orthorhombic'
loop_
_space_group_symop_operation_xyz
x,y,z
-x,-y,z
1/2-x,y,z
1/2+x,-y,z
1/2+x,1/2+y,1/2+z
1/2-x,1/2-y,1/2+z
-x,1/2+y,1/2+z
x,1/2-y,1/2+z
loop_
_atom_site_type_symbol
_atom_site_label
_atom_site_fract_x
_atom_site_fract_y
_atom_site_fract_z
Si Si1 0.082058 0.700420 0.011970
Si Si2 0.094766 0.560980 0.935107
Si Si3 0.582000 0.792587 0.906299
Si Si4 0.412480 0.786493 0.279651
Si Si5 0.411402 0.653035 0.178477
Si Si6 0.079913 0.072629 0.806975
Si Si7 0.905888 0.438691 0.754862
O O1 0.250000 0.719565 0.014719
O O2 0.030638 0.665825 0.092387
O O3 0.039486 0.640444 0.949441
O O4 0.996631 0.772134 0.987099
O O5 0.250000 0.554305 0.974866
O O6 0.104953 0.546402 0.845179
O O7 0.000000 0.500000 0.974799
O O8 0.750000 0.781100 0.916383
O O9 0.522105 0.737885 0.844187
O O10 0.548227 0.872269 0.876840
O O11 0.250000 0.797534 0.314263
O O12 0.407618 0.731106 0.211892
O O13 0.469498 0.860069 0.242974
O O14 0.250000 0.620534 0.179680
O O15 0.516827 0.602013 0.226335
O O16 0.250000 0.060525 0.797164
O O17 0.000000 0.000000 0.828782
O O18 0.750000 0.443660 0.715924
O O19 0.000000 0.500000 0.715001
#
# Coordination Sequence:
#
# PCOD8191906 Si02
#       7
#     8   8   8   8   8   8   8
#     4  10  19  33  50  73 103 136 171 205 250 309
#     4   9  17  28  41  62  93 124 155 189 227 275
#     4  10  20  32  51  77 100 129 170 215 258 301
#     4   9  16  31  50  69  94 125 162 206 248 295
#     4   9  19  33  53  76 100 133 170 208 257 313
#     4  10  21  37  56  79 106 136 176 222 269 319
#     4   9  16  26  42  64  90 119 151 189 230 274
#
# _framework density 18.254942
#
# number of rings (size 3 to 8) (size 9 to 14) (size 15 to 20)
#    0.000    2.571    1.429    0.857    0.000    4.000 
#    0.000    1.429    0.000    0.857    0.000    4.000 
#    0.000    0.000    0.000    0.000    0.000    0.000 
#
# Total GULP energy -346938.109664 kJ/mol
# GULP energy per Si atom -12390.646774 kJ/mol
# Density = 1.821339 g / cm^3
# Si number density = 18.254942 Si / 1000 Ang^3
#
#
#
# Elastic Constant Matrix: (Units=GPa)
#
#
# Indices 1 2 3 4 5 6 
#
# 1 90.4208 60.1992 28.4550 0.0000 0.0000 0.0000
# 2 60.1992 123.3025 16.5054 0.0000 0.0000 0.0000
# 3 28.4550 16.5054 38.8237 0.0000 0.0000 0.0000
# 4 0.0000 0.0000 0.0000 15.6476 0.0000 0.0000
# 5 0.0000 0.0000 0.0000 0.0000 19.9125 0.0000
# 6 0.0000 0.0000 0.0000 0.0000 0.0000 33.2012
#
#
#
# Elastic Compliance Matrix: (Units=1/GPa)
#
#
# Indices 1 2 3 4 5 6 
#
# 1 0.020134 -0.008328 -0.011216 0.000000 0.000000 0.000000
# 2 -0.008328 0.012045 0.000984 0.000000 0.000000 0.000000
# 3 -0.011216 0.000984 0.033560 0.000000 0.000000 0.000000
# 4 0.000000 0.000000 0.000000 0.063908 0.000000 0.000000
# 5 0.000000 0.000000 0.000000 0.000000 0.050220 0.000000
# 6 0.000000 0.000000 0.000000 0.000000 0.000000 0.030119
#
#
# Mechanical properties :
#
#
# Convention : Reuss Voigt Hill
#
# Bulk Modulus (GPa) = 34.94477 51.42956 43.18716
# Shear Modulus (GPa) = 19.48214 23.57809 21.53012
#
# Velocity S-wave (km/s) = 3.27039 3.59778 3.43798
# Velocity P-wave (km/s) = 5.78314 6.74484 6.28242
#
# Compressibility (1/GPa) = 0.02861659
#
# Stress axis : x y z
#
# Youngs Moduli (GPa) = 49.66778 83.02472 29.79758
#
# Poissons Ratio (x) = 0.69146 0.33421
# Poissons Ratio (y) = 0.41365 -0.02931
# Poissons Ratio (z) = 0.55707 -0.08166
#
# Static dielectric constant tensor:
#      x y z
#    x 3.587710 0.000000 0.000000 
#    y 0.000000 3.548920 0.000000 
#    z 0.000000 0.000000 3.082850 
# 
# 
# High freq. dielectric constant tensor:
#      x y z
#    x 1.703400 0.000000 0.000000 
#    y 0.000000 1.712830 0.000000 
#    z 0.000000 0.000000 1.666390 
# 
# From -- ./inp_files/18449.got.cif
#   From: 2010.03.12/outbox.cif.g09.slc.cpg/sg46_10_cif.got.tgz:18449.got - 2010.04.14 02:56:35.
