data_PCOD8191461
_publ_section_title
;
Structure prediction by ZEFSAII (Michael W. Deem and Ramdas Pophale) SiO2 
 PCOD8191461
Probable space group: I M A 2
;
_chemical_formula_sum "Si O2"
_cell_formula_units_Z 56
_cell_length_a 8.779458
_cell_length_b 14.524138
_cell_length_c 22.489280
_cell_angle_alpha 90.000000
_cell_angle_beta 90.000000
_cell_angle_gamma 90.000000
_cell_volume 2867.699389
_symmetry_space_group_name_H-M "I M A 2"
_symmetry_group_IT_number 46
_symmetry_cell_setting 'orthorhombic'
loop_
_space_group_symop_operation_xyz
x,y,z
-x,-y,z
1/2-x,y,z
1/2+x,-y,z
1/2+x,1/2+y,1/2+z
1/2-x,1/2-y,1/2+z
-x,1/2+y,1/2+z
x,1/2-y,1/2+z
loop_
_atom_site_type_symbol
_atom_site_label
_atom_site_fract_x
_atom_site_fract_y
_atom_site_fract_z
Si Si1 0.928971 0.906586 0.975300
Si Si2 0.430413 0.903261 0.540034
Si Si3 0.430993 0.095545 0.413038
Si Si4 0.069953 0.287098 0.801380
Si Si5 0.069939 0.406026 0.340423
Si Si6 0.570933 0.774411 0.078765
Si Si7 0.430409 0.399201 0.689354
O O1 0.750000 0.918878 0.977696
O O2 0.986499 0.889170 0.908127
O O3 0.978512 0.821961 0.016842
O O4 0.000000 0.000000 0.001305
O O5 0.250000 0.912451 0.537729
O O6 0.495399 0.876688 0.475453
O O7 0.481596 0.822195 0.584719
O O8 0.500000 0.000000 0.562254
O O9 0.250000 0.087775 0.421145
O O10 0.478792 0.170504 0.364429
O O11 0.500000 0.000000 0.390006
O O12 0.250000 0.289133 0.795446
O O13 0.013526 0.180700 0.800839
O O14 0.001311 0.345172 0.746667
O O15 0.250000 0.415000 0.338673
O O16 0.000000 0.500000 0.314077
O O17 0.750000 0.753817 0.081265
O O18 0.520123 0.840860 0.132061
O O19 0.500000 0.500000 0.685767
O O20 0.250000 0.409654 0.693375
#
# Coordination Sequence:
#
# PCOD8191461 Si02
#       7
#     8   8   8   8   8   8   8
#     4   9  17  29  48  74 103 135 168 209 260 312
#     4  11  22  36  55  79 107 137 174 220 268 318
#     4  10  18  31  52  78 109 141 174 213 262 317
#     4   9  18  33  53  75 104 144 180 213 260 314
#     4   9  17  31  49  70  98 130 167 209 256 308
#     4  10  20  35  54  76 105 141 177 214 262 314
#     4  10  21  37  57  80 107 140 177 218 261 309
#
# _framework density 19.527847999999999
#
# number of rings (size 3 to 8) (size 9 to 14) (size 15 to 20)
#    0.000    2.286    0.000    4.286    0.000    3.429 
#    0.000    6.429    0.000    1.714    0.000    0.000 
#    0.000    0.000    0.000    0.000    0.000    0.000 
#
# Total GULP energy -347162.355296 kJ/mol
# GULP energy per Si atom -12398.655546 kJ/mol
# Density = 1.948340 g / cm^3
# Si number density = 19.527848 Si / 1000 Ang^3
#
#
#
# Elastic Constant Matrix: (Units=GPa)
#
#
# Indices 1 2 3 4 5 6 
#
# 1 59.6898 47.2774 29.4944 0.0000 0.0000 0.0000
# 2 47.2774 190.6828 72.0991 0.0000 0.0000 0.0000
# 3 29.4944 72.0991 72.9896 0.0000 0.0000 0.0000
# 4 0.0000 0.0000 0.0000 29.0211 0.0000 0.0000
# 5 0.0000 0.0000 0.0000 0.0000 16.4796 0.0000
# 6 0.0000 0.0000 0.0000 0.0000 0.0000 35.5644
#
#
#
# Elastic Compliance Matrix: (Units=1/GPa)
#
#
# Indices 1 2 3 4 5 6 
#
# 1 0.022214 -0.003374 -0.005644 0.000000 0.000000 0.000000
# 2 -0.003374 0.008883 -0.007411 0.000000 0.000000 0.000000
# 3 -0.005644 -0.007411 0.023302 0.000000 0.000000 0.000000
# 4 0.000000 0.000000 0.000000 0.034458 0.000000 0.000000
# 5 0.000000 0.000000 0.000000 0.000000 0.060681 0.000000
# 6 0.000000 0.000000 0.000000 0.000000 0.000000 0.028118
#
#
# Mechanical properties :
#
#
# Convention : Reuss Voigt Hill
#
# Bulk Modulus (GPa) = 46.42237 69.01155 57.71696
# Shear Modulus (GPa) = 22.96787 27.84579 25.40683
#
# Velocity S-wave (km/s) = 3.43324 3.78028 3.61093
# Velocity P-wave (km/s) = 6.28810 7.38043 6.85605
#
# Compressibility (1/GPa) = 0.02154134
#
# Stress axis : x y z
#
# Youngs Moduli (GPa) = 45.01607 112.57300 42.91415
#
# Poissons Ratio (x) = 0.37978 0.24221
# Poissons Ratio (y) = 0.15187 0.31806
# Poissons Ratio (z) = 0.25407 0.83433
#
# Static dielectric constant tensor:
#      x y z
#    x 3.336550 0.000000 0.000000 
#    y 0.000000 3.778610 0.000000 
#    z 0.000000 0.000000 3.587590 
# 
# 
# High freq. dielectric constant tensor:
#      x y z
#    x 1.737470 0.000000 0.000000 
#    y 0.000000 1.778700 0.000000 
#    z 0.000000 0.000000 1.741260 
# 
# From -- ./inp_files/21090.got.cif
#   From: 2010.03.12/outbox.cif.g09.slc.cpg/sg46_11_cif.got.tgz:21090.got - 2010.04.14 02:56:35.
