data_PCOD8191064
_publ_section_title
;
Structure prediction by ZEFSAII (Michael W. Deem and Ramdas Pophale) SiO2 
 PCOD8191064
Probable space group: I B A 2
;
_chemical_formula_sum "Si O2"
_cell_formula_units_Z 60
_cell_length_a 16.940594
_cell_length_b 8.400287
_cell_length_c 16.351449
_cell_angle_alpha 90.000000
_cell_angle_beta 90.000000
_cell_angle_gamma 90.000000
_cell_volume 2326.906874
_symmetry_space_group_name_H-M "I B A 2"
_symmetry_group_IT_number 45
_symmetry_cell_setting 'orthorhombic'
loop_
_space_group_symop_operation_xyz
x,y,z
-x,-y,z
-x,y,1/2+z
x,-y,1/2+z
1/2+x,1/2+y,1/2+z
1/2-x,1/2-y,1/2+z
1/2-x,1/2+y,z
1/2+x,1/2-y,z
loop_
_atom_site_type_symbol
_atom_site_label
_atom_site_fract_x
_atom_site_fract_y
_atom_site_fract_z
Si Si1 0.250876 0.045117 0.231670
Si Si2 0.013132 0.678760 0.249337
Si Si3 0.370790 0.606294 0.848700
Si Si4 0.276893 0.179261 0.956088
Si Si5 0.522376 0.825300 0.568569
Si Si6 0.154331 0.292183 0.295357
Si Si7 0.500000 0.500000 0.464612
Si Si8 0.700053 0.904716 0.566090
O O1 0.168258 0.999705 0.277696
O O2 0.328923 0.983317 0.280787
O O3 0.258333 0.005472 0.137040
O O4 0.233469 0.235002 0.241248
O O5 0.029821 0.686658 0.151891
O O6 0.929761 0.768432 0.264170
O O7 0.000000 0.500000 0.280628
O O8 0.081257 0.755471 0.302953
O O9 0.306446 0.678257 0.909450
O O10 0.424796 0.495908 0.905868
O O11 0.338975 0.252463 0.891324
O O12 0.266134 0.278159 0.039143
O O13 0.311967 0.011600 0.985097
O O14 0.500767 0.667650 0.516103
O O15 0.616079 0.826353 0.590640
O O16 0.500000 0.000000 0.528330
#
# Coordination Sequence:
#
# PCOD8191064 Si02
#       8
#     8   8   8   8   8   8   4   8
#     4  11  25  44  77 101 153 194 265 320 390 486
#     4  11  27  48  80 113 161 211 280 338 410 496
#     4  11  26  46  75 115 151 215 263 326 410 487
#     4  11  26  44  74 107 154 195 261 321 405 466
#     4  11  28  51  81 117 156 212 273 337 418 486
#     4  11  24  45  72 111 145 204 254 324 395 482
#     4  12  26  52  82 114 172 198 268 344 406 498
#     4  12  25  49  73 112 151 202 264 334 399 482
#
# _framework density 25.785304
#
# number of rings (size 3 to 8) (size 9 to 14) (size 15 to 20)
#    0.000    0.800    2.667    3.200    5.600    8.533 
#    0.000    0.000    0.000    0.000    0.000    0.000 
#    0.000    0.000    0.000    0.000    0.000    0.000 
#
# Total GULP energy -371700.845411 kJ/mol
# GULP energy per Si atom -12390.028180 kJ/mol
# Density = 2.572662 g / cm^3
# Si number density = 25.785304 Si / 1000 Ang^3
#
#
#
# Elastic Constant Matrix: (Units=GPa)
#
#
# Indices 1 2 3 4 5 6 
#
# 1 68.4274 15.9469 38.3951 0.0000 0.0000 0.0000
# 2 15.9469 104.6022 46.6729 0.0000 0.0000 0.0000
# 3 38.3951 46.6729 138.0574 0.0000 0.0000 0.0000
# 4 0.0000 0.0000 0.0000 41.6631 0.0000 0.0000
# 5 0.0000 0.0000 0.0000 0.0000 35.2513 0.0000
# 6 0.0000 0.0000 0.0000 0.0000 0.0000 40.5448
#
#
#
# Elastic Compliance Matrix: (Units=1/GPa)
#
#
# Indices 1 2 3 4 5 6 
#
# 1 0.017346 -0.000579 -0.004628 0.000000 0.000000 0.000000
# 2 -0.000579 0.011278 -0.003651 0.000000 0.000000 0.000000
# 3 -0.004628 -0.003651 0.009765 0.000000 0.000000 0.000000
# 4 0.000000 0.000000 0.000000 0.024002 0.000000 0.000000
# 5 0.000000 0.000000 0.000000 0.000000 0.028368 0.000000
# 6 0.000000 0.000000 0.000000 0.000000 0.000000 0.024664
#
#
# Mechanical properties :
#
#
# Convention : Reuss Voigt Hill
#
# Bulk Modulus (GPa) = 48.37826 57.01297 52.69562
# Shear Modulus (GPa) = 35.70646 37.49665 36.60156
#
# Velocity S-wave (km/s) = 3.72527 3.81752 3.77168
# Velocity P-wave (km/s) = 6.10788 6.44902 6.28077
#
# Compressibility (1/GPa) = 0.02067044
#
# Stress axis : x y z
#
# Youngs Moduli (GPa) = 57.65028 88.67119 102.40691
#
# Poissons Ratio (x) = 0.05137 0.47396
# Poissons Ratio (y) = 0.03340 0.37394
# Poissons Ratio (z) = 0.26682 0.32378
#
# Static dielectric constant tensor:
#      x y z
#    x 4.589060 0.000000 0.000000 
#    y 0.000000 5.289060 0.000000 
#    z 0.000000 0.000000 4.646690 
# 
# 
# High freq. dielectric constant tensor:
#      x y z
#    x 2.026450 0.000000 0.000000 
#    y 0.000000 2.051680 0.000000 
#    z 0.000000 0.000000 2.035090 
# 
# From -- ./inp_files/8363.got.cif
#   From: 2010.03.12/outbox.cif.g09.slc.cpg/sg45_5_cif.got.tgz:8363.got - 2010.04.14 02:50:11.
