data_PCOD8191265
_publ_section_title
;
Structure prediction by ZEFSAII (Michael W. Deem and Ramdas Pophale) SiO2 
 PCOD8191265
Probable space group: I M A 2
;
_chemical_formula_sum "Si O2"
_cell_formula_units_Z 64
_cell_length_a 8.981211
_cell_length_b 18.432651
_cell_length_c 26.471782
_cell_angle_alpha 90.000000
_cell_angle_beta 90.000000
_cell_angle_gamma 90.000000
_cell_volume 4382.338070
_symmetry_space_group_name_H-M "I M A 2"
_symmetry_group_IT_number 46
_symmetry_cell_setting 'orthorhombic'
loop_
_space_group_symop_operation_xyz
x,y,z
-x,-y,z
1/2-x,y,z
1/2+x,-y,z
1/2+x,1/2+y,1/2+z
1/2-x,1/2-y,1/2+z
-x,1/2+y,1/2+z
x,1/2-y,1/2+z
loop_
_atom_site_type_symbol
_atom_site_label
_atom_site_fract_x
_atom_site_fract_y
_atom_site_fract_z
Si Si1 0.426335 0.159614 0.480150
Si Si2 0.574280 0.423082 0.581178
Si Si3 0.426883 0.075943 0.577137
Si Si4 0.424160 0.661871 0.679393
Si Si5 0.914163 0.786838 0.634014
Si Si6 0.427985 0.422527 0.880918
Si Si7 0.572392 0.422861 0.778258
Si Si8 0.583968 0.799982 0.030293
O O1 0.250000 0.160355 0.485916
O O2 0.488826 0.104968 0.523111
O O3 0.475986 0.132438 0.425143
O O4 0.481160 0.242964 0.488640
O O5 0.500000 0.500000 0.572011
O O6 0.750000 0.432370 0.579616
O O7 0.517204 0.391218 0.634927
O O8 0.523939 0.369152 0.536028
O O9 0.250000 0.067488 0.575465
O O10 0.474395 0.132405 0.621518
O O11 0.500000 0.000000 0.590659
O O12 0.250000 0.667308 0.674482
O O13 0.485124 0.743667 0.674057
O O14 0.473350 0.630987 0.733377
O O15 0.750000 0.791638 0.657865
O O16 0.908614 0.744000 0.581906
O O17 0.500000 0.500000 0.893319
O O18 0.250000 0.430298 0.875896
O O19 0.499431 0.391387 0.829417
O O20 0.500000 0.500000 0.765606
O O21 0.750000 0.431057 0.784051
O O22 0.750000 0.827229 0.015634
#
# Coordination Sequence:
#
# PCOD8191265 Si02
#       8
#     8   8   8   8   8   8   8   8
#     4   8  15  27  42  57  77 105 136 163 193 230
#     4  10  18  27  39  58  80 103 131 162 193 231
#     4   9  16  26  39  58  81 106 133 161 191 228
#     4   9  18  29  41  56  76 102 134 166 197 230
#     4   8  15  26  40  56  76 101 130 160 193 231
#     4  10  18  28  41  58  79 105 135 167 197 228
#     4  10  19  30  41  56  78 104 133 167 200 231
#     4   8  14  27  42  55  74 102 130 160 194 229
#
# _framework density 14.604075999999999
#
# number of rings (size 3 to 8) (size 9 to 14) (size 15 to 20)
#    0.000    3.000    0.000    4.125    0.000    2.000 
#    0.000    3.750    0.000    0.000    0.000    0.000 
#    0.000    1.000    0.000    9.000    0.000    5.750 
#
# Total GULP energy -396582.492786 kJ/mol
# GULP energy per Si atom -12393.202900 kJ/mol
# Density = 1.457084 g / cm^3
# Si number density = 14.604076 Si / 1000 Ang^3
#
#
#
# Elastic Constant Matrix: (Units=GPa)
#
#
# Indices 1 2 3 4 5 6 
#
# 1 46.2763 38.3451 31.4624 0.0000 0.0000 0.0000
# 2 38.3451 119.4529 61.7514 0.0000 0.0000 0.0000
# 3 31.4624 61.7514 87.8325 0.0000 0.0000 0.0000
# 4 0.0000 0.0000 0.0000 27.0118 0.0000 0.0000
# 5 0.0000 0.0000 0.0000 0.0000 17.5994 0.0000
# 6 0.0000 0.0000 0.0000 0.0000 0.0000 25.2172
#
#
#
# Elastic Compliance Matrix: (Units=1/GPa)
#
#
# Indices 1 2 3 4 5 6 
#
# 1 0.031702 -0.006765 -0.006600 0.000000 0.000000 0.000000
# 2 -0.006765 0.014595 -0.007838 0.000000 0.000000 0.000000
# 3 -0.006600 -0.007838 0.019260 0.000000 0.000000 0.000000
# 4 0.000000 0.000000 0.000000 0.037021 0.000000 0.000000
# 5 0.000000 0.000000 0.000000 0.000000 0.056820 0.000000
# 6 0.000000 0.000000 0.000000 0.000000 0.000000 0.039655
#
#
# Mechanical properties :
#
#
# Convention : Reuss Voigt Hill
#
# Bulk Modulus (GPa) = 43.19342 57.40882 50.30112
# Shear Modulus (GPa) = 20.06625 22.09922 21.08273
#
# Velocity S-wave (km/s) = 3.71080 3.89424 3.80362
# Velocity P-wave (km/s) = 6.92824 7.72111 7.33540
#
# Compressibility (1/GPa) = 0.02315168
#
# Stress axis : x y z
#
# Youngs Moduli (GPa) = 31.54405 68.51777 51.92134
#
# Poissons Ratio (x) = 0.46350 0.34268
# Poissons Ratio (y) = 0.21338 0.40695
# Poissons Ratio (z) = 0.20819 0.53703
#
# Static dielectric constant tensor:
#      x y z
#    x 2.822050 0.000000 0.000000 
#    y 0.000000 2.959290 0.000000 
#    z 0.000000 0.000000 2.847490 
# 
# 
# High freq. dielectric constant tensor:
#      x y z
#    x 1.555840 0.000000 0.000000 
#    y 0.000000 1.549240 0.000000 
#    z 0.000000 0.000000 1.526920 
# 
# From -- ./inp_files/24398.got.cif
#   From: 2010.03.12/outbox.cif.g09.slc.cpg/sg46_13_cif.got.tgz:24398.got - 2010.04.14 02:56:35.
