data_PCOD8191976
_publ_section_title
;
Structure prediction by ZEFSAII (Michael W. Deem and Ramdas Pophale) SiO2 
 PCOD8191976
Probable space group: I M A 2
;
_chemical_formula_sum "Si O2"
_cell_formula_units_Z 64
_cell_length_a 16.472917
_cell_length_b 9.019995
_cell_length_c 22.513717
_cell_angle_alpha 90.000000
_cell_angle_beta 90.000000
_cell_angle_gamma 90.000000
_cell_volume 3345.214801
_symmetry_space_group_name_H-M "I M A 2"
_symmetry_group_IT_number 46
_symmetry_cell_setting 'orthorhombic'
loop_
_space_group_symop_operation_xyz
x,y,z
-x,-y,z
1/2-x,y,z
1/2+x,-y,z
1/2+x,1/2+y,1/2+z
1/2-x,1/2-y,1/2+z
-x,1/2+y,1/2+z
x,1/2-y,1/2+z
loop_
_atom_site_type_symbol
_atom_site_label
_atom_site_fract_x
_atom_site_fract_y
_atom_site_fract_z
Si Si1 0.920918 0.099053 0.077170
Si Si2 0.656396 0.491815 0.354122
Si Si3 0.933209 0.779350 0.366426
Si Si4 0.948481 0.351260 0.446325
Si Si5 0.564499 0.193943 0.773381
Si Si6 0.506003 0.663862 0.146518
Si Si7 0.154582 0.500270 0.783349
Si Si8 0.157617 0.136398 0.154833
O O1 0.935128 0.243204 0.116045
O O2 0.850323 0.001135 0.108118
O O3 0.905740 0.160721 0.010673
O O4 0.000000 0.000000 0.077129
O O5 0.750000 0.470543 0.347536
O O6 0.639121 0.660474 0.374272
O O7 0.625575 0.366588 0.400430
O O8 0.617395 0.450860 0.290240
O O9 0.988486 0.784920 0.427868
O O10 0.994394 0.710162 0.320473
O O11 0.895109 0.931830 0.340229
O O12 0.000000 0.500000 0.441229
O O13 0.517513 0.159135 0.714287
O O14 0.622559 0.336474 0.771023
O O15 0.500000 0.500000 0.118766
O O16 0.595969 0.732403 0.136795
O O17 0.250000 0.502273 0.798721
O O18 0.137547 0.409869 0.722711
O O19 0.250000 0.194545 0.150127
#
# Coordination Sequence:
#
# PCOD8191976 Si02
#       8
#     8   8   8   8   8   8   8   8
#     4   9  18  36  60  81 109 148 200 242 285 347
#     4  10  20  34  52  78 110 145 185 232 285 341
#     4  10  19  33  55  78 110 142 185 232 285 342
#     4   8  17  34  56  82 106 145 194 237 279 344
#     4  11  20  34  51  75 108 151 188 224 283 358
#     4  11  21  36  56  81 114 157 192 244 302 358
#     4  11  21  33  51  81 114 145 186 237 294 352
#     4  10  21  36  56  84 114 149 197 246 297 354
#
# _framework density 19.131806000000001
#
# number of rings (size 3 to 8) (size 9 to 14) (size 15 to 20)
#    0.000    2.000    2.500    3.000    0.000    0.500 
#    0.000    3.750    0.000    0.750    0.000    0.000 
#    0.000    0.000    0.000    0.000    0.000    0.000 
#
# Total GULP energy -396449.003634 kJ/mol
# GULP energy per Si atom -12389.031364 kJ/mol
# Density = 1.908826 g / cm^3
# Si number density = 19.131806 Si / 1000 Ang^3
#
#
#
# Elastic Constant Matrix: (Units=GPa)
#
#
# Indices 1 2 3 4 5 6 
#
# 1 79.7817 16.6912 27.4900 0.0000 0.0000 0.0000
# 2 16.6912 76.8113 12.6166 0.0000 0.0000 0.0000
# 3 27.4900 12.6166 74.5563 0.0000 0.0000 0.0000
# 4 0.0000 0.0000 0.0000 22.6562 0.0000 0.0000
# 5 0.0000 0.0000 0.0000 0.0000 19.5065 0.0000
# 6 0.0000 0.0000 0.0000 0.0000 0.0000 23.1876
#
#
#
# Elastic Compliance Matrix: (Units=1/GPa)
#
#
# Indices 1 2 3 4 5 6 
#
# 1 0.014770 -0.002381 -0.005043 0.000000 0.000000 0.000000
# 2 -0.002381 0.013775 -0.001453 0.000000 0.000000 0.000000
# 3 -0.005043 -0.001453 0.015518 0.000000 0.000000 0.000000
# 4 0.000000 0.000000 0.000000 0.044138 0.000000 0.000000
# 5 0.000000 0.000000 0.000000 0.000000 0.051265 0.000000
# 6 0.000000 0.000000 0.000000 0.000000 0.000000 0.043127
#
#
# Mechanical properties :
#
#
# Convention : Reuss Voigt Hill
#
# Bulk Modulus (GPa) = 38.01045 38.30500 38.15772
# Shear Modulus (GPa) = 23.91010 24.69348 24.30179
#
# Velocity S-wave (km/s) = 3.53902 3.59653 3.56789
# Velocity P-wave (km/s) = 6.05065 6.10834 6.07957
#
# Compressibility (1/GPa) = 0.02630855
#
# Stress axis : x y z
#
# Youngs Moduli (GPa) = 67.70471 72.59507 64.44135
#
# Poissons Ratio (x) = 0.17287 0.32498
# Poissons Ratio (y) = 0.16122 0.09364
# Poissons Ratio (z) = 0.34143 0.10548
#
# Static dielectric constant tensor:
#      x y z
#    x 3.482640 0.000000 0.000000 
#    y 0.000000 3.568760 0.000000 
#    z 0.000000 0.000000 4.041640 
# 
# 
# High freq. dielectric constant tensor:
#      x y z
#    x 1.739040 0.000000 0.000000 
#    y 0.000000 1.727570 0.000000 
#    z 0.000000 0.000000 1.732580 
# 
# From -- ./inp_files/22204.got.cif
#   From: 2010.03.12/outbox.cif.g09.slc.cpg/sg46_12_cif.got.tgz:22204.got - 2010.04.14 02:56:35.
