data_PCOD8191529
_publ_section_title
;
Structure prediction by ZEFSAII (Michael W. Deem and Ramdas Pophale) SiO2 
 PCOD8191529
Probable space group: I M A 2
;
_chemical_formula_sum "Si O2"
_cell_formula_units_Z 60
_cell_length_a 13.550413
_cell_length_b 23.594852
_cell_length_c 11.256341
_cell_angle_alpha 90.000000
_cell_angle_beta 90.000000
_cell_angle_gamma 90.000000
_cell_volume 3598.877224
_symmetry_space_group_name_H-M "I M A 2"
_symmetry_group_IT_number 46
_symmetry_cell_setting 'orthorhombic'
loop_
_space_group_symop_operation_xyz
x,y,z
-x,-y,z
1/2-x,y,z
1/2+x,-y,z
1/2+x,1/2+y,1/2+z
1/2-x,1/2-y,1/2+z
-x,1/2+y,1/2+z
x,1/2-y,1/2+z
loop_
_atom_site_type_symbol
_atom_site_label
_atom_site_fract_x
_atom_site_fract_y
_atom_site_fract_z
Si Si1 0.963192 0.365372 0.562830
Si Si2 0.138789 0.822816 0.836107
Si Si3 0.000000 0.500000 0.337583
Si Si4 0.641361 0.094541 0.416209
Si Si5 0.396936 0.974179 0.194303
Si Si6 0.641073 0.566272 0.517873
Si Si7 0.867598 0.197434 0.263898
Si Si8 0.636990 0.424279 0.172895
O O1 0.933985 0.351456 0.429087
O O2 0.904233 0.421051 0.605256
O O3 0.930993 0.312527 0.644429
O O4 0.081283 0.378438 0.565814
O O5 0.250000 0.822360 0.887825
O O6 0.104035 0.759167 0.809767
O O7 0.133574 0.859096 0.715650
O O8 0.928659 0.538131 0.418624
O O9 0.930713 0.462203 0.255920
O O10 0.750000 0.112806 0.457664
O O11 0.650868 0.044570 0.318757
O O12 0.592657 0.150693 0.358570
O O13 0.590408 0.074276 0.538968
O O14 0.500000 0.000000 0.231811
O O15 0.336950 0.022553 0.125477
O O16 0.750000 0.583935 0.469053
O O17 0.750000 0.190881 0.238769
O O18 0.750000 0.447502 0.178136
#
# Coordination Sequence:
#
# PCOD8191529 Si02
#       8
#     8   8   4   8   8   8   8   8
#     4  10  18  33  48  76 104 130 169 207 258 299
#     4  10  19  31  50  74 102 134 165 202 251 305
#     4  12  20  36  48  76 100 136 170 204 256 300
#     4   9  18  31  45  70 102 131 163 199 247 301
#     4   9  17  31  50  75  98 130 167 206 256 301
#     4  11  20  33  54  76 101 129 172 218 256 306
#     4   9  19  31  51  76 102 134 165 204 250 305
#     4  10  21  33  48  72 105 136 165 202 249 308
#
# _framework density 16.671865
#
# number of rings (size 3 to 8) (size 9 to 14) (size 15 to 20)
#    0.000    2.133    3.333    1.200    2.800    2.667 
#    0.000    0.000    0.000    0.800    0.000    0.000 
#    0.000    0.000    0.000    0.000    0.000    0.000 
#
# Total GULP energy -371764.148919 kJ/mol
# GULP energy per Si atom -12392.138297 kJ/mol
# Density = 1.663392 g / cm^3
# Si number density = 16.671865 Si / 1000 Ang^3
#
#
#
# Elastic Constant Matrix: (Units=GPa)
#
#
# Indices 1 2 3 4 5 6 
#
# 1 89.6953 31.9616 37.8703 0.0000 0.0000 0.0000
# 2 31.9616 79.1059 41.5948 0.0001 0.0000 0.0000
# 3 37.8703 41.5948 115.6543 0.0005 0.0000 -0.0001
# 4 0.0000 0.0001 0.0005 21.6347 0.0000 0.0000
# 5 0.0000 0.0000 0.0000 0.0000 17.5661 0.0000
# 6 0.0000 0.0000 -0.0001 0.0000 0.0000 19.4654
#
#
#
# Elastic Compliance Matrix: (Units=1/GPa)
#
#
# Indices 1 2 3 4 5 6 
#
# 1 0.013879 -0.003969 -0.003117 0.000000 0.000000 0.000000
# 2 -0.003969 0.016724 -0.004715 0.000000 0.000000 0.000000
# 3 -0.003117 -0.004715 0.011363 0.000000 0.000000 0.000000
# 4 0.000000 0.000000 0.000000 0.046222 0.000000 0.000000
# 5 0.000000 0.000000 0.000000 0.000000 0.056928 0.000000
# 6 0.000000 0.000000 0.000000 0.000000 0.000000 0.051373
#
#
# Mechanical properties :
#
#
# Convention : Reuss Voigt Hill
#
# Bulk Modulus (GPa) = 54.45464 56.36762 55.41113
# Shear Modulus (GPa) = 22.10305 23.26850 22.68577
#
# Velocity S-wave (km/s) = 3.64506 3.73993 3.69280
# Velocity P-wave (km/s) = 7.10273 7.24795 7.17571
#
# Compressibility (1/GPa) = 0.01836391
#
# Stress axis : x y z
#
# Youngs Moduli (GPa) = 72.05040 59.79408 88.00436
#
# Poissons Ratio (x) = 0.23729 0.27434
# Poissons Ratio (y) = 0.28593 0.41497
# Poissons Ratio (z) = 0.22461 0.28195
#
# Static dielectric constant tensor:
#      x y z
#    x 3.022580 0.000000 0.000000 
#    y 0.000000 3.130440 0.000000 
#    z 0.000000 0.000000 3.264860 
# 
# 
# High freq. dielectric constant tensor:
#      x y z
#    x 1.615550 0.000000 0.000000 
#    y 0.000000 1.629100 0.000000 
#    z 0.000000 0.000000 1.648830 
# 
# From -- ./inp_files/11432.got.cif
#   From: 2010.03.12/outbox.cif.g09.slc.cpg/sg46_6_cif.got.tgz:11432.got - 2010.04.14 02:56:35.
