data_PCOD8191106
_publ_section_title
;
Structure prediction by ZEFSAII (Michael W. Deem and Ramdas Pophale) SiO2 
 PCOD8191106
Probable space group: I B A 2
;
_chemical_formula_sum "Si O2"
_cell_formula_units_Z 40
_cell_length_a 9.021184
_cell_length_b 9.021184
_cell_length_c 20.459858
_cell_angle_alpha 90.000000
_cell_angle_beta 90.000000
_cell_angle_gamma 90.000000
_cell_volume 1665.059269
_symmetry_space_group_name_H-M "I B A 2"
_symmetry_group_IT_number 45
_symmetry_cell_setting 'orthorhombic'
loop_
_space_group_symop_operation_xyz
x,y,z
-x,-y,z
-x,y,1/2+z
x,-y,1/2+z
1/2+x,1/2+y,1/2+z
1/2-x,1/2-y,1/2+z
1/2-x,1/2+y,z
1/2+x,1/2-y,z
loop_
_atom_site_type_symbol
_atom_site_label
_atom_site_fract_x
_atom_site_fract_y
_atom_site_fract_z
Si Si1 0.966131 0.176115 0.401430
Si Si2 0.440646 0.215502 0.040285
Si Si3 0.284498 0.059354 0.589472
Si Si4 0.323885 0.533869 0.228327
Si Si5 0.293039 0.206961 0.814879
O O1 0.799876 0.222905 0.382460
O O2 0.001204 0.261735 0.467679
O O3 0.044415 0.253400 0.339457
O O4 0.000000 0.000000 0.405513
O O5 0.579547 0.176894 0.087626
O O6 0.367067 0.367067 0.064879
O O7 0.323106 0.079547 0.042131
O O8 0.261735 0.001204 0.662078
O O9 0.500000 0.500000 0.224244
O O10 0.277095 0.700124 0.247297
O O11 0.246600 0.455585 0.290300
#
# Coordination Sequence:
#
# PCOD8191106 Si02
#       5
#     8   8   8   8   8
#     4  12  27  49  76 109 156 193 253 312 378 454
#     4  11  28  49  75 114 148 200 253 311 382 450
#     4  11  28  49  75 114 148 200 253 311 382 450
#     4  12  27  49  76 109 156 193 253 312 378 454
#     4  12  24  50  76 110 146 204 242 314 378 442
#
# _framework density 24.023171000000001
#
# number of rings (size 3 to 8) (size 9 to 14) (size 15 to 20)
#    0.000    0.400    4.000    2.400   11.200    7.200 
#    0.000    0.000    0.000    0.000    0.000    0.000 
#    0.000    0.000    0.000    0.000    0.000    0.000 
#
# Total GULP energy -247872.327169 kJ/mol
# GULP energy per Si atom -12393.616358 kJ/mol
# Density = 2.396849 g / cm^3
# Si number density = 24.023171 Si / 1000 Ang^3
#
#
#
# Elastic Constant Matrix: (Units=GPa)
#
#
# Indices 1 2 3 4 5 6 
#
# 1 45.8334 31.6002 21.9216 0.0000 0.0000 0.0000
# 2 31.6002 45.8335 21.9216 0.0000 0.0000 0.0000
# 3 21.9216 21.9216 120.8924 0.0000 0.0000 0.0000
# 4 0.0000 0.0000 0.0000 36.8025 0.0000 0.0000
# 5 0.0000 0.0000 0.0000 0.0000 36.8024 0.0000
# 6 0.0000 0.0000 0.0000 0.0000 0.0000 49.1172
#
#
#
# Elastic Compliance Matrix: (Units=1/GPa)
#
#
# Indices 1 2 3 4 5 6 
#
# 1 0.042325 -0.027933 -0.002610 0.000000 0.000000 0.000000
# 2 -0.027933 0.042325 -0.002610 0.000000 0.000000 0.000000
# 3 -0.002610 -0.002610 0.009218 0.000000 0.000000 0.000000
# 4 0.000000 0.000000 0.000000 0.027172 0.000000 0.000000
# 5 0.000000 0.000000 0.000000 0.000000 0.027172 0.000000
# 6 0.000000 0.000000 0.000000 0.000000 0.000000 0.020359
#
#
# Mechanical properties :
#
#
# Convention : Reuss Voigt Hill
#
# Bulk Modulus (GPa) = 36.28020 40.38290 38.33155
# Shear Modulus (GPa) = 20.48640 33.68548 27.08594
#
# Velocity S-wave (km/s) = 2.92340 3.74867 3.36146
# Velocity P-wave (km/s) = 5.15073 5.96516 5.57284
#
# Compressibility (1/GPa) = 0.02756325
#
# Stress axis : x y z
#
# Youngs Moduli (GPa) = 23.62671 23.62677 108.48029
#
# Poissons Ratio (x) = 0.65997 0.28310
# Poissons Ratio (y) = 0.65997 0.28310
# Poissons Ratio (z) = 0.06166 0.06166
#
# Static dielectric constant tensor:
#      x y z
#    x 4.549650 0.000000 0.000000 
#    y 0.000000 4.549650 0.000000 
#    z 0.000000 0.000000 4.175310 
# 
# 
# High freq. dielectric constant tensor:
#      x y z
#    x 1.959220 0.000000 0.000000 
#    y 0.000000 1.959220 0.000000 
#    z 0.000000 0.000000 1.964790 
# 
# From -- ./inp_files/9502.got.cif
#   From: 2010.03.12/outbox.cif.g09.slc.cpg/sg45_5_cif.got.tgz:9502.got - 2010.04.14 02:50:11.
