data_PCOD8191215
_publ_section_title
;
Structure prediction by ZEFSAII (Michael W. Deem and Ramdas Pophale) SiO2 
 PCOD8191215
Probable space group: I M A 2
;
_chemical_formula_sum "Si O2"
_cell_formula_units_Z 64
_cell_length_a 19.471693
_cell_length_b 12.865701
_cell_length_c 12.590643
_cell_angle_alpha 90.000000
_cell_angle_beta 90.000000
_cell_angle_gamma 90.000000
_cell_volume 3154.169862
_symmetry_space_group_name_H-M "I M A 2"
_symmetry_group_IT_number 46
_symmetry_cell_setting 'orthorhombic'
loop_
_space_group_symop_operation_xyz
x,y,z
-x,-y,z
1/2-x,y,z
1/2+x,-y,z
1/2+x,1/2+y,1/2+z
1/2-x,1/2-y,1/2+z
-x,1/2+y,1/2+z
x,1/2-y,1/2+z
loop_
_atom_site_type_symbol
_atom_site_label
_atom_site_fract_x
_atom_site_fract_y
_atom_site_fract_z
Si Si1 0.826365 0.429665 0.299960
Si Si2 0.824901 0.890407 0.965461
Si Si3 0.537672 0.820726 0.633049
Si Si4 0.972851 0.611328 0.894017
Si Si5 0.466285 0.101121 0.050772
Si Si6 0.463657 0.676336 0.339364
Si Si7 0.824797 0.585272 0.132191
Si Si8 0.175396 0.152112 0.401813
O O1 0.750000 0.380046 0.313536
O O2 0.832688 0.537438 0.363344
O O3 0.881834 0.345864 0.340806
O O4 0.838957 0.468682 0.178557
O O5 0.750000 0.907149 0.019160
O O6 0.834561 0.771279 0.933954
O O7 0.884588 0.918441 0.048015
O O8 0.527420 0.881298 0.522382
O O9 0.517125 0.700088 0.622634
O O10 0.491061 0.867738 0.726686
O O11 0.617191 0.832554 0.668748
O O12 0.895749 0.622747 0.842111
O O13 0.000000 0.500000 0.857737
O O14 0.022740 0.700488 0.848476
O O15 0.497310 0.115562 0.932618
O O16 0.500000 0.000000 0.104677
O O17 0.750000 0.624754 0.174555
O O18 0.822794 0.578047 0.005042
O O19 0.250000 0.137412 0.341825
#
# Coordination Sequence:
#
# PCOD8191215 Si02
#       8
#     8   8   8   8   8   8   8   8
#     4  10  21  33  55  85 110 141 187 235 284 337
#     4  10  17  30  51  78 112 143 170 223 288 334
#     4  10  22  33  54  83 106 149 184 225 287 329
#     4  10  22  38  54  80 113 144 191 231 274 346
#     4  11  20  35  54  82 113 144 190 232 274 347
#     4  11  22  36  56  79 112 144 183 231 288 325
#     4   9  17  29  47  77 111 136 169 221 277 333
#     4   9  17  32  51  76 112 143 173 224 285 332
#
# _framework density 20.290599
#
# number of rings (size 3 to 8) (size 9 to 14) (size 15 to 20)
#    0.000    2.000    5.000    0.750    3.500    0.500 
#    0.000    0.625    0.000    3.750    0.000    1.750 
#    0.000    0.000    0.000    0.000    0.000    0.000 
#
# Total GULP energy -396475.169194 kJ/mol
# GULP energy per Si atom -12389.849037 kJ/mol
# Density = 2.024442 g / cm^3
# Si number density = 20.290599 Si / 1000 Ang^3
#
#
#
# Elastic Constant Matrix: (Units=GPa)
#
#
# Indices 1 2 3 4 5 6 
#
# 1 171.4356 59.8828 19.7216 0.0000 0.0000 0.0000
# 2 59.8828 87.2952 0.7571 0.0000 0.0000 0.0000
# 3 19.7216 0.7571 39.3395 0.0000 0.0000 0.0000
# 4 0.0000 0.0000 0.0000 13.3223 0.0000 0.0000
# 5 0.0000 0.0000 0.0000 0.0000 17.4702 0.0000
# 6 0.0000 0.0000 0.0000 0.0000 0.0000 34.2924
#
#
#
# Elastic Compliance Matrix: (Units=1/GPa)
#
#
# Indices 1 2 3 4 5 6 
#
# 1 0.008266 -0.005635 -0.004035 0.000000 0.000000 0.000000
# 2 -0.005635 0.015299 0.002531 0.000000 0.000000 0.000000
# 3 -0.004035 0.002531 0.027394 0.000000 0.000000 0.000000
# 4 0.000000 0.000000 0.000000 0.075062 0.000000 0.000000
# 5 0.000000 0.000000 0.000000 0.000000 0.057240 0.000000
# 6 0.000000 0.000000 0.000000 0.000000 0.000000 0.029161
#
#
# Mechanical properties :
#
#
# Convention : Reuss Voigt Hill
#
# Bulk Modulus (GPa) = 27.26355 50.97702 39.12028
# Shear Modulus (GPa) = 20.92679 27.53089 24.22884
#
# Velocity S-wave (km/s) = 3.21495 3.68751 3.45931
# Velocity P-wave (km/s) = 5.21986 6.58091 5.93950
#
# Compressibility (1/GPa) = 0.03667901
#
# Stress axis : x y z
#
# Youngs Moduli (GPa) = 120.98271 65.36380 36.50435
#
# Poissons Ratio (x) = 0.36833 0.14730
# Poissons Ratio (y) = 0.68175 -0.09238
# Poissons Ratio (z) = 0.48820 -0.16540
#
# Static dielectric constant tensor:
#      x y z
#    x 4.135830 0.000000 0.000000 
#    y 0.000000 3.362270 0.000000 
#    z 0.000000 0.000000 3.482720 
# 
# 
# High freq. dielectric constant tensor:
#      x y z
#    x 1.808130 0.000000 0.000000 
#    y 0.000000 1.759320 0.000000 
#    z 0.000000 0.000000 1.764650 
# 
# From -- ./inp_files/16852.got.cif
#   From: 2010.03.12/outbox.cif.g09.slc.cpg/sg46_9_cif.got.tgz:16852.got - 2010.04.14 02:56:35.
