data_PCOD8191978
_publ_section_title
;
Structure prediction by ZEFSAII (Michael W. Deem and Ramdas Pophale) SiO2 
 PCOD8191978
Probable space group: I M A 2
;
_chemical_formula_sum "Si O2"
_cell_formula_units_Z 64
_cell_length_a 9.385803
_cell_length_b 17.089769
_cell_length_c 21.872888
_cell_angle_alpha 90.000000
_cell_angle_beta 90.000000
_cell_angle_gamma 90.000000
_cell_volume 3508.437595
_symmetry_space_group_name_H-M "I M A 2"
_symmetry_group_IT_number 46
_symmetry_cell_setting 'orthorhombic'
loop_
_space_group_symop_operation_xyz
x,y,z
-x,-y,z
1/2-x,y,z
1/2+x,-y,z
1/2+x,1/2+y,1/2+z
1/2-x,1/2-y,1/2+z
-x,1/2+y,1/2+z
x,1/2-y,1/2+z
loop_
_atom_site_type_symbol
_atom_site_label
_atom_site_fract_x
_atom_site_fract_y
_atom_site_fract_z
Si Si1 0.097219 0.791776 0.642650
Si Si2 0.080903 0.729347 0.921014
Si Si3 0.589898 0.077537 0.347964
Si Si4 0.996813 0.829583 0.232545
Si Si5 0.585800 0.422182 0.236446
Si Si6 0.589279 0.695279 0.315104
Si Si7 0.917281 0.726837 0.542226
Si Si8 0.091287 0.077370 0.117473
O O1 0.250000 0.786730 0.607686
O O2 0.105982 0.724372 0.694753
O O3 0.082323 0.876030 0.672933
O O4 0.962607 0.782670 0.598226
O O5 0.250000 0.746513 0.919874
O O6 0.049294 0.640069 0.900577
O O7 0.998897 0.786213 0.875562
O O8 0.015224 0.747137 0.986630
O O9 0.750000 0.049492 0.356454
O O10 0.576406 0.114664 0.280536
O O11 0.500000 0.000000 0.356769
O O12 0.895687 0.770061 0.269988
O O13 0.912181 0.883600 0.184670
O O14 0.500000 0.500000 0.223263
O O15 0.750000 0.436776 0.257327
O O16 0.498736 0.375968 0.287540
O O17 0.750000 0.668717 0.331747
O O18 0.750000 0.738283 0.528181
O O19 0.953351 0.638414 0.564068
O O20 0.250000 0.049028 0.105282
O O21 0.000000 0.000000 0.112834
#
# Coordination Sequence:
#
# PCOD8191978 Si02
#       8
#     8   8   8   8   8   8   8   8
#     4   9  18  33  54  78 104 137 175 213 257 310
#     4  10  21  38  57  76 101 136 179 221 261 309
#     4  10  21  34  51  78 109 138 170 210 254 304
#     4   9  18  31  52  79 109 141 173 205 245 304
#     4  10  20  34  53  79 110 140 173 217 268 318
#     4  10  19  33  55  80 106 138 176 216 261 313
#     4  10  21  37  56  77 101 133 177 222 261 307
#     4  10  21  34  50  77 109 137 168 206 250 301
#
# _framework density 18.241738000000002
#
# number of rings (size 3 to 8) (size 9 to 14) (size 15 to 20)
#    0.000    2.250    0.000    2.625    0.000   13.500 
#    0.000    1.250    0.000    1.500    0.000    0.000 
#    0.000    0.000    0.000    0.000    0.000    0.000 
#
# Total GULP energy -396600.015583 kJ/mol
# GULP energy per Si atom -12393.750487 kJ/mol
# Density = 1.820022 g / cm^3
# Si number density = 18.241738 Si / 1000 Ang^3
#
#
#
# Elastic Constant Matrix: (Units=GPa)
#
#
# Indices 1 2 3 4 5 6 
#
# 1 135.6947 66.7174 52.5029 0.0000 0.0000 0.0000
# 2 66.7174 113.9841 47.5409 0.0000 0.0000 0.0000
# 3 52.5029 47.5409 99.8044 0.0000 0.0000 0.0000
# 4 0.0000 0.0000 0.0000 13.5078 0.0000 0.0000
# 5 0.0000 0.0000 0.0000 0.0000 28.0863 0.0000
# 6 0.0000 0.0000 0.0000 0.0000 0.0000 19.4842
#
#
#
# Elastic Compliance Matrix: (Units=1/GPa)
#
#
# Indices 1 2 3 4 5 6 
#
# 1 0.011232 -0.005129 -0.003466 0.000000 0.000000 0.000000
# 2 -0.005129 0.013290 -0.003633 0.000000 0.000000 0.000000
# 3 -0.003466 -0.003633 0.013573 0.000000 0.000000 0.000000
# 4 0.000000 0.000000 0.000000 0.074031 0.000000 0.000000
# 5 0.000000 0.000000 0.000000 0.000000 0.035605 0.000000
# 6 0.000000 0.000000 0.000000 0.000000 0.000000 0.051324
#
#
# Mechanical properties :
#
#
# Convention : Reuss Voigt Hill
#
# Bulk Modulus (GPa) = 73.30741 75.88953 74.59847
# Shear Modulus (GPa) = 21.92439 24.39714 23.16077
#
# Velocity S-wave (km/s) = 3.47058 3.66106 3.56709
# Velocity P-wave (km/s) = 7.50558 7.71775 7.61240
#
# Compressibility (1/GPa) = 0.01364119
#
# Stress axis : x y z
#
# Youngs Moduli (GPa) = 89.02984 75.24251 73.67524
#
# Poissons Ratio (x) = 0.38592 0.25533
# Poissons Ratio (y) = 0.45663 0.26763
# Poissons Ratio (z) = 0.30855 0.27333
#
# Static dielectric constant tensor:
#      x y z
#    x 3.445330 0.000000 0.000000 
#    y 0.000000 3.334050 0.000000 
#    z 0.000000 0.000000 3.309420 
# 
# 
# High freq. dielectric constant tensor:
#      x y z
#    x 1.719950 0.000000 0.000000 
#    y 0.000000 1.700050 0.000000 
#    z 0.000000 0.000000 1.693440 
# 
# From -- ./inp_files/21301.got.cif
#   From: 2010.03.12/outbox.cif.g09.slc.cpg/sg46_11_cif.got.tgz:21301.got - 2010.04.14 02:56:35.
