data_PCOD8191227
_publ_section_title
;
Structure prediction by ZEFSAII (Michael W. Deem and Ramdas Pophale) SiO2 
 PCOD8191227
Probable space group: I M A 2
;
_chemical_formula_sum "Si O2"
_cell_formula_units_Z 60
_cell_length_a 29.645389
_cell_length_b 19.563431
_cell_length_c 5.331840
_cell_angle_alpha 90.000000
_cell_angle_beta 90.000000
_cell_angle_gamma 90.000000
_cell_volume 3092.283370
_symmetry_space_group_name_H-M "I M A 2"
_symmetry_group_IT_number 46
_symmetry_cell_setting 'orthorhombic'
loop_
_space_group_symop_operation_xyz
x,y,z
-x,-y,z
1/2-x,y,z
1/2+x,-y,z
1/2+x,1/2+y,1/2+z
1/2-x,1/2-y,1/2+z
-x,1/2+y,1/2+z
x,1/2-y,1/2+z
loop_
_atom_site_type_symbol
_atom_site_label
_atom_site_fract_x
_atom_site_fract_y
_atom_site_fract_z
Si Si1 0.093922 0.292976 0.920550
Si Si2 0.663893 0.254217 0.402437
Si Si3 0.303616 0.025065 0.924340
Si Si4 0.250000 0.291307 0.935751
Si Si5 0.490371 0.708522 0.933336
Si Si6 0.328836 0.395728 0.919379
Si Si7 0.868194 0.405531 0.402637
Si Si8 0.095032 0.626354 0.902848
O O1 0.105804 0.251490 0.667080
O O2 0.121496 0.363456 0.927381
O O3 0.041940 0.315977 0.920231
O O4 0.694662 0.250129 0.652471
O O5 0.638576 0.325091 0.401857
O O6 0.626001 0.194920 0.402824
O O7 0.250000 0.023333 0.942015
O O8 0.319160 0.065463 0.678227
O O9 0.321607 0.947670 0.903436
O O10 0.324447 0.056084 0.177469
O O11 0.250000 0.232286 0.725508
O O12 0.294305 0.334309 0.884944
O O13 0.479809 0.758918 0.703237
O O14 0.457756 0.643876 0.905279
O O15 0.896023 0.420702 0.657315
O O16 0.895009 0.421564 0.145357
#
# Coordination Sequence:
#
# PCOD8191227 Si02
#       8
#     8   8   8   4   8   8   8   8
#     4  10  21  37  58  88 119 149 177 220 290 354
#     4   8  14  25  45  73 102 127 165 219 274 309
#     4  12  24  42  59  79 108 151 203 236 278 337
#     4  12  22  36  62  90 110 134 174 236 296 338
#     4  10  18  30  54  87 121 149 179 222 281 347
#     4  12  23  41  60  82 116 146 187 237 283 343
#     4  10  20  32  54  79 108 147 190 236 276 326
#     4  10  17  31  54  85 113 141 183 236 281 324
#
# _framework density 19.403137000000001
#
# number of rings (size 3 to 8) (size 9 to 14) (size 15 to 20)
#    0.000    1.600    1.333    6.400    0.000    0.000 
#    0.000    0.000    0.000   12.000    0.000    0.000 
#    0.000    0.000    0.000    0.000    0.000    0.000 
#
# Total GULP energy -371674.072679 kJ/mol
# GULP energy per Si atom -12389.135756 kJ/mol
# Density = 1.935897 g / cm^3
# Si number density = 19.403137 Si / 1000 Ang^3
#
#
#
# Elastic Constant Matrix: (Units=GPa)
#
#
# Indices 1 2 3 4 5 6 
#
# 1 87.6939 40.7000 39.6899 0.0000 0.0000 0.0000
# 2 40.7000 28.5093 29.6767 0.0000 0.0000 0.0000
# 3 39.6899 29.6767 200.6675 0.0000 0.0000 0.0000
# 4 0.0000 0.0000 0.0000 24.0108 0.0000 0.0000
# 5 0.0000 0.0000 0.0000 0.0000 69.1431 0.0000
# 6 0.0000 0.0000 0.0000 0.0000 0.0000 516.0580
#
#
#
# Elastic Compliance Matrix: (Units=1/GPa)
#
#
# Indices 1 2 3 4 5 6 
#
# 1 0.033843 -0.048870 0.000534 0.000000 0.000000 0.000000
# 2 -0.048870 0.112027 -0.006902 0.000000 0.000000 0.000000
# 3 0.000534 -0.006902 0.005899 0.000000 0.000000 0.000000
# 4 0.000000 0.000000 0.000000 0.041648 0.000000 0.000000
# 5 0.000000 0.000000 0.000000 0.000000 0.014463 0.000000
# 6 0.000000 0.000000 0.000000 0.000000 0.000000 0.001938
#
#
# Mechanical properties :
#
#
# Convention : Reuss Voigt Hill
#
# Bulk Modulus (GPa) = 24.21734 59.66709 41.94221
# Shear Modulus (GPa) = 14.96754 135.62933 75.29843
#
# Velocity S-wave (km/s) = 2.78042 8.36974 6.23631
# Velocity P-wave (km/s) = 4.77660 11.14546 8.57430
#
# Compressibility (1/GPa) = 0.04129273
#
# Stress axis : x y z
#
# Youngs Moduli (GPa) = 29.54834 8.92644 169.53359
#
# Poissons Ratio (x) = 0.43623 -0.09046
# Poissons Ratio (y) = 1.44401 1.17008
# Poissons Ratio (z) = -0.01577 0.06161
#
# Static dielectric constant tensor:
#      x y z
#    x 3.380790 0.000000 0.000000 
#    y 0.000000 3.276220 0.000000 
#    z 0.000000 0.000000 4.916230 
# 
# 
# High freq. dielectric constant tensor:
#      x y z
#    x 1.732980 0.000000 0.000000 
#    y 0.000000 1.725410 0.000000 
#    z 0.000000 0.000000 1.801710 
# 
# From -- ./inp_files/2586.got.cif
#   From: 2010.03.12/outbox.cif.g09.slc.cpg/sg46_2_cif.got.tgz:2586.got - 2010.04.14 02:56:35.
