data_PCOD8191642
_publ_section_title
;
Structure prediction by ZEFSAII (Michael W. Deem and Ramdas Pophale) SiO2 
 PCOD8191642
Probable space group: I M A 2
;
_chemical_formula_sum "Si O2"
_cell_formula_units_Z 64
_cell_length_a 8.960303
_cell_length_b 18.625844
_cell_length_c 21.267656
_cell_angle_alpha 90.000000
_cell_angle_beta 90.000000
_cell_angle_gamma 90.000000
_cell_volume 3549.427291
_symmetry_space_group_name_H-M "I M A 2"
_symmetry_group_IT_number 46
_symmetry_cell_setting 'orthorhombic'
loop_
_space_group_symop_operation_xyz
x,y,z
-x,-y,z
1/2-x,y,z
1/2+x,-y,z
1/2+x,1/2+y,1/2+z
1/2-x,1/2-y,1/2+z
-x,1/2+y,1/2+z
x,1/2-y,1/2+z
loop_
_atom_site_type_symbol
_atom_site_label
_atom_site_fract_x
_atom_site_fract_y
_atom_site_fract_z
Si Si1 0.582335 0.568532 0.384330
Si Si2 0.583211 0.929453 0.735803
Si Si3 0.424620 0.719975 0.878973
Si Si4 0.920400 0.367337 0.697716
Si Si5 0.073917 0.423923 0.576851
Si Si6 0.577466 0.072538 0.333876
Si Si7 0.422764 0.833261 0.972040
Si Si8 0.576660 0.213978 0.751434
O O1 0.500000 0.500000 0.413886
O O2 0.750000 0.574888 0.412502
O O3 0.588110 0.563839 0.310301
O O4 0.475759 0.631870 0.406780
O O5 0.750000 0.928304 0.707693
O O6 0.503607 0.854338 0.719149
O O7 0.500000 0.000000 0.707914
O O8 0.250000 0.715478 0.862205
O O9 0.488275 0.638836 0.875347
O O10 0.449888 0.750256 0.950183
O O11 0.491137 0.767922 0.820944
O O12 0.750000 0.379853 0.675669
O O13 0.953744 0.410624 0.761067
O O14 0.950011 0.282622 0.706519
O O15 0.031357 0.399799 0.646502
O O16 0.250000 0.432682 0.571670
O O17 0.000000 0.500000 0.558751
O O18 0.020882 0.360493 0.529922
O O19 0.750000 0.061617 0.347218
O O20 0.500000 0.000000 0.355735
O O21 0.250000 0.848462 0.986955
O O22 0.750000 0.193854 0.755767
#
# Coordination Sequence:
#
# PCOD8191642 Si02
#       8
#     8   8   8   8   8   8   8   8
#     4  10  19  29  41  62  92 127 164 201 238 283
#     4  10  19  28  42  66  98 132 166 203 244 297
#     4   8  16  30  49  71  97 129 162 199 246 303
#     4   9  19  35  55  76 101 133 172 212 254 302
#     4  12  25  39  53  72 102 136 176 216 252 295
#     4   9  17  31  51  77 104 130 161 200 248 299
#     4  11  20  33  52  69  93 130 171 208 248 297
#     4   9  16  31  52  73  98 129 166 209 256 306
#
# _framework density 18.031078000000001
#
# number of rings (size 3 to 8) (size 9 to 14) (size 15 to 20)
#    0.000    2.250    1.250    4.500    0.000    3.000 
#    0.000    3.125    0.000    0.000    0.000    0.875 
#    0.000    2.000    0.000    0.000    0.000    0.125 
#
# Total GULP energy -396527.302434 kJ/mol
# GULP energy per Si atom -12391.478201 kJ/mol
# Density = 1.799004 g / cm^3
# Si number density = 18.031078 Si / 1000 Ang^3
#
#
#
# Elastic Constant Matrix: (Units=GPa)
#
#
# Indices 1 2 3 4 5 6 
#
# 1 92.1569 45.9365 27.3230 0.0000 0.0000 0.0000
# 2 45.9365 121.9442 24.3637 0.0000 0.0000 0.0000
# 3 27.3230 24.3637 47.1400 0.0000 0.0000 0.0000
# 4 0.0000 0.0000 0.0000 19.5525 0.0000 0.0000
# 5 0.0000 0.0000 0.0000 0.0000 20.3795 0.0000
# 6 0.0000 0.0000 0.0000 0.0000 0.0000 30.3255
#
#
#
# Elastic Compliance Matrix: (Units=1/GPa)
#
#
# Indices 1 2 3 4 5 6 
#
# 1 0.014911 -0.004338 -0.006401 0.000000 0.000000 0.000000
# 2 -0.004338 0.010407 -0.002864 0.000000 0.000000 0.000000
# 3 -0.006401 -0.002864 0.026404 0.000000 0.000000 0.000000
# 4 0.000000 0.000000 0.000000 0.051144 0.000000 0.000000
# 5 0.000000 0.000000 0.000000 0.000000 0.049069 0.000000
# 6 0.000000 0.000000 0.000000 0.000000 0.000000 0.032976
#
#
# Mechanical properties :
#
#
# Convention : Reuss Voigt Hill
#
# Bulk Modulus (GPa) = 40.79016 50.72083 45.75550
# Shear Modulus (GPa) = 22.69752 24.95936 23.82844
#
# Velocity S-wave (km/s) = 3.55181 3.72458 3.63922
# Velocity P-wave (km/s) = 6.28424 6.83281 6.56426
#
# Compressibility (1/GPa) = 0.02451571
#
# Stress axis : x y z
#
# Youngs Moduli (GPa) = 67.06378 96.08971 37.87361
#
# Poissons Ratio (x) = 0.41686 0.24241
# Poissons Ratio (y) = 0.29094 0.10848
# Poissons Ratio (z) = 0.42925 0.27522
#
# Static dielectric constant tensor:
#      x y z
#    x 3.310240 0.000000 0.000000 
#    y 0.000000 3.587840 0.000000 
#    z 0.000000 0.000000 2.903310 
# 
# 
# High freq. dielectric constant tensor:
#      x y z
#    x 1.691460 0.000000 0.000000 
#    y 0.000000 1.706530 0.000000 
#    z 0.000000 0.000000 1.649210 
# 
# From -- ./inp_files/21302.got.cif
#   From: 2010.03.12/outbox.cif.g09.slc.cpg/sg46_11_cif.got.tgz:21302.got - 2010.04.14 02:56:35.
