data_PCOD8191949
_publ_section_title
;
Structure prediction by ZEFSAII (Michael W. Deem and Ramdas Pophale) SiO2 
 PCOD8191949
Probable space group: I M A 2
;
_chemical_formula_sum "Si O2"
_cell_formula_units_Z 48
_cell_length_a 13.384411
_cell_length_b 13.343709
_cell_length_c 13.457678
_cell_angle_alpha 90.000000
_cell_angle_beta 90.000000
_cell_angle_gamma 90.000000
_cell_volume 2403.510143
_symmetry_space_group_name_H-M "I M A 2"
_symmetry_group_IT_number 46
_symmetry_cell_setting 'orthorhombic'
loop_
_space_group_symop_operation_xyz
x,y,z
-x,-y,z
1/2-x,y,z
1/2+x,-y,z
1/2+x,1/2+y,1/2+z
1/2-x,1/2-y,1/2+z
-x,1/2+y,1/2+z
x,1/2-y,1/2+z
loop_
_atom_site_type_symbol
_atom_site_label
_atom_site_fract_x
_atom_site_fract_y
_atom_site_fract_z
Si Si1 0.637280 0.615579 0.427320
Si Si2 0.863115 0.318481 0.733892
Si Si3 0.463155 0.758125 0.432055
Si Si4 0.559706 0.135538 0.628648
Si Si5 0.637666 0.572700 0.203907
Si Si6 0.631516 0.424786 0.539579
O O1 0.750000 0.645761 0.454407
O O2 0.577354 0.719858 0.426574
O O3 0.632829 0.558136 0.322038
O O4 0.592252 0.535709 0.507494
O O5 0.750000 0.343122 0.766740
O O6 0.932789 0.311979 0.829916
O O7 0.863979 0.212190 0.678547
O O8 0.903682 0.399692 0.652669
O O9 0.448713 0.845781 0.511596
O O10 0.400125 0.659081 0.459304
O O11 0.447736 0.152514 0.673695
O O12 0.606718 0.027733 0.647089
O O13 0.750000 0.606255 0.171748
O O14 0.750000 0.426429 0.535205
#
# Coordination Sequence:
#
# PCOD8191949 Si02
#       6
#     8   8   8   8   8   8
#     4  10  20  35  59  85 110 145 187 229 272 329
#     4  10  19  33  53  81 116 146 180 229 283 333
#     4  11  20  33  57  83 112 146 185 231 281 332
#     4  10  21  34  54  85 112 141 187 235 281 329
#     4  10  20  36  58  81 110 146 186 229 279 334
#     4   9  19  32  51  84 115 144 180 226 280 329
#
# _framework density 19.970791999999999
#
# number of rings (size 3 to 8) (size 9 to 14) (size 15 to 20)
#    0.000    2.000    1.667    2.500    2.333    4.000 
#    0.000    0.000   14.667    0.000    0.000    0.000 
#    0.000    0.000    0.000    0.000    0.000    0.000 
#
# Total GULP energy -297477.363186 kJ/mol
# GULP energy per Si atom -12394.890133 kJ/mol
# Density = 1.992534 g / cm^3
# Si number density = 19.970792 Si / 1000 Ang^3
#
#
#
# Elastic Constant Matrix: (Units=GPa)
#
#
# Indices 1 2 3 4 5 6 
#
# 1 73.5388 8.0669 27.7973 0.0000 0.0000 0.0000
# 2 8.0669 41.4318 29.1881 0.0000 0.0000 0.0000
# 3 27.7973 29.1881 122.5028 0.0000 0.0000 0.0000
# 4 0.0000 0.0000 0.0000 20.2393 0.0000 0.0000
# 5 0.0000 0.0000 0.0000 0.0000 22.7549 0.0000
# 6 0.0000 0.0000 0.0000 0.0000 0.0000 18.5595
#
#
#
# Elastic Compliance Matrix: (Units=1/GPa)
#
#
# Indices 1 2 3 4 5 6 
#
# 1 0.014887 -0.000623 -0.003230 0.000000 0.000000 0.000000
# 2 -0.000623 0.029031 -0.006776 0.000000 0.000000 0.000000
# 3 -0.003230 -0.006776 0.010510 0.000000 0.000000 0.000000
# 4 0.000000 0.000000 0.000000 0.049409 0.000000 0.000000
# 5 0.000000 0.000000 0.000000 0.000000 0.043947 0.000000
# 6 0.000000 0.000000 0.000000 0.000000 0.000000 0.053881
#
#
# Mechanical properties :
#
#
# Convention : Reuss Voigt Hill
#
# Bulk Modulus (GPa) = 30.14655 40.84199 35.49427
# Shear Modulus (GPa) = 21.36947 23.80548 22.58747
#
# Velocity S-wave (km/s) = 3.27469 3.45630 3.36672
# Velocity P-wave (km/s) = 5.42459 6.03517 5.73801
#
# Compressibility (1/GPa) = 0.03317129
#
# Stress axis : x y z
#
# Youngs Moduli (GPa) = 67.17079 34.44633 95.14495
#
# Poissons Ratio (x) = 0.02147 0.30728
# Poissons Ratio (y) = 0.04188 0.64466
# Poissons Ratio (z) = 0.21693 0.23339
#
# Static dielectric constant tensor:
#      x y z
#    x 3.949830 0.000000 0.000000 
#    y 0.000000 3.409970 0.000000 
#    z 0.000000 0.000000 3.734120 
# 
# 
# High freq. dielectric constant tensor:
#      x y z
#    x 1.792510 0.000000 0.000000 
#    y 0.000000 1.743660 0.000000 
#    z 0.000000 0.000000 1.776810 
# 
# From -- ./inp_files/11063.got.cif
#   From: 2010.03.12/outbox.cif.g09.slc.cpg/sg46_6_cif.got.tgz:11063.got - 2010.04.14 02:56:35.
