data_PCOD8191495
_publ_section_title
;
Structure prediction by ZEFSAII (Michael W. Deem and Ramdas Pophale) SiO2 
 PCOD8191495
Probable space group: I M A 2
;
_chemical_formula_sum "Si O2"
_cell_formula_units_Z 64
_cell_length_a 8.846460
_cell_length_b 23.191310
_cell_length_c 18.809223
_cell_angle_alpha 90.000000
_cell_angle_beta 90.000000
_cell_angle_gamma 90.000000
_cell_volume 3858.918930
_symmetry_space_group_name_H-M "I M A 2"
_symmetry_group_IT_number 46
_symmetry_cell_setting 'orthorhombic'
loop_
_space_group_symop_operation_xyz
x,y,z
-x,-y,z
1/2-x,y,z
1/2+x,-y,z
1/2+x,1/2+y,1/2+z
1/2-x,1/2-y,1/2+z
-x,1/2+y,1/2+z
x,1/2-y,1/2+z
loop_
_atom_site_type_symbol
_atom_site_label
_atom_site_fract_x
_atom_site_fract_y
_atom_site_fract_z
Si Si1 0.573487 0.223885 0.218020
Si Si2 0.426384 0.159015 0.340131
Si Si3 0.072495 0.061194 0.717467
Si Si4 0.074416 0.839050 0.800624
Si Si5 0.574808 0.754120 0.577477
Si Si6 0.428925 0.938733 0.428434
Si Si7 0.576962 0.775235 0.920029
Si Si8 0.427996 0.113874 0.566997
O O1 0.750000 0.210981 0.225152
O O2 0.482851 0.175412 0.261462
O O3 0.531156 0.286804 0.248157
O O4 0.522787 0.220993 0.136328
O O5 0.250000 0.143912 0.338103
O O6 0.518639 0.104114 0.366549
O O7 0.461832 0.210733 0.394619
O O8 0.250000 0.055277 0.723304
O O9 0.023675 0.083467 0.640009
O O10 0.017307 0.105021 0.777612
O O11 0.000000 0.000000 0.733213
O O12 0.250000 0.853738 0.798287
O O13 0.028120 0.821747 0.880761
O O14 0.750000 0.752836 0.599843
O O15 0.546207 0.720716 0.503896
O O16 0.520053 0.819908 0.570372
O O17 0.250000 0.943667 0.428708
O O18 0.482721 0.917921 0.505326
O O19 0.500000 0.000000 0.410376
O O20 0.750000 0.789558 0.901289
O O21 0.250000 0.109102 0.551170
#
# Coordination Sequence:
#
# PCOD8191495 Si02
#       8
#     8   8   8   8   8   8   8   8
#     4  10  20  32  49  76 105 133 168 211 258 305
#     4  10  19  35  54  73  99 134 173 214 257 303
#     4  11  22  35  52  71  99 136 177 215 253 297
#     4  10  20  33  49  72 101 131 169 211 256 302
#     4  10  18  32  52  76 103 137 173 206 252 307
#     4  12  24  36  52  73 102 138 177 217 257 303
#     4   9  18  32  52  73  99 132 169 209 255 305
#     4  10  20  35  51  72 102 139 179 213 248 298
#
# _framework density 16.584955999999998
#
# number of rings (size 3 to 8) (size 9 to 14) (size 15 to 20)
#    0.000    1.750    2.500    3.000    0.000    4.500 
#    0.000    0.000    0.000    0.000    0.000    0.875 
#    0.000    6.000    0.000    0.000    0.000    0.000 
#
# Total GULP energy -396959.750627 kJ/mol
# GULP energy per Si atom -12404.992207 kJ/mol
# Density = 1.654721 g / cm^3
# Si number density = 16.584956 Si / 1000 Ang^3
#
#
#
# Elastic Constant Matrix: (Units=GPa)
#
#
# Indices 1 2 3 4 5 6 
#
# 1 71.2531 40.5182 36.5097 0.0000 0.0000 0.0000
# 2 40.5182 87.5403 48.4262 0.0000 0.0000 0.0000
# 3 36.5097 48.4262 93.4160 0.0001 0.0000 0.0000
# 4 0.0000 0.0000 0.0001 15.0321 0.0000 0.0000
# 5 0.0000 0.0000 0.0000 0.0000 30.9965 0.0000
# 6 0.0000 0.0000 0.0000 0.0000 0.0000 27.3876
#
#
#
# Elastic Compliance Matrix: (Units=1/GPa)
#
#
# Indices 1 2 3 4 5 6 
#
# 1 0.020195 -0.006984 -0.004272 0.000000 0.000000 0.000000
# 2 -0.006984 0.018431 -0.006825 0.000000 0.000000 0.000000
# 3 -0.004272 -0.006825 0.015913 0.000000 0.000000 0.000000
# 4 0.000000 0.000000 0.000000 0.066524 0.000000 0.000000
# 5 0.000000 0.000000 0.000000 0.000000 0.032262 0.000000
# 6 0.000000 0.000000 0.000000 0.000000 0.000000 0.036513
#
#
# Mechanical properties :
#
#
# Convention : Reuss Voigt Hill
#
# Bulk Modulus (GPa) = 54.41826 55.90195 55.16011
# Shear Modulus (GPa) = 21.53997 23.13358 22.33678
#
# Velocity S-wave (km/s) = 3.60775 3.73883 3.67387
# Velocity P-wave (km/s) = 7.08784 7.24003 7.16434
#
# Compressibility (1/GPa) = 0.01837618
#
# Stress axis : x y z
#
# Youngs Moduli (GPa) = 49.51714 54.25515 62.84274
#
# Poissons Ratio (x) = 0.37891 0.26849
# Poissons Ratio (y) = 0.34582 0.42892
# Poissons Ratio (z) = 0.21156 0.37030
#
# Static dielectric constant tensor:
#      x y z
#    x 3.135410 0.000000 0.000000 
#    y 0.000000 2.977330 0.000000 
#    z 0.000000 0.000000 3.103530 
# 
# 
# High freq. dielectric constant tensor:
#      x y z
#    x 1.648480 0.000000 0.000000 
#    y 0.000000 1.614710 0.000000 
#    z 0.000000 0.000000 1.633310 
# 
# From -- ./inp_files/18533.got.cif
#   From: 2010.03.12/outbox.cif.g09.slc.cpg/sg46_10_cif.got.tgz:18533.got - 2010.04.14 02:56:35.
