data_PCOD8191112
_publ_section_title
;
Structure prediction by ZEFSAII (Michael W. Deem and Ramdas Pophale) SiO2 
 PCOD8191112
Probable space group: I B A 2
;
_chemical_formula_sum "Si O2"
_cell_formula_units_Z 64
_cell_length_a 14.400465
_cell_length_b 22.892995
_cell_length_c 8.481603
_cell_angle_alpha 90.000000
_cell_angle_beta 90.000000
_cell_angle_gamma 90.000000
_cell_volume 2796.128138
_symmetry_space_group_name_H-M "I B A 2"
_symmetry_group_IT_number 45
_symmetry_cell_setting 'orthorhombic'
loop_
_space_group_symop_operation_xyz
x,y,z
-x,-y,z
-x,y,1/2+z
x,-y,1/2+z
1/2+x,1/2+y,1/2+z
1/2-x,1/2-y,1/2+z
1/2-x,1/2+y,z
1/2+x,1/2-y,z
loop_
_atom_site_type_symbol
_atom_site_label
_atom_site_fract_x
_atom_site_fract_y
_atom_site_fract_z
Si Si1 0.613705 0.394359 0.460270
Si Si2 0.079525 0.126063 0.098519
Si Si3 0.177517 0.021233 0.915750
Si Si4 0.187673 0.513598 0.650937
Si Si5 0.240589 0.191032 0.003609
Si Si6 0.383245 0.109488 0.180792
Si Si7 0.577266 0.876735 0.534989
Si Si8 0.241950 0.685461 0.632942
O O1 0.530177 0.372246 0.570794
O O2 0.598714 0.374547 0.282855
O O3 0.615329 0.464184 0.444790
O O4 0.707047 0.367215 0.536815
O O5 0.131121 0.184922 0.043161
O O6 0.122216 0.074155 0.992243
O O7 0.212288 0.031211 0.734948
O O8 0.280607 0.012207 0.983910
O O9 0.132912 0.458623 0.723499
O O10 0.118504 0.566599 0.623759
O O11 0.294393 0.140115 0.099841
O O12 0.278147 0.253722 0.059801
O O13 0.244198 0.182529 0.818008
O O14 0.406600 0.134487 0.351006
O O15 0.467847 0.122713 0.063139
O O16 0.631278 0.821802 0.610305
#
# Coordination Sequence:
#
# PCOD8191112 Si02
#       8
#     8   8   8   8   8   8   8   8
#     4  12  26  44  68 104 139 182 228 283 338 410
#     4  12  26  43  69 102 142 179 232 279 343 404
#     4  12  23  41  70  99 139 182 225 276 337 402
#     4  12  23  41  70  99 139 182 225 276 337 402
#     4  12  26  48  74  98 133 177 228 285 347 408
#     4  12  26  44  68 104 139 182 228 283 338 410
#     4  12  26  43  69 102 142 179 232 279 343 404
#     4  12  26  48  74  98 133 177 228 285 347 408
#
# _framework density 22.888794999999998
#
# number of rings (size 3 to 8) (size 9 to 14) (size 15 to 20)
#    0.000    0.000    5.000    5.250    3.500    3.000 
#    0.000    5.000    0.000    0.000    0.000    0.000 
#    0.000    0.000    0.000    0.000    0.000    0.000 
#
# Total GULP energy -396617.065943 kJ/mol
# GULP energy per Si atom -12394.283311 kJ/mol
# Density = 2.283670 g / cm^3
# Si number density = 22.888795 Si / 1000 Ang^3
#
#
#
# Elastic Constant Matrix: (Units=GPa)
#
#
# Indices 1 2 3 4 5 6 
#
# 1 90.7029 6.0139 12.0097 -0.0001 0.0001 0.0003
# 2 6.0139 81.7854 24.9264 -0.0005 -0.0005 0.0016
# 3 12.0097 24.9264 125.8334 -0.0045 -0.0026 0.0039
# 4 -0.0001 -0.0005 -0.0045 29.8140 -0.0007 -0.0007
# 5 0.0001 -0.0005 -0.0026 -0.0007 26.0591 0.0020
# 6 0.0003 0.0016 0.0039 -0.0007 0.0020 -33.3732
#
#
#
# Elastic Compliance Matrix: (Units=1/GPa)
#
#
# Indices 1 2 3 4 5 6 
#
# 1 0.011188 -0.000529 -0.000963 0.000000 0.000000 0.000000
# 2 -0.000529 0.013038 -0.002532 0.000000 0.000000 0.000000
# 3 -0.000963 -0.002532 0.008541 0.000001 0.000001 0.000001
# 4 0.000000 0.000000 0.000001 0.033541 0.000001 -0.000001
# 5 0.000000 0.000000 0.000001 0.000001 0.038374 0.000002
# 6 0.000000 0.000000 0.000001 -0.000001 0.000002 -0.029964
#
#
# Mechanical properties :
#
#
# Convention : Reuss Voigt Hill
#
# Bulk Modulus (GPa) = 40.45741 42.69132 41.57437
# Shear Modulus (GPa) = 54.94208 21.52476 38.23342
#
# Velocity S-wave (km/s) = 4.90469 3.06993 4.09149
# Velocity P-wave (km/s) = 7.05611 5.59089 6.36580
#
# Compressibility (1/GPa) = 0.02471735
#
# Stress axis : x y z
#
# Youngs Moduli (GPa) = 89.38476 76.70013 117.08893
#
# Poissons Ratio (x) = 0.04059 0.11275
# Poissons Ratio (y) = 0.04730 0.29649
# Poissons Ratio (z) = 0.08607 0.19422
#
# Static dielectric constant tensor:
#      x y z
#    x 4.336180 0.000000 0.000000 
#    y 0.000000 4.089330 0.000000 
#    z 0.000000 0.000000 4.263320 
# 
# 
# High freq. dielectric constant tensor:
#      x y z
#    x 1.900150 0.000000 0.000000 
#    y 0.000000 1.893840 0.000000 
#    z 0.000000 0.000000 1.931130 
# 
# From -- ./inp_files/1927.got.cif
#   From: 2010.03.12/outbox.cif.g09.slc.cpg/sg45_1_cif.got.tgz:1927.got - 2010.04.14 02:50:11.
