data_PCOD8191693
_publ_section_title
;
Structure prediction by ZEFSAII (Michael W. Deem and Ramdas Pophale) SiO2 
 PCOD8191693
Probable space group: I M A 2
;
_chemical_formula_sum "Si O2"
_cell_formula_units_Z 48
_cell_length_a 9.501033
_cell_length_b 13.598616
_cell_length_c 18.705182
_cell_angle_alpha 90.000000
_cell_angle_beta 90.000000
_cell_angle_gamma 90.000000
_cell_volume 2416.726337
_symmetry_space_group_name_H-M "I M A 2"
_symmetry_group_IT_number 46
_symmetry_cell_setting 'orthorhombic'
loop_
_space_group_symop_operation_xyz
x,y,z
-x,-y,z
1/2-x,y,z
1/2+x,-y,z
1/2+x,1/2+y,1/2+z
1/2-x,1/2-y,1/2+z
-x,1/2+y,1/2+z
x,1/2-y,1/2+z
loop_
_atom_site_type_symbol
_atom_site_label
_atom_site_fract_x
_atom_site_fract_y
_atom_site_fract_z
Si Si1 0.090907 0.596447 0.087900
Si Si2 0.408398 0.410819 0.438361
Si Si3 0.088318 0.596737 0.808043
Si Si4 0.585874 0.214928 0.447494
Si Si5 0.596096 0.916490 0.104110
Si Si6 0.408774 0.773968 0.175518
O O1 0.250000 0.562387 0.073592
O O2 0.078884 0.656218 0.163399
O O3 0.000000 0.500000 0.094115
O O4 0.041657 0.666221 0.022566
O O5 0.500000 0.500000 0.403140
O O6 0.250000 0.404651 0.404246
O O7 0.490358 0.308692 0.429072
O O8 0.388599 0.436527 0.520953
O O9 0.250000 0.566638 0.800168
O O10 0.054580 0.633502 0.887407
O O11 0.051044 0.687725 0.754458
O O12 0.000000 0.500000 0.789621
O O13 0.750000 0.247383 0.447411
O O14 0.750000 0.916903 0.140551
O O15 0.517361 0.814779 0.117184
O O16 0.500000 0.000000 0.141572
O O17 0.250000 0.807627 0.155462
#
# Coordination Sequence:
#
# PCOD8191693 Si02
#       6
#     8   8   8   8   8   8
#     4  10  21  36  57  81 108 143 186 233 282 332
#     4  10  20  33  53  82 113 146 185 231 279 330
#     4  10  22  38  58  84 115 150 187 229 280 337
#     4  10  20  37  58  82 114 150 186 232 283 333
#     4  10  19  30  49  78 109 141 178 223 273 324
#     4  10  20  36  55  79 111 146 184 228 279 332
#
# _framework density 19.861577
#
# number of rings (size 3 to 8) (size 9 to 14) (size 15 to 20)
#    0.000    2.000    1.667    2.000    0.000    5.333 
#    0.000    0.833    0.000    2.000    0.000    0.000 
#    0.000    0.000    0.000    0.000    0.000    0.000 
#
# Total GULP energy -297467.885331 kJ/mol
# GULP energy per Si atom -12394.495222 kJ/mol
# Density = 1.981637 g / cm^3
# Si number density = 19.861577 Si / 1000 Ang^3
#
#
#
# Elastic Constant Matrix: (Units=GPa)
#
#
# Indices 1 2 3 4 5 6 
#
# 1 125.6073 76.2084 25.2386 0.0000 0.0000 0.0000
# 2 76.2084 133.0942 38.2308 0.0000 0.0000 0.0000
# 3 25.2386 38.2308 67.5101 0.0000 0.0000 0.0000
# 4 0.0000 0.0000 0.0000 22.5485 0.0000 0.0000
# 5 0.0000 0.0000 0.0000 0.0000 15.2423 0.0000
# 6 0.0000 0.0000 0.0000 0.0000 0.0000 43.3048
#
#
#
# Elastic Compliance Matrix: (Units=1/GPa)
#
#
# Indices 1 2 3 4 5 6 
#
# 1 0.012229 -0.006794 -0.000724 0.000000 0.000000 0.000000
# 2 -0.006794 0.012748 -0.004679 0.000000 0.000000 0.000000
# 3 -0.000724 -0.004679 0.017733 0.000000 0.000000 0.000000
# 4 0.000000 0.000000 0.000000 0.044349 0.000000 0.000000
# 5 0.000000 0.000000 0.000000 0.000000 0.065607 0.000000
# 6 0.000000 0.000000 0.000000 0.000000 0.000000 0.023092
#
#
# Mechanical properties :
#
#
# Convention : Reuss Voigt Hill
#
# Bulk Modulus (GPa) = 54.60035 67.28526 60.94280
# Shear Modulus (GPa) = 24.24151 28.65471 26.44811
#
# Velocity S-wave (km/s) = 3.49739 3.80244 3.65310
# Velocity P-wave (km/s) = 6.62262 7.29580 6.96734
#
# Compressibility (1/GPa) = 0.01831490
#
# Stress axis : x y z
#
# Youngs Moduli (GPa) = 81.77279 78.44503 56.39172
#
# Poissons Ratio (x) = 0.53297 0.04084
# Poissons Ratio (y) = 0.55558 0.26386
# Poissons Ratio (z) = 0.05923 0.36705
#
# Static dielectric constant tensor:
#      x y z
#    x 3.860770 0.000000 0.000000 
#    y 0.000000 3.479100 0.000000 
#    z 0.000000 0.000000 3.437430 
# 
# 
# High freq. dielectric constant tensor:
#      x y z
#    x 1.780990 0.000000 0.000000 
#    y 0.000000 1.769070 0.000000 
#    z 0.000000 0.000000 1.745880 
# 
# From -- ./inp_files/20913.got.cif
#   From: 2010.03.12/outbox.cif.g09.slc.cpg/sg46_11_cif.got.tgz:20913.got - 2010.04.14 02:56:35.
