data_PCOD8191225
_publ_section_title
;
Structure prediction by ZEFSAII (Michael W. Deem and Ramdas Pophale) SiO2 
 PCOD8191225
Probable space group: I M A 2
;
_chemical_formula_sum "Si O2"
_cell_formula_units_Z 64
_cell_length_a 16.752706
_cell_length_b 9.908292
_cell_length_c 19.814872
_cell_angle_alpha 90.000000
_cell_angle_beta 90.000000
_cell_angle_gamma 90.000000
_cell_volume 3289.084530
_symmetry_space_group_name_H-M "I M A 2"
_symmetry_group_IT_number 46
_symmetry_cell_setting 'orthorhombic'
loop_
_space_group_symop_operation_xyz
x,y,z
-x,-y,z
1/2-x,y,z
1/2+x,-y,z
1/2+x,1/2+y,1/2+z
1/2-x,1/2-y,1/2+z
-x,1/2+y,1/2+z
x,1/2-y,1/2+z
loop_
_atom_site_type_symbol
_atom_site_label
_atom_site_fract_x
_atom_site_fract_y
_atom_site_fract_z
Si Si1 0.412919 0.565578 0.342120
Si Si2 0.657042 0.761098 0.196268
Si Si3 0.342903 0.792361 0.159658
Si Si4 0.655893 0.160260 0.314325
Si Si5 0.407692 0.519428 0.189136
Si Si6 0.657962 0.863756 0.939083
Si Si7 0.845514 0.546934 0.581986
Si Si8 0.155163 0.142351 0.339124
O O1 0.500000 0.500000 0.356347
O O2 0.400973 0.728064 0.351313
O O3 0.384155 0.540597 0.266575
O O4 0.350989 0.492985 0.391166
O O5 0.750000 0.789784 0.201150
O O6 0.640272 0.612648 0.167390
O O7 0.619088 0.859939 0.141062
O O8 0.618765 0.791823 0.270080
O O9 0.250000 0.769634 0.152466
O O10 0.362991 0.848070 0.234446
O O11 0.383129 0.648258 0.145058
O O12 0.373391 0.895495 0.101791
O O13 0.750000 0.192067 0.326404
O O14 0.631740 0.014913 0.345891
O O15 0.500000 0.500000 0.178134
O O16 0.750000 0.835761 0.952548
O O17 0.620899 0.729837 0.902531
O O18 0.617212 0.900963 0.011009
O O19 0.750000 0.552815 0.579368
O O20 0.250000 0.157987 0.336521
#
# Coordination Sequence:
#
# PCOD8191225 Si02
#       8
#     8   8   8   8   8   8   8   8
#     4  10  20  33  49  72 107 140 175 217 262 308
#     4  10  17  31  54  78 100 132 173 218 267 310
#     4   9  16  30  51  75 103 136 174 218 267 314
#     4   9  16  29  52  78 102 133 176 224 267 309
#     4  10  20  32  49  75 108 136 174 224 261 304
#     4  10  19  33  53  77 104 137 174 215 266 320
#     4   9  18  32  53  80 108 134 170 219 265 315
#     4   9  16  28  51  79 102 128 172 221 263 310
#
# _framework density 19.458302
#
# number of rings (size 3 to 8) (size 9 to 14) (size 15 to 20)
#    0.000    2.500    2.500    0.750    0.000    1.000 
#    0.000    3.750    0.000    4.500    0.000    0.000 
#    0.000    0.000    0.000    0.000    0.000    0.000 
#
# Total GULP energy -396533.382947 kJ/mol
# GULP energy per Si atom -12391.668217 kJ/mol
# Density = 1.941401 g / cm^3
# Si number density = 19.458302 Si / 1000 Ang^3
#
#
#
# Elastic Constant Matrix: (Units=GPa)
#
#
# Indices 1 2 3 4 5 6 
#
# 1 15.8585 26.8814 28.9306 0.0000 0.0000 0.0000
# 2 26.8814 193.0593 80.1683 0.0000 0.0000 0.0000
# 3 28.9306 80.1683 90.6493 0.0000 0.0000 0.0000
# 4 0.0000 0.0000 0.0000 31.7123 0.0000 0.0000
# 5 0.0000 0.0000 0.0000 0.0000 9.6338 0.0000
# 6 0.0000 0.0000 0.0000 0.0000 0.0000 10.8772
#
#
#
# Elastic Compliance Matrix: (Units=1/GPa)
#
#
# Indices 1 2 3 4 5 6 
#
# 1 0.151248 -0.001604 -0.046852 0.000000 0.000000 0.000000
# 2 -0.001604 0.008203 -0.006742 0.000000 0.000000 0.000000
# 3 -0.046852 -0.006742 0.031947 0.000000 0.000000 0.000000
# 4 0.000000 0.000000 0.000000 0.031534 0.000000 0.000000
# 5 0.000000 0.000000 0.000000 0.000000 0.103801 0.000000
# 6 0.000000 0.000000 0.000000 0.000000 0.000000 0.091935
#
#
# Mechanical properties :
#
#
# Convention : Reuss Voigt Hill
#
# Bulk Modulus (GPa) = 12.34550 63.50308 37.92429
# Shear Modulus (GPa) = 8.99174 21.35045 15.17109
#
# Velocity S-wave (km/s) = 2.15199 3.31606 2.79529
# Velocity P-wave (km/s) = 3.54021 6.88244 5.47271
#
# Compressibility (1/GPa) = 0.08100114
#
# Stress axis : x y z
#
# Youngs Moduli (GPa) = 6.61164 121.90683 31.30181
#
# Poissons Ratio (x) = 0.19559 1.46654
# Poissons Ratio (y) = 0.01061 0.21105
# Poissons Ratio (z) = 0.30977 0.82195
#
# Static dielectric constant tensor:
#      x y z
#    x 3.093260 0.000000 0.000000 
#    y 0.000000 3.850940 0.000000 
#    z 0.000000 0.000000 3.601010 
# 
# 
# High freq. dielectric constant tensor:
#      x y z
#    x 1.715730 0.000000 0.000000 
#    y 0.000000 1.774050 0.000000 
#    z 0.000000 0.000000 1.727730 
# 
# From -- ./inp_files/20269.got.cif
#   From: 2010.03.12/outbox.cif.g09.slc.cpg/sg46_11_cif.got.tgz:20269.got - 2010.04.14 02:56:35.
