data_PCOD8191030
_publ_section_title
;
Structure prediction by ZEFSAII (Michael W. Deem and Ramdas Pophale) SiO2 
 PCOD8191030
Probable space group: I B A 2
;
_chemical_formula_sum "Si O2"
_cell_formula_units_Z 60
_cell_length_a 5.102487
_cell_length_b 27.609864
_cell_length_c 18.364923
_cell_angle_alpha 90.000000
_cell_angle_beta 90.000000
_cell_angle_gamma 90.000000
_cell_volume 2587.231476
_symmetry_space_group_name_H-M "I B A 2"
_symmetry_group_IT_number 45
_symmetry_cell_setting 'orthorhombic'
loop_
_space_group_symop_operation_xyz
x,y,z
-x,-y,z
-x,y,1/2+z
x,-y,1/2+z
1/2+x,1/2+y,1/2+z
1/2-x,1/2-y,1/2+z
1/2-x,1/2+y,z
1/2+x,1/2-y,z
loop_
_atom_site_type_symbol
_atom_site_label
_atom_site_fract_x
_atom_site_fract_y
_atom_site_fract_z
Si Si1 0.079700 0.552320 0.676760
Si Si2 0.672313 0.456390 0.828013
Si Si3 0.120496 0.353098 0.734246
Si Si4 0.602949 0.649079 0.325618
Si Si5 0.755633 0.583612 0.023444
Si Si6 0.000000 0.500000 0.941707
Si Si7 0.752719 0.145235 0.483399
Si Si8 0.252885 0.218629 0.107669
O O1 0.260965 0.536831 0.743707
O O2 0.222604 0.581075 0.611614
O O3 0.000000 0.500000 0.644189
O O4 0.860028 0.589500 0.711104
O O5 0.500000 0.500000 0.855630
O O6 0.525810 0.406530 0.839394
O O7 0.905268 0.457250 0.887059
O O8 0.330825 0.331914 0.792384
O O9 0.168669 0.323124 0.662616
O O10 0.832556 0.343674 0.766719
O O11 0.689083 0.668856 0.403945
O O12 0.470957 0.605971 0.007621
O O13 0.788056 0.528859 0.991698
O O14 0.973893 0.618748 0.988845
O O15 0.740555 0.194207 0.529159
O O16 0.458787 0.262022 0.118113
#
# Coordination Sequence:
#
# PCOD8191030 Si02
#       8
#     8   8   8   8   8   4   8   8
#     4  11  23  41  64 103 142 189 245 291 341 418
#     4  11  23  37  64  93 143 190 242 286 341 410
#     4  11  25  45  73 104 143 184 239 290 363 423
#     4  11  24  43  71 102 138 192 229 291 356 425
#     4  12  26  42  66 100 143 192 236 301 349 418
#     4  12  24  42  60 102 144 198 242 282 348 422
#     4  12  26  47  72 102 143 180 239 298 370 436
#     4  12  27  50  78 107 138 184 236 304 380 445
#
# _framework density 23.190811
#
# number of rings (size 3 to 8) (size 9 to 14) (size 15 to 20)
#    0.000    0.533    4.000    4.000    7.467    1.067 
#    0.000    4.000    0.000    0.000    0.000    0.000 
#    0.000    0.000    0.000    0.000    0.000    0.000 
#
# Total GULP energy -371730.450529 kJ/mol
# GULP energy per Si atom -12391.015018 kJ/mol
# Density = 2.313803 g / cm^3
# Si number density = 23.190811 Si / 1000 Ang^3
#
#
#
# Elastic Constant Matrix: (Units=GPa)
#
#
# Indices 1 2 3 4 5 6 
#
# 1 84.0648 15.8130 16.0449 0.0000 0.0000 0.0000
# 2 15.8130 66.2749 17.4097 0.0000 0.0000 0.0000
# 3 16.0449 17.4097 128.0176 0.0000 0.0000 0.0000
# 4 0.0000 0.0000 0.0000 17.4941 0.0000 0.0000
# 5 0.0000 0.0000 0.0000 0.0000 26.5421 0.0000
# 6 0.0000 0.0000 0.0000 0.0000 0.0000 35.5755
#
#
#
# Elastic Compliance Matrix: (Units=1/GPa)
#
#
# Indices 1 2 3 4 5 6 
#
# 1 0.012635 -0.002695 -0.001217 0.000000 0.000000 0.000000
# 2 -0.002695 0.016222 -0.001868 0.000000 0.000000 0.000000
# 3 -0.001217 -0.001868 0.008218 0.000000 0.000000 0.000000
# 4 0.000000 0.000000 0.000000 0.057162 0.000000 0.000000
# 5 0.000000 0.000000 0.000000 0.000000 0.037676 0.000000
# 6 0.000000 0.000000 0.000000 0.000000 0.000000 0.028109
#
#
# Mechanical properties :
#
#
# Convention : Reuss Voigt Hill
#
# Bulk Modulus (GPa) = 39.19331 41.87694 40.53513
# Shear Modulus (GPa) = 27.76416 31.19498 29.47957
#
# Velocity S-wave (km/s) = 3.46382 3.67160 3.56922
# Velocity P-wave (km/s) = 5.73885 6.00591 5.87390
#
# Compressibility (1/GPa) = 0.02551456
#
# Stress axis : x y z
#
# Youngs Moduli (GPa) = 79.14643 61.64282 121.68328
#
# Poissons Ratio (x) = 0.16612 0.14810
# Poissons Ratio (y) = 0.21329 0.22735
# Poissons Ratio (z) = 0.09633 0.11517
#
# Static dielectric constant tensor:
#      x y z
#    x 4.288970 0.000000 0.000000 
#    y 0.000000 4.126250 0.000000 
#    z 0.000000 0.000000 4.556540 
# 
# 
# High freq. dielectric constant tensor:
#      x y z
#    x 1.906080 0.000000 0.000000 
#    y 0.000000 1.897060 0.000000 
#    z 0.000000 0.000000 1.943700 
# 
# From -- ./inp_files/7334.got.cif
#   From: 2010.03.12/outbox.cif.g09.slc.cpg/sg45_4_cif.got.tgz:7334.got - 2010.04.14 02:50:11.
