data_PCOD8191164
_publ_section_title
;
Structure prediction by ZEFSAII (Michael W. Deem and Ramdas Pophale) SiO2 
 PCOD8191164
Probable space group: I M A 2
;
_chemical_formula_sum "Si O2"
_cell_formula_units_Z 64
_cell_length_a 8.828413
_cell_length_b 13.703825
_cell_length_c 34.467260
_cell_angle_alpha 90.000000
_cell_angle_beta 90.000000
_cell_angle_gamma 90.000000
_cell_volume 4169.953440
_symmetry_space_group_name_H-M "I M A 2"
_symmetry_group_IT_number 46
_symmetry_cell_setting 'orthorhombic'
loop_
_space_group_symop_operation_xyz
x,y,z
-x,-y,z
1/2-x,y,z
1/2+x,-y,z
1/2+x,1/2+y,1/2+z
1/2-x,1/2-y,1/2+z
-x,1/2+y,1/2+z
x,1/2-y,1/2+z
loop_
_atom_site_type_symbol
_atom_site_label
_atom_site_fract_x
_atom_site_fract_y
_atom_site_fract_z
Si Si1 0.925115 0.605123 0.339580
Si Si2 0.427493 0.601503 0.951738
Si Si3 0.929333 0.206692 0.909906
Si Si4 0.927481 0.205118 0.529884
Si Si5 0.927304 0.398884 0.486391
Si Si6 0.925807 0.604788 0.254033
Si Si7 0.570517 0.606353 0.101326
Si Si8 0.930375 0.107917 0.679270
O O1 0.750000 0.589717 0.348743
O O2 0.948138 0.652758 0.296562
O O3 0.000000 0.500000 0.344487
O O4 0.994214 0.681823 0.369361
O O5 0.500000 0.500000 0.939494
O O6 0.250000 0.589466 0.949716
O O7 0.480613 0.684133 0.921431
O O8 0.474421 0.632501 0.995168
O O9 0.750000 0.200413 0.905631
O O10 0.985522 0.132981 0.943705
O O11 0.750000 0.194301 0.539823
O O12 0.967620 0.315729 0.517759
O O13 0.029370 0.178682 0.566600
O O14 0.750000 0.413766 0.484533
O O15 0.000000 0.500000 0.499789
O O16 0.750000 0.594907 0.243044
O O17 0.000000 0.500000 0.258297
O O18 0.011699 0.662395 0.218811
O O19 0.500000 0.500000 0.093395
O O20 0.750000 0.595911 0.105607
O O21 0.499552 0.655260 0.140291
O O22 0.750000 0.107362 0.677173
O O23 0.000000 0.000000 0.681419
#
# Coordination Sequence:
#
# PCOD8191164 Si02
#       8
#     8   8   8   8   8   8   8   8
#     4  10  19  28  41  61  85 114 144 176 211 247
#     4   9  18  31  46  62  83 111 141 176 216 252
#     4   9  18  31  44  61  85 112 142 176 212 250
#     4   9  18  32  45  61  85 111 141 176 212 249
#     4   9  18  31  46  62  84 112 141 176 214 250
#     4   9  16  26  38  55  80 108 139 171 204 243
#     4  11  20  29  42  61  85 113 143 175 210 248
#     4  10  17  26  40  57  79 109 141 170 204 245
#
# _framework density 15.347892999999999
#
# number of rings (size 3 to 8) (size 9 to 14) (size 15 to 20)
#    0.000    2.500    0.000    6.750    0.000    5.500 
#    0.000    2.500    0.000    0.000    0.000    0.000 
#    0.000    1.000    0.000    5.000    0.000    5.125 
#
# Total GULP energy -396603.812724 kJ/mol
# GULP energy per Si atom -12393.869148 kJ/mol
# Density = 1.531296 g / cm^3
# Si number density = 15.347893 Si / 1000 Ang^3
#
#
#
# Elastic Constant Matrix: (Units=GPa)
#
#
# Indices 1 2 3 4 5 6 
#
# 1 92.4914 32.5356 56.9962 0.0000 0.0000 0.0000
# 2 32.5356 78.1346 45.6499 0.0000 0.0000 0.0000
# 3 56.9962 45.6499 129.9078 0.0000 0.0000 0.0000
# 4 0.0000 0.0000 0.0000 15.1206 0.0000 0.0000
# 5 0.0000 0.0000 0.0000 0.0000 27.2768 0.0000
# 6 0.0000 0.0000 0.0000 0.0000 0.0000 22.2496
#
#
#
# Elastic Compliance Matrix: (Units=1/GPa)
#
#
# Indices 1 2 3 4 5 6 
#
# 1 0.015393 -0.003100 -0.005664 0.000000 0.000000 0.000000
# 2 -0.003100 0.016729 -0.004518 0.000000 0.000000 0.000000
# 3 -0.005664 -0.004518 0.011771 0.000000 0.000000 0.000000
# 4 0.000000 0.000000 0.000000 0.066135 0.000000 0.000000
# 5 0.000000 0.000000 0.000000 0.000000 0.036661 0.000000
# 6 0.000000 0.000000 0.000000 0.000000 0.000000 0.044945
#
#
# Mechanical properties :
#
#
# Convention : Reuss Voigt Hill
#
# Bulk Modulus (GPa) = 57.71341 63.43302 60.57321
# Shear Modulus (GPa) = 22.32392 23.95286 23.13839
#
# Velocity S-wave (km/s) = 3.81796 3.95481 3.88699
# Velocity P-wave (km/s) = 7.55784 7.89138 7.72641
#
# Compressibility (1/GPa) = 0.01732700
#
# Stress axis : x y z
#
# Youngs Moduli (GPa) = 64.96548 59.77520 84.95752
#
# Poissons Ratio (x) = 0.18533 0.48120
# Poissons Ratio (y) = 0.20142 0.38387
# Poissons Ratio (z) = 0.36796 0.27009
#
# Static dielectric constant tensor:
#      x y z
#    x 2.976900 0.000000 0.000000 
#    y 0.000000 2.240100 0.000000 
#    z 0.000000 0.000000 3.573270 
# 
# 
# High freq. dielectric constant tensor:
#      x y z
#    x 1.598410 0.000000 0.000000 
#    y 0.000000 1.536420 0.000000 
#    z 0.000000 0.000000 1.597950 
# 
# From -- ./inp_files/25289.got.cif
#   From: 2010.03.12/outbox.cif.g09.slc.cpg/sg46_13_cif.got.tgz:25289.got - 2010.04.14 02:56:35.
