data_PCOD8191525
_publ_section_title
;
Structure prediction by ZEFSAII (Michael W. Deem and Ramdas Pophale) SiO2 
 PCOD8191525
Probable space group: I M A 2
;
_chemical_formula_sum "Si O2"
_cell_formula_units_Z 52
_cell_length_a 8.878564
_cell_length_b 10.797450
_cell_length_c 27.124351
_cell_angle_alpha 90.000000
_cell_angle_beta 90.000000
_cell_angle_gamma 90.000000
_cell_volume 2600.298988
_symmetry_space_group_name_H-M "I M A 2"
_symmetry_group_IT_number 46
_symmetry_cell_setting 'orthorhombic'
loop_
_space_group_symop_operation_xyz
x,y,z
-x,-y,z
1/2-x,y,z
1/2+x,-y,z
1/2+x,1/2+y,1/2+z
1/2-x,1/2-y,1/2+z
-x,1/2+y,1/2+z
x,1/2-y,1/2+z
loop_
_atom_site_type_symbol
_atom_site_label
_atom_site_fract_x
_atom_site_fract_y
_atom_site_fract_z
Si Si1 0.431136 0.136322 0.415010
Si Si2 0.927993 0.374424 0.363808
Si Si3 0.500000 0.500000 0.180595
Si Si4 0.923112 0.874560 0.200006
Si Si5 0.927759 0.371592 0.017746
Si Si6 0.915659 0.229881 0.620549
Si Si7 0.414048 0.156577 0.766721
O O1 0.250000 0.129102 0.411895
O O2 0.492707 0.246419 0.380314
O O3 0.485809 0.176386 0.469379
O O4 0.500000 0.000000 0.401310
O O5 0.750000 0.370487 0.374775
O O6 0.000000 0.500000 0.388416
O O7 0.958068 0.386811 0.305021
O O8 0.411589 0.594169 0.145392
O O9 0.609885 0.571919 0.218162
O O10 0.750000 0.899553 0.195837
O O11 0.966492 0.788718 0.246061
O O12 0.970258 0.821531 0.146895
O O13 0.000000 0.000000 0.213760
O O14 0.750000 0.387601 0.006475
O O15 0.957186 0.277465 0.062665
O O16 0.000000 0.500000 0.034508
O O17 0.750000 0.287257 0.626139
O O18 0.250000 0.163178 0.793286
#
# Coordination Sequence:
#
# PCOD8191525 Si02
#       7
#     8   8   4   8   8   8   8
#     4  11  23  42  66  92 124 161 207 260 317 378
#     4  12  25  42  65  92 125 163 206 259 318 377
#     4  10  18  32  56  88 122 152 192 232 288 350
#     4  10  22  38  56  79 114 156 200 245 293 355
#     4  10  19  34  57  88 121 155 198 249 304 362
#     4  10  20  33  55  85 119 156 193 239 292 350
#     4  10  21  36  57  85 117 153 196 243 295 356
#
# _framework density 19.997699999999998
#
# number of rings (size 3 to 8) (size 9 to 14) (size 15 to 20)
#    0.000    1.538    1.538    5.077    0.000    5.538 
#    0.000    2.308    0.000    3.692    0.000    0.000 
#    0.000    0.000    0.000    0.000    0.000    0.000 
#
# Total GULP energy -322198.763381 kJ/mol
# GULP energy per Si atom -12392.260130 kJ/mol
# Density = 1.995218 g / cm^3
# Si number density = 19.997700 Si / 1000 Ang^3
#
#
#
# Elastic Constant Matrix: (Units=GPa)
#
#
# Indices 1 2 3 4 5 6 
#
# 1 120.0314 50.5142 39.6533 0.0000 0.0000 0.0000
# 2 50.5142 117.4307 27.5875 0.0000 0.0000 0.0000
# 3 39.6533 27.5875 66.6621 0.0000 0.0000 0.0000
# 4 0.0000 0.0000 0.0000 15.4895 0.0000 0.0000
# 5 0.0000 0.0000 0.0000 0.0000 29.3658 0.0000
# 6 0.0000 0.0000 0.0000 0.0000 0.0000 28.6164
#
#
#
# Elastic Compliance Matrix: (Units=1/GPa)
#
#
# Indices 1 2 3 4 5 6 
#
# 1 0.011700 -0.003764 -0.005402 0.000000 0.000000 0.000000
# 2 -0.003764 0.010643 -0.002166 0.000000 0.000000 0.000000
# 3 -0.005402 -0.002166 0.019111 0.000000 0.000000 0.000000
# 4 0.000000 0.000000 0.000000 0.064560 0.000000 0.000000
# 5 0.000000 0.000000 0.000000 0.000000 0.034053 0.000000
# 6 0.000000 0.000000 0.000000 0.000000 0.000000 0.034945
#
#
# Mechanical properties :
#
#
# Convention : Reuss Voigt Hill
#
# Bulk Modulus (GPa) = 53.21746 59.95935 56.58840
# Shear Modulus (GPa) = 24.51720 27.11894 25.81807
#
# Velocity S-wave (km/s) = 3.50523 3.68653 3.59702
# Velocity P-wave (km/s) = 6.56138 6.94038 6.75354
#
# Compressibility (1/GPa) = 0.01879083
#
# Stress axis : x y z
#
# Youngs Moduli (GPa) = 85.47296 93.95415 52.32693
#
# Poissons Ratio (x) = 0.35361 0.28266
# Poissons Ratio (y) = 0.32169 0.11334
# Poissons Ratio (z) = 0.46171 0.20350
#
# Static dielectric constant tensor:
#      x y z
#    x 3.848320 0.000000 0.000000 
#    y 0.000000 3.733920 0.000000 
#    z 0.000000 0.000000 3.587790 
# 
# 
# High freq. dielectric constant tensor:
#      x y z
#    x 1.789200 0.000000 0.000000 
#    y 0.000000 1.774880 0.000000 
#    z 0.000000 0.000000 1.772810 
# 
# From -- ./inp_files/24218.got.cif
#   From: 2010.03.12/outbox.cif.g09.slc.cpg/sg46_13_cif.got.tgz:24218.got - 2010.04.14 02:56:35.
