data_PCOD8191207
_publ_section_title
;
Structure prediction by ZEFSAII (Michael W. Deem and Ramdas Pophale) SiO2 
 PCOD8191207
Probable space group: I M A 2
;
_chemical_formula_sum "Si O2"
_cell_formula_units_Z 64
_cell_length_a 13.721501
_cell_length_b 18.243323
_cell_length_c 14.077340
_cell_angle_alpha 90.000000
_cell_angle_beta 90.000000
_cell_angle_gamma 90.000000
_cell_volume 3523.921042
_symmetry_space_group_name_H-M "I M A 2"
_symmetry_group_IT_number 46
_symmetry_cell_setting 'orthorhombic'
loop_
_space_group_symop_operation_xyz
x,y,z
-x,-y,z
1/2-x,y,z
1/2+x,-y,z
1/2+x,1/2+y,1/2+z
1/2-x,1/2-y,1/2+z
-x,1/2+y,1/2+z
x,1/2-y,1/2+z
loop_
_atom_site_type_symbol
_atom_site_label
_atom_site_fract_x
_atom_site_fract_y
_atom_site_fract_z
Si Si1 0.018810 0.255236 0.294820
Si Si2 0.354929 0.609108 0.467399
Si Si3 0.864747 0.602791 0.329263
Si Si4 0.513863 0.238030 0.011670
Si Si5 0.137599 0.323824 0.646831
Si Si6 0.636808 0.448871 0.273467
Si Si7 0.135849 0.813381 0.659220
Si Si8 0.898121 0.960680 0.031358
O O1 0.080868 0.329136 0.283193
O O2 0.080922 0.189902 0.245999
O O3 0.001758 0.235116 0.404481
O O4 0.915001 0.264622 0.241725
O O5 0.250000 0.649849 0.457454
O O6 0.430480 0.660062 0.523296
O O7 0.406904 0.594730 0.364716
O O8 0.329617 0.531554 0.518421
O O9 0.750000 0.616035 0.318481
O O10 0.903966 0.532002 0.268318
O O11 0.892287 0.592767 0.439802
O O12 0.411620 0.228261 0.066326
O O13 0.582522 0.299251 0.059660
O O14 0.250000 0.300563 0.655911
O O15 0.130572 0.410388 0.621033
O O16 0.750000 0.457729 0.299951
O O17 0.621557 0.400589 0.179417
O O18 0.250000 0.792377 0.656009
O O19 0.000000 0.000000 0.045570
#
# Coordination Sequence:
#
# PCOD8191207 Si02
#       8
#     8   8   8   8   8   8   8   8
#     4  11  22  35  55  82 112 150 193 230 278 337
#     4  10  17  29  51  80 112 147 174 215 279 334
#     4  10  19  32  54  85 118 150 179 223 284 335
#     4  11  21  35  54  81 112 148 188 231 279 334
#     4  11  23  37  53  79 115 151 187 231 281 335
#     4   8  16  29  49  79 114 143 175 215 271 330
#     4  10  21  35  51  80 115 150 190 230 278 335
#     4  11  19  32  52  82 116 145 178 226 276 338
#
# _framework density 18.161587000000001
#
# number of rings (size 3 to 8) (size 9 to 14) (size 15 to 20)
#    0.000    1.750    3.750    2.625    1.750    1.000 
#    0.000    0.000    0.000    0.000    6.500    0.000 
#    0.000    0.000    0.000    0.000    0.000    0.000 
#
# Total GULP energy -396598.016436 kJ/mol
# GULP energy per Si atom -12393.688014 kJ/mol
# Density = 1.812025 g / cm^3
# Si number density = 18.161587 Si / 1000 Ang^3
#
#
#
# Elastic Constant Matrix: (Units=GPa)
#
#
# Indices 1 2 3 4 5 6 
#
# 1 102.6678 25.7628 43.2347 0.0000 0.0000 0.0000
# 2 25.7628 83.8659 48.0213 -0.0001 0.0000 0.0000
# 3 43.2347 48.0213 111.8858 -0.0002 -0.0001 0.0000
# 4 0.0000 -0.0001 -0.0002 33.5433 0.0000 0.0000
# 5 0.0000 0.0000 -0.0001 0.0000 17.8827 0.0000
# 6 0.0000 0.0000 0.0000 0.0000 0.0000 22.1622
#
#
#
# Elastic Compliance Matrix: (Units=1/GPa)
#
#
# Indices 1 2 3 4 5 6 
#
# 1 0.011745 -0.001338 -0.003964 0.000000 0.000000 0.000000
# 2 -0.001338 0.015961 -0.006334 0.000000 0.000000 0.000000
# 3 -0.003964 -0.006334 0.013188 0.000000 0.000000 0.000000
# 4 0.000000 0.000000 0.000000 0.029812 0.000000 0.000000
# 5 0.000000 0.000000 0.000000 0.000000 0.055920 0.000000
# 6 0.000000 0.000000 0.000000 0.000000 0.000000 0.045122
#
#
# Mechanical properties :
#
#
# Convention : Reuss Voigt Hill
#
# Bulk Modulus (GPa) = 56.74483 59.16188 57.95335
# Shear Modulus (GPa) = 24.88863 26.81102 25.84983
#
# Velocity S-wave (km/s) = 3.70591 3.84637 3.77679
# Velocity P-wave (km/s) = 7.04442 7.23685 7.14129
#
# Compressibility (1/GPa) = 0.01762275
#
# Stress axis : x y z
#
# Youngs Moduli (GPa) = 85.14010 62.65103 75.82691
#
# Poissons Ratio (x) = 0.08383 0.30060
# Poissons Ratio (y) = 0.11393 0.48026
# Poissons Ratio (z) = 0.33752 0.39680
#
# Static dielectric constant tensor:
#      x y z
#    x 3.713090 0.000000 0.000000 
#    y 0.000000 3.431980 0.000000 
#    z 0.000000 0.000000 3.157150 
# 
# 
# High freq. dielectric constant tensor:
#      x y z
#    x 1.733740 0.000000 0.000000 
#    y 0.000000 1.683040 0.000000 
#    z 0.000000 0.000000 1.662460 
# 
# From -- ./inp_files/16197.got.cif
#   From: 2010.03.12/outbox.cif.g09.slc.cpg/sg46_9_cif.got.tgz:16197.got - 2010.04.14 02:56:35.
