data_PCOD8191905
_publ_section_title
;
Structure prediction by ZEFSAII (Michael W. Deem and Ramdas Pophale) SiO2 
 PCOD8191905
Probable space group: I M A 2
;
_chemical_formula_sum "Si O2"
_cell_formula_units_Z 60
_cell_length_a 14.796580
_cell_length_b 10.029632
_cell_length_c 21.474294
_cell_angle_alpha 90.000000
_cell_angle_beta 90.000000
_cell_angle_gamma 90.000000
_cell_volume 3186.876544
_symmetry_space_group_name_H-M "I M A 2"
_symmetry_group_IT_number 46
_symmetry_cell_setting 'orthorhombic'
loop_
_space_group_symop_operation_xyz
x,y,z
-x,-y,z
1/2-x,y,z
1/2+x,-y,z
1/2+x,1/2+y,1/2+z
1/2-x,1/2-y,1/2+z
-x,1/2+y,1/2+z
x,1/2-y,1/2+z
loop_
_atom_site_type_symbol
_atom_site_label
_atom_site_fract_x
_atom_site_fract_y
_atom_site_fract_z
Si Si1 0.977113 0.816310 0.463300
Si Si2 0.854240 0.171958 0.769078
Si Si3 0.508324 0.652441 0.821431
Si Si4 0.149692 0.695455 0.505545
Si Si5 0.646642 0.879184 0.805627
Si Si6 0.851220 0.172135 0.629271
Si Si7 0.500000 0.500000 0.067050
Si Si8 0.851880 0.584199 0.449778
O O1 0.961775 0.868167 0.393304
O O2 0.084482 0.800574 0.472609
O O3 0.941997 0.910498 0.518631
O O4 0.922650 0.684473 0.478410
O O5 0.750000 0.185808 0.791390
O O6 0.914500 0.266005 0.813996
O O7 0.868557 0.225863 0.698911
O O8 0.881957 0.014281 0.768840
O O9 0.500000 0.500000 0.793489
O O10 0.584848 0.748771 0.789393
O O11 0.250000 0.731034 0.482402
O O12 0.141978 0.704687 0.580793
O O13 0.121399 0.550892 0.483310
O O14 0.750000 0.838299 0.790647
O O15 0.634105 0.926332 0.876296
O O16 0.750000 0.108234 0.626083
O O17 0.927060 0.065359 0.612258
O O18 0.750000 0.628579 0.465760
#
# Coordination Sequence:
#
# PCOD8191905 Si02
#       8
#     8   8   8   8   8   8   4   8
#     4  10  19  33  49  77 110 140 174 219 270 340
#     4  10  21  38  59  80 106 148 199 239 279 337
#     4  11  22  35  54  83 118 148 182 231 297 343
#     4   9  17  31  51  75 103 135 175 222 271 321
#     4   9  19  35  56  82 111 145 190 236 277 334
#     4   9  20  36  55  78 105 141 186 232 271 324
#     4  10  20  34  54  76 108 142 180 220 274 326
#     4   9  17  30  51  78 106 137 173 219 274 325
#
# _framework density 18.827210999999998
#
# number of rings (size 3 to 8) (size 9 to 14) (size 15 to 20)
#    0.000    2.400    0.667    1.600    1.867    4.800 
#    0.000    2.667    0.000    0.000    0.000    0.000 
#    0.000    0.000    0.000    0.000    0.000    0.000 
#
# Total GULP energy -371684.876417 kJ/mol
# GULP energy per Si atom -12389.495881 kJ/mol
# Density = 1.878436 g / cm^3
# Si number density = 18.827211 Si / 1000 Ang^3
#
#
#
# Elastic Constant Matrix: (Units=GPa)
#
#
# Indices 1 2 3 4 5 6 
#
# 1 63.6730 39.8296 7.1665 0.0000 0.0000 0.0000
# 2 39.8296 100.5482 9.7206 0.0000 0.0000 0.0000
# 3 7.1665 9.7206 44.6610 0.0000 0.0000 0.0000
# 4 0.0000 0.0000 0.0000 21.6521 0.0000 0.0000
# 5 0.0000 0.0000 0.0000 0.0000 21.0664 0.0000
# 6 0.0000 0.0000 0.0000 0.0000 0.0000 22.7032
#
#
#
# Elastic Compliance Matrix: (Units=1/GPa)
#
#
# Indices 1 2 3 4 5 6 
#
# 1 0.020989 -0.008160 -0.001592 0.000000 0.000000 0.000000
# 2 -0.008160 0.013332 -0.001592 0.000000 0.000000 0.000000
# 3 -0.001592 -0.001592 0.022993 0.000000 0.000000 0.000000
# 4 0.000000 0.000000 0.000000 0.046185 0.000000 0.000000
# 5 0.000000 0.000000 0.000000 0.000000 0.047469 0.000000
# 6 0.000000 0.000000 0.000000 0.000000 0.000000 0.044047
#
#
# Mechanical properties :
#
#
# Convention : Reuss Voigt Hill
#
# Bulk Modulus (GPa) = 28.88103 35.81286 32.34694
# Shear Modulus (GPa) = 21.81072 23.22870 22.51971
#
# Velocity S-wave (km/s) = 3.40732 3.51634 3.46226
# Velocity P-wave (km/s) = 5.55456 5.96232 5.76205
#
# Compressibility (1/GPa) = 0.03462481
#
# Stress axis : x y z
#
# Youngs Moduli (GPa) = 47.64403 75.00781 43.49165
#
# Poissons Ratio (x) = 0.61209 0.06923
# Poissons Ratio (y) = 0.38879 0.06925
# Poissons Ratio (z) = 0.07584 0.11943
#
# Static dielectric constant tensor:
#      x y z
#    x 3.615330 0.000000 0.000000 
#    y 0.000000 3.698540 0.000000 
#    z 0.000000 0.000000 3.355850 
# 
# 
# High freq. dielectric constant tensor:
#      x y z
#    x 1.740170 0.000000 0.000000 
#    y 0.000000 1.715800 0.000000 
#    z 0.000000 0.000000 1.716960 
# 
# From -- ./inp_files/22101.got.cif
#   From: 2010.03.12/outbox.cif.g09.slc.cpg/sg46_12_cif.got.tgz:22101.got - 2010.04.14 02:56:35.
