data_PCOD8191721
_publ_section_title
;
Structure prediction by ZEFSAII (Michael W. Deem and Ramdas Pophale) SiO2 
 PCOD8191721
Probable space group: I M A 2
;
_chemical_formula_sum "Si O2"
_cell_formula_units_Z 48
_cell_length_a 8.630244
_cell_length_b 13.834911
_cell_length_c 23.782525
_cell_angle_alpha 90.000000
_cell_angle_beta 90.000000
_cell_angle_gamma 90.000000
_cell_volume 2839.601560
_symmetry_space_group_name_H-M "I M A 2"
_symmetry_group_IT_number 46
_symmetry_cell_setting 'orthorhombic'
loop_
_space_group_symop_operation_xyz
x,y,z
-x,-y,z
1/2-x,y,z
1/2+x,-y,z
1/2+x,1/2+y,1/2+z
1/2-x,1/2-y,1/2+z
-x,1/2+y,1/2+z
x,1/2-y,1/2+z
loop_
_atom_site_type_symbol
_atom_site_label
_atom_site_fract_x
_atom_site_fract_y
_atom_site_fract_z
Si Si1 0.433695 0.604425 0.478170
Si Si2 0.433682 0.604486 0.135510
Si Si3 0.566159 0.102773 0.432218
Si Si4 0.432721 0.897331 0.762433
Si Si5 0.433234 0.787401 0.868421
Si Si6 0.433347 0.213854 0.534998
O O1 0.500000 0.500000 0.492614
O O2 0.250000 0.603609 0.483247
O O3 0.489693 0.637006 0.416039
O O4 0.500156 0.679956 0.523220
O O5 0.500000 0.500000 0.119158
O O6 0.250000 0.603846 0.126970
O O7 0.482006 0.631631 0.199419
O O8 0.512763 0.685408 0.097313
O O9 0.750000 0.098407 0.437254
O O10 0.510312 0.179751 0.384895
O O11 0.500105 0.133968 0.492419
O O12 0.500000 0.000000 0.413624
O O13 0.250000 0.905440 0.767016
O O14 0.498338 0.818668 0.807272
O O15 0.500000 0.000000 0.780082
O O16 0.250000 0.788027 0.867329
O O17 0.250000 0.215133 0.530589
#
# Coordination Sequence:
#
# PCOD8191721 Si02
#       6
#     8   8   8   8   8   8
#     4  10  19  32  50  73 100 127 157 192 233 279
#     4  10  19  31  48  70  96 125 158 195 237 283
#     4  10  19  32  49  70  97 125 157 195 237 284
#     4   9  17  30  48  70  95 124 155 189 232 279
#     4   8  16  30  48  70  96 125 155 190 231 277
#     4  11  21  33  49  69  95 126 161 197 236 280
#
# _framework density 16.903780000000001
#
# number of rings (size 3 to 8) (size 9 to 14) (size 15 to 20)
#    0.000    2.333    0.000    5.000    0.000    0.667 
#    0.000    4.167    0.000    1.000    0.000    2.333 
#    0.000    0.000    0.000    0.000    0.000    0.000 
#
# Total GULP energy -297571.837936 kJ/mol
# GULP energy per Si atom -12398.826581 kJ/mol
# Density = 1.686531 g / cm^3
# Si number density = 16.903780 Si / 1000 Ang^3
#
#
#
# Elastic Constant Matrix: (Units=GPa)
#
#
# Indices 1 2 3 4 5 6 
#
# 1 79.2954 42.8869 33.8347 0.0000 0.0000 0.0000
# 2 42.8869 143.1855 79.1328 0.0000 0.0000 0.0000
# 3 33.8347 79.1328 121.0724 0.0000 0.0000 0.0000
# 4 0.0000 0.0000 0.0000 30.5877 0.0000 0.0000
# 5 0.0000 0.0000 0.0000 0.0000 17.2652 0.0000
# 6 0.0000 0.0000 0.0000 0.0000 0.0000 29.5056
#
#
#
# Elastic Compliance Matrix: (Units=1/GPa)
#
#
# Indices 1 2 3 4 5 6 
#
# 1 0.015356 -0.003487 -0.002012 0.000000 0.000000 0.000000
# 2 -0.003487 0.011725 -0.006689 0.000000 0.000000 0.000000
# 3 -0.002012 -0.006689 0.013194 0.000000 0.000000 0.000000
# 4 0.000000 0.000000 0.000000 0.032693 0.000000 0.000000
# 5 0.000000 0.000000 0.000000 0.000000 0.057920 0.000000
# 6 0.000000 0.000000 0.000000 0.000000 0.000000 0.033892
#
#
# Mechanical properties :
#
#
# Convention : Reuss Voigt Hill
#
# Bulk Modulus (GPa) = 62.90119 72.80690 67.85404
# Shear Modulus (GPa) = 25.71283 27.98495 26.84889
#
# Velocity S-wave (km/s) = 3.90440 4.07325 3.98972
# Velocity P-wave (km/s) = 7.59064 8.08002 7.83915
#
# Compressibility (1/GPa) = 0.01589795
#
# Stress axis : x y z
#
# Youngs Moduli (GPa) = 65.12226 85.28594 75.79371
#
# Poissons Ratio (x) = 0.29743 0.15249
# Poissons Ratio (y) = 0.22711 0.50699
# Poissons Ratio (z) = 0.13102 0.57048
#
# Static dielectric constant tensor:
#      x y z
#    x 3.122330 0.000000 0.000000 
#    y 0.000000 3.184030 0.000000 
#    z 0.000000 0.000000 3.402010 
# 
# 
# High freq. dielectric constant tensor:
#      x y z
#    x 1.653270 0.000000 0.000000 
#    y 0.000000 1.644200 0.000000 
#    z 0.000000 0.000000 1.644130 
# 
# From -- ./inp_files/20909.got.cif
#   From: 2010.03.12/outbox.cif.g09.slc.cpg/sg46_11_cif.got.tgz:20909.got - 2010.04.14 02:56:35.
