data_PCOD8191035
_publ_section_title
;
Structure prediction by ZEFSAII (Michael W. Deem and Ramdas Pophale) SiO2 
 PCOD8191035
Probable space group: I B A 2
;
_chemical_formula_sum "Si O2"
_cell_formula_units_Z 48
_cell_length_a 9.065151
_cell_length_b 21.477066
_cell_length_c 10.690350
_cell_angle_alpha 90.000000
_cell_angle_beta 90.000000
_cell_angle_gamma 90.000000
_cell_volume 2081.334670
_symmetry_space_group_name_H-M "I B A 2"
_symmetry_group_IT_number 45
_symmetry_cell_setting 'orthorhombic'
loop_
_space_group_symop_operation_xyz
x,y,z
-x,-y,z
-x,y,1/2+z
x,-y,1/2+z
1/2+x,1/2+y,1/2+z
1/2-x,1/2-y,1/2+z
1/2-x,1/2+y,z
1/2+x,1/2-y,z
loop_
_atom_site_type_symbol
_atom_site_label
_atom_site_fract_x
_atom_site_fract_y
_atom_site_fract_z
Si Si1 0.217456 0.853388 0.367510
Si Si2 0.855843 0.740747 0.009754
Si Si3 0.462385 0.843985 0.805097
Si Si4 0.666995 0.477400 0.991488
Si Si5 0.837415 0.471309 0.248829
Si Si6 0.093697 0.782590 0.166181
O O1 0.247949 0.784101 0.423364
O O2 0.374619 0.874834 0.311143
O O3 0.160864 0.903422 0.466801
O O4 0.088563 0.840858 0.262645
O O5 0.764665 0.718708 0.129021
O O6 0.985553 0.790014 0.048301
O O7 0.912533 0.678181 0.943144
O O8 0.351516 0.896343 0.753242
O O9 0.457948 0.784202 0.717366
O O10 0.500000 0.500000 0.006517
O O11 0.745901 0.508565 0.871676
O O12 0.753774 0.491390 0.120929
O O13 0.000000 0.500000 0.249937
#
# Coordination Sequence:
#
# PCOD8191035 Si02
#       6
#     8   8   8   8   8   8
#     4  11  24  44  69 103 142 190 241 302 374 449
#     4  11  23  40  69 103 143 183 232 301 367 442
#     4  11  24  43  70 104 138 188 248 296 364 452
#     4  12  29  51  74 112 151 195 257 329 390 448
#     4  12  27  49  82 105 144 204 263 313 381 464
#     4  11  23  40  68 103 140 184 233 298 368 442
#
# _framework density 23.062125999999999
#
# number of rings (size 3 to 8) (size 9 to 14) (size 15 to 20)
#    0.000    0.667    5.000    2.000    0.000    6.667 
#    0.000    0.000    0.000    0.000    0.000    0.000 
#    0.000    0.000    0.000    0.000    0.000    0.000 
#
# Total GULP energy -297469.869929 kJ/mol
# GULP energy per Si atom -12394.577914 kJ/mol
# Density = 2.300964 g / cm^3
# Si number density = 23.062126 Si / 1000 Ang^3
#
#
#
# Elastic Constant Matrix: (Units=GPa)
#
#
# Indices 1 2 3 4 5 6 
#
# 1 131.2464 27.1723 56.0217 -0.0003 -0.0001 0.0000
# 2 27.1723 77.1673 20.2132 0.0001 -0.0001 0.0001
# 3 56.0217 20.2132 132.2973 0.0022 -0.0013 -0.0010
# 4 -0.0003 0.0001 0.0022 38.0601 -0.0003 -0.0003
# 5 -0.0001 -0.0001 -0.0013 -0.0003 42.8877 0.0001
# 6 0.0000 0.0001 -0.0010 -0.0003 0.0001 20.5203
#
#
#
# Elastic Compliance Matrix: (Units=1/GPa)
#
#
# Indices 1 2 3 4 5 6 
#
# 1 0.009723 -0.002443 -0.003744 0.000000 0.000000 0.000000
# 2 -0.002443 0.014113 -0.001122 0.000000 0.000000 0.000000
# 3 -0.003744 -0.001122 0.009316 -0.000001 0.000000 0.000000
# 4 0.000000 0.000000 -0.000001 0.026274 0.000000 0.000000
# 5 0.000000 0.000000 0.000000 0.000000 0.023317 0.000000
# 6 0.000000 0.000000 0.000000 0.000000 0.000000 0.048732
#
#
# Mechanical properties :
#
#
# Convention : Reuss Voigt Hill
#
# Bulk Modulus (GPa) = 53.95492 60.83617 57.39555
# Shear Modulus (GPa) = 32.83629 36.11387 34.47508
#
# Velocity S-wave (km/s) = 3.77745 3.96149 3.87056
# Velocity P-wave (km/s) = 6.51703 6.88193 6.70197
#
# Compressibility (1/GPa) = 0.01853399
#
# Stress axis : x y z
#
# Youngs Moduli (GPa) = 102.84712 70.85702 107.34736
#
# Poissons Ratio (x) = 0.17311 0.40191
# Poissons Ratio (y) = 0.25126 0.12042
# Poissons Ratio (z) = 0.38506 0.07948
#
# Static dielectric constant tensor:
#      x y z
#    x 4.152540 0.000000 0.000000 
#    y 0.000000 4.023340 0.000000 
#    z 0.000000 0.000000 4.330130 
# 
# 
# High freq. dielectric constant tensor:
#      x y z
#    x 1.917160 0.000000 0.000000 
#    y 0.000000 1.902340 0.000000 
#    z 0.000000 0.000000 1.923560 
# 
# From -- ./inp_files/3271.got.cif
#   From: 2010.03.12/outbox.cif.g09.slc.cpg/sg45_2_cif.got.tgz:3271.got - 2010.04.14 02:50:11.
