data_PCOD8191301
_publ_section_title
;
Structure prediction by ZEFSAII (Michael W. Deem and Ramdas Pophale) SiO2 
 PCOD8191301
Probable space group: I M A 2
;
_chemical_formula_sum "Si O2"
_cell_formula_units_Z 64
_cell_length_a 8.971757
_cell_length_b 26.412883
_cell_length_c 18.287649
_cell_angle_alpha 90.000000
_cell_angle_beta 90.000000
_cell_angle_gamma 90.000000
_cell_volume 4333.623597
_symmetry_space_group_name_H-M "I M A 2"
_symmetry_group_IT_number 46
_symmetry_cell_setting 'orthorhombic'
loop_
_space_group_symop_operation_xyz
x,y,z
-x,-y,z
1/2-x,y,z
1/2+x,-y,z
1/2+x,1/2+y,1/2+z
1/2-x,1/2-y,1/2+z
-x,1/2+y,1/2+z
x,1/2-y,1/2+z
loop_
_atom_site_type_symbol
_atom_site_label
_atom_site_fract_x
_atom_site_fract_y
_atom_site_fract_z
Si Si1 0.417991 0.302002 0.700440
Si Si2 0.075053 0.650094 0.243861
Si Si3 0.927718 0.743911 0.482006
Si Si4 0.072971 0.748774 0.827309
Si Si5 0.085862 0.303744 0.117817
Si Si6 0.073233 0.846406 0.067567
Si Si7 0.073511 0.551183 0.324742
Si Si8 0.076015 0.949647 0.991320
O O1 0.250000 0.321346 0.717025
O O2 0.511176 0.295739 0.775132
O O3 0.411539 0.249082 0.659568
O O4 0.503911 0.341464 0.648385
O O5 0.250000 0.647591 0.239943
O O6 0.025343 0.696630 0.295231
O O7 0.010912 0.598289 0.277679
O O8 0.018605 0.656865 0.160600
O O9 0.750000 0.735834 0.479248
O O10 0.969330 0.791016 0.535715
O O11 0.993297 0.758618 0.404229
O O12 0.003456 0.692602 0.509987
O O13 0.250000 0.743731 0.835394
O O14 0.250000 0.327971 0.116042
O O15 0.250000 0.837346 0.070270
O O16 0.030239 0.902232 0.040617
O O17 0.250000 0.546671 0.317734
O O18 0.022990 0.560437 0.408234
O O19 0.000000 0.500000 0.293675
O O20 0.250000 0.959142 0.993245
O O21 0.000000 0.000000 0.023514
#
# Coordination Sequence:
#
# PCOD8191301 Si02
#       8
#     8   8   8   8   8   8   8   8
#     4   9  17  29  42  59  83 109 137 171 207 247
#     4   9  17  28  42  58  79 106 137 170 204 239
#     4  10  19  29  41  60  85 112 140 173 208 246
#     4  10  18  28  43  62  83 110 141 173 207 246
#     4   8  16  28  40  56  79 105 135 167 201 240
#     4  10  18  29  44  61  82 111 144 176 209 248
#     4   9  17  29  41  57  80 106 136 171 206 239
#     4   9  18  30  43  59  82 109 140 177 212 245
#
# _framework density 14.768241
#
# number of rings (size 3 to 8) (size 9 to 14) (size 15 to 20)
#    0.000    2.750    0.000    3.000    0.000    7.500 
#    0.000    2.500    0.000    0.000    0.000    0.000 
#    0.000    1.000    0.000    5.000    0.000    4.875 
#
# Total GULP energy -396706.310483 kJ/mol
# GULP energy per Si atom -12397.072203 kJ/mol
# Density = 1.473463 g / cm^3
# Si number density = 14.768241 Si / 1000 Ang^3
#
#
#
# Elastic Constant Matrix: (Units=GPa)
#
#
# Indices 1 2 3 4 5 6 
#
# 1 57.0693 36.5120 41.9959 0.0000 0.0000 0.0000
# 2 36.5120 84.9175 57.7025 0.0000 0.0000 0.0000
# 3 41.9959 57.7025 110.6254 0.0003 0.0000 0.0000
# 4 0.0000 0.0000 0.0003 23.0935 0.0000 0.0000
# 5 0.0000 0.0000 0.0000 0.0000 27.5155 0.0000
# 6 0.0000 0.0000 0.0000 0.0000 0.0000 21.7291
#
#
#
# Elastic Compliance Matrix: (Units=1/GPa)
#
#
# Indices 1 2 3 4 5 6 
#
# 1 0.026857 -0.007156 -0.006463 0.000000 0.000000 0.000000
# 2 -0.007156 0.020148 -0.007793 0.000000 0.000000 0.000000
# 3 -0.006463 -0.007793 0.015558 0.000000 0.000000 0.000000
# 4 0.000000 0.000000 0.000000 0.043302 0.000000 0.000000
# 5 0.000000 0.000000 0.000000 0.000000 0.036343 0.000000
# 6 0.000000 0.000000 0.000000 0.000000 0.000000 0.046021
#
#
# Mechanical properties :
#
#
# Convention : Reuss Voigt Hill
#
# Bulk Modulus (GPa) = 50.66008 58.33700 54.49854
# Shear Modulus (GPa) = 21.04090 22.22775 21.63432
#
# Velocity S-wave (km/s) = 3.77867 3.88378 3.83158
# Velocity P-wave (km/s) = 7.30860 7.72651 7.52046
#
# Compressibility (1/GPa) = 0.01973941
#
# Stress axis : x y z
#
# Youngs Moduli (GPa) = 37.23468 49.63191 64.27681
#
# Poissons Ratio (x) = 0.35517 0.41541
# Poissons Ratio (y) = 0.26645 0.50090
# Poissons Ratio (z) = 0.24064 0.38677
#
# Static dielectric constant tensor:
#      x y z
#    x 2.943710 0.000000 0.000000 
#    y 0.000000 2.754110 0.000000 
#    z 0.000000 0.000000 2.975180 
# 
# 
# High freq. dielectric constant tensor:
#      x y z
#    x 1.575280 0.000000 0.000000 
#    y 0.000000 1.530290 0.000000 
#    z 0.000000 0.000000 1.555730 
# 
# From -- ./inp_files/14717.got.cif
#   From: 2010.03.12/outbox.cif.g09.slc.cpg/sg46_8_cif.got.tgz:14717.got - 2010.04.14 02:56:35.
