data_PCOD8191578
_publ_section_title
;
Structure prediction by ZEFSAII (Michael W. Deem and Ramdas Pophale) SiO2 
 PCOD8191578
Probable space group: I M A 2
;
_chemical_formula_sum "Si O2"
_cell_formula_units_Z 52
_cell_length_a 14.321730
_cell_length_b 9.297311
_cell_length_c 20.762819
_cell_angle_alpha 90.000000
_cell_angle_beta 90.000000
_cell_angle_gamma 90.000000
_cell_volume 2764.643636
_symmetry_space_group_name_H-M "I M A 2"
_symmetry_group_IT_number 46
_symmetry_cell_setting 'orthorhombic'
loop_
_space_group_symop_operation_xyz
x,y,z
-x,-y,z
1/2-x,y,z
1/2+x,-y,z
1/2+x,1/2+y,1/2+z
1/2-x,1/2-y,1/2+z
-x,1/2+y,1/2+z
x,1/2-y,1/2+z
loop_
_atom_site_type_symbol
_atom_site_label
_atom_site_fract_x
_atom_site_fract_y
_atom_site_fract_z
Si Si1 0.857113 0.627906 0.186710
Si Si2 0.592841 0.077983 0.797313
Si Si3 0.250000 0.997674 0.895772
Si Si4 0.487868 0.667164 0.731880
Si Si5 0.750000 0.051378 0.035298
Si Si6 0.750000 0.750101 0.987642
Si Si7 0.068067 0.124859 0.544754
Si Si8 0.559077 0.141120 0.094090
O O1 0.750000 0.674875 0.181535
O O2 0.868472 0.486496 0.230405
O O3 0.895209 0.587031 0.116167
O O4 0.910312 0.761766 0.219963
O O5 0.660922 0.048904 0.855816
O O6 0.570054 0.247825 0.787152
O O7 0.500000 0.000000 0.819393
O O8 0.250000 0.903038 0.960466
O O9 0.250000 0.168765 0.917232
O O10 0.500000 0.500000 0.751647
O O11 0.429285 0.697008 0.666809
O O12 0.750000 0.876589 0.042401
O O13 0.661195 0.120661 0.067523
O O14 0.656419 0.653700 0.997141
O O15 0.000638 0.261571 0.546000
O O16 0.000000 0.000000 0.517977
O O17 0.500000 0.000000 0.101019
#
# Coordination Sequence:
#
# PCOD8191578 Si02
#       8
#     8   8   4   8   4   4   8   8
#     4  10  18  34  59  86 122 163 200 241 298 367
#     4  10  20  38  61  89 114 153 207 247 291 356
#     4  10  22  38  62  88 104 158 220 252 272 345
#     4   9  20  34  54  90 126 153 187 243 319 366
#     4  10  22  36  58  86 114 162 213 250 283 354
#     4  10  22  38  58  86 118 164 211 246 301 353
#     4  11  21  35  58  90 126 156 192 256 314 367
#     4  10  18  35  57  84 123 160 203 242 299 372
#
# _framework density 18.808934000000001
#
# number of rings (size 3 to 8) (size 9 to 14) (size 15 to 20)
#    0.462    1.538    3.077    2.308    0.000    3.077 
#    4.154    0.000    0.000   12.000    0.000    0.000 
#    0.000    0.000    0.000    0.000    0.000    0.000 
#
# Total GULP energy -322201.230740 kJ/mol
# GULP energy per Si atom -12392.355028 kJ/mol
# Density = 1.876612 g / cm^3
# Si number density = 18.808934 Si / 1000 Ang^3
#
#
#
# Elastic Constant Matrix: (Units=GPa)
#
#
# Indices 1 2 3 4 5 6 
#
# 1 162.6236 43.1213 57.7232 0.0000 0.0000 0.0000
# 2 43.1213 97.3092 31.7430 0.0000 0.0000 0.0000
# 3 57.7232 31.7430 79.7105 0.0000 0.0000 0.0000
# 4 0.0000 0.0000 0.0000 19.4891 0.0000 0.0000
# 5 0.0000 0.0000 0.0000 0.0000-1397.5267 0.0000
# 6 0.0000 0.0000 0.0000 0.0000 0.0000 19.1508
#
#
#
# Elastic Compliance Matrix: (Units=1/GPa)
#
#
# Indices 1 2 3 4 5 6 
#
# 1 0.008618 -0.002049 -0.005425 0.000000 0.000000 0.000000
# 2 -0.002049 0.012298 -0.003413 0.000000 0.000000 0.000000
# 3 -0.005425 -0.003413 0.017833 0.000000 0.000000 0.000000
# 4 0.000000 0.000000 0.000000 0.051311 0.000000 0.000000
# 5 0.000000 0.000000 0.000000 0.000000 -0.000716 0.000000
# 6 0.000000 0.000000 0.000000 0.000000 0.000000 0.052217
#
#
# Mechanical properties :
#
#
# Convention : Reuss Voigt Hill
#
# Bulk Modulus (GPa) = 58.91268 67.20204 63.05736
# Shear Modulus (GPa) = 29.58670 -257.97364 -114.19347
#
# Velocity S-wave (km/s) = 3.97043 -11.72402 -7.80027
# Velocity P-wave (km/s) = 7.23938 12.14347 6.89402
#
# Compressibility (1/GPa) = 0.01697427
#
# Stress axis : x y z
#
# Youngs Moduli (GPa) = 116.03479 81.31296 56.07551
#
# Poissons Ratio (x) = 0.16664 0.30420
# Poissons Ratio (y) = 0.23780 0.19141
# Poissons Ratio (z) = 0.62946 0.27755
#
# Static dielectric constant tensor:
#      x y z
#    x 3.781610 0.000000 0.000000 
#    y 0.000000 3.397610 0.000000 
#    z 0.000000 0.000000 3.258810 
# 
# 
# High freq. dielectric constant tensor:
#      x y z
#    x 1.742770 0.000000 0.000000 
#    y 0.000000 1.722270 0.000000 
#    z 0.000000 0.000000 1.700400 
# 
# From -- ./inp_files/21992.got.cif
#   From: 2010.03.12/outbox.cif.g09.slc.cpg/sg46_11_cif.got.tgz:21992.got - 2010.04.14 02:56:35.
