data_PCOD8191469
_publ_section_title
;
Structure prediction by ZEFSAII (Michael W. Deem and Ramdas Pophale) SiO2 
 PCOD8191469
Probable space group: I M A 2
;
_chemical_formula_sum "Si O2"
_cell_formula_units_Z 48
_cell_length_a 8.668009
_cell_length_b 9.565017
_cell_length_c 30.337494
_cell_angle_alpha 90.000000
_cell_angle_beta 90.000000
_cell_angle_gamma 90.000000
_cell_volume 2515.271114
_symmetry_space_group_name_H-M "I M A 2"
_symmetry_group_IT_number 46
_symmetry_cell_setting 'orthorhombic'
loop_
_space_group_symop_operation_xyz
x,y,z
-x,-y,z
1/2-x,y,z
1/2+x,-y,z
1/2+x,1/2+y,1/2+z
1/2-x,1/2-y,1/2+z
-x,1/2+y,1/2+z
x,1/2-y,1/2+z
loop_
_atom_site_type_symbol
_atom_site_label
_atom_site_fract_x
_atom_site_fract_y
_atom_site_fract_z
Si Si1 0.429868 0.146553 0.606960
Si Si2 0.933238 0.655225 0.764846
Si Si3 0.570931 0.647051 0.004304
Si Si4 0.932337 0.346642 0.854111
Si Si5 0.567878 0.153324 0.176439
Si Si6 0.931467 0.347218 0.435238
O O1 0.250000 0.150740 0.618581
O O2 0.461028 0.172659 0.555626
O O3 0.520509 0.264762 0.632960
O O4 0.500000 0.000000 0.622144
O O5 0.750000 0.656297 0.764482
O O6 0.000000 0.500000 0.764754
O O7 0.996564 0.724574 0.809851
O O8 0.997817 0.728720 0.720396
O O9 0.500000 0.500000 0.988463
O O10 0.750000 0.642098 0.992967
O O11 0.493944 0.776297 0.979508
O O12 0.750000 0.359661 0.848849
O O13 0.981911 0.246695 0.893868
O O14 0.000000 0.500000 0.863321
O O15 0.750000 0.145434 0.180971
O O16 0.500000 0.000000 0.171323
O O17 0.750000 0.360261 0.439120
O O18 0.000000 0.500000 0.429288
#
# Coordination Sequence:
#
# PCOD8191469 Si02
#       6
#     8   8   8   8   8   8
#     4  10  21  38  58  83 112 145 183 226 274 326
#     4  10  18  31  53  80 109 142 181 227 272 321
#     4  10  21  38  61  84 110 143 184 228 271 324
#     4  10  20  35  56  82 108 141 183 226 271 324
#     4  11  21  35  56  82 113 148 185 229 275 325
#     4  11  24  39  57  81 113 147 182 226 278 330
#
# _framework density 19.08343
#
# number of rings (size 3 to 8) (size 9 to 14) (size 15 to 20)
#    0.000    1.667    0.000    7.500    0.000    6.667 
#    0.000    0.833    0.000    2.000    0.000    0.000 
#    0.000    0.000    0.000    0.000    0.000    0.000 
#
# Total GULP energy -297637.436315 kJ/mol
# GULP energy per Si atom -12401.559846 kJ/mol
# Density = 1.904000 g / cm^3
# Si number density = 19.083430 Si / 1000 Ang^3
#
#
#
# Elastic Constant Matrix: (Units=GPa)
#
#
# Indices 1 2 3 4 5 6 
#
# 1 133.4662 54.4097 62.3499 0.0000 0.0000 0.0000
# 2 54.4097 105.9657 65.8889 0.0000 0.0000 0.0000
# 3 62.3499 65.8889 108.9148 0.0000 0.0000 0.0000
# 4 0.0000 0.0000 0.0000 24.6772 0.0000 0.0000
# 5 0.0000 0.0000 0.0000 0.0000 32.1848 0.0000
# 6 0.0000 0.0000 0.0000 0.0000 0.0000 33.3124
#
#
#
# Elastic Compliance Matrix: (Units=1/GPa)
#
#
# Indices 1 2 3 4 5 6 
#
# 1 0.010688 -0.002699 -0.004486 0.000000 0.000000 0.000000
# 2 -0.002699 0.015809 -0.008019 0.000000 0.000000 0.000000
# 3 -0.004486 -0.008019 0.016601 0.000000 0.000000 0.000000
# 4 0.000000 0.000000 0.000000 0.040523 0.000000 0.000000
# 5 0.000000 0.000000 0.000000 0.000000 0.031071 0.000000
# 6 0.000000 0.000000 0.000000 0.000000 0.000000 0.030019
#
#
# Mechanical properties :
#
#
# Convention : Reuss Voigt Hill
#
# Bulk Modulus (GPa) = 78.79796 79.29373 79.04585
# Shear Modulus (GPa) = 27.87881 29.08143 28.48012
#
# Velocity S-wave (km/s) = 3.82631 3.90796 3.86735
# Velocity P-wave (km/s) = 7.80396 7.87427 7.83920
#
# Compressibility (1/GPa) = 0.01269068
#
# Stress axis : x y z
#
# Youngs Moduli (GPa) = 93.55890 63.25651 60.23865
#
# Poissons Ratio (x) = 0.17071 0.27024
# Poissons Ratio (y) = 0.25248 0.48303
# Poissons Ratio (z) = 0.41972 0.50723
#
# Static dielectric constant tensor:
#      x y z
#    x 3.640780 0.000000 0.000000 
#    y 0.000000 3.269490 0.000000 
#    z 0.000000 0.000000 4.092960 
# 
# 
# High freq. dielectric constant tensor:
#      x y z
#    x 1.763940 0.000000 0.000000 
#    y 0.000000 1.714020 0.000000 
#    z 0.000000 0.000000 1.761400 
# 
# From -- ./inp_files/24995.got.cif
#   From: 2010.03.12/outbox.cif.g09.slc.cpg/sg46_13_cif.got.tgz:24995.got - 2010.04.14 02:56:35.
