data_PCOD8191008
_publ_section_title
;
Structure prediction by ZEFSAII (Michael W. Deem and Ramdas Pophale) SiO2 
 PCOD8191008
Probable space group: I B A 2
;
_chemical_formula_sum "Si O2"
_cell_formula_units_Z 52
_cell_length_a 7.422967
_cell_length_b 21.308767
_cell_length_c 14.686636
_cell_angle_alpha 90.000000
_cell_angle_beta 90.000000
_cell_angle_gamma 90.000000
_cell_volume 2323.047990
_symmetry_space_group_name_H-M "I B A 2"
_symmetry_group_IT_number 45
_symmetry_cell_setting 'orthorhombic'
loop_
_space_group_symop_operation_xyz
x,y,z
-x,-y,z
-x,y,1/2+z
x,-y,1/2+z
1/2+x,1/2+y,1/2+z
1/2-x,1/2-y,1/2+z
1/2-x,1/2+y,z
1/2+x,1/2-y,z
loop_
_atom_site_type_symbol
_atom_site_label
_atom_site_fract_x
_atom_site_fract_y
_atom_site_fract_z
Si Si1 0.144585 0.197065 0.558930
Si Si2 0.144585 0.802935 0.856474
Si Si3 0.000000 0.000000 0.707703
Si Si4 0.132827 0.092409 0.061451
Si Si5 0.036420 0.328923 0.607968
Si Si6 0.463579 0.171077 0.807435
Si Si7 0.132828 0.907591 0.353954
O O1 0.079859 0.215164 0.457702
O O2 0.126092 0.259886 0.618503
O O3 0.348886 0.173063 0.554602
O O4 0.016360 0.142200 0.595889
O O5 0.348886 0.826937 0.860800
O O6 0.126091 0.740114 0.796901
O O7 0.016359 0.857801 0.819515
O O8 0.128753 0.038573 0.776984
O O9 0.871248 0.038573 0.638421
O O10 0.328972 0.124030 0.057437
O O11 0.090987 0.068379 0.957702
O O12 0.999996 0.355761 0.707702
O O13 0.328971 0.124031 0.857968
#
# Coordination Sequence:
#
# PCOD8191008 Si02
#       7
#     8   8   4   8   8   8   8
#     4  11  22  38  64  99 135 169 207 264 339 409
#     4  11  22  38  64  99 135 169 207 264 339 409
#     4  12  26  48  70  90 128 186 242 274 310 386
#     4  11  25  45  69  97 135 178 221 276 333 391
#     4  12  23  37  65 102 139 168 210 270 340 404
#     4  12  23  37  65 102 139 168 210 270 340 404
#     4  11  25  45  69  97 135 178 221 276 333 391
#
# _framework density 22.384387
#
# number of rings (size 3 to 8) (size 9 to 14) (size 15 to 20)
#    0.000    0.615    3.077    6.000    2.154    0.000 
#    0.000    6.923    0.000   11.077    0.000    0.000 
#    0.000    0.000    0.000    0.000    0.000    0.000 
#
# Total GULP energy -322419.341097 kJ/mol
# GULP energy per Si atom -12400.743888 kJ/mol
# Density = 2.233344 g / cm^3
# Si number density = 22.384387 Si / 1000 Ang^3
#
#
#
# Elastic Constant Matrix: (Units=GPa)
#
#
# Indices 1 2 3 4 5 6 
#
# 1 138.6826 40.7331 9.0335 0.0000 0.0000 0.0000
# 2 40.7331 92.5524 42.4374 0.0000 0.0000 0.0000
# 3 9.0335 42.4374 118.6381 -0.0001 0.0000 0.0000
# 4 0.0000 0.0000 -0.0001 34.5731 0.0000 0.0000
# 5 0.0000 0.0000 0.0000 0.0000 31.6550 0.0000
# 6 0.0000 0.0000 0.0000 0.0000 0.0000 11.5157
#
#
#
# Elastic Compliance Matrix: (Units=1/GPa)
#
#
# Indices 1 2 3 4 5 6 
#
# 1 0.008346 -0.004045 0.000812 0.000000 0.000000 0.000000
# 2 -0.004045 0.014885 -0.005016 0.000000 0.000000 0.000000
# 3 0.000812 -0.005016 0.010162 0.000000 0.000000 0.000000
# 4 0.000000 0.000000 0.000000 0.028924 0.000000 0.000000
# 5 0.000000 0.000000 0.000000 0.000000 0.031591 0.000000
# 6 0.000000 0.000000 0.000000 0.000000 0.000000 0.086838
#
#
# Mechanical properties :
#
#
# Convention : Reuss Voigt Hill
#
# Bulk Modulus (GPa) = 59.19827 59.36458 59.28142
# Shear Modulus (GPa) = 24.64547 32.72668 28.68608
#
# Velocity S-wave (km/s) = 3.32175 3.82780 3.58372
# Velocity P-wave (km/s) = 6.41994 6.79074 6.60794
#
# Compressibility (1/GPa) = 0.01689239
#
# Stress axis : x y z
#
# Youngs Moduli (GPa) = 119.81789 67.18076 98.40945
#
# Poissons Ratio (x) = 0.27176 -0.07986
# Poissons Ratio (y) = 0.48469 0.49367
# Poissons Ratio (z) = -0.09723 0.33701
#
# Static dielectric constant tensor:
#      x y z
#    x 3.969760 0.000000 0.000000 
#    y 0.000000 3.803520 0.000000 
#    z 0.000000 0.000000 4.109400 
# 
# 
# High freq. dielectric constant tensor:
#      x y z
#    x 1.885310 0.000000 0.000000 
#    y 0.000000 1.849090 0.000000 
#    z 0.000000 0.000000 1.899590 
# 
# From -- ./inp_files/5694.got.cif
#   From: 2010.03.12/outbox.cif.g09.slc.cpg/sg45_3_cif.got.tgz:5694.got - 2010.04.14 02:50:11.
