data_PCOD8191541
_publ_section_title
;
Structure prediction by ZEFSAII (Michael W. Deem and Ramdas Pophale) SiO2 
 PCOD8191541
Probable space group: I M A 2
;
_chemical_formula_sum "Si O2"
_cell_formula_units_Z 48
_cell_length_a 16.249442
_cell_length_b 8.956331
_cell_length_c 17.662497
_cell_angle_alpha 90.000000
_cell_angle_beta 90.000000
_cell_angle_gamma 90.000000
_cell_volume 2570.518232
_symmetry_space_group_name_H-M "I M A 2"
_symmetry_group_IT_number 46
_symmetry_cell_setting 'orthorhombic'
loop_
_space_group_symop_operation_xyz
x,y,z
-x,-y,z
1/2-x,y,z
1/2+x,-y,z
1/2+x,1/2+y,1/2+z
1/2-x,1/2-y,1/2+z
-x,1/2+y,1/2+z
x,1/2-y,1/2+z
loop_
_atom_site_type_symbol
_atom_site_label
_atom_site_fract_x
_atom_site_fract_y
_atom_site_fract_z
Si Si1 0.577089 0.904569 0.489910
Si Si2 0.343486 0.616382 0.870091
Si Si3 0.840370 0.733368 0.613705
Si Si4 0.157399 0.916714 0.065806
Si Si5 0.464330 0.659386 0.432683
Si Si6 0.405147 0.493469 0.717776
O O1 0.619227 0.870634 0.570160
O O2 0.545737 0.756687 0.447055
O O3 0.500000 0.000000 0.514359
O O4 0.637599 0.998764 0.436644
O O5 0.250000 0.673368 0.879244
O O6 0.405749 0.758878 0.871003
O O7 0.351931 0.530481 0.791082
O O8 0.750000 0.783063 0.639476
O O9 0.836815 0.595381 0.553613
O O10 0.887624 0.676863 0.689308
O O11 0.250000 0.846988 0.056785
O O12 0.121669 0.890352 0.151109
O O13 0.091780 0.848489 0.008088
O O14 0.500000 0.500000 0.404786
O O15 0.500000 0.500000 0.739500
#
# Coordination Sequence:
#
# PCOD8191541 Si02
#       6
#     8   8   8   8   8   8
#     4  10  20  33  54  84 115 150 186 234 286 332
#     4  11  23  37  54  84 119 149 187 243 296 340
#     4   9  17  31  54  82 107 144 191 230 270 330
#     4   9  17  30  55  85 108 141 190 235 271 327
#     4  11  19  34  56  83 113 148 192 232 280 342
#     4  10  18  33  56  82 107 142 191 233 280 336
#
# _framework density 18.673278
#
# number of rings (size 3 to 8) (size 9 to 14) (size 15 to 20)
#    1.000    1.000    1.667    5.000    0.000    0.000 
#    0.000    0.000    0.000   15.000    0.000   18.667 
#    0.000    0.000    0.000    0.000    0.000    0.000 
#
# Total GULP energy -297345.369684 kJ/mol
# GULP energy per Si atom -12389.390403 kJ/mol
# Density = 1.863078 g / cm^3
# Si number density = 18.673278 Si / 1000 Ang^3
#
#
#
# Elastic Constant Matrix: (Units=GPa)
#
#
# Indices 1 2 3 4 5 6 
#
# 1 113.5457 31.2809 24.5401 0.0000 0.0000 0.0000
# 2 31.2809 81.9135 28.9202 0.0000 0.0000 0.0000
# 3 24.5401 28.9202 89.8154 0.0000 0.0000 0.0000
# 4 0.0000 0.0000 0.0000 28.3018 0.0000 0.0000
# 5 0.0000 0.0000 0.0000 0.0000 27.6790 0.0000
# 6 0.0000 0.0000 0.0000 0.0000 0.0000 24.9171
#
#
#
# Elastic Compliance Matrix: (Units=1/GPa)
#
#
# Indices 1 2 3 4 5 6 
#
# 1 0.010069 -0.003243 -0.001707 0.000000 0.000000 0.000000
# 2 -0.003243 0.014818 -0.003885 0.000000 0.000000 0.000000
# 3 -0.001707 -0.003885 0.012851 0.000000 0.000000 0.000000
# 4 0.000000 0.000000 0.000000 0.035333 0.000000 0.000000
# 5 0.000000 0.000000 0.000000 0.000000 0.036129 0.000000
# 6 0.000000 0.000000 0.000000 0.000000 0.000000 0.040133
#
#
# Mechanical properties :
#
#
# Convention : Reuss Voigt Hill
#
# Bulk Modulus (GPa) = 49.82892 50.52857 50.17874
# Shear Modulus (GPa) = 28.78634 29.54846 29.16740
#
# Velocity S-wave (km/s) = 3.93055 3.98225 3.95648
# Velocity P-wave (km/s) = 6.88052 6.94711 6.91390
#
# Compressibility (1/GPa) = 0.02006867
#
# Stress axis : x y z
#
# Youngs Moduli (GPa) = 99.31214 67.48545 77.81217
#
# Poissons Ratio (x) = 0.21882 0.13284
# Poissons Ratio (y) = 0.32202 0.30233
# Poissons Ratio (z) = 0.16954 0.26221
#
# Static dielectric constant tensor:
#      x y z
#    x 3.599280 0.000000 0.000000 
#    y 0.000000 3.350740 0.000000 
#    z 0.000000 0.000000 3.129550 
# 
# 
# High freq. dielectric constant tensor:
#      x y z
#    x 1.743820 0.000000 0.000000 
#    y 0.000000 1.696190 0.000000 
#    z 0.000000 0.000000 1.699430 
# 
# From -- ./inp_files/22163.got.cif
#   From: 2010.03.12/outbox.cif.g09.slc.cpg/sg46_12_cif.got.tgz:22163.got - 2010.04.14 02:56:35.
