data_PCOD8191195
_publ_section_title
;
Structure prediction by ZEFSAII (Michael W. Deem and Ramdas Pophale) SiO2 
 PCOD8191195
Probable space group: I M A 2
;
_chemical_formula_sum "Si O2"
_cell_formula_units_Z 56
_cell_length_a 8.537189
_cell_length_b 13.661265
_cell_length_c 29.412439
_cell_angle_alpha 90.000000
_cell_angle_beta 90.000000
_cell_angle_gamma 90.000000
_cell_volume 3430.337503
_symmetry_space_group_name_H-M "I M A 2"
_symmetry_group_IT_number 46
_symmetry_cell_setting 'orthorhombic'
loop_
_space_group_symop_operation_xyz
x,y,z
-x,-y,z
1/2-x,y,z
1/2+x,-y,z
1/2+x,1/2+y,1/2+z
1/2-x,1/2-y,1/2+z
-x,1/2+y,1/2+z
x,1/2-y,1/2+z
loop_
_atom_site_type_symbol
_atom_site_label
_atom_site_fract_x
_atom_site_fract_y
_atom_site_fract_z
Si Si1 0.065215 0.391390 0.228200
Si Si2 0.436298 0.109008 0.913802
Si Si3 0.065216 0.294043 0.504612
Si Si4 0.935940 0.894389 0.095449
Si Si5 0.064363 0.103705 0.554500
Si Si6 0.564972 0.292835 0.140811
Si Si7 0.935474 0.390885 0.321334
O O1 0.250000 0.398322 0.230623
O O2 0.000000 0.500000 0.220164
O O3 0.012106 0.320411 0.188368
O O4 0.000917 0.342677 0.275109
O O5 0.250000 0.106215 0.912526
O O6 0.500482 0.159993 0.867497
O O7 0.500000 0.000000 0.919777
O O8 0.503238 0.172718 0.956049
O O9 0.250000 0.297921 0.502032
O O10 0.008530 0.367866 0.544261
O O11 0.010802 0.183952 0.517089
O O12 0.750000 0.890006 0.100172
O O13 0.010584 0.816796 0.129868
O O14 0.000000 0.000000 0.108951
O O15 0.250000 0.101486 0.560062
O O16 0.991464 0.130066 0.603089
O O17 0.000000 0.000000 0.537492
O O18 0.750000 0.298412 0.144951
O O19 0.750000 0.389216 0.321063
O O20 0.000000 0.500000 0.322482
#
# Coordination Sequence:
#
# PCOD8191195 Si02
#       7
#     8   8   8   8   8   8   8
#     4  11  20  32  48  68  93 123 154 189 229 276
#     4  10  17  28  44  65  91 122 152 185 225 269
#     4   8  17  30  46  66  92 122 156 190 226 269
#     4  10  19  33  49  69  95 125 157 194 231 270
#     4  10  19  33  48  67  93 123 156 194 232 273
#     4  11  21  33  48  69  93 123 157 191 229 275
#     4  10  18  29  43  64  91 120 150 185 225 272
#
# _framework density 16.324925
#
# number of rings (size 3 to 8) (size 9 to 14) (size 15 to 20)
#    0.000    2.000    0.000    8.571    0.000    0.000 
#    0.000    7.857    0.000    0.000    0.000    1.000 
#    0.000    2.286    0.000    0.000    0.000    0.000 
#
# Total GULP energy -347140.786011 kJ/mol
# GULP energy per Si atom -12397.885215 kJ/mol
# Density = 1.628777 g / cm^3
# Si number density = 16.324925 Si / 1000 Ang^3
#
#
#
# Elastic Constant Matrix: (Units=GPa)
#
#
# Indices 1 2 3 4 5 6 
#
# 1 85.0223 5.9806 30.0229 0.0000 0.0000 0.0000
# 2 5.9806 72.8777 42.7338 0.0000 0.0000 0.0000
# 3 30.0229 42.7338 148.5768 0.0000 0.0000 0.0000
# 4 0.0000 0.0000 0.0000 21.9251 0.0000 0.0000
# 5 0.0000 0.0000 0.0000 0.0000 23.3667 0.0000
# 6 0.0000 0.0000 0.0000 0.0000 0.0000 23.4876
#
#
#
# Elastic Compliance Matrix: (Units=1/GPa)
#
#
# Indices 1 2 3 4 5 6 
#
# 1 0.012684 0.000556 -0.002723 0.000000 0.000000 0.000000
# 2 0.000556 0.016530 -0.004867 0.000000 0.000000 0.000000
# 3 -0.002723 -0.004867 0.008680 0.000000 0.000000 0.000000
# 4 0.000000 0.000000 0.000000 0.045610 0.000000 0.000000
# 5 0.000000 0.000000 0.000000 0.000000 0.042796 0.000000
# 6 0.000000 0.000000 0.000000 0.000000 0.000000 0.042576
#
#
# Mechanical properties :
#
#
# Convention : Reuss Voigt Hill
#
# Bulk Modulus (GPa) = 41.96971 51.55017 46.75994
# Shear Modulus (GPa) = 26.19374 28.93851 27.56613
#
# Velocity S-wave (km/s) = 4.01000 4.21486 4.11371
# Velocity P-wave (km/s) = 6.87058 7.43861 7.16023
#
# Compressibility (1/GPa) = 0.02382671
#
# Stress axis : x y z
#
# Youngs Moduli (GPa) = 78.83926 60.49728 115.20106
#
# Poissons Ratio (x) = -0.03362 0.31368
# Poissons Ratio (y) = -0.04382 0.56064
# Poissons Ratio (z) = 0.21467 0.29442
#
# Static dielectric constant tensor:
#      x y z
#    x 3.130770 0.000000 0.000000 
#    y 0.000000 2.898450 0.000000 
#    z 0.000000 0.000000 3.740240 
# 
# 
# High freq. dielectric constant tensor:
#      x y z
#    x 1.641270 0.000000 0.000000 
#    y 0.000000 1.593900 0.000000 
#    z 0.000000 0.000000 1.632560 
# 
# From -- ./inp_files/25255.got.cif
#   From: 2010.03.12/outbox.cif.g09.slc.cpg/sg46_13_cif.got.tgz:25255.got - 2010.04.14 02:56:35.
