data_PCOD8191723
_publ_section_title
;
Structure prediction by ZEFSAII (Michael W. Deem and Ramdas Pophale) SiO2 
 PCOD8191723
Probable space group: I M A 2
;
_chemical_formula_sum "Si O2"
_cell_formula_units_Z 64
_cell_length_a 9.085682
_cell_length_b 29.770354
_cell_length_c 14.198752
_cell_angle_alpha 90.000000
_cell_angle_beta 90.000000
_cell_angle_gamma 90.000000
_cell_volume 3840.534803
_symmetry_space_group_name_H-M "I M A 2"
_symmetry_group_IT_number 46
_symmetry_cell_setting 'orthorhombic'
loop_
_space_group_symop_operation_xyz
x,y,z
-x,-y,z
1/2-x,y,z
1/2+x,-y,z
1/2+x,1/2+y,1/2+z
1/2-x,1/2-y,1/2+z
-x,1/2+y,1/2+z
x,1/2-y,1/2+z
loop_
_atom_site_type_symbol
_atom_site_label
_atom_site_fract_x
_atom_site_fract_y
_atom_site_fract_z
Si Si1 0.913453 0.823770 0.258190
Si Si2 0.077560 0.783088 0.970620
Si Si3 0.921397 0.544536 0.855507
Si Si4 0.578890 0.367803 0.596841
Si Si5 0.077139 0.045639 0.137849
Si Si6 0.582987 0.720945 0.272824
Si Si7 0.919799 0.635215 0.953538
Si Si8 0.423714 0.696672 0.091519
O O1 0.750000 0.843311 0.233305
O O2 0.920998 0.771610 0.235998
O O3 0.944295 0.830344 0.368103
O O4 0.036654 0.849191 0.199297
O O5 0.250000 0.778538 0.949611
O O6 0.991318 0.783433 0.873639
O O7 0.039011 0.830170 0.020256
O O8 0.025173 0.741678 0.036215
O O9 0.750000 0.535973 0.864332
O O10 0.962799 0.554880 0.747197
O O11 0.971546 0.585851 0.920771
O O12 0.000000 0.500000 0.893197
O O13 0.750000 0.379669 0.596712
O O14 0.487781 0.413250 0.576284
O O15 0.250000 0.041475 0.120147
O O16 0.000000 0.000000 0.103310
O O17 0.750000 0.703212 0.279967
O O18 0.494706 0.693016 0.194820
O O19 0.750000 0.635040 0.986206
O O20 0.022391 0.652115 0.037657
O O21 0.250000 0.695600 0.103281
#
# Coordination Sequence:
#
# PCOD8191723 Si02
#       8
#     8   8   8   8   8   8   8   8
#     4  10  19  31  48  71 102 136 172 213 252 295
#     4  10  22  36  50  72 103 136 172 212 256 303
#     4   9  18  31  48  70 101 133 166 208 252 298
#     4  11  21  33  50  74 103 139 175 210 254 306
#     4  10  19  33  50  74 104 136 171 210 256 304
#     4  11  22  35  53  73  98 136 177 217 256 297
#     4  10  19  34  50  72 102 136 175 212 250 299
#     4  11  22  35  51  74 103 136 171 212 257 303
#
# _framework density 16.664345000000001
#
# number of rings (size 3 to 8) (size 9 to 14) (size 15 to 20)
#    0.000    1.750    3.750    1.500    0.000    3.500 
#    0.000    0.000    0.000    0.000    0.000    0.875 
#    0.000    2.000    0.000    0.000    0.000    0.000 
#
# Total GULP energy -396844.756642 kJ/mol
# GULP energy per Si atom -12401.398645 kJ/mol
# Density = 1.662642 g / cm^3
# Si number density = 16.664345 Si / 1000 Ang^3
#
#
#
# Elastic Constant Matrix: (Units=GPa)
#
#
# Indices 1 2 3 4 5 6 
#
# 1 71.0717 43.8904 40.0715 0.0007 -0.0003 -0.0001
# 2 43.8904 89.7134 25.9605 0.0002 -0.0001 -0.0001
# 3 40.0715 25.9605 68.6346 0.0019 0.0007 0.0003
# 4 0.0007 0.0002 0.0019 22.8790 0.0005 0.0002
# 5 -0.0003 -0.0001 0.0007 0.0005 28.2924 0.0002
# 6 -0.0001 -0.0001 0.0003 0.0002 0.0002 30.8518
#
#
#
# Elastic Compliance Matrix: (Units=1/GPa)
#
#
# Indices 1 2 3 4 5 6 
#
# 1 0.026779 -0.009631 -0.011992 0.000000 0.000001 0.000000
# 2 -0.009631 0.015980 -0.000421 0.000000 0.000000 0.000000
# 3 -0.011992 -0.000421 0.021731 -0.000001 -0.000001 0.000000
# 4 0.000000 0.000000 -0.000001 0.043708 -0.000001 0.000000
# 5 0.000001 0.000000 -0.000001 -0.000001 0.035345 0.000000
# 6 0.000000 0.000000 0.000000 0.000000 0.000000 0.032413
#
#
# Mechanical properties :
#
#
# Convention : Reuss Voigt Hill
#
# Bulk Modulus (GPa) = 49.01615 49.91827 49.46721
# Shear Modulus (GPa) = 22.04141 24.37113 23.20627
#
# Velocity S-wave (km/s) = 3.64080 3.82838 3.73576
# Velocity P-wave (km/s) = 6.86670 7.04004 6.95391
#
# Compressibility (1/GPa) = 0.02040144
#
# Stress axis : x y z
#
# Youngs Moduli (GPa) = 37.34245 62.57685 46.01805
#
# Poissons Ratio (x) = 0.60268 0.55184
# Poissons Ratio (y) = 0.35965 0.01940
# Poissons Ratio (z) = 0.44780 0.02637
#
# Static dielectric constant tensor:
#      x y z
#    x 3.169090 0.000000 0.000000 
#    y 0.000000 3.170530 0.000000 
#    z 0.000000 0.000000 2.869320 
# 
# 
# High freq. dielectric constant tensor:
#      x y z
#    x 1.650610 0.000000 0.000000 
#    y 0.000000 1.636080 0.000000 
#    z 0.000000 0.000000 1.610970 
# 
# From -- ./inp_files/9656.got.cif
#   From: 2010.03.12/outbox.cif.g09.slc.cpg/sg46_5_cif.got.tgz:9656.got - 2010.04.14 02:56:35.
