data_PCOD8191831
_publ_section_title
;
Structure prediction by ZEFSAII (Michael W. Deem and Ramdas Pophale) SiO2 
 PCOD8191831
Probable space group: I M A 2
;
_chemical_formula_sum "Si O2"
_cell_formula_units_Z 64
_cell_length_a 9.127861
_cell_length_b 15.997926
_cell_length_c 22.567048
_cell_angle_alpha 90.000000
_cell_angle_beta 90.000000
_cell_angle_gamma 90.000000
_cell_volume 3295.394816
_symmetry_space_group_name_H-M "I M A 2"
_symmetry_group_IT_number 46
_symmetry_cell_setting 'orthorhombic'
loop_
_space_group_symop_operation_xyz
x,y,z
-x,-y,z
1/2-x,y,z
1/2+x,-y,z
1/2+x,1/2+y,1/2+z
1/2-x,1/2-y,1/2+z
-x,1/2+y,1/2+z
x,1/2-y,1/2+z
loop_
_atom_site_type_symbol
_atom_site_label
_atom_site_fract_x
_atom_site_fract_y
_atom_site_fract_z
Si Si1 0.081216 0.745263 0.363030
Si Si2 0.081364 0.807675 0.732528
Si Si3 0.926901 0.413212 0.557059
Si Si4 0.576738 0.367445 0.688249
Si Si5 0.915640 0.588540 0.020386
Si Si6 0.424816 0.269005 0.479250
Si Si7 0.912175 0.579343 0.150507
Si Si8 0.078413 0.577985 0.813441
O O1 0.250000 0.739968 0.383857
O O2 0.058358 0.693529 0.302871
O O3 0.034434 0.840250 0.349700
O O4 0.975889 0.706549 0.412936
O O5 0.250000 0.821878 0.716595
O O6 0.019479 0.726526 0.698418
O O7 0.987007 0.881932 0.707368
O O8 0.750000 0.416084 0.549848
O O9 0.977022 0.404292 0.625849
O O10 0.000000 0.500000 0.533778
O O11 0.992163 0.333152 0.522974
O O12 0.750000 0.364496 0.690753
O O13 0.520218 0.419089 0.745199
O O14 0.750000 0.568478 0.000566
O O15 0.976166 0.671462 0.986547
O O16 0.000000 0.500000 0.008948
O O17 0.915962 0.626744 0.087523
O O18 0.250000 0.279280 0.486794
O O19 0.750000 0.556729 0.171114
O O20 0.000000 0.500000 0.130946
O O21 0.250000 0.564496 0.814893
O O22 0.000000 0.500000 0.845147
#
# Coordination Sequence:
#
# PCOD8191831 Si02
#       8
#     8   8   8   8   8   8   8   8
#     4   9  20  37  54  73 101 139 180 219 261 313
#     4   9  17  33  55  77 103 135 172 213 259 313
#     4  11  22  37  58  83 111 144 183 225 273 326
#     4   8  16  31  53  80 108 139 171 207 258 320
#     4   9  20  36  55  82 114 146 180 221 268 323
#     4  11  23  39  57  79 109 144 186 233 275 317
#     4  10  19  32  51  77 107 135 167 209 261 318
#     4   9  17  31  51  77 109 140 171 209 256 312
#
# _framework density 19.421042
#
# number of rings (size 3 to 8) (size 9 to 14) (size 15 to 20)
#    0.000    2.500    0.000    3.750    0.000    3.000 
#    0.000    6.250    0.000    3.000    0.000    0.000 
#    0.000    0.000    0.000    0.000    0.000    0.000 
#
# Total GULP energy -396429.048686 kJ/mol
# GULP energy per Si atom -12388.407771 kJ/mol
# Density = 1.937684 g / cm^3
# Si number density = 19.421042 Si / 1000 Ang^3
#
#
#
# Elastic Constant Matrix: (Units=GPa)
#
#
# Indices 1 2 3 4 5 6 
#
# 1 73.7014 30.7146 35.9093 0.0000 0.0000 0.0000
# 2 30.7146 67.7179 26.9023 0.0000 0.0000 0.0000
# 3 35.9093 26.9023 69.5880 0.0000 0.0000 0.0000
# 4 0.0000 0.0000 0.0000 13.5306 0.0000 0.0000
# 5 0.0000 0.0000 0.0000 0.0000 37.0777 0.0000
# 6 0.0000 0.0000 0.0000 0.0000 0.0000 35.0214
#
#
#
# Elastic Compliance Matrix: (Units=1/GPa)
#
#
# Indices 1 2 3 4 5 6 
#
# 1 0.019909 -0.005847 -0.008013 0.000000 0.000000 0.000000
# 2 -0.005847 0.019164 -0.004391 0.000000 0.000000 0.000000
# 3 -0.008013 -0.004391 0.020203 0.000000 0.000000 0.000000
# 4 0.000000 0.000000 0.000000 0.073907 0.000000 0.000000
# 5 0.000000 0.000000 0.000000 0.000000 0.026970 0.000000
# 6 0.000000 0.000000 0.000000 0.000000 0.000000 0.028554
#
#
# Mechanical properties :
#
#
# Convention : Reuss Voigt Hill
#
# Bulk Modulus (GPa) = 43.91196 44.22883 44.07039
# Shear Modulus (GPa) = 21.47758 24.95801 23.21779
#
# Velocity S-wave (km/s) = 3.32910 3.58872 3.46135
# Velocity P-wave (km/s) = 6.11856 6.32416 6.22221
#
# Compressibility (1/GPa) = 0.02277284
#
# Stress axis : x y z
#
# Youngs Moduli (GPa) = 50.22816 52.18227 49.49725
#
# Poissons Ratio (x) = 0.30509 0.39664
# Poissons Ratio (y) = 0.29367 0.21737
# Poissons Ratio (z) = 0.40250 0.22916
#
# Static dielectric constant tensor:
#      x y z
#    x 2.550700 0.000000 0.000000 
#    y 0.000000 3.458160 0.000000 
#    z 0.000000 0.000000 3.559500 
# 
# 
# High freq. dielectric constant tensor:
#      x y z
#    x 1.744660 0.000000 0.000000 
#    y 0.000000 1.747270 0.000000 
#    z 0.000000 0.000000 1.756010 
# 
# From -- ./inp_files/23247.got.cif
#   From: 2010.03.12/outbox.cif.g09.slc.cpg/sg46_12_cif.got.tgz:23247.got - 2010.04.14 02:56:35.
