data_PCOD8191287
_publ_section_title
;
Structure prediction by ZEFSAII (Michael W. Deem and Ramdas Pophale) SiO2 
 PCOD8191287
Probable space group: I M A 2
;
_chemical_formula_sum "Si O2"
_cell_formula_units_Z 64
_cell_length_a 8.680653
_cell_length_b 18.490091
_cell_length_c 26.473789
_cell_angle_alpha 90.000000
_cell_angle_beta 90.000000
_cell_angle_gamma 90.000000
_cell_volume 4249.203669
_symmetry_space_group_name_H-M "I M A 2"
_symmetry_group_IT_number 46
_symmetry_cell_setting 'orthorhombic'
loop_
_space_group_symop_operation_xyz
x,y,z
-x,-y,z
1/2-x,y,z
1/2+x,-y,z
1/2+x,1/2+y,1/2+z
1/2-x,1/2-y,1/2+z
-x,1/2+y,1/2+z
x,1/2-y,1/2+z
loop_
_atom_site_type_symbol
_atom_site_label
_atom_site_fract_x
_atom_site_fract_y
_atom_site_fract_z
Si Si1 0.934614 0.421677 0.107100
Si Si2 0.568770 0.666435 0.016780
Si Si3 0.929592 0.575039 0.922824
Si Si4 0.565301 0.343805 0.718288
Si Si5 0.418177 0.792991 0.667208
Si Si6 0.567412 0.576721 0.809114
Si Si7 0.432507 0.077462 0.123111
Si Si8 0.079404 0.796935 0.065486
O O1 0.750000 0.421962 0.106030
O O2 0.998460 0.369433 0.152891
O O3 0.000000 0.500000 0.118557
O O4 0.994158 0.392419 0.053844
O O5 0.750000 0.667489 0.026806
O O6 0.503487 0.747551 0.023132
O O7 0.526613 0.640489 0.960152
O O8 0.750000 0.561407 0.921894
O O9 0.986384 0.594401 0.866253
O O10 0.000000 0.500000 0.942398
O O11 0.750000 0.345255 0.714669
O O12 0.499632 0.262138 0.706374
O O13 0.506778 0.362281 0.773877
O O14 0.499890 0.399735 0.677400
O O15 0.250000 0.810737 0.689287
O O16 0.403528 0.750599 0.614984
O O17 0.500000 0.500000 0.791672
O O18 0.750000 0.576244 0.802588
O O19 0.250000 0.074171 0.127191
O O20 0.480328 0.131909 0.078084
O O21 0.500000 0.000000 0.108341
O O22 0.250000 0.819481 0.046282
#
# Coordination Sequence:
#
# PCOD8191287 Si02
#       8
#     8   8   8   8   8   8   8   8
#     4  10  18  28  41  60  84 111 139 172 208 247
#     4  10  18  29  44  62  82 111 145 175 209 252
#     4   9  19  31  43  59  83 111 143 179 214 249
#     4  10  18  30  45  61  81 110 144 177 212 253
#     4   7  14  27  41  55  77 105 133 164 202 242
#     4  10  19  31  43  59  82 110 142 179 215 250
#     4  11  20  30  44  63  86 114 144 175 208 249
#     4   9  17  30  44  61  84 110 138 173 210 248
#
# _framework density 15.061646
#
# number of rings (size 3 to 8) (size 9 to 14) (size 15 to 20)
#    0.000    2.500    0.000    5.250    0.000    2.500 
#    0.000    1.875    0.000    0.000    0.000    0.000 
#    0.000    1.000    0.000    6.750    0.000    3.500 
#
# Total GULP energy -396551.646802 kJ/mol
# GULP energy per Si atom -12392.238963 kJ/mol
# Density = 1.502736 g / cm^3
# Si number density = 15.061646 Si / 1000 Ang^3
#
#
#
# Elastic Constant Matrix: (Units=GPa)
#
#
# Indices 1 2 3 4 5 6 
#
# 1 79.1844 38.1052 30.5336 0.0000 0.0000 0.0000
# 2 38.1052 111.3241 55.1081 0.0000 0.0000 0.0000
# 3 30.5336 55.1081 76.8872 0.0000 0.0000 0.0000
# 4 0.0000 0.0000 0.0000 21.4978 0.0000 0.0000
# 5 0.0000 0.0000 0.0000 0.0000 17.5370 0.0000
# 6 0.0000 0.0000 0.0000 0.0000 0.0000 23.8609
#
#
#
# Elastic Compliance Matrix: (Units=1/GPa)
#
#
# Indices 1 2 3 4 5 6 
#
# 1 0.015774 -0.003562 -0.003711 0.000000 0.000000 0.000000
# 2 -0.003562 0.014727 -0.009141 0.000000 0.000000 0.000000
# 3 -0.003711 -0.009141 0.021031 0.000000 0.000000 0.000000
# 4 0.000000 0.000000 0.000000 0.046516 0.000000 0.000000
# 5 0.000000 0.000000 0.000000 0.000000 0.057022 0.000000
# 6 0.000000 0.000000 0.000000 0.000000 0.000000 0.041910
#
#
# Mechanical properties :
#
#
# Convention : Reuss Voigt Hill
#
# Bulk Modulus (GPa) = 53.46372 57.20994 55.33683
# Shear Modulus (GPa) = 21.18255 22.15573 21.66914
#
# Velocity S-wave (km/s) = 3.75426 3.83953 3.79713
# Velocity P-wave (km/s) = 7.37335 7.59752 7.48627
#
# Compressibility (1/GPa) = 0.01870427
#
# Stress axis : x y z
#
# Youngs Moduli (GPa) = 63.39569 67.90238 47.54804
#
# Poissons Ratio (x) = 0.24188 0.17645
# Poissons Ratio (y) = 0.22583 0.43463
# Poissons Ratio (z) = 0.23526 0.62068
#
# Static dielectric constant tensor:
#      x y z
#    x 2.970600 0.000000 0.000000 
#    y 0.000000 3.125940 0.000000 
#    z 0.000000 0.000000 2.866960 
# 
# 
# High freq. dielectric constant tensor:
#      x y z
#    x 1.585040 0.000000 0.000000 
#    y 0.000000 1.569790 0.000000 
#    z 0.000000 0.000000 1.542710 
# 
# From -- ./inp_files/24407.got.cif
#   From: 2010.03.12/outbox.cif.g09.slc.cpg/sg46_13_cif.got.tgz:24407.got - 2010.04.14 02:56:35.
