data_PCOD8191923
_publ_section_title
;
Structure prediction by ZEFSAII (Michael W. Deem and Ramdas Pophale) SiO2 
 PCOD8191923
Probable space group: I M A 2
;
_chemical_formula_sum "Si O2"
_cell_formula_units_Z 64
_cell_length_a 17.136139
_cell_length_b 8.992360
_cell_length_c 21.796869
_cell_angle_alpha 90.000000
_cell_angle_beta 90.000000
_cell_angle_gamma 90.000000
_cell_volume 3358.773944
_symmetry_space_group_name_H-M "I M A 2"
_symmetry_group_IT_number 46
_symmetry_cell_setting 'orthorhombic'
loop_
_space_group_symop_operation_xyz
x,y,z
-x,-y,z
1/2-x,y,z
1/2+x,-y,z
1/2+x,1/2+y,1/2+z
1/2-x,1/2-y,1/2+z
-x,1/2+y,1/2+z
x,1/2-y,1/2+z
loop_
_atom_site_type_symbol
_atom_site_label
_atom_site_fract_x
_atom_site_fract_y
_atom_site_fract_z
Si Si1 0.922598 0.412879 0.413150
Si Si2 0.157435 0.641003 0.541415
Si Si3 0.930205 0.898859 0.115337
Si Si4 0.659901 0.047062 0.587842
Si Si5 0.159355 0.155699 0.833965
Si Si6 0.840211 0.665498 0.192409
Si Si7 0.951273 0.639865 0.027463
Si Si8 0.475958 0.161175 0.384377
O O1 0.877334 0.361522 0.473255
O O2 0.864838 0.509714 0.371442
O O3 0.000000 0.500000 0.434101
O O4 0.952224 0.273957 0.371254
O O5 0.250000 0.641730 0.535514
O O6 0.134390 0.499486 0.581999
O O7 0.122653 0.791234 0.573178
O O8 0.891351 0.806661 0.170682
O O9 0.968246 0.790626 0.064281
O O10 0.000000 0.000000 0.142459
O O11 0.750000 0.072473 0.581370
O O12 0.636719 0.984365 0.655193
O O13 0.637094 0.917878 0.538849
O O14 0.250000 0.193567 0.846875
O O15 0.143351 0.126976 0.762643
O O16 0.105847 0.294704 0.853609
O O17 0.750000 0.706859 0.180874
O O18 0.000000 0.500000 0.054741
O O19 0.965840 0.667398 0.957064
O O20 0.500000 0.000000 0.359630
#
# Coordination Sequence:
#
# PCOD8191923 Si02
#       8
#     8   8   8   8   8   8   8   8
#     4  10  20  36  56  79 109 143 180 222 271 328
#     4  11  20  32  54  85 114 137 170 220 276 325
#     4  11  20  32  53  81 110 137 174 222 272 318
#     4   9  19  34  53  77 106 138 172 211 257 317
#     4  10  21  39  59  77 104 147 194 229 266 324
#     4   9  20  39  56  73 103 145 185 219 259 317
#     4  10  19  33  52  75 106 142 173 207 263 325
#     4  10  20  35  56  81 113 143 176 230 283 324
#
# _framework density 19.054572
#
# number of rings (size 3 to 8) (size 9 to 14) (size 15 to 20)
#    0.000    2.000    0.000    5.625    0.000    1.500 
#    0.000   13.750    0.000    3.000    0.000    0.000 
#    0.000    0.000    0.000    0.000    0.000    0.000 
#
# Total GULP energy -396694.381468 kJ/mol
# GULP energy per Si atom -12396.699421 kJ/mol
# Density = 1.901120 g / cm^3
# Si number density = 19.054572 Si / 1000 Ang^3
#
#
#
# Elastic Constant Matrix: (Units=GPa)
#
#
# Indices 1 2 3 4 5 6 
#
# 1 90.9178 60.7457 55.1705 0.0000 0.0000 0.0000
# 2 60.7457 141.0191 50.8059 0.0000 0.0000 0.0000
# 3 55.1705 50.8059 80.3610 0.0000 0.0000 0.0000
# 4 0.0000 0.0000 0.0000 44.2908 0.0000 0.0000
# 5 0.0000 0.0000 0.0000 0.0000 21.2351 0.0000
# 6 0.0000 0.0000 0.0000 0.0000 0.0000 30.8788
#
#
#
# Elastic Compliance Matrix: (Units=1/GPa)
#
#
# Indices 1 2 3 4 5 6 
#
# 1 0.021323 -0.005065 -0.011437 0.000000 0.000000 0.000000
# 2 -0.005065 0.010386 -0.003089 0.000000 0.000000 0.000000
# 3 -0.011437 -0.003089 0.022249 0.000000 0.000000 0.000000
# 4 0.000000 0.000000 0.000000 0.022578 0.000000 0.000000
# 5 0.000000 0.000000 0.000000 0.000000 0.047092 0.000000
# 6 0.000000 0.000000 0.000000 0.000000 0.000000 0.032385
#
#
# Mechanical properties :
#
#
# Convention : Reuss Voigt Hill
#
# Bulk Modulus (GPa) = 67.67687 71.74913 69.71300
# Shear Modulus (GPa) = 24.98516 28.98600 26.98558
#
# Velocity S-wave (km/s) = 3.62504 3.90450 3.76736
# Velocity P-wave (km/s) = 7.28805 7.61992 7.45583
#
# Compressibility (1/GPa) = 0.01477610
#
# Stress axis : x y z
#
# Youngs Moduli (GPa) = 46.89775 96.28507 44.94653
#
# Poissons Ratio (x) = 0.48765 0.51405
# Poissons Ratio (y) = 0.23752 0.13884
# Poissons Ratio (z) = 0.53637 0.29743
#
# Static dielectric constant tensor:
#      x y z
#    x 3.630110 0.000000 0.000000 
#    y 0.000000 3.519960 0.000000 
#    z 0.000000 0.000000 3.276780 
# 
# 
# High freq. dielectric constant tensor:
#      x y z
#    x 1.752300 0.000000 0.000000 
#    y 0.000000 1.752900 0.000000 
#    z 0.000000 0.000000 1.718050 
# 
# From -- ./inp_files/22261.got.cif
#   From: 2010.03.12/outbox.cif.g09.slc.cpg/sg46_12_cif.got.tgz:22261.got - 2010.04.14 02:56:35.
