data_PCOD8191546
_publ_section_title
;
Structure prediction by ZEFSAII (Michael W. Deem and Ramdas Pophale) SiO2 
 PCOD8191546
Probable space group: I M A 2
;
_chemical_formula_sum "Si O2"
_cell_formula_units_Z 64
_cell_length_a 8.852804
_cell_length_b 20.574029
_cell_length_c 19.638931
_cell_angle_alpha 90.000000
_cell_angle_beta 90.000000
_cell_angle_gamma 90.000000
_cell_volume 3576.992595
_symmetry_space_group_name_H-M "I M A 2"
_symmetry_group_IT_number 46
_symmetry_cell_setting 'orthorhombic'
loop_
_space_group_symop_operation_xyz
x,y,z
-x,-y,z
1/2-x,y,z
1/2+x,-y,z
1/2+x,1/2+y,1/2+z
1/2-x,1/2-y,1/2+z
-x,1/2+y,1/2+z
x,1/2-y,1/2+z
loop_
_atom_site_type_symbol
_atom_site_label
_atom_site_fract_x
_atom_site_fract_y
_atom_site_fract_z
Si Si1 0.426577 0.764338 0.507730
Si Si2 0.074635 0.760143 0.358550
Si Si3 0.570751 0.382616 0.506127
Si Si4 0.571449 0.933976 0.139598
Si Si5 0.425679 0.066543 0.724601
Si Si6 0.926977 0.183322 0.646112
Si Si7 0.426256 0.376317 0.367471
Si Si8 0.424153 0.818390 0.218591
O O1 0.250000 0.758976 0.519652
O O2 0.465481 0.792050 0.432347
O O3 0.489087 0.691137 0.515146
O O4 0.488626 0.810007 0.568110
O O5 0.250000 0.738128 0.357396
O O6 0.042768 0.812590 0.299549
O O7 0.976140 0.696220 0.347127
O O8 0.750000 0.389645 0.512515
O O9 0.492460 0.425546 0.563590
O O10 0.517994 0.405709 0.431358
O O11 0.750000 0.940366 0.136936
O O12 0.527895 0.874613 0.188615
O O13 0.500000 0.000000 0.170011
O O14 0.250000 0.060935 0.712040
O O15 0.484174 0.124879 0.678831
O O16 0.464489 0.078159 0.803612
O O17 0.500000 0.000000 0.699794
O O18 0.750000 0.167835 0.650468
O O19 0.965753 0.250027 0.684586
O O20 0.250000 0.375588 0.385100
O O21 0.250000 0.836198 0.203849
#
# Coordination Sequence:
#
# PCOD8191546 Si02
#       8
#     8   8   8   8   8   8   8   8
#     4   8  15  29  52  81 109 140 176 218 265 321
#     4   9  17  31  54  81 110 146 184 222 272 326
#     4  10  19  35  56  79 110 147 186 222 266 326
#     4  12  25  39  56  79 111 148 186 229 279 330
#     4  11  24  38  53  76 109 146 187 229 276 328
#     4  10  18  33  57  82 110 142 182 226 274 323
#     4  10  20  33  50  78 112 145 185 228 270 323
#     4  10  19  34  57  84 111 144 185 228 275 328
#
# _framework density 17.892125
#
# number of rings (size 3 to 8) (size 9 to 14) (size 15 to 20)
#    0.000    2.000    2.500    3.000    0.000    3.000 
#    0.000    1.875    0.000    0.750    0.000    0.000 
#    0.000    0.000    0.000    0.000    0.000    0.000 
#
# Total GULP energy -396763.581778 kJ/mol
# GULP energy per Si atom -12398.861931 kJ/mol
# Density = 1.785140 g / cm^3
# Si number density = 17.892125 Si / 1000 Ang^3
#
#
#
# Elastic Constant Matrix: (Units=GPa)
#
#
# Indices 1 2 3 4 5 6 
#
# 1 78.4043 46.0730 51.6680 0.0000 0.0000 0.0000
# 2 46.0730 93.0107 55.1959 0.0000 0.0000 0.0000
# 3 51.6680 55.1959 118.1909 0.0000 0.0000 0.0000
# 4 0.0000 0.0000 0.0000 12.2269 0.0000 0.0000
# 5 0.0000 0.0000 0.0000 0.0000 26.9489 0.0000
# 6 0.0000 0.0000 0.0000 0.0000 0.0000 28.2882
#
#
#
# Elastic Compliance Matrix: (Units=1/GPa)
#
#
# Indices 1 2 3 4 5 6 
#
# 1 0.020553 -0.006708 -0.005852 0.000000 0.000000 0.000000
# 2 -0.006708 0.017063 -0.005036 0.000000 0.000000 0.000000
# 3 -0.005852 -0.005036 0.013371 0.000000 0.000000 0.000000
# 4 0.000000 0.000000 0.000000 0.081787 0.000000 0.000000
# 5 0.000000 0.000000 0.000000 0.000000 0.037107 0.000000
# 6 0.000000 0.000000 0.000000 0.000000 0.000000 0.035350
#
#
# Mechanical properties :
#
#
# Convention : Reuss Voigt Hill
#
# Bulk Modulus (GPa) = 63.31361 66.16443 64.73902
# Shear Modulus (GPa) = 20.35098 22.60405 21.47751
#
# Velocity S-wave (km/s) = 3.37623 3.55822 3.46842
# Velocity P-wave (km/s) = 7.11771 7.34447 7.23197
#
# Compressibility (1/GPa) = 0.01579439
#
# Stress axis : x y z
#
# Youngs Moduli (GPa) = 48.65527 58.60699 74.78851
#
# Poissons Ratio (x) = 0.39313 0.43767
# Poissons Ratio (y) = 0.32638 0.37664
# Poissons Ratio (z) = 0.28474 0.29515
#
# Static dielectric constant tensor:
#      x y z
#    x 3.212470 0.000000 0.000000 
#    y 0.000000 3.103180 0.000000 
#    z 0.000000 0.000000 3.672300 
# 
# 
# High freq. dielectric constant tensor:
#      x y z
#    x 1.685340 0.000000 0.000000 
#    y 0.000000 1.665220 0.000000 
#    z 0.000000 0.000000 1.702470 
# 
# From -- ./inp_files/21335.got.cif
#   From: 2010.03.12/outbox.cif.g09.slc.cpg/sg46_11_cif.got.tgz:21335.got - 2010.04.14 02:56:35.
