data_PCOD8191399
_publ_section_title
;
Structure prediction by ZEFSAII (Michael W. Deem and Ramdas Pophale) SiO2 
 PCOD8191399
Probable space group: I M A 2
;
_chemical_formula_sum "Si O2"
_cell_formula_units_Z 64
_cell_length_a 8.781087
_cell_length_b 14.787431
_cell_length_c 27.742776
_cell_angle_alpha 90.000000
_cell_angle_beta 90.000000
_cell_angle_gamma 90.000000
_cell_volume 3602.391643
_symmetry_space_group_name_H-M "I M A 2"
_symmetry_group_IT_number 46
_symmetry_cell_setting 'orthorhombic'
loop_
_space_group_symop_operation_xyz
x,y,z
-x,-y,z
1/2-x,y,z
1/2+x,-y,z
1/2+x,1/2+y,1/2+z
1/2-x,1/2-y,1/2+z
-x,1/2+y,1/2+z
x,1/2-y,1/2+z
loop_
_atom_site_type_symbol
_atom_site_label
_atom_site_fract_x
_atom_site_fract_y
_atom_site_fract_z
Si Si1 0.569699 0.594654 0.135730
Si Si2 0.429844 0.231492 0.825916
Si Si3 0.070034 0.092323 0.015761
Si Si4 0.569452 0.779578 0.551873
Si Si5 0.929089 0.905693 0.744533
Si Si6 0.930779 0.404527 0.862325
Si Si7 0.431577 0.405206 0.965177
Si Si8 0.929008 0.592248 0.406251
O O1 0.500000 0.500000 0.118515
O O2 0.750000 0.586310 0.131659
O O3 0.506207 0.673190 0.100382
O O4 0.517910 0.617906 0.190127
O O5 0.250000 0.250254 0.825650
O O6 0.482378 0.175812 0.778792
O O7 0.518912 0.326576 0.825023
O O8 0.480882 0.175699 0.873223
O O9 0.250000 0.083998 0.017842
O O10 0.010688 0.176150 0.048232
O O11 0.015186 0.109566 0.960873
O O12 0.000000 0.000000 0.036731
O O13 0.750000 0.780322 0.553029
O O14 0.515190 0.832320 0.504335
O O15 0.750000 0.918347 0.747779
O O16 0.000000 0.000000 0.762134
O O17 0.750000 0.413084 0.864931
O O18 0.000000 0.500000 0.844886
O O19 0.998256 0.376926 0.914127
O O20 0.500000 0.500000 0.982560
O O21 0.250000 0.411622 0.960047
O O22 0.750000 0.580693 0.403468
O O23 0.000000 0.500000 0.385671
#
# Coordination Sequence:
#
# PCOD8191399 Si02
#       8
#     8   8   8   8   8   8   8   8
#     4   9  17  31  49  72  98 126 156 190 233 282
#     4  10  19  32  49  70  95 126 160 194 233 282
#     4   9  17  30  44  61  85 118 154 190 228 269
#     4   9  17  29  48  68  92 127 163 193 232 283
#     4   9  18  31  50  74 101 128 156 192 237 284
#     4  11  22  35  50  69  94 126 160 199 240 282
#     4  10  18  30  47  69  97 128 158 192 232 280
#     4   9  17  28  44  65  93 123 153 188 229 276
#
# _framework density 17.765975000000001
#
# number of rings (size 3 to 8) (size 9 to 14) (size 15 to 20)
#    0.000    2.500    0.000    3.750    0.000    3.000 
#    0.000    5.000    0.000    0.750    0.000    1.750 
#    0.000    0.000    0.000    0.000    0.000    0.000 
#
# Total GULP energy -396751.657069 kJ/mol
# GULP energy per Si atom -12398.489283 kJ/mol
# Density = 1.772554 g / cm^3
# Si number density = 17.765975 Si / 1000 Ang^3
#
#
#
# Elastic Constant Matrix: (Units=GPa)
#
#
# Indices 1 2 3 4 5 6 
#
# 1 48.0236 36.8533 25.4108 0.0000 0.0000 0.0000
# 2 36.8533 164.7299 79.5277 0.0000 0.0000 0.0000
# 3 25.4108 79.5277 87.9816 0.0000 0.0000 0.0000
# 4 0.0000 0.0000 0.0000 29.0057 0.0000 0.0000
# 5 0.0000 0.0000 0.0000 0.0000 15.5537 0.0000
# 6 0.0000 0.0000 0.0000 0.0000 0.0000 30.8790
#
#
#
# Elastic Compliance Matrix: (Units=1/GPa)
#
#
# Indices 1 2 3 4 5 6 
#
# 1 0.025901 -0.003873 -0.003980 0.000000 0.000000 0.000000
# 2 -0.003873 0.011350 -0.009141 0.000000 0.000000 0.000000
# 3 -0.003980 -0.009141 0.020778 0.000000 0.000000 0.000000
# 4 0.000000 0.000000 0.000000 0.034476 0.000000 0.000000
# 5 0.000000 0.000000 0.000000 0.000000 0.064293 0.000000
# 6 0.000000 0.000000 0.000000 0.000000 0.000000 0.032384
#
#
# Mechanical properties :
#
#
# Convention : Reuss Voigt Hill
#
# Bulk Modulus (GPa) = 41.59440 64.92430 53.25935
# Shear Modulus (GPa) = 21.62780 25.68392 23.65586
#
# Velocity S-wave (km/s) = 3.49287 3.80634 3.65297
# Velocity P-wave (km/s) = 6.30318 7.47938 6.91633
#
# Compressibility (1/GPa) = 0.02404170
#
# Stress axis : x y z
#
# Youngs Moduli (GPa) = 38.60825 88.10563 48.12829
#
# Poissons Ratio (x) = 0.34126 0.19153
# Poissons Ratio (y) = 0.14954 0.43993
# Poissons Ratio (z) = 0.15364 0.80535
#
# Static dielectric constant tensor:
#      x y z
#    x 3.115310 0.000000 0.000000 
#    y 0.000000 3.431520 0.000000 
#    z 0.000000 0.000000 3.403480 
# 
# 
# High freq. dielectric constant tensor:
#      x y z
#    x 1.671550 0.000000 0.000000 
#    y 0.000000 1.691680 0.000000 
#    z 0.000000 0.000000 1.667130 
# 
# From -- ./inp_files/25287.got.cif
#   From: 2010.03.12/outbox.cif.g09.slc.cpg/sg46_13_cif.got.tgz:25287.got - 2010.04.14 02:56:35.
