data_PCOD8191958
_publ_section_title
;
Structure prediction by ZEFSAII (Michael W. Deem and Ramdas Pophale) SiO2 
 PCOD8191958
Probable space group: I M A 2
;
_chemical_formula_sum "Si O2"
_cell_formula_units_Z 64
_cell_length_a 8.832367
_cell_length_b 20.775755
_cell_length_c 19.284739
_cell_angle_alpha 90.000000
_cell_angle_beta 90.000000
_cell_angle_gamma 90.000000
_cell_volume 3538.732113
_symmetry_space_group_name_H-M "I M A 2"
_symmetry_group_IT_number 46
_symmetry_cell_setting 'orthorhombic'
loop_
_space_group_symop_operation_xyz
x,y,z
-x,-y,z
1/2-x,y,z
1/2+x,-y,z
1/2+x,1/2+y,1/2+z
1/2-x,1/2-y,1/2+z
-x,1/2+y,1/2+z
x,1/2-y,1/2+z
loop_
_atom_site_type_symbol
_atom_site_label
_atom_site_fract_x
_atom_site_fract_y
_atom_site_fract_z
Si Si1 0.425557 0.757284 0.645360
Si Si2 0.071840 0.189372 0.517863
Si Si3 0.924987 0.879021 0.141106
Si Si4 0.075723 0.764109 0.801625
Si Si5 0.073095 0.316342 0.431507
Si Si6 0.425455 0.065440 0.434919
Si Si7 0.076001 0.129557 0.296260
Si Si8 0.571411 0.433925 0.511422
O O1 0.250000 0.739296 0.634631
O O2 0.480770 0.809999 0.590137
O O3 0.526283 0.694584 0.631794
O O4 0.453173 0.785744 0.722173
O O5 0.250000 0.186651 0.532513
O O6 0.029402 0.251348 0.471935
O O7 0.012806 0.126364 0.477765
O O8 0.750000 0.884425 0.119229
O O9 0.952374 0.901085 0.220482
O O10 0.022255 0.924505 0.091400
O O11 0.250000 0.771908 0.822725
O O12 0.975981 0.809015 0.851459
O O13 0.031767 0.689727 0.809530
O O14 0.250000 0.331047 0.435470
O O15 0.984368 0.375361 0.464633
O O16 0.250000 0.058166 0.448647
O O17 0.461576 0.075769 0.353439
O O18 0.500000 0.000000 0.461487
O O19 0.250000 0.153539 0.303744
O O20 0.500000 0.500000 0.482898
O O21 0.750000 0.438897 0.506977
#
# Coordination Sequence:
#
# PCOD8191958 Si02
#       8
#     8   8   8   8   8   8   8   8
#     4  10  20  33  53  83 115 144 182 230 278 326
#     4  10  20  35  57  80 109 144 185 230 278 332
#     4  10  19  33  54  79 110 150 189 226 272 326
#     4  10  20  33  53  84 115 143 180 229 279 328
#     4  11  21  37  60  84 110 145 186 231 280 331
#     4  10  21  37  53  77 109 145 185 227 273 324
#     4   9  18  34  53  75 110 151 189 226 269 324
#     4  12  25  40  57  80 113 149 187 231 278 334
#
# _framework density 18.085574000000001
#
# number of rings (size 3 to 8) (size 9 to 14) (size 15 to 20)
#    0.000    1.750    2.500    2.625    0.000    4.000 
#    0.000    1.250    0.000    0.750    0.000    1.750 
#    0.000    0.000    0.000    0.000    0.000    0.000 
#
# Total GULP energy -396880.884559 kJ/mol
# GULP energy per Si atom -12402.527642 kJ/mol
# Density = 1.804441 g / cm^3
# Si number density = 18.085574 Si / 1000 Ang^3
#
#
#
# Elastic Constant Matrix: (Units=GPa)
#
#
# Indices 1 2 3 4 5 6 
#
# 1 90.6147 47.7041 46.2477 0.0000 0.0000 0.0000
# 2 47.7041 110.7492 52.0620 0.0000 0.0000 0.0000
# 3 46.2477 52.0620 99.6581 0.0000 0.0000 0.0000
# 4 0.0000 0.0000 0.0000 21.1272 0.0000 0.0000
# 5 0.0000 0.0000 0.0000 0.0000 29.7791 0.0000
# 6 0.0000 0.0000 0.0000 0.0000 0.0000 29.7284
#
#
#
# Elastic Compliance Matrix: (Units=1/GPa)
#
#
# Indices 1 2 3 4 5 6 
#
# 1 0.015995 -0.004507 -0.005068 0.000000 0.000000 0.000000
# 2 -0.004507 0.013239 -0.004824 0.000000 0.000000 0.000000
# 3 -0.005068 -0.004824 0.014907 0.000000 0.000000 0.000000
# 4 0.000000 0.000000 0.000000 0.047332 0.000000 0.000000
# 5 0.000000 0.000000 0.000000 0.000000 0.033581 0.000000
# 6 0.000000 0.000000 0.000000 0.000000 0.000000 0.033638
#
#
# Mechanical properties :
#
#
# Convention : Reuss Voigt Hill
#
# Bulk Modulus (GPa) = 65.18510 65.89438 65.53974
# Shear Modulus (GPa) = 25.95994 26.46085 26.21039
#
# Velocity S-wave (km/s) = 3.79277 3.82919 3.81102
# Velocity P-wave (km/s) = 7.43646 7.48760 7.46207
#
# Compressibility (1/GPa) = 0.01534093
#
# Stress axis : x y z
#
# Youngs Moduli (GPa) = 62.51839 75.53584 67.08473
#
# Poissons Ratio (x) = 0.34046 0.34000
# Poissons Ratio (y) = 0.28179 0.32364
# Poissons Ratio (z) = 0.31685 0.36441
#
# Static dielectric constant tensor:
#      x y z
#    x 3.358020 0.000000 0.000000 
#    y 0.000000 3.129000 0.000000 
#    z 0.000000 0.000000 3.543540 
# 
# 
# High freq. dielectric constant tensor:
#      x y z
#    x 1.708330 0.000000 0.000000 
#    y 0.000000 1.671540 0.000000 
#    z 0.000000 0.000000 1.704850 
# 
# From -- ./inp_files/18527.got.cif
#   From: 2010.03.12/outbox.cif.g09.slc.cpg/sg46_10_cif.got.tgz:18527.got - 2010.04.14 02:56:35.
