data_PCOD8191782
_publ_section_title
;
Structure prediction by ZEFSAII (Michael W. Deem and Ramdas Pophale) SiO2 
 PCOD8191782
Probable space group: I M A 2
;
_chemical_formula_sum "Si O2"
_cell_formula_units_Z 56
_cell_length_a 9.070243
_cell_length_b 19.234419
_cell_length_c 16.914972
_cell_angle_alpha 90.000000
_cell_angle_beta 90.000000
_cell_angle_gamma 90.000000
_cell_volume 2951.000465
_symmetry_space_group_name_H-M "I M A 2"
_symmetry_group_IT_number 46
_symmetry_cell_setting 'orthorhombic'
loop_
_space_group_symop_operation_xyz
x,y,z
-x,-y,z
1/2-x,y,z
1/2+x,-y,z
1/2+x,1/2+y,1/2+z
1/2-x,1/2-y,1/2+z
-x,1/2+y,1/2+z
x,1/2-y,1/2+z
loop_
_atom_site_type_symbol
_atom_site_label
_atom_site_fract_x
_atom_site_fract_y
_atom_site_fract_z
Si Si1 0.424797 0.792386 0.465100
Si Si2 0.086797 0.935807 0.983915
Si Si3 0.076245 0.573359 0.872695
Si Si4 0.419678 0.711719 0.313436
Si Si5 0.580728 0.155451 0.217048
Si Si6 0.410793 0.562984 0.300126
Si Si7 0.074934 0.184186 0.059359
O O1 0.250000 0.784862 0.477535
O O2 0.464478 0.872650 0.443699
O O3 0.485914 0.746405 0.392007
O O4 0.509211 0.762084 0.542593
O O5 0.250000 0.927968 0.022728
O O6 0.991758 0.865731 0.992152
O O7 0.106234 0.952445 0.892394
O O8 0.000000 0.000000 0.025080
O O9 0.250000 0.562050 0.870904
O O10 0.026137 0.604844 0.787759
O O11 0.000000 0.500000 0.889454
O O12 0.250000 0.694544 0.333307
O O13 0.434854 0.764349 0.241433
O O14 0.493354 0.637837 0.289169
O O15 0.750000 0.138385 0.195375
O O16 0.476647 0.148698 0.141297
O O17 0.500000 0.500000 0.259321
O O18 0.250000 0.563777 0.259163
O O19 0.250000 0.186989 0.056547
#
# Coordination Sequence:
#
# PCOD8191782 Si02
#       7
#     8   8   8   8   8   8   8
#     4   9  17  34  56  76  99 136 178 217 262 316
#     4  10  19  32  49  70 101 135 167 203 244 295
#     4   9  19  35  59  84 107 137 178 224 275 328
#     4   8  14  30  53  72  91 124 172 213 248 301
#     4   9  19  35  54  73  98 138 179 213 259 320
#     4   9  16  27  46  71  96 123 155 197 240 288
#     4  12  23  33  48  76 109 141 177 218 264 311
#
# _framework density 18.976614000000001
#
# number of rings (size 3 to 8) (size 9 to 14) (size 15 to 20)
#    0.000    2.571    1.429    3.429    0.000    2.286 
#    0.000    4.286    0.000    0.857    0.000    2.000 
#    0.000    0.000    0.000    0.000    0.000    0.000 
#
# Total GULP energy -346917.931017 kJ/mol
# GULP energy per Si atom -12389.926108 kJ/mol
# Density = 1.893342 g / cm^3
# Si number density = 18.976614 Si / 1000 Ang^3
#
#
#
# Elastic Constant Matrix: (Units=GPa)
#
#
# Indices 1 2 3 4 5 6 
#
# 1 92.6643 44.5890 20.4269 0.0000 0.0000 0.0000
# 2 44.5890 140.0871 7.8234 0.0000 0.0000 0.0000
# 3 20.4269 7.8234 30.6397 0.0000 0.0000 0.0000
# 4 0.0000 0.0000 0.0000 17.5716 0.0000 0.0000
# 5 0.0000 0.0000 0.0000 0.0000 16.0560 0.0000
# 6 0.0000 0.0000 0.0000 0.0000 0.0000 33.3283
#
#
#
# Elastic Compliance Matrix: (Units=1/GPa)
#
#
# Indices 1 2 3 4 5 6 
#
# 1 0.014745 -0.004204 -0.008757 0.000000 0.000000 0.000000
# 2 -0.004204 0.008440 0.000648 0.000000 0.000000 0.000000
# 3 -0.008757 0.000648 0.038310 0.000000 0.000000 0.000000
# 4 0.000000 0.000000 0.000000 0.056910 0.000000 0.000000
# 5 0.000000 0.000000 0.000000 0.000000 0.062282 0.000000
# 6 0.000000 0.000000 0.000000 0.000000 0.000000 0.030005
#
#
# Mechanical properties :
#
#
# Convention : Reuss Voigt Hill
#
# Bulk Modulus (GPa) = 27.12309 45.45219 36.28764
# Shear Modulus (GPa) = 20.19320 26.09464 23.14392
#
# Velocity S-wave (km/s) = 3.26561 3.71225 3.49607
# Velocity P-wave (km/s) = 5.34255 6.50984 5.95487
#
# Compressibility (1/GPa) = 0.03686895
#
# Stress axis : x y z
#
# Youngs Moduli (GPa) = 67.81960 118.47754 26.10287
#
# Poissons Ratio (x) = 0.49811 0.22858
# Poissons Ratio (y) = 0.28513 -0.01691
# Poissons Ratio (z) = 0.59388 -0.07674
#
# Static dielectric constant tensor:
#      x y z
#    x 3.373670 0.000000 0.000000 
#    y 0.000000 3.754290 0.000000 
#    z 0.000000 0.000000 3.084950 
# 
# 
# High freq. dielectric constant tensor:
#      x y z
#    x 1.712460 0.000000 0.000000 
#    y 0.000000 1.748170 0.000000 
#    z 0.000000 0.000000 1.693720 
# 
# From -- ./inp_files/18482.got.cif
#   From: 2010.03.12/outbox.cif.g09.slc.cpg/sg46_10_cif.got.tgz:18482.got - 2010.04.14 02:56:35.
