data_PCOD8191779
_publ_section_title
;
Structure prediction by ZEFSAII (Michael W. Deem and Ramdas Pophale) SiO2 
 PCOD8191779
Probable space group: I M A 2
;
_chemical_formula_sum "Si O2"
_cell_formula_units_Z 64
_cell_length_a 9.420389
_cell_length_b 18.292985
_cell_length_c 20.963906
_cell_angle_alpha 90.000000
_cell_angle_beta 90.000000
_cell_angle_gamma 90.000000
_cell_volume 3612.647756
_symmetry_space_group_name_H-M "I M A 2"
_symmetry_group_IT_number 46
_symmetry_cell_setting 'orthorhombic'
loop_
_space_group_symop_operation_xyz
x,y,z
-x,-y,z
1/2-x,y,z
1/2+x,-y,z
1/2+x,1/2+y,1/2+z
1/2-x,1/2-y,1/2+z
-x,1/2+y,1/2+z
x,1/2-y,1/2+z
loop_
_atom_site_type_symbol
_atom_site_label
_atom_site_fract_x
_atom_site_fract_y
_atom_site_fract_z
Si Si1 0.902334 0.442256 0.854510
Si Si2 0.583452 0.926319 0.538344
Si Si3 0.406880 0.820486 0.454203
Si Si4 0.417309 0.072756 0.809219
Si Si5 0.084022 0.769804 0.215988
Si Si6 0.416349 0.792013 0.852458
Si Si7 0.588363 0.637708 0.173940
Si Si8 0.415770 0.931970 0.210747
O O1 0.750000 0.480373 0.849158
O O2 0.892192 0.367377 0.890644
O O3 0.962183 0.428183 0.784358
O O4 0.000000 0.500000 0.892423
O O5 0.750000 0.935823 0.521801
O O6 0.522049 0.855159 0.501578
O O7 0.557654 0.912173 0.612741
O O8 0.500000 0.000000 0.518692
O O9 0.250000 0.815558 0.487247
O O10 0.452905 0.743957 0.421788
O O11 0.250000 0.065132 0.823627
O O12 0.484225 0.137078 0.851438
O O13 0.447562 0.088270 0.734864
O O14 0.500000 0.000000 0.828884
O O15 0.250000 0.757839 0.206524
O O16 0.045199 0.758892 0.291005
O O17 0.041341 0.850157 0.188021
O O18 0.005813 0.710600 0.172056
O O19 0.250000 0.813369 0.849579
O O20 0.750000 0.664665 0.175339
O O21 0.250000 0.946153 0.199832
O O22 0.500000 0.000000 0.177403
#
# Coordination Sequence:
#
# PCOD8191779 Si02
#       8
#     8   8   8   8   8   8   8   8
#     4   9  16  26  39  58  87 122 157 190 224 266
#     4  11  23  37  51  70  99 134 173 212 246 285
#     4  10  19  32  49  68  96 131 166 202 240 286
#     4  10  19  32  51  75 100 127 161 202 250 301
#     4   9  16  29  49  70  94 125 162 202 247 297
#     4   9  17  31  49  70  98 129 159 198 247 298
#     4   9  20  35  50  70  97 128 166 210 251 292
#     4   9  16  26  40  63  93 124 156 190 231 281
#
# _framework density 17.715539
#
# number of rings (size 3 to 8) (size 9 to 14) (size 15 to 20)
#    0.000    2.500    1.250    1.500    0.000    4.000 
#    0.000    0.000    0.000    0.000    0.000    0.875 
#    0.000    4.000    0.000    0.000    0.000    0.000 
#
# Total GULP energy -396507.448615 kJ/mol
# GULP energy per Si atom -12390.857769 kJ/mol
# Density = 1.767522 g / cm^3
# Si number density = 17.715539 Si / 1000 Ang^3
#
#
#
# Elastic Constant Matrix: (Units=GPa)
#
#
# Indices 1 2 3 4 5 6 
#
# 1 91.0032 64.6929 25.9794 0.0000 0.0000 0.0000
# 2 64.6929 119.0943 19.1337 0.0000 0.0000 0.0000
# 3 25.9794 19.1337 41.3307 0.0000 0.0000 0.0000
# 4 0.0000 0.0000 0.0000 19.2984 0.0000 0.0000
# 5 0.0000 0.0000 0.0000 0.0000 26.4523 0.0000
# 6 0.0000 0.0000 0.0000 0.0000 0.0000 35.3215
#
#
#
# Elastic Compliance Matrix: (Units=1/GPa)
#
#
# Indices 1 2 3 4 5 6 
#
# 1 0.020197 -0.009649 -0.008228 0.000000 0.000000 0.000000
# 2 -0.009649 0.013681 -0.000268 0.000000 0.000000 0.000000
# 3 -0.008228 -0.000268 0.029491 0.000000 0.000000 0.000000
# 4 0.000000 0.000000 0.000000 0.051818 0.000000 0.000000
# 5 0.000000 0.000000 0.000000 0.000000 0.037804 0.000000
# 6 0.000000 0.000000 0.000000 0.000000 0.000000 0.028311
#
#
# Mechanical properties :
#
#
# Convention : Reuss Voigt Hill
#
# Bulk Modulus (GPa) = 36.93043 52.33781 44.63412
# Shear Modulus (GPa) = 22.06327 25.65593 23.85960
#
# Velocity S-wave (km/s) = 3.53288 3.80967 3.67388
# Velocity P-wave (km/s) = 6.12644 6.99707 6.57618
#
# Compressibility (1/GPa) = 0.02707794
#
# Stress axis : x y z
#
# Youngs Moduli (GPa) = 49.51189 73.09202 33.90810
#
# Poissons Ratio (x) = 0.70528 0.27901
# Poissons Ratio (y) = 0.47775 0.00910
# Poissons Ratio (z) = 0.40740 0.01962
#
# Static dielectric constant tensor:
#      x y z
#    x 3.229720 0.000000 0.000000 
#    y 0.000000 3.468640 0.000000 
#    z 0.000000 0.000000 2.933410 
# 
# 
# High freq. dielectric constant tensor:
#      x y z
#    x 1.687080 0.000000 0.000000 
#    y 0.000000 1.684600 0.000000 
#    z 0.000000 0.000000 1.639600 
# 
# From -- ./inp_files/21287.got.cif
#   From: 2010.03.12/outbox.cif.g09.slc.cpg/sg46_11_cif.got.tgz:21287.got - 2010.04.14 02:56:35.
