data_PCOD8191922
_publ_section_title
;
Structure prediction by ZEFSAII (Michael W. Deem and Ramdas Pophale) SiO2 
 PCOD8191922
Probable space group: I M A 2
;
_chemical_formula_sum "Si O2"
_cell_formula_units_Z 64
_cell_length_a 8.474433
_cell_length_b 30.355954
_cell_length_c 14.364883
_cell_angle_alpha 90.000000
_cell_angle_beta 90.000000
_cell_angle_gamma 90.000000
_cell_volume 3695.358945
_symmetry_space_group_name_H-M "I M A 2"
_symmetry_group_IT_number 46
_symmetry_cell_setting 'orthorhombic'
loop_
_space_group_symop_operation_xyz
x,y,z
-x,-y,z
1/2-x,y,z
1/2+x,-y,z
1/2+x,1/2+y,1/2+z
1/2-x,1/2-y,1/2+z
-x,1/2+y,1/2+z
x,1/2-y,1/2+z
loop_
_atom_site_type_symbol
_atom_site_label
_atom_site_fract_x
_atom_site_fract_y
_atom_site_fract_z
Si Si1 0.432671 0.230724 0.107620
Si Si2 0.568423 0.635105 0.919062
Si Si3 0.063402 0.953234 0.476304
Si Si4 0.437926 0.799131 0.926717
Si Si5 0.937042 0.453884 0.189692
Si Si6 0.433982 0.632941 0.280033
Si Si7 0.569603 0.177090 0.590366
Si Si8 0.566138 0.214182 0.306100
O O1 0.250000 0.243767 0.103721
O O2 0.542140 0.271447 0.078456
O O3 0.472442 0.212715 0.209284
O O4 0.475752 0.196035 0.026324
O O5 0.750000 0.638466 0.889330
O O6 0.509612 0.584720 0.910496
O O7 0.465661 0.667660 0.855471
O O8 0.546179 0.649146 0.025947
O O9 0.250000 0.951768 0.468023
O O10 0.006843 0.946305 0.583313
O O11 0.000000 0.000000 0.439216
O O12 0.250000 0.799775 0.938540
O O13 0.500483 0.842568 0.871291
O O14 0.490390 0.754776 0.871107
O O15 0.750000 0.453704 0.192323
O O16 0.007884 0.415018 0.255672
O O17 0.000000 0.500000 0.229331
O O18 0.250000 0.625916 0.293187
O O19 0.469177 0.666158 0.196205
O O20 0.750000 0.165314 0.563444
O O21 0.750000 0.219297 0.283657
#
# Coordination Sequence:
#
# PCOD8191922 Si02
#       8
#     8   8   8   8   8   8   8   8
#     4  12  24  36  50  75 109 137 171 223 270 307
#     4  12  23  34  50  78 109 140 178 220 267 313
#     4  10  19  33  52  75 106 141 176 216 262 315
#     4  10  20  35  55  74  97 136 182 216 254 311
#     4   9  17  30  48  72 102 134 169 211 256 304
#     4   9  17  32  52  73  97 134 179 217 247 296
#     4  11  19  33  52  72 102 142 183 216 254 308
#     4  11  22  37  57  75  99 140 183 216 257 317
#
# _framework density 17.319022
#
# number of rings (size 3 to 8) (size 9 to 14) (size 15 to 20)
#    0.000    1.500    3.750    3.375    0.000    1.000 
#    0.000    0.625    0.000    0.000    0.000    0.875 
#    0.000    2.000    0.000    0.000    0.000    0.000 
#
# Total GULP energy -396744.673427 kJ/mol
# GULP energy per Si atom -12398.271045 kJ/mol
# Density = 1.727960 g / cm^3
# Si number density = 17.319022 Si / 1000 Ang^3
#
#
#
# Elastic Constant Matrix: (Units=GPa)
#
#
# Indices 1 2 3 4 5 6 
#
# 1 46.2313 16.9643 21.9657 -0.0002 0.0000 0.0000
# 2 16.9643 108.1298 29.0829 -0.0009 0.0001 0.0000
# 3 21.9657 29.0829 70.0710 -0.0013 -0.0003 -0.0002
# 4 -0.0002 -0.0009 -0.0013 19.4430 -0.0001 -0.0001
# 5 0.0000 0.0001 -0.0003 -0.0001 19.0704 0.0000
# 6 0.0000 0.0000 -0.0002 -0.0001 0.0000 24.4584
#
#
#
# Elastic Compliance Matrix: (Units=1/GPa)
#
#
# Indices 1 2 3 4 5 6 
#
# 1 0.025837 -0.002111 -0.007223 0.000000 0.000000 0.000000
# 2 -0.002111 0.010583 -0.003731 0.000000 0.000000 0.000000
# 3 -0.007223 -0.003731 0.018084 0.000001 0.000000 0.000000
# 4 0.000000 0.000000 0.000001 0.051432 0.000000 0.000000
# 5 0.000000 0.000000 0.000000 0.000000 0.052437 0.000000
# 6 0.000000 0.000000 0.000000 0.000000 0.000000 0.040886
#
#
# Mechanical properties :
#
#
# Convention : Reuss Voigt Hill
#
# Bulk Modulus (GPa) = 35.24320 40.05088 37.64704
# Shear Modulus (GPa) = 21.29055 23.02232 22.15644
#
# Velocity S-wave (km/s) = 3.50996 3.64992 3.58063
# Velocity P-wave (km/s) = 6.06795 6.39829 6.23531
#
# Compressibility (1/GPa) = 0.02837426
#
# Stress axis : x y z
#
# Youngs Moduli (GPa) = 38.70451 94.49378 55.29766
#
# Poissons Ratio (x) = 0.19945 0.39943
# Poissons Ratio (y) = 0.08169 0.20630
# Poissons Ratio (z) = 0.27957 0.35253
#
# Static dielectric constant tensor:
#      x y z
#    x 3.072280 0.000000 0.000000 
#    y 0.000000 3.756070 0.000000 
#    z 0.000000 0.000000 3.136730 
# 
# 
# High freq. dielectric constant tensor:
#      x y z
#    x 1.662480 0.000000 0.000000 
#    y 0.000000 1.664330 0.000000 
#    z 0.000000 0.000000 1.640310 
# 
# From -- ./inp_files/9696.got.cif
#   From: 2010.03.12/outbox.cif.g09.slc.cpg/sg46_5_cif.got.tgz:9696.got - 2010.04.14 02:56:35.
