data_PCOD8191591
_publ_section_title
;
Structure prediction by ZEFSAII (Michael W. Deem and Ramdas Pophale) SiO2 
 PCOD8191591
Probable space group: I M A 2
;
_chemical_formula_sum "Si O2"
_cell_formula_units_Z 64
_cell_length_a 8.938361
_cell_length_b 19.726757
_cell_length_c 20.621785
_cell_angle_alpha 90.000000
_cell_angle_beta 90.000000
_cell_angle_gamma 90.000000
_cell_volume 3636.133671
_symmetry_space_group_name_H-M "I M A 2"
_symmetry_group_IT_number 46
_symmetry_cell_setting 'orthorhombic'
loop_
_space_group_symop_operation_xyz
x,y,z
-x,-y,z
1/2-x,y,z
1/2+x,-y,z
1/2+x,1/2+y,1/2+z
1/2-x,1/2-y,1/2+z
-x,1/2+y,1/2+z
x,1/2-y,1/2+z
loop_
_atom_site_type_symbol
_atom_site_label
_atom_site_fract_x
_atom_site_fract_y
_atom_site_fract_z
Si Si1 0.926055 0.212963 0.955940
Si Si2 0.427876 0.293798 0.841864
Si Si3 0.576592 0.432035 0.653886
Si Si4 0.924449 0.066483 0.910320
Si Si5 0.924629 0.433659 0.262954
Si Si6 0.573362 0.206895 0.100672
Si Si7 0.572859 0.212986 0.724256
Si Si8 0.074686 0.569809 0.805397
O O1 0.750000 0.223993 0.941217
O O2 0.969023 0.133932 0.948938
O O3 0.023806 0.258333 0.908492
O O4 0.970888 0.233310 0.029401
O O5 0.250000 0.297804 0.837763
O O6 0.489476 0.251699 0.781422
O O7 0.496264 0.368954 0.843233
O O8 0.500000 0.500000 0.628056
O O9 0.750000 0.440957 0.639724
O O10 0.507588 0.367973 0.615334
O O11 0.544649 0.419489 0.729457
O O12 0.750000 0.053784 0.913029
O O13 0.981081 0.075852 0.836602
O O14 0.000000 0.000000 0.942104
O O15 0.750000 0.445794 0.260326
O O16 0.970445 0.366212 0.224108
O O17 0.000000 0.500000 0.230927
O O18 0.750000 0.200438 0.106580
O O19 0.516186 0.259395 0.154984
O O20 0.750000 0.223609 0.735524
O O21 0.250000 0.568535 0.821765
O O22 0.000000 0.500000 0.829442
#
# Coordination Sequence:
#
# PCOD8191591 Si02
#       8
#     8   8   8   8   8   8   8   8
#     4  10  20  36  54  74 103 142 183 220 264 319
#     4  12  23  34  53  81 108 140 180 222 269 317
#     4   9  17  30  49  75 106 140 175 213 254 310
#     4   9  17  29  46  70 101 136 172 208 252 305
#     4   9  17  29  49  74 102 131 164 210 261 309
#     4   9  18  33  55  77 100 137 182 219 260 316
#     4  10  18  35  57  78 102 136 177 221 267 316
#     4  10  19  34  56  81 111 140 174 222 270 317
#
# _framework density 17.601113999999999
#
# number of rings (size 3 to 8) (size 9 to 14) (size 15 to 20)
#    0.000    2.250    2.500    1.500    0.000    2.000 
#    0.000    1.250    0.000    0.750    0.000    1.750 
#    0.000    0.000    0.000    0.000    0.000    0.000 
#
# Total GULP energy -396761.333830 kJ/mol
# GULP energy per Si atom -12398.791682 kJ/mol
# Density = 1.756105 g / cm^3
# Si number density = 17.601114 Si / 1000 Ang^3
#
#
#
# Elastic Constant Matrix: (Units=GPa)
#
#
# Indices 1 2 3 4 5 6 
#
# 1 63.1630 53.8289 35.8023 0.0000 0.0000 0.0000
# 2 53.8289 141.8627 64.1362 0.0000 0.0000 0.0000
# 3 35.8023 64.1362 99.9808 0.0000 0.0000 0.0000
# 4 0.0000 0.0000 0.0000 23.5615 0.0000 0.0000
# 5 0.0000 0.0000 0.0000 0.0000 7.8892 0.0000
# 6 0.0000 0.0000 0.0000 0.0000 0.0000 32.5187
#
#
#
# Elastic Compliance Matrix: (Units=1/GPa)
#
#
# Indices 1 2 3 4 5 6 
#
# 1 0.024458 -0.007494 -0.003951 0.000000 0.000000 0.000000
# 2 -0.007494 0.012225 -0.005158 0.000000 0.000000 0.000000
# 3 -0.003951 -0.005158 0.014726 0.000000 0.000000 0.000000
# 4 0.000000 0.000000 0.000000 0.042442 0.000000 0.000000
# 5 0.000000 0.000000 0.000000 0.000000 0.126755 0.000000
# 6 0.000000 0.000000 0.000000 0.000000 0.000000 0.030752
#
#
# Mechanical properties :
#
#
# Convention : Reuss Voigt Hill
#
# Bulk Modulus (GPa) = 54.93971 68.06013 61.49992
# Shear Modulus (GPa) = 17.20388 22.87649 20.04018
#
# Velocity S-wave (km/s) = 3.12978 3.60907 3.37794
# Velocity P-wave (km/s) = 6.65900 7.49128 7.08736
#
# Compressibility (1/GPa) = 0.01820177
#
# Stress axis : x y z
#
# Youngs Moduli (GPa) = 40.88578 81.80027 67.90845
#
# Poissons Ratio (x) = 0.61305 0.26829
# Poissons Ratio (y) = 0.30642 0.35030
# Poissons Ratio (z) = 0.16153 0.42196
#
# Static dielectric constant tensor:
#      x y z
#    x 3.119410 0.000000 0.000000 
#    y 0.000000 3.501110 0.000000 
#    z 0.000000 0.000000 3.195650 
# 
# 
# High freq. dielectric constant tensor:
#      x y z
#    x 1.663190 0.000000 0.000000 
#    y 0.000000 1.690150 0.000000 
#    z 0.000000 0.000000 1.654940 
# 
# From -- ./inp_files/18546.got.cif
#   From: 2010.03.12/outbox.cif.g09.slc.cpg/sg46_10_cif.got.tgz:18546.got - 2010.04.14 02:56:35.
