data_PCOD8191885
_publ_section_title
;
Structure prediction by ZEFSAII (Michael W. Deem and Ramdas Pophale) SiO2 
 PCOD8191885
Probable space group: I M A 2
;
_chemical_formula_sum "Si O2"
_cell_formula_units_Z 64
_cell_length_a 17.000110
_cell_length_b 21.521846
_cell_length_c 9.280981
_cell_angle_alpha 90.000000
_cell_angle_beta 90.000000
_cell_angle_gamma 90.000000
_cell_volume 3395.667317
_symmetry_space_group_name_H-M "I M A 2"
_symmetry_group_IT_number 46
_symmetry_cell_setting 'orthorhombic'
loop_
_space_group_symop_operation_xyz
x,y,z
-x,-y,z
1/2-x,y,z
1/2+x,-y,z
1/2+x,1/2+y,1/2+z
1/2-x,1/2-y,1/2+z
-x,1/2+y,1/2+z
x,1/2-y,1/2+z
loop_
_atom_site_type_symbol
_atom_site_label
_atom_site_fract_x
_atom_site_fract_y
_atom_site_fract_z
Si Si1 0.388338 0.060530 0.036090
Si Si2 0.161129 0.306432 0.628105
Si Si3 0.577052 0.965798 0.350829
Si Si4 0.992081 0.129982 0.511971
Si Si5 0.563563 0.754774 0.392918
Si Si6 0.162508 0.559271 0.020128
Si Si7 0.488480 0.874882 0.839438
Si Si8 0.836586 0.053533 0.850548
O O1 0.338204 0.120378 0.086932
O O2 0.419675 0.028171 0.179902
O O3 0.460741 0.081257 0.939976
O O4 0.341227 0.009186 0.945526
O O5 0.250000 0.288404 0.673338
O O6 0.137656 0.267311 0.487241
O O7 0.098990 0.288891 0.752645
O O8 0.562351 0.896612 0.409949
O O9 0.500000 0.000000 0.412177
O O10 0.653335 0.997960 0.420841
O O11 0.902206 0.110783 0.472079
O O12 0.007627 0.108304 0.674786
O O13 0.003835 0.202916 0.485808
O O14 0.506660 0.697380 0.356852
O O15 0.250000 0.587018 0.994602
O O16 0.152078 0.535693 0.183394
O O17 0.399167 0.892047 0.886064
O O18 0.750000 0.082108 0.877322
#
# Coordination Sequence:
#
# PCOD8191885 Si02
#       8
#     8   8   8   8   8   8   8   8
#     4  11  21  35  58  85 116 149 186 230 289 345
#     4  11  23  38  57  84 117 149 186 233 283 335
#     4  10  19  32  54  81 111 142 182 229 279 339
#     4  10  19  37  57  80 107 149 194 230 277 340
#     4  11  21  39  59  82 111 150 192 233 280 338
#     4   9  20  36  56  80 111 148 189 236 282 331
#     4  10  21  36  60  81 110 153 196 233 280 346
#     4  10  20  37  57  83 116 150 191 240 288 337
#
# _framework density 18.847548
#
# number of rings (size 3 to 8) (size 9 to 14) (size 15 to 20)
#    0.000    1.750    2.500    2.625    0.000    3.000 
#    0.000    0.625    0.000    0.000    0.000    0.000 
#    0.000    0.000    0.000    0.000    0.000    0.000 
#
# Total GULP energy -396587.198131 kJ/mol
# GULP energy per Si atom -12393.349942 kJ/mol
# Density = 1.880465 g / cm^3
# Si number density = 18.847548 Si / 1000 Ang^3
#
#
#
# Elastic Constant Matrix: (Units=GPa)
#
#
# Indices 1 2 3 4 5 6 
#
# 1 127.9065 57.1868 44.9063 0.0000 0.0000 0.0000
# 2 57.1868 87.9160 32.3206 0.0000 0.0000 0.0000
# 3 44.9063 32.3206 92.0599 0.0000 0.0000 0.0000
# 4 0.0000 0.0000 0.0000 29.9928 0.0000 0.0000
# 5 0.0000 0.0000 0.0000 0.0000 12.8924 0.0000
# 6 0.0000 0.0000 0.0000 0.0000 0.0000 17.0650
#
#
#
# Elastic Compliance Matrix: (Units=1/GPa)
#
#
# Indices 1 2 3 4 5 6 
#
# 1 0.011963 -0.006471 -0.003563 0.000000 0.000000 0.000000
# 2 -0.006471 0.016561 -0.002658 0.000000 0.000000 0.000000
# 3 -0.003563 -0.002658 0.013534 0.000000 0.000000 0.000000
# 4 0.000000 0.000000 0.000000 0.033341 0.000000 0.000000
# 5 0.000000 0.000000 0.000000 0.000000 0.077565 0.000000
# 6 0.000000 0.000000 0.000000 0.000000 0.000000 0.058600
#
#
# Mechanical properties :
#
#
# Convention : Reuss Voigt Hill
#
# Bulk Modulus (GPa) = 59.97805 64.07885 62.02845
# Shear Modulus (GPa) = 20.61812 23.55461 22.08637
#
# Velocity S-wave (km/s) = 3.31107 3.53901 3.42693
# Velocity P-wave (km/s) = 6.81978 7.12543 6.97428
#
# Compressibility (1/GPa) = 0.01667277
#
# Stress axis : x y z
#
# Youngs Moduli (GPa) = 83.59417 60.38320 73.88975
#
# Poissons Ratio (x) = 0.39076 0.26329
# Poissons Ratio (y) = 0.54096 0.19637
# Poissons Ratio (z) = 0.29787 0.16047
#
# Static dielectric constant tensor:
#      x y z
#    x 3.384560 0.000000 0.000000 
#    y 0.000000 3.476060 0.000000 
#    z 0.000000 0.000000 3.502730 
# 
# 
# High freq. dielectric constant tensor:
#      x y z
#    x 1.724750 0.000000 0.000000 
#    y 0.000000 1.721720 0.000000 
#    z 0.000000 0.000000 1.743050 
# 
# From -- ./inp_files/6933.got.cif
#   From: 2010.03.12/outbox.cif.g09.slc.cpg/sg46_4_cif.got.tgz:6933.got - 2010.04.14 02:56:35.
