data_PCOD8191184
_publ_section_title
;
Structure prediction by ZEFSAII (Michael W. Deem and Ramdas Pophale) SiO2 
 PCOD8191184
Probable space group: I M A 2
;
_chemical_formula_sum "Si O2"
_cell_formula_units_Z 64
_cell_length_a 8.757941
_cell_length_b 20.094139
_cell_length_c 22.646447
_cell_angle_alpha 90.000000
_cell_angle_beta 90.000000
_cell_angle_gamma 90.000000
_cell_volume 3985.396110
_symmetry_space_group_name_H-M "I M A 2"
_symmetry_group_IT_number 46
_symmetry_cell_setting 'orthorhombic'
loop_
_space_group_symop_operation_xyz
x,y,z
-x,-y,z
1/2-x,y,z
1/2+x,-y,z
1/2+x,1/2+y,1/2+z
1/2-x,1/2-y,1/2+z
-x,1/2+y,1/2+z
x,1/2-y,1/2+z
loop_
_atom_site_type_symbol
_atom_site_label
_atom_site_fract_x
_atom_site_fract_y
_atom_site_fract_z
Si Si1 0.568218 0.070230 0.394320
Si Si2 0.580865 0.355478 0.274116
Si Si3 0.421935 0.777666 0.197769
Si Si4 0.572535 0.569545 0.178491
Si Si5 0.929812 0.263281 0.371182
Si Si6 0.429629 0.305909 0.103921
Si Si7 0.931495 0.690455 0.968041
Si Si8 0.070702 0.352008 0.795975
O O1 0.750000 0.069145 0.397459
O O2 0.503300 0.124474 0.439869
O O3 0.513327 0.085541 0.327129
O O4 0.500000 0.000000 0.414617
O O5 0.750000 0.386378 0.268994
O O6 0.571617 0.285809 0.240226
O O7 0.466563 0.409393 0.246144
O O8 0.542849 0.336986 0.342806
O O9 0.250000 0.801008 0.185942
O O10 0.498228 0.758718 0.135363
O O11 0.510200 0.838831 0.229396
O O12 0.500000 0.500000 0.160378
O O13 0.750000 0.560728 0.172030
O O14 0.508823 0.626097 0.134234
O O15 0.750000 0.244316 0.366704
O O16 0.992225 0.256615 0.438124
O O17 0.033604 0.211450 0.335860
O O18 0.250000 0.301177 0.112746
O O19 0.478829 0.306701 0.036201
O O20 0.750000 0.690182 0.959553
O O21 0.250000 0.365801 0.794021
#
# Coordination Sequence:
#
# PCOD8191184 Si02
#       8
#     8   8   8   8   8   8   8   8
#     4  11  21  33  46  62  86 116 152 187 221 260
#     4   8  15  27  42  60  81 104 134 173 215 257
#     4   9  16  27  44  64  84 108 139 177 220 261
#     4  10  19  30  43  59  82 112 146 180 214 251
#     4   9  16  27  43  63  84 107 138 176 218 261
#     4   9  19  32  44  61  86 117 151 184 215 253
#     4  10  19  31  45  63  88 117 150 184 218 256
#     4  10  17  27  44  64  85 109 138 175 221 265
#
# _framework density 16.058630000000001
#
# number of rings (size 3 to 8) (size 9 to 14) (size 15 to 20)
#    0.000    2.500    0.000    6.000    0.000    5.500 
#    0.000    1.250    0.000    0.000    0.000    0.000 
#    0.000    1.000    0.000    6.750    0.000    5.500 
#
# Total GULP energy -396576.448532 kJ/mol
# GULP energy per Si atom -12393.014017 kJ/mol
# Density = 1.602208 g / cm^3
# Si number density = 16.058630 Si / 1000 Ang^3
#
#
#
# Elastic Constant Matrix: (Units=GPa)
#
#
# Indices 1 2 3 4 5 6 
#
# 1 78.7523 16.8280 44.3317 0.0000 0.0000 0.0000
# 2 16.8280 19.1184 43.7988 0.0000 0.0000 0.0000
# 3 44.3317 43.7988 115.9425 0.0000 0.0000 0.0000
# 4 0.0000 0.0000 0.0000 16.9360 0.0000 0.0000
# 5 0.0000 0.0000 0.0000 0.0000 24.9665 0.0000
# 6 0.0000 0.0000 0.0000 0.0000 0.0000 23.5415
#
#
#
# Elastic Compliance Matrix: (Units=1/GPa)
#
#
# Indices 1 2 3 4 5 6 
#
# 1 0.016181 -0.000510 -0.005994 0.000000 0.000000 0.000000
# 2 -0.000510 0.388697 -0.146640 0.000000 0.000000 0.000000
# 3 -0.005994 -0.146640 0.066312 0.000000 0.000000 0.000000
# 4 0.000000 0.000000 0.000000 0.059046 0.000000 0.000000
# 5 0.000000 0.000000 0.000000 0.000000 0.040054 0.000000
# 6 0.000000 0.000000 0.000000 0.000000 0.000000 0.042478
#
#
# Mechanical properties :
#
#
# Convention : Reuss Voigt Hill
#
# Bulk Modulus (GPa) = 6.06425 47.08113 26.57269
# Shear Modulus (GPa) = 5.13333 20.34578 12.73955
#
# Velocity S-wave (km/s) = 1.78985 3.56331 2.81964
# Velocity P-wave (km/s) = 2.83830 6.80526 5.21380
#
# Compressibility (1/GPa) = 0.16490096
#
# Stress axis : x y z
#
# Youngs Moduli (GPa) = 61.79909 2.57270 15.08015
#
# Poissons Ratio (x) = 0.00131 0.09040
# Poissons Ratio (y) = 0.03154 2.21136
# Poissons Ratio (z) = 0.37045 0.37726
#
# Static dielectric constant tensor:
#      x y z
#    x 3.128810 0.000000 0.000000 
#    y 0.000000 2.925260 0.000000 
#    z 0.000000 0.000000 3.287920 
# 
# 
# High freq. dielectric constant tensor:
#      x y z
#    x 1.632750 0.000000 0.000000 
#    y 0.000000 1.573510 0.000000 
#    z 0.000000 0.000000 1.602650 
# 
# From -- ./inp_files/23330.got.cif
#   From: 2010.03.12/outbox.cif.g09.slc.cpg/sg46_12_cif.got.tgz:23330.got - 2010.04.14 02:56:35.
