data_PCOD8191084
_publ_section_title
;
Structure prediction by ZEFSAII (Michael W. Deem and Ramdas Pophale) SiO2 
 PCOD8191084
Probable space group: I B A 2
;
_chemical_formula_sum "Si O2"
_cell_formula_units_Z 48
_cell_length_a 8.297926
_cell_length_b 14.764069
_cell_length_c 16.366108
_cell_angle_alpha 90.000000
_cell_angle_beta 90.000000
_cell_angle_gamma 90.000000
_cell_volume 2005.030745
_symmetry_space_group_name_H-M "I B A 2"
_symmetry_group_IT_number 45
_symmetry_cell_setting 'orthorhombic'
loop_
_space_group_symop_operation_xyz
x,y,z
-x,-y,z
-x,y,1/2+z
x,-y,1/2+z
1/2+x,1/2+y,1/2+z
1/2-x,1/2-y,1/2+z
1/2-x,1/2+y,z
1/2+x,1/2-y,z
loop_
_atom_site_type_symbol
_atom_site_label
_atom_site_fract_x
_atom_site_fract_y
_atom_site_fract_z
Si Si1 0.376044 0.140380 0.726980
Si Si2 0.806715 0.289032 0.155599
Si Si3 0.806716 0.710968 0.981816
Si Si4 0.876044 0.640385 0.410426
Si Si5 0.675936 0.480313 0.163957
Si Si6 0.175937 0.019675 0.473463
O O1 0.223843 0.208452 0.720366
O O2 0.507615 0.178000 0.661687
O O3 0.446216 0.140054 0.818703
O O4 0.316451 0.039044 0.706355
O O5 0.700433 0.374914 0.180443
O O6 0.749985 0.250015 0.068705
O O7 0.776143 0.791533 0.917036
O O8 0.700424 0.625079 0.957007
O O9 0.992383 0.677999 0.975720
O O10 0.816442 0.539048 0.431047
O O11 0.500000 0.500000 0.201079
O O12 0.682418 0.499971 0.068706
O O13 0.000000 0.000000 0.436335
#
# Coordination Sequence:
#
# PCOD8191084 Si02
#       6
#     8   8   8   8   8   8
#     4  12  27  46  73 110 150 190 246 313 378 437
#     4  12  25  44  75 104 143 195 247 302 363 451
#     4  12  25  44  75 104 143 195 247 302 363 451
#     4  12  27  46  73 110 150 190 246 313 378 437
#     4  11  25  45  73 106 142 194 247 302 367 449
#     4  11  25  45  73 106 142 194 247 302 367 449
#
# _framework density 23.939784
#
# number of rings (size 3 to 8) (size 9 to 14) (size 15 to 20)
#    0.000    0.333    3.333    5.000    4.667    6.000 
#    0.000    0.000    0.000    0.000    0.000    0.000 
#    0.000    0.000    0.000    0.000    0.000    0.000 
#
# Total GULP energy -297592.702993 kJ/mol
# GULP energy per Si atom -12399.695958 kJ/mol
# Density = 2.388530 g / cm^3
# Si number density = 23.939784 Si / 1000 Ang^3
#
#
#
# Elastic Constant Matrix: (Units=GPa)
#
#
# Indices 1 2 3 4 5 6 
#
# 1 133.1662 35.5336 39.7623 0.0000 0.0000 0.0000
# 2 35.5336 165.1324 33.4198 0.0000 0.0000 0.0000
# 3 39.7623 33.4198 113.4206 0.0000 0.0000 0.0000
# 4 0.0000 0.0000 0.0000 25.6993 0.0000 0.0000
# 5 0.0000 0.0000 0.0000 0.0000 29.7105 0.0000
# 6 0.0000 0.0000 0.0000 0.0000 0.0000 51.3413
#
#
#
# Elastic Compliance Matrix: (Units=1/GPa)
#
#
# Indices 1 2 3 4 5 6 
#
# 1 0.008653 -0.001327 -0.002642 0.000000 0.000000 0.000000
# 2 -0.001327 0.006643 -0.001492 0.000000 0.000000 0.000000
# 3 -0.002642 -0.001492 0.010183 0.000000 0.000000 0.000000
# 4 0.000000 0.000000 0.000000 0.038912 0.000000 0.000000
# 5 0.000000 0.000000 0.000000 0.000000 0.033658 0.000000
# 6 0.000000 0.000000 0.000000 0.000000 0.000000 0.019478
#
#
# Mechanical properties :
#
#
# Convention : Reuss Voigt Hill
#
# Bulk Modulus (GPa) = 68.70355 69.90562 69.30458
# Shear Modulus (GPa) = 37.50916 41.55046 39.52981
#
# Velocity S-wave (km/s) = 3.96259 4.17060 4.06793
# Velocity P-wave (km/s) = 7.04961 7.24264 7.14678
#
# Compressibility (1/GPa) = 0.01455529
#
# Stress axis : x y z
#
# Youngs Moduli (GPa) = 115.57345 150.52721 98.20526
#
# Poissons Ratio (x) = 0.19977 0.25949
# Poissons Ratio (y) = 0.15338 0.14654
# Poissons Ratio (z) = 0.30538 0.22462
#
# Static dielectric constant tensor:
#      x y z
#    x 4.501250 0.000000 0.000000 
#    y 0.000000 4.718670 0.000000 
#    z 0.000000 0.000000 4.585660 
# 
# 
# High freq. dielectric constant tensor:
#      x y z
#    x 1.954040 0.000000 0.000000 
#    y 0.000000 1.973190 0.000000 
#    z 0.000000 0.000000 1.928360 
# 
# From -- ./inp_files/7545.got.cif
#   From: 2010.03.12/outbox.cif.g09.slc.cpg/sg45_4_cif.got.tgz:7545.got - 2010.04.14 02:50:11.
