data_PCOD8191357
_publ_section_title
;
Structure prediction by ZEFSAII (Michael W. Deem and Ramdas Pophale) SiO2 
 PCOD8191357
Probable space group: I M A 2
;
_chemical_formula_sum "Si O2"
_cell_formula_units_Z 48
_cell_length_a 8.849405
_cell_length_b 17.265212
_cell_length_c 18.504830
_cell_angle_alpha 90.000000
_cell_angle_beta 90.000000
_cell_angle_gamma 90.000000
_cell_volume 2827.294748
_symmetry_space_group_name_H-M "I M A 2"
_symmetry_group_IT_number 46
_symmetry_cell_setting 'orthorhombic'
loop_
_space_group_symop_operation_xyz
x,y,z
-x,-y,z
1/2-x,y,z
1/2+x,-y,z
1/2+x,1/2+y,1/2+z
1/2-x,1/2-y,1/2+z
-x,1/2+y,1/2+z
x,1/2-y,1/2+z
loop_
_atom_site_type_symbol
_atom_site_label
_atom_site_fract_x
_atom_site_fract_y
_atom_site_fract_z
Si Si1 0.926844 0.678656 0.634840
Si Si2 0.929754 0.081162 0.018774
Si Si3 0.575812 0.216472 0.912840
Si Si4 0.577909 0.080308 0.661019
Si Si5 0.070048 0.727789 0.252859
Si Si6 0.423066 0.806719 0.544963
O O1 0.750000 0.662185 0.641981
O O2 0.006925 0.604426 0.597988
O O3 0.996539 0.697547 0.713679
O O4 0.957641 0.752373 0.584503
O O5 0.750000 0.075949 0.022418
O O6 0.986429 0.143926 0.959244
O O7 0.000000 0.000000 0.994576
O O8 0.750000 0.200507 0.898111
O O9 0.500631 0.224803 0.834072
O O10 0.551264 0.296685 0.958752
O O11 0.750000 0.064673 0.678680
O O12 0.518187 0.148551 0.713239
O O13 0.553706 0.106569 0.576605
O O14 0.500000 0.000000 0.677787
O O15 0.250000 0.737851 0.250537
O O16 0.250000 0.779350 0.563854
#
# Coordination Sequence:
#
# PCOD8191357 Si02
#       6
#     8   8   8   8   8   8
#     4  10  18  29  46  68  91 120 157 195 230 270
#     4  10  19  32  49  71  97 126 157 192 233 281
#     4   8  15  29  50  69  88 117 153 188 229 275
#     4   9  17  27  42  64  91 118 146 178 217 264
#     4   9  17  31  48  67  91 122 154 187 229 278
#     4   8  15  30  48  65  85 115 155 194 227 270
#
# _framework density 16.977360999999998
#
# number of rings (size 3 to 8) (size 9 to 14) (size 15 to 20)
#    0.000    3.000    0.000    4.000    0.000    3.333 
#    0.000    4.167    0.000    1.000    0.000    2.333 
#    0.000    0.000    0.000    0.000    0.000    0.000 
#
# Total GULP energy -297321.064146 kJ/mol
# GULP energy per Si atom -12388.377673 kJ/mol
# Density = 1.693872 g / cm^3
# Si number density = 16.977361 Si / 1000 Ang^3
#
#
#
# Elastic Constant Matrix: (Units=GPa)
#
#
# Indices 1 2 3 4 5 6 
#
# 1 54.6575 13.0150 27.6843 0.0000 0.0000 0.0000
# 2 13.0150 24.1110 41.4737 0.0000 0.0000 0.0000
# 3 27.6843 41.4737 141.4178 0.0000 0.0000 0.0000
# 4 0.0000 0.0000 0.0000 18.2672 0.0000 0.0000
# 5 0.0000 0.0000 0.0000 0.0000 13.7248 0.0000
# 6 0.0000 0.0000 0.0000 0.0000 0.0000 26.3246
#
#
#
# Elastic Compliance Matrix: (Units=1/GPa)
#
#
# Indices 1 2 3 4 5 6 
#
# 1 0.021172 -0.008676 -0.001600 0.000000 0.000000 0.000000
# 2 -0.008676 0.087252 -0.023890 0.000000 0.000000 0.000000
# 3 -0.001600 -0.023890 0.014391 0.000000 0.000000 0.000000
# 4 0.000000 0.000000 0.000000 0.054743 0.000000 0.000000
# 5 0.000000 0.000000 0.000000 0.000000 0.072861 0.000000
# 6 0.000000 0.000000 0.000000 0.000000 0.000000 0.037987
#
#
# Mechanical properties :
#
#
# Convention : Reuss Voigt Hill
#
# Bulk Modulus (GPa) = 18.35460 42.72582 30.54021
# Shear Modulus (GPa) = 13.33690 20.86419 17.10054
#
# Velocity S-wave (km/s) = 2.80584 3.50943 3.17717
# Velocity P-wave (km/s) = 4.61862 6.45310 5.61133
#
# Compressibility (1/GPa) = 0.05448227
#
# Stress axis : x y z
#
# Youngs Moduli (GPa) = 47.23167 11.46106 69.48893
#
# Poissons Ratio (x) = 0.09944 0.11120
# Poissons Ratio (y) = 0.40978 1.66009
# Poissons Ratio (z) = 0.07559 0.27381
#
# Static dielectric constant tensor:
#      x y z
#    x 2.944990 0.000000 0.000000 
#    y 0.000000 3.081580 0.000000 
#    z 0.000000 0.000000 3.504700 
# 
# 
# High freq. dielectric constant tensor:
#      x y z
#    x 1.637640 0.000000 0.000000 
#    y 0.000000 1.627280 0.000000 
#    z 0.000000 0.000000 1.650490 
# 
# From -- ./inp_files/13920.got.cif
#   From: 2010.03.12/outbox.cif.g09.slc.cpg/sg46_7_cif.got.tgz:13920.got - 2010.04.14 02:56:35.
