data_PCOD8191452
_publ_section_title
;
Structure prediction by ZEFSAII (Michael W. Deem and Ramdas Pophale) SiO2 
 PCOD8191452
Probable space group: I M A 2
;
_chemical_formula_sum "Si O2"
_cell_formula_units_Z 64
_cell_length_a 8.894361
_cell_length_b 23.070919
_cell_length_c 18.894728
_cell_angle_alpha 90.000000
_cell_angle_beta 90.000000
_cell_angle_gamma 90.000000
_cell_volume 3877.218633
_symmetry_space_group_name_H-M "I M A 2"
_symmetry_group_IT_number 46
_symmetry_cell_setting 'orthorhombic'
loop_
_space_group_symop_operation_xyz
x,y,z
-x,-y,z
1/2-x,y,z
1/2+x,-y,z
1/2+x,1/2+y,1/2+z
1/2-x,1/2-y,1/2+z
-x,1/2+y,1/2+z
x,1/2-y,1/2+z
loop_
_atom_site_type_symbol
_atom_site_label
_atom_site_fract_x
_atom_site_fract_y
_atom_site_fract_z
Si Si1 0.422994 0.161206 0.621140
Si Si2 0.421920 0.748396 0.851067
Si Si3 0.927460 0.561869 0.483979
Si Si4 0.576252 0.159940 0.064241
Si Si5 0.577582 0.265525 0.694710
Si Si6 0.073356 0.938366 0.699012
Si Si7 0.424675 0.883968 0.847897
Si Si8 0.423305 0.265067 0.989251
O O1 0.250000 0.146966 0.635788
O O2 0.469560 0.213819 0.671845
O O3 0.519572 0.104318 0.636809
O O4 0.450983 0.179653 0.539622
O O5 0.250000 0.738676 0.873703
O O6 0.456308 0.717613 0.775890
O O7 0.458886 0.816155 0.842908
O O8 0.528324 0.718516 0.909555
O O9 0.750000 0.555651 0.485002
O O10 0.000000 0.500000 0.496809
O O11 0.979995 0.602911 0.548342
O O12 0.977103 0.588024 0.409259
O O13 0.750000 0.146943 0.047909
O O14 0.549662 0.178113 0.145882
O O15 0.526118 0.211474 0.012553
O O16 0.750000 0.243510 0.687044
O O17 0.250000 0.945039 0.693950
O O18 0.023369 0.912997 0.774695
O O19 0.000000 0.000000 0.686168
O O20 0.250000 0.896340 0.863425
O O21 0.250000 0.245552 0.992039
#
# Coordination Sequence:
#
# PCOD8191452 Si02
#       8
#     8   8   8   8   8   8   8   8
#     4  10  20  33  49  71  99 130 167 207 246 290
#     4  10  18  31  51  75 102 133 166 200 244 296
#     4  12  24  36  51  70  98 133 173 209 245 290
#     4  10  19  33  52  72  97 129 165 205 249 292
#     4   9  18  33  52  73  98 129 164 203 247 296
#     4  11  22  36  52  71  98 132 172 209 247 292
#     4  10  20  34  50  71 101 134 171 206 238 286
#     4  10  20  32  48  73 101 130 165 204 247 293
#
# _framework density 16.506678999999998
#
# number of rings (size 3 to 8) (size 9 to 14) (size 15 to 20)
#    0.000    1.750    2.500    3.000    0.000    4.500 
#    0.000    0.000    0.000    0.000    0.000    0.875 
#    0.000    6.000    0.000    0.000    0.000    0.000 
#
# Total GULP energy -396889.344671 kJ/mol
# GULP energy per Si atom -12402.792021 kJ/mol
# Density = 1.646911 g / cm^3
# Si number density = 16.506679 Si / 1000 Ang^3
#
#
#
# Elastic Constant Matrix: (Units=GPa)
#
#
# Indices 1 2 3 4 5 6 
#
# 1 88.2643 46.8124 48.3303 0.0000 0.0000 0.0000
# 2 46.8124 79.5574 51.8896 0.0000 0.0000 0.0000
# 3 48.3303 51.8896 115.1591 0.0000 0.0000 0.0000
# 4 0.0000 0.0000 0.0000 19.2994 0.0000 0.0000
# 5 0.0000 0.0000 0.0000 0.0000 22.0647 0.0000
# 6 0.0000 0.0000 0.0000 0.0000 0.0000 26.9600
#
#
#
# Elastic Compliance Matrix: (Units=1/GPa)
#
#
# Indices 1 2 3 4 5 6 
#
# 1 0.017598 -0.007843 -0.003852 0.000000 0.000000 0.000000
# 2 -0.007843 0.021296 -0.006304 0.000000 0.000000 0.000000
# 3 -0.003852 -0.006304 0.013141 0.000000 0.000000 0.000000
# 4 0.000000 0.000000 0.000000 0.051815 0.000000 0.000000
# 5 0.000000 0.000000 0.000000 0.000000 0.045321 0.000000
# 6 0.000000 0.000000 0.000000 0.000000 0.000000 0.037092
#
#
# Mechanical properties :
#
#
# Convention : Reuss Voigt Hill
#
# Bulk Modulus (GPa) = 62.35415 64.11614 63.23514
# Shear Modulus (GPa) = 21.96767 22.72807 22.34787
#
# Velocity S-wave (km/s) = 3.65202 3.71469 3.68349
# Velocity P-wave (km/s) = 7.45923 7.57135 7.51550
#
# Compressibility (1/GPa) = 0.01603742
#
# Stress axis : x y z
#
# Youngs Moduli (GPa) = 56.82395 46.95683 76.09841
#
# Poissons Ratio (x) = 0.36827 0.29312
# Poissons Ratio (y) = 0.44565 0.47975
# Poissons Ratio (z) = 0.21888 0.29603
#
# Static dielectric constant tensor:
#      x y z
#    x 3.199310 0.000000 0.000000 
#    y 0.000000 2.996220 0.000000 
#    z 0.000000 0.000000 3.293400 
# 
# 
# High freq. dielectric constant tensor:
#      x y z
#    x 1.647260 0.000000 0.000000 
#    y 0.000000 1.605900 0.000000 
#    z 0.000000 0.000000 1.633330 
# 
# From -- ./inp_files/18577.got.cif
#   From: 2010.03.12/outbox.cif.g09.slc.cpg/sg46_10_cif.got.tgz:18577.got - 2010.04.14 02:56:35.
