data_PCOD8191722
_publ_section_title
;
Structure prediction by ZEFSAII (Michael W. Deem and Ramdas Pophale) SiO2 
 PCOD8191722
Probable space group: I M A 2
;
_chemical_formula_sum "Si O2"
_cell_formula_units_Z 64
_cell_length_a 9.003664
_cell_length_b 23.321910
_cell_length_c 18.957013
_cell_angle_alpha 90.000000
_cell_angle_beta 90.000000
_cell_angle_gamma 90.000000
_cell_volume 3980.643664
_symmetry_space_group_name_H-M "I M A 2"
_symmetry_group_IT_number 46
_symmetry_cell_setting 'orthorhombic'
loop_
_space_group_symop_operation_xyz
x,y,z
-x,-y,z
1/2-x,y,z
1/2+x,-y,z
1/2+x,1/2+y,1/2+z
1/2-x,1/2-y,1/2+z
-x,1/2+y,1/2+z
x,1/2-y,1/2+z
loop_
_atom_site_type_symbol
_atom_site_label
_atom_site_fract_x
_atom_site_fract_y
_atom_site_fract_z
Si Si1 0.923489 0.833357 0.036830
Si Si2 0.577429 0.253953 0.766864
Si Si3 0.080335 0.767094 0.611873
Si Si4 0.075766 0.438800 0.906488
Si Si5 0.925219 0.764755 0.904104
Si Si6 0.077128 0.124624 0.261120
Si Si7 0.924819 0.339589 0.981416
Si Si8 0.923976 0.559821 0.619961
O O1 0.750000 0.829796 0.048583
O O2 0.978446 0.896804 0.057969
O O3 0.986468 0.788013 0.091663
O O4 0.966384 0.817306 0.956406
O O5 0.750000 0.255173 0.787127
O O6 0.550282 0.219107 0.694015
O O7 0.486569 0.219667 0.826871
O O8 0.521076 0.318689 0.759936
O O9 0.250000 0.749466 0.599302
O O10 0.040773 0.821535 0.562526
O O11 0.250000 0.444997 0.920580
O O12 0.041366 0.411020 0.831023
O O13 0.000000 0.500000 0.909918
O O14 0.003728 0.400076 0.967967
O O15 0.750000 0.752997 0.901666
O O16 0.005374 0.706906 0.928682
O O17 0.250000 0.142135 0.256948
O O18 0.029096 0.085138 0.195600
O O19 0.750000 0.344343 0.966365
O O20 0.750000 0.549399 0.617071
O O21 0.000000 0.500000 0.605160
#
# Coordination Sequence:
#
# PCOD8191722 Si02
#       8
#     8   8   8   8   8   8   8   8
#     4   9  18  32  49  68  93 126 161 198 239 283
#     4  11  20  30  48  73  99 130 161 194 240 288
#     4   9  19  32  48  71  97 124 157 197 243 291
#     4  11  22  34  49  70  97 132 171 202 237 283
#     4  10  19  31  48  70  96 126 160 198 241 289
#     4  10  20  33  47  66  97 132 167 199 229 274
#     4  10  19  33  50  70  96 125 159 202 245 286
#     4  10  20  33  48  68  94 129 166 200 236 276
#
# _framework density 16.077801999999998
#
# number of rings (size 3 to 8) (size 9 to 14) (size 15 to 20)
#    0.000    2.000    2.500    1.875    0.000    3.000 
#    0.000    0.000    0.000    0.000    0.000    0.875 
#    0.000    4.000    0.000    0.000    0.000    0.000 
#
# Total GULP energy -396776.128679 kJ/mol
# GULP energy per Si atom -12399.254021 kJ/mol
# Density = 1.604121 g / cm^3
# Si number density = 16.077802 Si / 1000 Ang^3
#
#
#
# Elastic Constant Matrix: (Units=GPa)
#
#
# Indices 1 2 3 4 5 6 
#
# 1 62.7713 42.2309 43.9064 0.0000 0.0000 0.0000
# 2 42.2309 91.0406 63.1037 0.0000 0.0000 0.0000
# 3 43.9064 63.1037 114.4579 0.0000 0.0000 0.0000
# 4 0.0000 0.0000 0.0000 22.1894 0.0000 0.0000
# 5 0.0000 0.0000 0.0000 0.0000 24.0220 0.0000
# 6 0.0000 0.0000 0.0000 0.0000 0.0000 24.9918
#
#
#
# Elastic Compliance Matrix: (Units=1/GPa)
#
#
# Indices 1 2 3 4 5 6 
#
# 1 0.024905 -0.007980 -0.005154 0.000000 0.000000 0.000000
# 2 -0.007980 0.020335 -0.008150 0.000000 0.000000 0.000000
# 3 -0.005154 -0.008150 0.015207 0.000000 0.000000 0.000000
# 4 0.000000 0.000000 0.000000 0.045067 0.000000 0.000000
# 5 0.000000 0.000000 0.000000 0.000000 0.041628 0.000000
# 6 0.000000 0.000000 0.000000 0.000000 0.000000 0.040013
#
#
# Mechanical properties :
#
#
# Convention : Reuss Voigt Hill
#
# Bulk Modulus (GPa) = 55.93218 62.97241 59.45229
# Shear Modulus (GPa) = 21.21499 22.17589 21.69544
#
# Velocity S-wave (km/s) = 3.63646 3.71790 3.67741
# Velocity P-wave (km/s) = 7.24540 7.59491 7.42221
#
# Compressibility (1/GPa) = 0.01787880
#
# Stress axis : x y z
#
# Youngs Moduli (GPa) = 40.15315 49.17644 65.75851
#
# Poissons Ratio (x) = 0.39244 0.33891
# Poissons Ratio (y) = 0.32043 0.53593
# Poissons Ratio (z) = 0.20694 0.40079
#
# Static dielectric constant tensor:
#      x y z
#    x 3.132400 0.000000 0.000000 
#    y 0.000000 2.982790 0.000000 
#    z 0.000000 0.000000 3.366350 
# 
# 
# High freq. dielectric constant tensor:
#      x y z
#    x 1.629240 0.000000 0.000000 
#    y 0.000000 1.589260 0.000000 
#    z 0.000000 0.000000 1.618990 
# 
# From -- ./inp_files/18630.got.cif
#   From: 2010.03.12/outbox.cif.g09.slc.cpg/sg46_10_cif.got.tgz:18630.got - 2010.04.14 02:56:35.
