data_PCOD8191228
_publ_section_title
;
Structure prediction by ZEFSAII (Michael W. Deem and Ramdas Pophale) SiO2 
 PCOD8191228
Probable space group: I M A 2
;
_chemical_formula_sum "Si O2"
_cell_formula_units_Z 64
_cell_length_a 9.047106
_cell_length_b 20.745594
_cell_length_c 19.727635
_cell_angle_alpha 90.000000
_cell_angle_beta 90.000000
_cell_angle_gamma 90.000000
_cell_volume 3702.632229
_symmetry_space_group_name_H-M "I M A 2"
_symmetry_group_IT_number 46
_symmetry_cell_setting 'orthorhombic'
loop_
_space_group_symop_operation_xyz
x,y,z
-x,-y,z
1/2-x,y,z
1/2+x,-y,z
1/2+x,1/2+y,1/2+z
1/2-x,1/2-y,1/2+z
-x,1/2+y,1/2+z
x,1/2-y,1/2+z
loop_
_atom_site_type_symbol
_atom_site_label
_atom_site_fract_x
_atom_site_fract_y
_atom_site_fract_z
Si Si1 0.924071 0.065066 0.186720
Si Si2 0.077102 0.433748 0.267842
Si Si3 0.925951 0.317781 0.191563
Si Si4 0.922759 0.235425 0.553185
Si Si5 0.422015 0.125873 0.910214
Si Si6 0.576755 0.188378 0.264847
Si Si7 0.076282 0.880226 0.043911
Si Si8 0.577331 0.260748 0.904877
O O1 0.750000 0.058752 0.197736
O O2 0.991386 0.124402 0.230596
O O3 0.963591 0.075425 0.107771
O O4 0.000000 0.000000 0.212672
O O5 0.250000 0.438341 0.252384
O O6 0.046154 0.420240 0.346822
O O7 0.000000 0.500000 0.247134
O O8 0.008744 0.378627 0.221293
O O9 0.750000 0.327664 0.198758
O O10 0.981677 0.310263 0.113306
O O11 0.981944 0.253744 0.230455
O O12 0.750000 0.240714 0.565187
O O13 0.984744 0.308186 0.558892
O O14 0.961789 0.207541 0.478176
O O15 0.250000 0.135017 0.923879
O O16 0.490148 0.195121 0.893331
O O17 0.495518 0.093325 0.976605
O O18 0.750000 0.185558 0.251578
O O19 0.536668 0.189287 0.345005
O O20 0.250000 0.879415 0.029198
O O21 0.750000 0.242483 0.901905
#
# Coordination Sequence:
#
# PCOD8191228 Si02
#       8
#     8   8   8   8   8   8   8   8
#     4  10  20  34  50  73 104 137 174 213 250 294
#     4  11  24  38  51  72 102 135 170 208 253 303
#     4  10  17  31  55  78  99 128 167 212 256 295
#     4   8  14  26  49  78 100 122 161 208 248 292
#     4  10  20  32  47  72 104 131 162 207 252 293
#     4   9  16  29  53  78  99 131 174 211 246 296
#     4   9  17  31  50  70  98 137 175 203 236 295
#     4   9  16  29  52  77  99 131 171 204 243 298
#
# _framework density 17.285
#
# number of rings (size 3 to 8) (size 9 to 14) (size 15 to 20)
#    0.000    2.500    2.500    1.500    0.000    2.500 
#    0.000    6.250    0.000    0.750    0.000    1.750 
#    0.000    0.000    0.000    0.000    0.000    0.000 
#
# Total GULP energy -396649.660322 kJ/mol
# GULP energy per Si atom -12395.301885 kJ/mol
# Density = 1.724566 g / cm^3
# Si number density = 17.285000 Si / 1000 Ang^3
#
#
#
# Elastic Constant Matrix: (Units=GPa)
#
#
# Indices 1 2 3 4 5 6 
#
# 1 48.7060 37.9534 40.5291 0.0000 0.0000 0.0000
# 2 37.9534 119.5223 67.7925 0.0000 0.0000 0.0000
# 3 40.5291 67.7925 125.5605 0.0000 0.0000 0.0000
# 4 0.0000 0.0000 0.0000 23.3327 0.0000 0.0000
# 5 0.0000 0.0000 0.0000 0.0000 17.8541 0.0000
# 6 0.0000 0.0000 0.0000 0.0000 0.0000 23.4126
#
#
#
# Elastic Compliance Matrix: (Units=1/GPa)
#
#
# Indices 1 2 3 4 5 6 
#
# 1 0.030761 -0.005962 -0.006710 0.000000 0.000000 0.000000
# 2 -0.005962 0.013215 -0.005211 0.000000 0.000000 0.000000
# 3 -0.006710 -0.005211 0.012944 0.000000 0.000000 0.000000
# 4 0.000000 0.000000 0.000000 0.042858 0.000000 0.000000
# 5 0.000000 0.000000 0.000000 0.000000 0.056009 0.000000
# 6 0.000000 0.000000 0.000000 0.000000 0.000000 0.042712
#
#
# Mechanical properties :
#
#
# Convention : Reuss Voigt Hill
#
# Bulk Modulus (GPa) = 47.27242 65.14877 56.21059
# Shear Modulus (GPa) = 20.71968 22.75414 21.73691
#
# Velocity S-wave (km/s) = 3.46599 3.63217 3.55006
# Velocity P-wave (km/s) = 6.58981 7.44063 7.02811
#
# Compressibility (1/GPa) = 0.02115398
#
# Stress axis : x y z
#
# Youngs Moduli (GPa) = 32.50903 75.66971 77.25799
#
# Poissons Ratio (x) = 0.45113 0.51841
# Poissons Ratio (y) = 0.19381 0.40258
# Poissons Ratio (z) = 0.21814 0.39430
#
# Static dielectric constant tensor:
#      x y z
#    x 2.962940 0.000000 0.000000 
#    y 0.000000 3.048450 0.000000 
#    z 0.000000 0.000000 3.563740 
# 
# 
# High freq. dielectric constant tensor:
#      x y z
#    x 1.640600 0.000000 0.000000 
#    y 0.000000 1.641570 0.000000 
#    z 0.000000 0.000000 1.678660 
# 
# From -- ./inp_files/21296.got.cif
#   From: 2010.03.12/outbox.cif.g09.slc.cpg/sg46_11_cif.got.tgz:21296.got - 2010.04.14 02:56:35.
