data_PCOD8191548
_publ_section_title
;
Structure prediction by ZEFSAII (Michael W. Deem and Ramdas Pophale) SiO2 
 PCOD8191548
Probable space group: I M A 2
;
_chemical_formula_sum "Si O2"
_cell_formula_units_Z 60
_cell_length_a 14.344180
_cell_length_b 24.137473
_cell_length_c 8.671171
_cell_angle_alpha 90.000000
_cell_angle_beta 90.000000
_cell_angle_gamma 90.000000
_cell_volume 3002.239110
_symmetry_space_group_name_H-M "I M A 2"
_symmetry_group_IT_number 46
_symmetry_cell_setting 'orthorhombic'
loop_
_space_group_symop_operation_xyz
x,y,z
-x,-y,z
1/2-x,y,z
1/2+x,-y,z
1/2+x,1/2+y,1/2+z
1/2-x,1/2-y,1/2+z
-x,1/2+y,1/2+z
x,1/2-y,1/2+z
loop_
_atom_site_type_symbol
_atom_site_label
_atom_site_fract_x
_atom_site_fract_y
_atom_site_fract_z
Si Si1 0.143818 0.317718 0.640500
Si Si2 0.855905 0.400911 0.280924
Si Si3 0.500000 0.000000 0.258650
Si Si4 0.145101 0.935050 0.445271
Si Si5 0.356854 0.834069 0.239324
Si Si6 0.005067 0.601524 0.541571
Si Si7 0.434372 0.786787 0.708719
Si Si8 0.441882 0.263205 0.930278
O O1 0.250000 0.335735 0.663628
O O2 0.096298 0.309714 0.810060
O O3 0.138668 0.260259 0.543285
O O4 0.090745 0.363680 0.537719
O O5 0.750000 0.410617 0.348486
O O6 0.945149 0.419815 0.384297
O O7 0.862658 0.336341 0.234054
O O8 0.868265 0.437802 0.128282
O O9 0.585739 0.016301 0.367440
O O10 0.475983 0.051180 0.149987
O O11 0.250000 0.949043 0.396714
O O12 0.120092 0.872681 0.387425
O O13 0.250000 0.837045 0.192417
O O14 0.413650 0.858010 0.097378
O O15 0.385009 0.770527 0.258988
O O16 0.519199 0.789498 0.832099
O O17 0.475111 0.788816 0.535178
#
# Coordination Sequence:
#
# PCOD8191548 Si02
#       8
#     8   8   4   8   8   8   8   8
#     4  11  22  39  59  83 116 160 202 245 291 338
#     4  11  22  36  60  94 129 156 183 231 295 363
#     4  10  24  42  66  80 110 152 198 256 306 342
#     4   9  21  39  62  89 116 153 198 243 296 355
#     4  10  18  33  57  87 126 164 194 225 277 357
#     4  11  22  39  59  87 115 154 200 244 297 349
#     4  11  18  32  56  89 128 160 190 226 279 352
#     4  10  20  34  56  83 121 160 197 239 280 341
#
# _framework density 19.985084000000001
#
# number of rings (size 3 to 8) (size 9 to 14) (size 15 to 20)
#    0.000    1.600    4.000    2.000    1.867    1.600 
#    0.000    4.000    0.000    0.800    0.000    0.000 
#    0.000    0.000    0.000    0.000    0.000    0.000 
#
# Total GULP energy -371677.501808 kJ/mol
# GULP energy per Si atom -12389.250060 kJ/mol
# Density = 1.993960 g / cm^3
# Si number density = 19.985084 Si / 1000 Ang^3
#
#
#
# Elastic Constant Matrix: (Units=GPa)
#
#
# Indices 1 2 3 4 5 6 
#
# 1 122.7571 39.9917 47.2587 -0.0013 -0.0004 0.0002
# 2 39.9917 79.5782 24.3934 -0.0002 -0.0005 0.0001
# 3 47.2587 24.3934 94.1544 0.0063 -0.0014 0.0009
# 4 -0.0013 -0.0002 0.0063 22.4887 -0.0009 0.0002
# 5 -0.0004 -0.0005 -0.0014 -0.0009 28.7568 0.0005
# 6 0.0002 0.0001 0.0009 0.0002 0.0005 24.0608
#
#
#
# Elastic Compliance Matrix: (Units=1/GPa)
#
#
# Indices 1 2 3 4 5 6 
#
# 1 0.011296 -0.004279 -0.004561 0.000002 0.000000 0.000000
# 2 -0.004279 0.015271 -0.001809 0.000000 0.000000 0.000000
# 3 -0.004561 -0.001809 0.013379 -0.000004 0.000001 0.000000
# 4 0.000002 0.000000 -0.000004 0.044467 0.000001 0.000000
# 5 0.000000 0.000000 0.000001 0.000001 0.034774 -0.000001
# 6 0.000000 0.000000 0.000000 0.000000 -0.000001 0.041561
#
#
# Mechanical properties :
#
#
# Convention : Reuss Voigt Hill
#
# Bulk Modulus (GPa) = 53.62379 57.75305 55.68842
# Shear Modulus (GPa) = 26.55874 27.38433 26.97153
#
# Velocity S-wave (km/s) = 3.64940 3.70569 3.67765
# Velocity P-wave (km/s) = 6.68189 6.87534 6.77931
#
# Compressibility (1/GPa) = 0.01864844
#
# Stress axis : x y z
#
# Youngs Moduli (GPa) = 88.52653 65.48401 74.74443
#
# Poissons Ratio (x) = 0.28018 0.34093
# Poissons Ratio (y) = 0.37877 0.13520
# Poissons Ratio (z) = 0.40380 0.11845
#
# Static dielectric constant tensor:
#      x y z
#    x 3.629890 0.000000 0.000000 
#    y 0.000000 3.341960 0.000000 
#    z 0.000000 0.000000 3.845970 
# 
# 
# High freq. dielectric constant tensor:
#      x y z
#    x 1.772370 0.000000 0.000000 
#    y 0.000000 1.747790 0.000000 
#    z 0.000000 0.000000 1.791670 
# 
# From -- ./inp_files/6039.got.cif
#   From: 2010.03.12/outbox.cif.g09.slc.cpg/sg46_4_cif.got.tgz:6039.got - 2010.04.14 02:56:35.
