data_PCOD8191889
_publ_section_title
;
Structure prediction by ZEFSAII (Michael W. Deem and Ramdas Pophale) SiO2 
 PCOD8191889
Probable space group: I M A 2
;
_chemical_formula_sum "Si O2"
_cell_formula_units_Z 64
_cell_length_a 8.928374
_cell_length_b 33.348159
_cell_length_c 11.694726
_cell_angle_alpha 90.000000
_cell_angle_beta 90.000000
_cell_angle_gamma 90.000000
_cell_volume 3482.044272
_symmetry_space_group_name_H-M "I M A 2"
_symmetry_group_IT_number 46
_symmetry_cell_setting 'orthorhombic'
loop_
_space_group_symop_operation_xyz
x,y,z
-x,-y,z
1/2-x,y,z
1/2+x,-y,z
1/2+x,1/2+y,1/2+z
1/2-x,1/2-y,1/2+z
-x,1/2+y,1/2+z
x,1/2-y,1/2+z
loop_
_atom_site_type_symbol
_atom_site_label
_atom_site_fract_x
_atom_site_fract_y
_atom_site_fract_z
Si Si1 0.085483 0.679829 0.056170
Si Si2 0.574645 0.876662 0.962741
Si Si3 0.071912 0.719413 0.833979
Si Si4 0.926746 0.852846 0.219758
Si Si5 0.916811 0.101028 0.420339
Si Si6 0.426389 0.457460 0.341408
Si Si7 0.074594 0.041352 0.582675
Si Si8 0.073039 0.688631 0.303273
O O1 0.250000 0.698898 0.077965
O O2 0.002159 0.679692 0.177978
O O3 0.005830 0.706111 0.957773
O O4 0.099789 0.635023 0.014260
O O5 0.750000 0.873982 0.939684
O O6 0.516943 0.920761 0.922111
O O7 0.500168 0.840712 0.893621
O O8 0.534118 0.869575 0.094629
O O9 0.250000 0.711244 0.826281
O O10 0.028820 0.765486 0.825020
O O11 0.993739 0.692077 0.736461
O O12 0.750000 0.851470 0.241764
O O13 0.003713 0.883829 0.305913
O O14 0.750000 0.084609 0.390416
O O15 0.020670 0.069073 0.480682
O O16 0.500000 0.500000 0.377524
O O17 0.250000 0.463727 0.353891
O O18 0.471358 0.445155 0.211390
O O19 0.250000 0.036993 0.574014
O O20 0.000000 0.000000 0.553529
O O21 0.250000 0.681502 0.309448
#
# Coordination Sequence:
#
# PCOD8191889 Si02
#       8
#     8   8   8   8   8   8   8   8
#     4   8  16  31  48  73 102 130 167 214 267 313
#     4  10  22  38  54  78 112 145 182 229 277 327
#     4   9  19  34  53  76 105 138 177 227 274 320
#     4  10  21  37  55  74 105 147 185 223 273 329
#     4  10  19  34  55  76 105 139 177 223 267 318
#     4   9  19  36  57  82 113 146 180 224 276 328
#     4  10  19  32  54  83 112 140 174 217 272 329
#     4  10  20  32  54  80 104 137 177 223 270 324
#
# _framework density 18.380008
#
# number of rings (size 3 to 8) (size 9 to 14) (size 15 to 20)
#    0.000    2.500    0.000    2.625    1.750    2.500 
#    0.000    3.125    0.000    1.500    0.000    0.000 
#    0.000    0.000    0.000    0.000    0.000    0.000 
#
# Total GULP energy -396602.167150 kJ/mol
# GULP energy per Si atom -12393.817723 kJ/mol
# Density = 1.833817 g / cm^3
# Si number density = 18.380008 Si / 1000 Ang^3
#
#
#
# Elastic Constant Matrix: (Units=GPa)
#
#
# Indices 1 2 3 4 5 6 
#
# 1 54.8109 44.7143 46.1237 -0.0001 -0.0004 0.0000
# 2 44.7143 132.9500 81.0281 0.0015 -0.0005 0.0000
# 3 46.1237 81.0281 127.3786 0.0061 -0.0009 -0.0004
# 4 -0.0001 0.0015 0.0061 25.4960 -0.0004 0.0001
# 5 -0.0004 -0.0005 -0.0009 -0.0004 23.4307 0.0010
# 6 0.0000 0.0000 -0.0004 0.0001 0.0010 29.3735
#
#
#
# Elastic Compliance Matrix: (Units=1/GPa)
#
#
# Indices 1 2 3 4 5 6 
#
# 1 0.028404 -0.005364 -0.006873 0.000002 0.000000 0.000000
# 2 -0.005364 0.013297 -0.006516 0.000001 0.000000 0.000000
# 3 -0.006873 -0.006516 0.014484 -0.000003 0.000000 0.000000
# 4 0.000002 0.000001 -0.000003 0.039222 0.000001 0.000000
# 5 0.000000 0.000000 0.000000 0.000001 0.042679 -0.000001
# 6 0.000000 0.000000 0.000000 0.000000 -0.000001 0.034044
#
#
# Mechanical properties :
#
#
# Convention : Reuss Voigt Hill
#
# Bulk Modulus (GPa) = 53.53576 73.20796 63.37186
# Shear Modulus (GPa) = 23.16277 25.21160 24.18718
#
# Velocity S-wave (km/s) = 3.55380 3.70765 3.63154
# Velocity P-wave (km/s) = 6.78452 7.63188 7.22064
#
# Compressibility (1/GPa) = 0.01867911
#
# Stress axis : x y z
#
# Youngs Moduli (GPa) = 35.20609 75.20431 69.04028
#
# Poissons Ratio (x) = 0.40342 0.47450
# Poissons Ratio (y) = 0.18886 0.44988
# Poissons Ratio (z) = 0.24196 0.49004
#
# Static dielectric constant tensor:
#      x y z
#    x 3.669970 0.000000 0.000010 
#    y 0.000000 3.367890 0.000000 
#    z 0.000010 0.000000 3.516510 
# 
# 
# High freq. dielectric constant tensor:
#      x y z
#    x 1.700150 0.000000 0.000000 
#    y 0.000000 1.713100 0.000000 
#    z 0.000000 0.000000 1.716560 
# 
# From -- ./inp_files/9666.got.cif
#   From: 2010.03.12/outbox.cif.g09.slc.cpg/sg46_5_cif.got.tgz:9666.got - 2010.04.14 02:56:35.
