data_PCOD8191291
_publ_section_title
;
Structure prediction by ZEFSAII (Michael W. Deem and Ramdas Pophale) SiO2 
 PCOD8191291
Probable space group: I M A 2
;
_chemical_formula_sum "Si O2"
_cell_formula_units_Z 64
_cell_length_a 8.709410
_cell_length_b 26.429840
_cell_length_c 18.456700
_cell_angle_alpha 90.000000
_cell_angle_beta 90.000000
_cell_angle_gamma 90.000000
_cell_volume 4248.516633
_symmetry_space_group_name_H-M "I M A 2"
_symmetry_group_IT_number 46
_symmetry_cell_setting 'orthorhombic'
loop_
_space_group_symop_operation_xyz
x,y,z
-x,-y,z
1/2-x,y,z
1/2+x,-y,z
1/2+x,1/2+y,1/2+z
1/2-x,1/2-y,1/2+z
-x,1/2+y,1/2+z
x,1/2-y,1/2+z
loop_
_atom_site_type_symbol
_atom_site_label
_atom_site_fract_x
_atom_site_fract_y
_atom_site_fract_z
Si Si1 0.567871 0.053613 0.237110
Si Si2 0.070540 0.552413 0.572045
Si Si3 0.427802 0.297043 0.357935
Si Si4 0.570416 0.243280 0.237491
Si Si5 0.068131 0.147802 0.318652
Si Si6 0.928033 0.204210 0.436884
Si Si7 0.070836 0.354191 0.495621
Si Si8 0.073212 0.739740 0.573954
O O1 0.750000 0.053872 0.246809
O O2 0.518546 0.064773 0.154148
O O3 0.492483 0.095695 0.286979
O O4 0.500000 0.000000 0.262208
O O5 0.250000 0.546312 0.568064
O O6 0.000000 0.500000 0.544533
O O7 0.019516 0.596257 0.518290
O O8 0.250000 0.297261 0.337236
O O9 0.524332 0.293870 0.283050
O O10 0.467198 0.247461 0.403044
O O11 0.468967 0.344187 0.410459
O O12 0.750000 0.232842 0.244316
O O13 0.482945 0.194075 0.267258
O O14 0.520831 0.253581 0.154850
O O15 0.250000 0.146361 0.324297
O O16 0.994241 0.153150 0.400006
O O17 0.750000 0.211240 0.414952
O O18 0.948616 0.209710 0.523939
O O19 0.250000 0.363608 0.506398
O O20 0.025411 0.306997 0.545529
O O21 0.250000 0.722043 0.572103
#
# Coordination Sequence:
#
# PCOD8191291 Si02
#       8
#     8   8   8   8   8   8   8   8
#     4  10  20  33  46  62  83 109 140 175 210 244
#     4  10  20  32  46  62  83 109 140 175 210 245
#     4   9  17  28  40  58  82 108 138 172 206 244
#     4  10  18  28  42  61  84 111 142 175 208 247
#     4  11  20  29  42  61  84 112 143 173 206 247
#     4   9  16  28  43  58  79 108 139 173 208 244
#     4  10  19  29  43  61  83 111 143 174 207 246
#     4   9  18  29  42  61  84 110 142 175 209 247
#
# _framework density 15.064082000000001
#
# number of rings (size 3 to 8) (size 9 to 14) (size 15 to 20)
#    0.000    2.250    0.000    5.625    0.000    7.500 
#    0.000    0.000    0.000    0.000    0.000    0.000 
#    0.000    1.000    0.000    5.250    0.000    4.500 
#
# Total GULP energy -396593.533330 kJ/mol
# GULP energy per Si atom -12393.547917 kJ/mol
# Density = 1.502980 g / cm^3
# Si number density = 15.064082 Si / 1000 Ang^3
#
#
#
# Elastic Constant Matrix: (Units=GPa)
#
#
# Indices 1 2 3 4 5 6 
#
# 1 50.2963 31.4052 35.4876 0.0000 0.0000 0.0000
# 2 31.4052 82.8556 52.1365 0.0000 0.0000 0.0000
# 3 35.4876 52.1365 107.1135 0.0002 -0.0002 0.0000
# 4 0.0000 0.0000 0.0002 17.6878 -0.0001 0.0000
# 5 0.0000 0.0000 -0.0002 -0.0001 14.3344 0.0000
# 6 0.0000 0.0000 0.0000 0.0000 0.0000 25.1318
#
#
#
# Elastic Compliance Matrix: (Units=1/GPa)
#
#
# Indices 1 2 3 4 5 6 
#
# 1 0.028519 -0.007012 -0.006036 0.000000 0.000000 0.000000
# 2 -0.007012 0.019122 -0.006984 0.000000 0.000000 0.000000
# 3 -0.006036 -0.006984 0.014735 0.000000 0.000000 0.000000
# 4 0.000000 0.000000 0.000000 0.056536 0.000000 0.000000
# 5 0.000000 0.000000 0.000000 0.000000 0.069762 0.000000
# 6 0.000000 0.000000 0.000000 0.000000 0.000000 0.039790
#
#
# Mechanical properties :
#
#
# Convention : Reuss Voigt Hill
#
# Bulk Modulus (GPa) = 44.81821 53.14711 48.98266
# Shear Modulus (GPa) = 18.11824 19.51321 18.81573
#
# Velocity S-wave (km/s) = 3.47182 3.60300 3.53802
# Velocity P-wave (km/s) = 6.77405 7.25714 7.01975
#
# Compressibility (1/GPa) = 0.02231236
#
# Stress axis : x y z
#
# Youngs Moduli (GPa) = 35.06447 52.29653 67.86523
#
# Poissons Ratio (x) = 0.36669 0.40961
# Poissons Ratio (y) = 0.24586 0.47399
# Poissons Ratio (z) = 0.21164 0.36525
#
# Static dielectric constant tensor:
#      x y z
#    x 3.019210 0.000000 0.000000 
#    y 0.000000 2.888540 0.000000 
#    z 0.000000 0.000000 3.328250 
# 
# 
# High freq. dielectric constant tensor:
#      x y z
#    x 1.596130 0.000000 0.000000 
#    y 0.000000 1.540190 0.000000 
#    z 0.000000 0.000000 1.570030 
# 
# From -- ./inp_files/18689.got.cif
#   From: 2010.03.12/outbox.cif.g09.slc.cpg/sg46_10_cif.got.tgz:18689.got - 2010.04.14 02:56:35.
