data_PCOD8191013
_publ_section_title
;
Structure prediction by ZEFSAII (Michael W. Deem and Ramdas Pophale) SiO2 
 PCOD8191013
Probable space group: I B A 2
;
_chemical_formula_sum "Si O2"
_cell_formula_units_Z 60
_cell_length_a 18.637788
_cell_length_b 11.658707
_cell_length_c 12.281351
_cell_angle_alpha 90.000000
_cell_angle_beta 90.000000
_cell_angle_gamma 90.000000
_cell_volume 2668.645578
_symmetry_space_group_name_H-M "I B A 2"
_symmetry_group_IT_number 45
_symmetry_cell_setting 'orthorhombic'
loop_
_space_group_symop_operation_xyz
x,y,z
-x,-y,z
-x,y,1/2+z
x,-y,1/2+z
1/2+x,1/2+y,1/2+z
1/2-x,1/2-y,1/2+z
1/2-x,1/2+y,z
1/2+x,1/2-y,z
loop_
_atom_site_type_symbol
_atom_site_label
_atom_site_fract_x
_atom_site_fract_y
_atom_site_fract_z
Si Si1 0.117927 0.405325 0.526140
Si Si2 0.815508 0.038139 0.775528
Si Si3 0.370303 0.661385 0.894453
Si Si4 0.398637 0.297420 0.631603
Si Si5 0.537713 0.796152 0.227434
Si Si6 0.500000 0.000000 0.379257
Si Si7 0.221872 0.225933 0.441769
Si Si8 0.288068 0.094037 0.630009
O O1 0.069283 0.354763 0.621001
O O2 0.150657 0.302885 0.453492
O O3 0.182209 0.479438 0.574618
O O4 0.070808 0.490415 0.452823
O O5 0.858076 0.088369 0.672144
O O6 0.781645 0.145662 0.836887
O O7 0.869121 0.971721 0.857747
O O8 0.753737 0.948023 0.738111
O O9 0.400136 0.731168 0.792011
O O10 0.290180 0.695028 0.925905
O O11 0.416592 0.684256 0.003413
O O12 0.474297 0.289591 0.693024
O O13 0.352171 0.182597 0.657099
O O14 0.503524 0.889081 0.305818
O O15 0.229863 0.152106 0.551508
#
# Coordination Sequence:
#
# PCOD8191013 Si02
#       8
#     8   8   8   8   8   4   8   8
#     4  12  24  42  68  99 136 178 225 288 350 413
#     4  12  23  41  67  97 132 178 224 279 349 411
#     4  11  25  44  66  96 132 175 226 281 343 422
#     4  11  25  44  66  97 135 174 228 287 342 419
#     4  12  25  44  67  95 134 182 229 281 349 420
#     4  12  24  42  68 102 134 176 230 286 348 412
#     4  11  23  41  66  99 134 171 224 285 343 413
#     4  11  22  41  66  99 134 172 224 286 346 410
#
# _framework density 22.483315999999999
#
# number of rings (size 3 to 8) (size 9 to 14) (size 15 to 20)
#    0.000    0.533    0.000   10.800    0.000    2.667 
#    0.000    1.333    0.000    0.000    0.000    0.000 
#    0.000    0.000    0.000    0.000    0.000    0.000 
#
# Total GULP energy -372178.413837 kJ/mol
# GULP energy per Si atom -12405.947128 kJ/mol
# Density = 2.243214 g / cm^3
# Si number density = 22.483316 Si / 1000 Ang^3
#
#
#
# Elastic Constant Matrix: (Units=GPa)
#
#
# Indices 1 2 3 4 5 6 
#
# 1 79.2471 23.6785 38.2292 0.0000 0.0000 0.0000
# 2 23.6785 88.0932 33.1809 0.0000 0.0000 0.0000
# 3 38.2292 33.1809 116.0914 0.0000 0.0000 0.0000
# 4 0.0000 0.0000 0.0000 50.6503 0.0000 0.0000
# 5 0.0000 0.0000 0.0000 0.0000 -569.4878 0.0000
# 6 0.0000 0.0000 0.0000 0.0000 0.0000 32.4487
#
#
#
# Elastic Compliance Matrix: (Units=1/GPa)
#
#
# Indices 1 2 3 4 5 6 
#
# 1 0.015482 -0.002512 -0.004381 0.000000 0.000000 0.000000
# 2 -0.002512 0.013129 -0.002925 0.000000 0.000000 0.000000
# 3 -0.004381 -0.002925 0.010893 0.000000 0.000000 0.000000
# 4 0.000000 0.000000 0.000000 0.019743 0.000000 0.000000
# 5 0.000000 0.000000 0.000000 0.000000 -0.001756 0.000000
# 6 0.000000 0.000000 0.000000 0.000000 0.000000 0.030818
#
#
# Mechanical properties :
#
#
# Convention : Reuss Voigt Hill
#
# Bulk Modulus (GPa) = 50.33049 52.62321 51.47685
# Shear Modulus (GPa) = 43.64287 -84.72156 -20.53935
#
# Velocity S-wave (km/s) = 4.41060 -6.14522 -3.02576
# Velocity P-wave (km/s) = 6.95501 5.18608 3.27694
#
# Compressibility (1/GPa) = 0.01986867
#
# Stress axis : x y z
#
# Youngs Moduli (GPa) = 64.58949 76.17005 91.80596
#
# Poissons Ratio (x) = 0.19130 0.40216
# Poissons Ratio (y) = 0.16222 0.26856
# Poissons Ratio (z) = 0.28294 0.22282
#
# Static dielectric constant tensor:
#      x y z
#    x 5.422690 0.000000 0.000000 
#    y 0.000000 4.230450 0.000000 
#    z 0.000000 0.000000 4.294650 
# 
# 
# High freq. dielectric constant tensor:
#      x y z
#    x 1.877090 0.000000 0.000000 
#    y 0.000000 1.892540 0.000000 
#    z 0.000000 0.000000 1.903850 
# 
# From -- ./inp_files/4668.got.cif
#   From: 2010.03.12/outbox.cif.g09.slc.cpg/sg45_3_cif.got.tgz:4668.got - 2010.04.14 02:50:11.
