data_PCOD8191849
_publ_section_title
;
Structure prediction by ZEFSAII (Michael W. Deem and Ramdas Pophale) SiO2 
 PCOD8191849
Probable space group: I M A 2
;
_chemical_formula_sum "Si O2"
_cell_formula_units_Z 64
_cell_length_a 8.939522
_cell_length_b 18.579403
_cell_length_c 20.982818
_cell_angle_alpha 90.000000
_cell_angle_beta 90.000000
_cell_angle_gamma 90.000000
_cell_volume 3485.056844
_symmetry_space_group_name_H-M "I M A 2"
_symmetry_group_IT_number 46
_symmetry_cell_setting 'orthorhombic'
loop_
_space_group_symop_operation_xyz
x,y,z
-x,-y,z
1/2-x,y,z
1/2+x,-y,z
1/2+x,1/2+y,1/2+z
1/2-x,1/2-y,1/2+z
-x,1/2+y,1/2+z
x,1/2-y,1/2+z
loop_
_atom_site_type_symbol
_atom_site_label
_atom_site_fract_x
_atom_site_fract_y
_atom_site_fract_z
Si Si1 0.075501 0.923307 0.075570
Si Si2 0.426255 0.421846 0.800820
Si Si3 0.925571 0.922438 0.812054
Si Si4 0.926876 0.328259 0.693064
Si Si5 0.074780 0.324716 0.191137
Si Si6 0.074463 0.077330 0.576308
Si Si7 0.422100 0.425011 0.938928
Si Si8 0.925788 0.077428 0.935260
O O1 0.250000 0.938291 0.082459
O O2 0.019177 0.866366 0.127756
O O3 0.040405 0.889250 0.005302
O O4 0.000000 0.000000 0.087302
O O5 0.500000 0.500000 0.793041
O O6 0.250000 0.429685 0.788130
O O7 0.496746 0.367130 0.751904
O O8 0.459240 0.386435 0.871429
O O9 0.750000 0.933641 0.821485
O O10 0.961988 0.871146 0.753257
O O11 0.994750 0.882887 0.875396
O O12 0.000000 0.000000 0.799569
O O13 0.750000 0.332391 0.700978
O O14 0.978553 0.246756 0.692802
O O15 0.250000 0.305800 0.186661
O O16 0.016107 0.368314 0.129753
O O17 0.250000 0.065417 0.585126
O O18 0.034613 0.113011 0.506361
O O19 0.000000 0.000000 0.585363
O O20 0.500000 0.500000 0.937236
O O21 0.250000 0.443705 0.940922
O O22 0.750000 0.072562 0.922097
O O23 0.000000 0.000000 0.935713
#
# Coordination Sequence:
#
# PCOD8191849 Si02
#       8
#     8   8   8   8   8   8   8   8
#     4   9  19  34  53  77 101 127 163 206 249 296
#     4  10  19  33  54  79 106 134 167 207 250 297
#     4  10  19  32  52  78 104 130 165 206 249 298
#     4  11  23  37  52  72 100 135 174 212 252 298
#     4  10  22  37  51  71 102 137 171 208 249 296
#     4   9  17  32  54  78 102 130 166 205 248 297
#     4   8  15  28  49  76 103 129 160 202 247 293
#     4   9  16  29  50  75 102 128 159 202 249 295
#
# _framework density 18.364118999999999
#
# number of rings (size 3 to 8) (size 9 to 14) (size 15 to 20)
#    0.000    2.500    0.000    3.000    0.000    4.500 
#    0.000    1.250    0.000    4.500    0.000    0.000 
#    0.000    0.000    0.000    0.000    0.000    0.000 
#
# Total GULP energy -396454.573252 kJ/mol
# GULP energy per Si atom -12389.205414 kJ/mol
# Density = 1.832232 g / cm^3
# Si number density = 18.364119 Si / 1000 Ang^3
#
#
#
# Elastic Constant Matrix: (Units=GPa)
#
#
# Indices 1 2 3 4 5 6 
#
# 1 71.9696 41.3763 66.5089 0.0000 0.0000 0.0000
# 2 41.3763 87.7409 76.2435 0.0000 0.0000 0.0000
# 3 66.5089 76.2435 204.0341 0.0000 0.0000 0.0000
# 4 0.0000 0.0000 0.0000 0.3939 0.0000 0.0000
# 5 0.0000 0.0000 0.0000 0.0000 17.1506 0.0000
# 6 0.0000 0.0000 0.0000 0.0000 0.0000 26.7364
#
#
#
# Elastic Compliance Matrix: (Units=1/GPa)
#
#
# Indices 1 2 3 4 5 6 
#
# 1 0.021891 -0.006105 -0.004854 0.000000 0.000000 0.000000
# 2 -0.006105 0.018580 -0.004953 0.000000 0.000000 0.000000
# 3 -0.004854 -0.004953 0.008334 0.000000 0.000000 0.000000
# 4 0.000000 0.000000 0.000000 2.538738 0.000000 0.000000
# 5 0.000000 0.000000 0.000000 0.000000 0.058307 0.000000
# 6 0.000000 0.000000 0.000000 0.000000 0.000000 0.037402
#
#
# Mechanical properties :
#
#
# Convention : Reuss Voigt Hill
#
# Bulk Modulus (GPa) = 58.89073 81.33356 70.11214
# Shear Modulus (GPa) = 1.83774 20.83058 11.33416
#
# Velocity S-wave (km/s) = 1.00145 3.37160 2.48703
# Velocity P-wave (km/s) = 5.78577 7.71638 6.81974
#
# Compressibility (1/GPa) = 0.01698060
#
# Stress axis : x y z
#
# Youngs Moduli (GPa) = 45.68187 53.82128 119.98463
#
# Poissons Ratio (x) = 0.32856 0.58246
# Poissons Ratio (y) = 0.27887 0.59429
# Poissons Ratio (z) = 0.22176 0.26658
#
# Static dielectric constant tensor:
#      x y z
#    x 3.841390 0.000000 0.000000 
#    y 0.000000 2.984410 0.000000 
#    z 0.000000 0.000000 4.585560 
# 
# 
# High freq. dielectric constant tensor:
#      x y z
#    x 1.718580 0.000000 0.000000 
#    y 0.000000 1.665180 0.000000 
#    z 0.000000 0.000000 1.746470 
# 
# From -- ./inp_files/23204.got.cif
#   From: 2010.03.12/outbox.cif.g09.slc.cpg/sg46_12_cif.got.tgz:23204.got - 2010.04.14 02:56:35.
