data_PCOD8191310
_publ_section_title
;
Structure prediction by ZEFSAII (Michael W. Deem and Ramdas Pophale) SiO2 
 PCOD8191310
Probable space group: I M A 2
;
_chemical_formula_sum "Si O2"
_cell_formula_units_Z 40
_cell_length_a 8.966013
_cell_length_b 15.657400
_cell_length_c 18.784565
_cell_angle_alpha 90.000000
_cell_angle_beta 90.000000
_cell_angle_gamma 90.000000
_cell_volume 2637.060863
_symmetry_space_group_name_H-M "I M A 2"
_symmetry_group_IT_number 46
_symmetry_cell_setting 'orthorhombic'
loop_
_space_group_symop_operation_xyz
x,y,z
-x,-y,z
1/2-x,y,z
1/2+x,-y,z
1/2+x,1/2+y,1/2+z
1/2-x,1/2-y,1/2+z
-x,1/2+y,1/2+z
x,1/2-y,1/2+z
loop_
_atom_site_type_symbol
_atom_site_label
_atom_site_fract_x
_atom_site_fract_y
_atom_site_fract_z
Si Si1 0.425297 0.588523 0.378380
Si Si2 0.927187 0.247703 0.624383
Si Si3 0.581914 0.913695 0.134391
Si Si4 0.575926 0.087234 0.715414
Si Si5 0.081789 0.318030 0.498555
O O1 0.500000 0.500000 0.401235
O O2 0.250000 0.582054 0.392057
O O3 0.464578 0.609729 0.296773
O O4 0.493935 0.664193 0.425808
O O5 0.750000 0.254710 0.620954
O O6 0.981910 0.164074 0.666201
O O7 0.992512 0.331398 0.665621
O O8 0.995635 0.244410 0.544081
O O9 0.750000 0.915135 0.165057
O O10 0.500000 0.000000 0.157258
O O11 0.584792 0.903498 0.048121
O O12 0.750000 0.073539 0.706190
O O13 0.500000 0.000000 0.690051
O O14 0.250000 0.287744 0.480972
#
# Coordination Sequence:
#
# PCOD8191310 Si02
#       5
#     8   8   8   8   8
#     4  10  18  28  43  65  92 121 149 181 224 274
#     4   9  17  30  45  63  89 120 153 188 224 267
#     4   9  17  26  40  62  88 115 145 179 219 263
#     4   9  19  32  47  67  92 123 156 187 225 268
#     4   9  18  28  41  63  89 117 149 181 219 264
#
# _framework density 15.168403
#
# number of rings (size 3 to 8) (size 9 to 14) (size 15 to 20)
#    1.200    1.600    0.000    2.400    0.000    4.000 
#    0.000    0.000    0.000    0.000    0.000    1.400 
#    0.000    6.400    0.000    0.000    0.000    0.000 
#
# Total GULP energy -247819.702546 kJ/mol
# GULP energy per Si atom -12390.985127 kJ/mol
# Density = 1.513388 g / cm^3
# Si number density = 15.168403 Si / 1000 Ang^3
#
#
#
# Elastic Constant Matrix: (Units=GPa)
#
#
# Indices 1 2 3 4 5 6 
#
# 1 99.6238 50.6289 38.2174 0.0000 0.0000 0.0000
# 2 50.6289 109.4224 54.8167 0.0000 0.0000 0.0000
# 3 38.2174 54.8167 69.5760 0.0000 0.0000 0.0000
# 4 0.0000 0.0000 0.0000 28.8557 0.0000 0.0000
# 5 0.0000 0.0000 0.0000 0.0000 18.5535 0.0000
# 6 0.0000 0.0000 0.0000 0.0000 0.0000 24.5141
#
#
#
# Elastic Compliance Matrix: (Units=1/GPa)
#
#
# Indices 1 2 3 4 5 6 
#
# 1 0.013836 -0.004286 -0.004223 0.000000 0.000000 0.000000
# 2 -0.004286 0.016426 -0.010587 0.000000 0.000000 0.000000
# 3 -0.004223 -0.010587 0.025034 0.000000 0.000000 0.000000
# 4 0.000000 0.000000 0.000000 0.034655 0.000000 0.000000
# 5 0.000000 0.000000 0.000000 0.000000 0.053898 0.000000
# 6 0.000000 0.000000 0.000000 0.000000 0.000000 0.040793
#
#
# Mechanical properties :
#
#
# Convention : Reuss Voigt Hill
#
# Bulk Modulus (GPa) = 58.46939 62.88314 60.67626
# Shear Modulus (GPa) = 21.87849 23.38195 22.63022
#
# Velocity S-wave (km/s) = 3.80198 3.93044 3.86674
# Velocity P-wave (km/s) = 7.60946 7.88318 7.74753
#
# Compressibility (1/GPa) = 0.01710297
#
# Stress axis : x y z
#
# Youngs Moduli (GPa) = 72.27489 60.87976 39.94637
#
# Poissons Ratio (x) = 0.26095 0.16869
# Poissons Ratio (y) = 0.30979 0.42291
# Poissons Ratio (z) = 0.30522 0.64453
#
# Static dielectric constant tensor:
#      x y z
#    x 2.977260 0.000000 0.000000 
#    y 0.000000 2.725230 0.000000 
#    z 0.000000 0.000000 2.699980 
# 
# 
# High freq. dielectric constant tensor:
#      x y z
#    x 1.599630 0.000000 0.000000 
#    y 0.000000 1.553620 0.000000 
#    z 0.000000 0.000000 1.547430 
# 
# From -- ./inp_files/13661.got.cif
#   From: 2010.03.12/outbox.cif.g09.slc.cpg/sg46_7_cif.got.tgz:13661.got - 2010.04.14 02:56:35.
