data_PCOD8191679
_publ_section_title
;
Structure prediction by ZEFSAII (Michael W. Deem and Ramdas Pophale) SiO2 
 PCOD8191679
Probable space group: I M A 2
;
_chemical_formula_sum "Si O2"
_cell_formula_units_Z 48
_cell_length_a 9.200809
_cell_length_b 23.434839
_cell_length_c 13.678163
_cell_angle_alpha 90.000000
_cell_angle_beta 90.000000
_cell_angle_gamma 90.000000
_cell_volume 2949.278360
_symmetry_space_group_name_H-M "I M A 2"
_symmetry_group_IT_number 46
_symmetry_cell_setting 'orthorhombic'
loop_
_space_group_symop_operation_xyz
x,y,z
-x,-y,z
1/2-x,y,z
1/2+x,-y,z
1/2+x,1/2+y,1/2+z
1/2-x,1/2-y,1/2+z
-x,1/2+y,1/2+z
x,1/2-y,1/2+z
loop_
_atom_site_type_symbol
_atom_site_label
_atom_site_fract_x
_atom_site_fract_y
_atom_site_fract_z
Si Si1 0.579291 0.942913 0.037920
Si Si2 0.584547 0.340133 0.627249
Si Si3 0.917034 0.270293 0.813749
Si Si4 0.418227 0.720656 0.033959
Si Si5 0.078273 0.171130 0.708952
Si Si6 0.080803 0.443878 0.313495
O O1 0.750000 0.950412 0.053494
O O2 0.524875 0.890686 0.103255
O O3 0.500000 0.000000 0.074561
O O4 0.538177 0.930411 0.925456
O O5 0.750000 0.360139 0.608822
O O6 0.560222 0.323122 0.740380
O O7 0.546281 0.286229 0.559113
O O8 0.750000 0.249265 0.810821
O O9 0.016414 0.217391 0.784075
O O10 0.960122 0.291239 0.921801
O O11 0.250000 0.707743 0.056145
O O12 0.513401 0.678688 0.100674
O O13 0.250000 0.178562 0.705017
O O14 0.032110 0.108994 0.747063
O O15 0.250000 0.456177 0.304252
O O16 0.000000 0.500000 0.274602
#
# Coordination Sequence:
#
# PCOD8191679 Si02
#       6
#     8   8   8   8   8   8
#     4  10  19  31  47  67  92 121 152 186 228 274
#     4   9  17  29  46  69  94 119 151 189 226 267
#     4   9  18  32  49  69  94 125 159 190 224 272
#     4   9  18  32  49  69  94 126 159 188 224 273
#     4  10  19  30  46  71  99 122 151 192 234 275
#     4   9  19  32  46  67  93 121 152 187 227 273
#
# _framework density 16.275168000000001
#
# number of rings (size 3 to 8) (size 9 to 14) (size 15 to 20)
#    0.000    2.667    0.000    3.000    0.000    5.333 
#    0.000    0.000    0.000    1.000    0.000    2.333 
#    0.000    0.000    0.000    0.000    0.000    0.000 
#
# Total GULP energy -297643.750029 kJ/mol
# GULP energy per Si atom -12401.822918 kJ/mol
# Density = 1.623813 g / cm^3
# Si number density = 16.275168 Si / 1000 Ang^3
#
#
#
# Elastic Constant Matrix: (Units=GPa)
#
#
# Indices 1 2 3 4 5 6 
#
# 1 74.8188 61.1186 45.5498 -0.0001 0.0000 0.0000
# 2 61.1186 114.9142 60.3382 -0.0002 0.0000 0.0000
# 3 45.5498 60.3382 114.8447 0.0001 -0.0001 0.0000
# 4 -0.0001 -0.0002 0.0001 22.0580 0.0000 0.0000
# 5 0.0000 0.0000 -0.0001 0.0000 25.2316 0.0000
# 6 0.0000 0.0000 0.0000 0.0000 0.0000 32.4136
#
#
#
# Elastic Compliance Matrix: (Units=1/GPa)
#
#
# Indices 1 2 3 4 5 6 
#
# 1 0.024916 -0.011135 -0.004032 0.000000 0.000000 0.000000
# 2 -0.011135 0.016993 -0.004512 0.000000 0.000000 0.000000
# 3 -0.004032 -0.004512 0.012677 0.000000 0.000000 0.000000
# 4 0.000000 0.000000 0.000000 0.045335 0.000000 0.000000
# 5 0.000000 0.000000 0.000000 0.000000 0.039633 0.000000
# 6 0.000000 0.000000 0.000000 0.000000 0.000000 0.030851
#
#
# Mechanical properties :
#
#
# Convention : Reuss Voigt Hill
#
# Bulk Modulus (GPa) = 65.66385 70.95455 68.30920
# Shear Modulus (GPa) = 23.27310 25.11205 24.19258
#
# Velocity S-wave (km/s) = 3.78561 3.93232 3.85966
# Velocity P-wave (km/s) = 7.71630 8.01929 7.86926
#
# Compressibility (1/GPa) = 0.01522908
#
# Stress axis : x y z
#
# Youngs Moduli (GPa) = 40.13420 58.84625 78.88216
#
# Poissons Ratio (x) = 0.65525 0.31807
# Poissons Ratio (y) = 0.44689 0.35590
# Poissons Ratio (z) = 0.16183 0.26550
#
# Static dielectric constant tensor:
#      x y z
#    x 3.061180 0.000000 0.000000 
#    y 0.000000 2.941370 0.000000 
#    z 0.000000 0.000000 3.133580 
# 
# 
# High freq. dielectric constant tensor:
#      x y z
#    x 1.631140 0.000000 0.000000 
#    y 0.000000 1.611530 0.000000 
#    z 0.000000 0.000000 1.619430 
# 
# From -- ./inp_files/14015.got.cif
#   From: 2010.03.12/outbox.cif.g09.slc.cpg/sg46_8_cif.got.tgz:14015.got - 2010.04.14 02:56:35.
