data_PCOD8191984
_publ_section_title
;
Structure prediction by ZEFSAII (Michael W. Deem and Ramdas Pophale) SiO2 
 PCOD8191984
Probable space group: I M A 2
;
_chemical_formula_sum "Si O2"
_cell_formula_units_Z 48
_cell_length_a 8.567076
_cell_length_b 23.387763
_cell_length_c 11.914652
_cell_angle_alpha 90.000000
_cell_angle_beta 90.000000
_cell_angle_gamma 90.000000
_cell_volume 2387.276187
_symmetry_space_group_name_H-M "I M A 2"
_symmetry_group_IT_number 46
_symmetry_cell_setting 'orthorhombic'
loop_
_space_group_symop_operation_xyz
x,y,z
-x,-y,z
1/2-x,y,z
1/2+x,-y,z
1/2+x,1/2+y,1/2+z
1/2-x,1/2-y,1/2+z
-x,1/2+y,1/2+z
x,1/2-y,1/2+z
loop_
_atom_site_type_symbol
_atom_site_label
_atom_site_fract_x
_atom_site_fract_y
_atom_site_fract_z
Si Si1 0.065340 0.564291 0.596650
Si Si2 0.065322 0.851348 0.285328
Si Si3 0.424389 0.558195 0.196987
Si Si4 0.431877 0.369509 0.386825
Si Si5 0.423805 0.844731 0.530100
Si Si6 0.065189 0.724136 0.236643
O O1 0.250000 0.559144 0.597689
O O2 0.001728 0.596059 0.709686
O O3 0.000000 0.500000 0.586093
O O4 0.017571 0.606129 0.495944
O O5 0.250000 0.858350 0.293955
O O6 0.988686 0.850656 0.410248
O O7 0.020678 0.790453 0.231304
O O8 0.500000 0.500000 0.159214
O O9 0.250000 0.551447 0.248117
O O10 0.537469 0.586138 0.287602
O O11 0.417034 0.592733 0.082128
O O12 0.250000 0.365092 0.413213
O O13 0.494751 0.307182 0.347103
O O14 0.250000 0.820525 0.506293
O O15 0.505276 0.802417 0.620884
O O16 0.250000 0.712294 0.241472
#
# Coordination Sequence:
#
# PCOD8191984 Si02
#       6
#     8   8   8   8   8   8
#     4  11  23  39  59  85 117 158 200 242 288 345
#     4   9  19  34  58  86 113 151 194 235 282 343
#     4  10  19  33  55  81 111 145 185 234 281 335
#     4  11  22  37  57  83 116 151 188 238 291 345
#     4   8  16  31  51  81 113 139 180 232 280 333
#     4   9  18  34  60  88 113 144 190 242 286 340
#
# _framework density 20.106597000000001
#
# number of rings (size 3 to 8) (size 9 to 14) (size 15 to 20)
#    0.000    2.333    0.000    4.000    2.333    0.667 
#    0.000    1.667    0.000   10.000    0.000    0.000 
#    0.000    0.000    0.000    0.000    0.000    0.000 
#
# Total GULP energy -297415.494120 kJ/mol
# GULP energy per Si atom -12392.312255 kJ/mol
# Density = 2.006083 g / cm^3
# Si number density = 20.106597 Si / 1000 Ang^3
#
#
#
# Elastic Constant Matrix: (Units=GPa)
#
#
# Indices 1 2 3 4 5 6 
#
# 1 55.3708 22.8513 14.1322 0.0000 -0.0001 -0.0001
# 2 22.8513 98.7933 41.0175 0.0002 0.0001 0.0000
# 3 14.1322 41.0175 133.9133 -0.0016 0.0000 -0.0006
# 4 0.0000 0.0002 -0.0016 20.1113 -0.0002 0.0000
# 5 -0.0001 0.0001 0.0000 -0.0002 11.0154 -0.0002
# 6 -0.0001 0.0000 -0.0006 0.0000 -0.0002 23.2036
#
#
#
# Elastic Compliance Matrix: (Units=1/GPa)
#
#
# Indices 1 2 3 4 5 6 
#
# 1 0.020040 -0.004305 -0.000796 0.000000 0.000000 0.000000
# 2 -0.004305 0.012522 -0.003381 0.000000 0.000000 0.000000
# 3 -0.000796 -0.003381 0.008587 0.000001 0.000000 0.000000
# 4 0.000000 0.000000 0.000001 0.049723 0.000001 0.000000
# 5 0.000000 0.000000 0.000000 0.000001 0.090782 0.000001
# 6 0.000000 0.000000 0.000000 0.000000 0.000001 0.043097
#
#
# Mechanical properties :
#
#
# Convention : Reuss Voigt Hill
#
# Bulk Modulus (GPa) = 41.34888 49.34217 45.34552
# Shear Modulus (GPa) = 20.01793 24.87117 22.44455
#
# Velocity S-wave (km/s) = 3.15872 3.52087 3.34470
# Velocity P-wave (km/s) = 5.82347 6.41266 6.12516
#
# Compressibility (1/GPa) = 0.02418445
#
# Stress axis : x y z
#
# Youngs Moduli (GPa) = 49.90062 79.86200 116.45276
#
# Poissons Ratio (x) = 0.34378 0.09274
# Poissons Ratio (y) = 0.21481 0.39373
# Poissons Ratio (z) = 0.03974 0.27002
#
# Static dielectric constant tensor:
#      x y z
#    x 3.333520 0.000000 0.000000 
#    y 0.000000 3.751000 0.000000 
#    z 0.000000 0.000000 3.928430 
# 
# 
# High freq. dielectric constant tensor:
#      x y z
#    x 1.747460 0.000000 0.000000 
#    y 0.000000 1.790370 0.000000 
#    z 0.000000 0.000000 1.790740 
# 
# From -- ./inp_files/9304.got.cif
#   From: 2010.03.12/outbox.cif.g09.slc.cpg/sg46_5_cif.got.tgz:9304.got - 2010.04.14 02:56:35.
