data_PCOD8191847
_publ_section_title
;
Structure prediction by ZEFSAII (Michael W. Deem and Ramdas Pophale) SiO2 
 PCOD8191847
Probable space group: I M A 2
;
_chemical_formula_sum "Si O2"
_cell_formula_units_Z 64
_cell_length_a 16.396271
_cell_length_b 9.226353
_cell_length_c 22.137505
_cell_angle_alpha 90.000000
_cell_angle_beta 90.000000
_cell_angle_gamma 90.000000
_cell_volume 3348.912703
_symmetry_space_group_name_H-M "I M A 2"
_symmetry_group_IT_number 46
_symmetry_cell_setting 'orthorhombic'
loop_
_space_group_symop_operation_xyz
x,y,z
-x,-y,z
1/2-x,y,z
1/2+x,-y,z
1/2+x,1/2+y,1/2+z
1/2-x,1/2-y,1/2+z
-x,1/2+y,1/2+z
x,1/2-y,1/2+z
loop_
_atom_site_type_symbol
_atom_site_label
_atom_site_fract_x
_atom_site_fract_y
_atom_site_fract_z
Si Si1 0.154316 0.145170 0.328420
Si Si2 0.155575 0.381688 0.555389
Si Si3 0.344527 0.143215 0.463413
Si Si4 0.597369 0.334429 0.608327
Si Si5 0.474701 0.161286 0.772570
Si Si6 0.658909 0.047073 0.571151
Si Si7 0.067802 0.316488 0.134906
Si Si8 0.080504 0.588231 0.741709
O O1 0.250000 0.182151 0.325013
O O2 0.121934 0.113191 0.396300
O O3 0.102217 0.286718 0.311435
O O4 0.137665 0.007229 0.285126
O O5 0.250000 0.424189 0.548650
O O6 0.121533 0.287820 0.497927
O O7 0.102278 0.526424 0.564795
O O8 0.145351 0.281170 0.615252
O O9 0.250000 0.172688 0.457100
O O10 0.363124 0.998969 0.502470
O O11 0.660402 0.218791 0.580758
O O12 0.508688 0.262060 0.603417
O O13 0.623127 0.372586 0.677802
O O14 0.442460 0.171224 0.705193
O O15 0.553536 0.266989 0.778424
O O16 0.500000 0.000000 0.792262
O O17 0.750000 0.987884 0.586433
O O18 0.587889 0.980088 0.613638
O O19 0.000000 0.500000 0.723069
#
# Coordination Sequence:
#
# PCOD8191847 Si02
#       8
#     8   8   8   8   8   8   8   8
#     4  10  20  37  59  76  97 139 191 224 250 308
#     4  10  19  32  52  77 106 135 169 212 256 305
#     4   8  18  37  54  71 101 141 175 210 259 307
#     4  11  19  31  52  82 109 131 165 214 266 305
#     4  10  20  36  54  76 110 142 168 214 278 320
#     4  10  20  34  53  76 106 139 171 209 255 310
#     4  10  19  34  52  73 106 144 168 197 258 326
#     4   9  19  35  55  77 108 143 170 208 265 319
#
# _framework density 19.110681
#
# number of rings (size 3 to 8) (size 9 to 14) (size 15 to 20)
#    0.000    2.250    0.000    6.000    0.000    3.000 
#    0.000   11.875    0.000    3.000    0.000    0.000 
#    0.000    0.000    0.000    0.000    0.000    0.000 
#
# Total GULP energy -396524.148571 kJ/mol
# GULP energy per Si atom -12391.379643 kJ/mol
# Density = 1.906718 g / cm^3
# Si number density = 19.110681 Si / 1000 Ang^3
#
#
#
# Elastic Constant Matrix: (Units=GPa)
#
#
# Indices 1 2 3 4 5 6 
#
# 1 51.2683 27.7163 46.7275 0.0000 0.0000 0.0000
# 2 27.7163 145.0746 59.3633 0.0000 0.0000 0.0000
# 3 46.7275 59.3633 114.7003 0.0000 0.0000 0.0000
# 4 0.0000 0.0000 0.0000 13.7479 0.0000 0.0000
# 5 0.0000 0.0000 0.0000 0.0000 17.6581 0.0000
# 6 0.0000 0.0000 0.0000 0.0000 0.0000 27.5431
#
#
#
# Elastic Compliance Matrix: (Units=1/GPa)
#
#
# Indices 1 2 3 4 5 6 
#
# 1 0.031130 -0.000962 -0.012184 0.000000 0.000000 0.000000
# 2 -0.000962 0.008775 -0.004150 0.000000 0.000000 0.000000
# 3 -0.012184 -0.004150 0.015830 0.000000 0.000000 0.000000
# 4 0.000000 0.000000 0.000000 0.072738 0.000000 0.000000
# 5 0.000000 0.000000 0.000000 0.000000 0.056631 0.000000
# 6 0.000000 0.000000 0.000000 0.000000 0.000000 0.036307
#
#
# Mechanical properties :
#
#
# Convention : Reuss Voigt Hill
#
# Bulk Modulus (GPa) = 47.29583 64.29527 55.79555
# Shear Modulus (GPa) = 19.00776 23.60556 21.30666
#
# Velocity S-wave (km/s) = 3.15717 3.51836 3.34265
# Velocity P-wave (km/s) = 6.17191 7.08673 6.64508
#
# Compressibility (1/GPa) = 0.02114351
#
# Stress axis : x y z
#
# Youngs Moduli (GPa) = 32.12295 113.96389 63.17197
#
# Poissons Ratio (x) = 0.10959 0.76972
# Poissons Ratio (y) = 0.03089 0.26214
# Poissons Ratio (z) = 0.39140 0.47290
#
# Static dielectric constant tensor:
#      x y z
#    x 3.394050 0.000000 0.000000 
#    y 0.000000 3.838620 0.000000 
#    z 0.000000 0.000000 3.659720 
# 
# 
# High freq. dielectric constant tensor:
#      x y z
#    x 1.731250 0.000000 0.000000 
#    y 0.000000 1.750750 0.000000 
#    z 0.000000 0.000000 1.723810 
# 
# From -- ./inp_files/22215.got.cif
#   From: 2010.03.12/outbox.cif.g09.slc.cpg/sg46_12_cif.got.tgz:22215.got - 2010.04.14 02:56:35.
