data_PCOD8191810
_publ_section_title
;
Structure prediction by ZEFSAII (Michael W. Deem and Ramdas Pophale) SiO2 
 PCOD8191810
Probable space group: I M A 2
;
_chemical_formula_sum "Si O2"
_cell_formula_units_Z 56
_cell_length_a 8.957200
_cell_length_b 23.923756
_cell_length_c 13.799613
_cell_angle_alpha 90.000000
_cell_angle_beta 90.000000
_cell_angle_gamma 90.000000
_cell_volume 2957.117238
_symmetry_space_group_name_H-M "I M A 2"
_symmetry_group_IT_number 46
_symmetry_cell_setting 'orthorhombic'
loop_
_space_group_symop_operation_xyz
x,y,z
-x,-y,z
1/2-x,y,z
1/2+x,-y,z
1/2+x,1/2+y,1/2+z
1/2-x,1/2-y,1/2+z
-x,1/2+y,1/2+z
x,1/2-y,1/2+z
loop_
_atom_site_type_symbol
_atom_site_label
_atom_site_fract_x
_atom_site_fract_y
_atom_site_fract_z
Si Si1 0.924839 0.376115 0.528300
Si Si2 0.926319 0.660984 0.030819
Si Si3 0.423184 0.334034 0.245709
Si Si4 0.077447 0.944164 0.211155
Si Si5 0.426075 0.224453 0.934569
Si Si6 0.424795 0.057248 0.861511
Si Si7 0.926746 0.057921 0.429534
O O1 0.750000 0.375105 0.504598
O O2 0.957399 0.392755 0.639631
O O3 0.994170 0.315007 0.513065
O O4 0.002419 0.422251 0.461125
O O5 0.750000 0.648557 0.032778
O O6 0.988813 0.676128 0.138404
O O7 0.965183 0.711737 0.958566
O O8 0.012438 0.606607 0.996923
O O9 0.250000 0.321518 0.240150
O O10 0.488331 0.291169 0.326939
O O11 0.455729 0.397583 0.277527
O O12 0.250000 0.958750 0.213048
O O13 0.022932 0.928489 0.319236
O O14 0.000000 0.000000 0.172027
O O15 0.250000 0.212391 0.942212
O O16 0.250000 0.048122 0.879109
O O17 0.500000 0.000000 0.826736
O O18 0.750000 0.053599 0.441033
O O19 0.000000 0.000000 0.464087
#
# Coordination Sequence:
#
# PCOD8191810 Si02
#       7
#     8   8   8   8   8   8   8
#     4  10  19  32  51  76 106 139 176 215 258 306
#     4  10  20  36  58  80 103 135 173 211 256 307
#     4   8  17  34  52  74 106 138 170 211 255 305
#     4   9  19  33  50  74 105 139 172 212 259 308
#     4   9  19  35  54  77 106 138 172 212 257 305
#     4  10  19  32  50  74 106 141 177 216 260 306
#     4  10  21  38  56  77 106 136 171 213 258 307
#
# _framework density 18.937360999999999
#
# number of rings (size 3 to 8) (size 9 to 14) (size 15 to 20)
#    0.000    2.571    0.000    2.571    0.000    5.143 
#    0.000    6.429    0.000    0.000    0.000    0.000 
#    0.000    0.000    0.000    0.000    0.000    0.000 
#
# Total GULP energy -347160.691494 kJ/mol
# GULP energy per Si atom -12398.596125 kJ/mol
# Density = 1.889426 g / cm^3
# Si number density = 18.937361 Si / 1000 Ang^3
#
#
#
# Elastic Constant Matrix: (Units=GPa)
#
#
# Indices 1 2 3 4 5 6 
#
# 1 61.9558 49.4552 38.3425 0.0001 0.0000 0.0000
# 2 49.4552 128.6896 69.8728 -0.0001 0.0000 0.0000
# 3 38.3425 69.8728 116.8074 0.0001 -0.0001 0.0000
# 4 0.0001 -0.0001 0.0001 24.5309 0.0000 0.0000
# 5 0.0000 0.0000 -0.0001 0.0000 23.0956 0.0000
# 6 0.0000 0.0000 0.0000 0.0000 0.0000 32.6268
#
#
#
# Elastic Compliance Matrix: (Units=1/GPa)
#
#
# Indices 1 2 3 4 5 6 
#
# 1 0.024227 -0.007394 -0.003530 0.000000 0.000000 0.000000
# 2 -0.007394 0.013765 -0.005807 0.000000 0.000000 0.000000
# 3 -0.003530 -0.005807 0.013193 0.000000 0.000000 0.000000
# 4 0.000000 0.000000 0.000000 0.040765 0.000000 0.000000
# 5 0.000000 0.000000 0.000000 0.000000 0.043298 0.000000
# 6 0.000000 0.000000 0.000000 0.000000 0.000000 0.030650
#
#
# Mechanical properties :
#
#
# Convention : Reuss Voigt Hill
#
# Bulk Modulus (GPa) = 56.41976 69.19931 62.80953
# Shear Modulus (GPa) = 24.35844 26.03615 25.19730
#
# Velocity S-wave (km/s) = 3.59034 3.71193 3.65164
# Velocity P-wave (km/s) = 6.85893 7.41564 7.14271
#
# Compressibility (1/GPa) = 0.01772429
#
# Stress axis : x y z
#
# Youngs Moduli (GPa) = 41.27626 72.64770 75.79550
#
# Poissons Ratio (x) = 0.53715 0.26753
# Poissons Ratio (y) = 0.30519 0.44014
# Poissons Ratio (z) = 0.14569 0.42187
#
# Static dielectric constant tensor:
#      x y z
#    x 3.358740 0.000000 0.000000 
#    y 0.000000 3.405540 0.000000 
#    z 0.000000 0.000000 3.743560 
# 
# 
# High freq. dielectric constant tensor:
#      x y z
#    x 1.723630 0.000000 0.000000 
#    y 0.000000 1.731690 0.000000 
#    z 0.000000 0.000000 1.737220 
# 
# From -- ./inp_files/14156.got.cif
#   From: 2010.03.12/outbox.cif.g09.slc.cpg/sg46_8_cif.got.tgz:14156.got - 2010.04.14 02:56:35.
