data_PCOD8191755
_publ_section_title
;
Structure prediction by ZEFSAII (Michael W. Deem and Ramdas Pophale) SiO2 
 PCOD8191755
Probable space group: I M A 2
;
_chemical_formula_sum "Si O2"
_cell_formula_units_Z 48
_cell_length_a 8.857567
_cell_length_b 9.587773
_cell_length_c 30.678369
_cell_angle_alpha 90.000000
_cell_angle_beta 90.000000
_cell_angle_gamma 90.000000
_cell_volume 2605.340293
_symmetry_space_group_name_H-M "I M A 2"
_symmetry_group_IT_number 46
_symmetry_cell_setting 'orthorhombic'
loop_
_space_group_symop_operation_xyz
x,y,z
-x,-y,z
1/2-x,y,z
1/2+x,-y,z
1/2+x,1/2+y,1/2+z
1/2-x,1/2-y,1/2+z
-x,1/2+y,1/2+z
x,1/2-y,1/2+z
loop_
_atom_site_type_symbol
_atom_site_label
_atom_site_fract_x
_atom_site_fract_y
_atom_site_fract_z
Si Si1 0.927793 0.643350 0.713000
Si Si2 0.073993 0.848106 0.968773
Si Si3 0.572877 0.643733 0.614917
Si Si4 0.428749 0.151817 0.787740
Si Si5 0.571284 0.651688 0.039385
Si Si6 0.924426 0.148913 0.871955
O O1 0.750000 0.625611 0.714936
O O2 0.981821 0.680502 0.663918
O O3 0.983618 0.763115 0.745578
O O4 0.000000 0.500000 0.729016
O O5 0.250000 0.861990 0.981026
O O6 0.055097 0.784084 0.919833
O O7 0.000000 0.000000 0.974211
O O8 0.991839 0.737259 0.998869
O O9 0.500000 0.500000 0.598150
O O10 0.750000 0.620325 0.613098
O O11 0.523013 0.769729 0.583740
O O12 0.250000 0.141770 0.790247
O O13 0.491010 0.228107 0.832002
O O14 0.500000 0.000000 0.783323
O O15 0.500000 0.500000 0.040559
O O16 0.750000 0.638639 0.034747
O O17 0.750000 0.133802 0.859459
O O18 0.000000 0.000000 0.875229
#
# Coordination Sequence:
#
# PCOD8191755 Si02
#       6
#     8   8   8   8   8   8
#     4   9  19  35  53  75 103 134 170 210 253 302
#     4  10  20  35  56  80 105 136 175 216 258 307
#     4   9  19  36  56  77 101 132 171 212 253 302
#     4  10  19  31  50  76 105 136 170 210 253 299
#     4  11  23  37  54  77 107 139 171 213 262 311
#     4   9  17  30  50  75 102 133 170 211 252 297
#
# _framework density 18.423697000000001
#
# number of rings (size 3 to 8) (size 9 to 14) (size 15 to 20)
#    0.000    2.333    0.000    3.500    0.000    6.667 
#    0.000    0.833    0.000    2.000    0.000    0.000 
#    0.000    0.000    0.000    0.000    0.000    0.000 
#
# Total GULP energy -297499.531487 kJ/mol
# GULP energy per Si atom -12395.813812 kJ/mol
# Density = 1.838176 g / cm^3
# Si number density = 18.423697 Si / 1000 Ang^3
#
#
#
# Elastic Constant Matrix: (Units=GPa)
#
#
# Indices 1 2 3 4 5 6 
#
# 1 82.5422 48.6069 59.4904 0.0000 0.0000 0.0000
# 2 48.6069 116.6077 83.3773 0.0000 0.0000 0.0000
# 3 59.4904 83.3773 146.0763 0.0000 0.0000 0.0000
# 4 0.0000 0.0000 0.0000 31.1642 0.0000 0.0000
# 5 0.0000 0.0000 0.0000 0.0000 29.3576 0.0000
# 6 0.0000 0.0000 0.0000 0.0000 0.0000 29.9777
#
#
#
# Elastic Compliance Matrix: (Units=1/GPa)
#
#
# Indices 1 2 3 4 5 6 
#
# 1 0.018115 -0.003845 -0.005182 0.000000 0.000000 0.000000
# 2 -0.003845 0.015305 -0.007170 0.000000 0.000000 0.000000
# 3 -0.005182 -0.007170 0.013049 0.000000 0.000000 0.000000
# 4 0.000000 0.000000 0.000000 0.032088 0.000000 0.000000
# 5 0.000000 0.000000 0.000000 0.000000 0.034063 0.000000
# 6 0.000000 0.000000 0.000000 0.000000 0.000000 0.033358
#
#
# Mechanical properties :
#
#
# Convention : Reuss Voigt Hill
#
# Bulk Modulus (GPa) = 71.05673 80.90839 75.98256
# Shear Modulus (GPa) = 27.31285 28.35000 27.83143
#
# Velocity S-wave (km/s) = 3.85448 3.92698 3.89090
# Velocity P-wave (km/s) = 7.64599 8.03569 7.84326
#
# Compressibility (1/GPa) = 0.01407326
#
# Stress axis : x y z
#
# Youngs Moduli (GPa) = 55.20424 65.33679 76.63579
#
# Poissons Ratio (x) = 0.25124 0.39716
# Poissons Ratio (y) = 0.21228 0.54947
# Poissons Ratio (z) = 0.28609 0.46846
#
# Static dielectric constant tensor:
#      x y z
#    x 3.477710 0.000000 0.000000 
#    y 0.000000 3.264370 0.000000 
#    z 0.000000 0.000000 4.255230 
# 
# 
# High freq. dielectric constant tensor:
#      x y z
#    x 1.724810 0.000000 0.000000 
#    y 0.000000 1.683720 0.000000 
#    z 0.000000 0.000000 1.736360 
# 
# From -- ./inp_files/24982.got.cif
#   From: 2010.03.12/outbox.cif.g09.slc.cpg/sg46_13_cif.got.tgz:24982.got - 2010.04.14 02:56:35.
