data_PCOD8191178
_publ_section_title
;
Structure prediction by ZEFSAII (Michael W. Deem and Ramdas Pophale) SiO2 
 PCOD8191178
Probable space group: I M A 2
;
_chemical_formula_sum "Si O2"
_cell_formula_units_Z 56
_cell_length_a 8.734205
_cell_length_b 13.711780
_cell_length_c 29.510771
_cell_angle_alpha 90.000000
_cell_angle_beta 90.000000
_cell_angle_gamma 90.000000
_cell_volume 3534.254125
_symmetry_space_group_name_H-M "I M A 2"
_symmetry_group_IT_number 46
_symmetry_cell_setting 'orthorhombic'
loop_
_space_group_symop_operation_xyz
x,y,z
-x,-y,z
1/2-x,y,z
1/2+x,-y,z
1/2+x,1/2+y,1/2+z
1/2-x,1/2-y,1/2+z
-x,1/2+y,1/2+z
x,1/2-y,1/2+z
loop_
_atom_site_type_symbol
_atom_site_label
_atom_site_fract_x
_atom_site_fract_y
_atom_site_fract_z
Si Si1 0.931567 0.212629 0.508690
Si Si2 0.069545 0.293131 0.376227
Si Si3 0.068370 0.397315 0.925827
Si Si4 0.431760 0.103830 0.965972
Si Si5 0.071528 0.605186 0.097617
Si Si6 0.429773 0.606427 0.196621
Si Si7 0.568076 0.607796 0.286135
O O1 0.750000 0.219002 0.502909
O O2 0.982544 0.179585 0.558930
O O3 0.997132 0.133390 0.473739
O O4 0.006043 0.318252 0.501983
O O5 0.250000 0.301000 0.375026
O O6 0.020971 0.182097 0.387607
O O7 0.009508 0.364646 0.415989
O O8 0.003554 0.327243 0.327846
O O9 0.250000 0.404077 0.931457
O O10 0.000000 0.500000 0.909875
O O11 0.250000 0.101011 0.968826
O O12 0.500000 0.000000 0.978977
O O13 0.250000 0.586397 0.094062
O O14 0.032190 0.652595 0.147198
O O15 0.000000 0.500000 0.090002
O O16 0.500000 0.500000 0.195511
O O17 0.250000 0.601703 0.205950
O O18 0.509921 0.659974 0.239505
O O19 0.500000 0.500000 0.291179
O O20 0.750000 0.601821 0.286153
#
# Coordination Sequence:
#
# PCOD8191178 Si02
#       7
#     8   8   8   8   8   8   8
#     4  10  19  31  46  66  88 116 149 181 216 257
#     4   8  17  30  44  62  87 115 145 176 212 253
#     4  10  19  32  46  64  89 117 146 181 218 257
#     4  10  19  32  47  65  89 118 147 181 217 255
#     4   9  18  29  43  62  88 117 145 176 214 255
#     4   9  16  27  40  59  85 113 141 173 210 253
#     4  10  17  27  42  62  86 114 142 174 211 252
#
# _framework density 15.844927999999999
#
# number of rings (size 3 to 8) (size 9 to 14) (size 15 to 20)
#    0.000    2.571    0.000    4.714    0.000    2.857 
#    0.000    7.857    0.000    0.000    0.000    1.000 
#    0.000    4.571    0.000    0.000    0.000    0.000 
#
# Total GULP energy -347016.143790 kJ/mol
# GULP energy per Si atom -12393.433707 kJ/mol
# Density = 1.580886 g / cm^3
# Si number density = 15.844928 Si / 1000 Ang^3
#
#
#
# Elastic Constant Matrix: (Units=GPa)
#
#
# Indices 1 2 3 4 5 6 
#
# 1 66.4234 32.7559 43.5194 0.0000 0.0000 0.0000
# 2 32.7559 100.5725 64.4305 0.0000 0.0000 0.0000
# 3 43.5194 64.4305 157.9019 0.0000 0.0000 0.0000
# 4 0.0000 0.0000 0.0000 15.2828 0.0000 0.0000
# 5 0.0000 0.0000 0.0000 0.0000 21.4839 0.0000
# 6 0.0000 0.0000 0.0000 0.0000 0.0000 23.3849
#
#
#
# Elastic Compliance Matrix: (Units=1/GPa)
#
#
# Indices 1 2 3 4 5 6 
#
# 1 0.019455 -0.003928 -0.003759 0.000000 0.000000 0.000000
# 2 -0.003928 0.014255 -0.004734 0.000000 0.000000 0.000000
# 3 -0.003759 -0.004734 0.009301 0.000000 0.000000 0.000000
# 4 0.000000 0.000000 0.000000 0.065433 0.000000 0.000000
# 5 0.000000 0.000000 0.000000 0.000000 0.046546 0.000000
# 6 0.000000 0.000000 0.000000 0.000000 0.000000 0.042763
#
#
# Mechanical properties :
#
#
# Convention : Reuss Voigt Hill
#
# Bulk Modulus (GPa) = 55.04092 67.36771 61.20431
# Shear Modulus (GPa) = 21.86732 24.30982 23.08857
#
# Velocity S-wave (km/s) = 3.71898 3.92118 3.82142
# Velocity P-wave (km/s) = 7.29751 7.94418 7.62770
#
# Compressibility (1/GPa) = 0.01816830
#
# Stress axis : x y z
#
# Youngs Moduli (GPa) = 51.40080 70.14941 107.51737
#
# Poissons Ratio (x) = 0.27555 0.40417
# Poissons Ratio (y) = 0.20191 0.50900
# Poissons Ratio (z) = 0.19322 0.33210
#
# Static dielectric constant tensor:
#      x y z
#    x 3.040890 0.000000 0.000000 
#    y 0.000000 2.824140 0.000000 
#    z 0.000000 0.000000 3.782360 
# 
# 
# High freq. dielectric constant tensor:
#      x y z
#    x 1.615260 0.000000 0.000000 
#    y 0.000000 1.574870 0.000000 
#    z 0.000000 0.000000 1.612650 
# 
# From -- ./inp_files/25227.got.cif
#   From: 2010.03.12/outbox.cif.g09.slc.cpg/sg46_13_cif.got.tgz:25227.got - 2010.04.14 02:56:35.
