data_PCOD8191806
_publ_section_title
;
Structure prediction by ZEFSAII (Michael W. Deem and Ramdas Pophale) SiO2 
 PCOD8191806
Probable space group: I M A 2
;
_chemical_formula_sum "Si O2"
_cell_formula_units_Z 64
_cell_length_a 8.930574
_cell_length_b 30.005456
_cell_length_c 14.357721
_cell_angle_alpha 90.000000
_cell_angle_beta 90.000000
_cell_angle_gamma 90.000000
_cell_volume 3847.380279
_symmetry_space_group_name_H-M "I M A 2"
_symmetry_group_IT_number 46
_symmetry_cell_setting 'orthorhombic'
loop_
_space_group_symop_operation_xyz
x,y,z
-x,-y,z
1/2-x,y,z
1/2+x,-y,z
1/2+x,1/2+y,1/2+z
1/2-x,1/2-y,1/2+z
-x,1/2+y,1/2+z
x,1/2-y,1/2+z
loop_
_atom_site_type_symbol
_atom_site_label
_atom_site_fract_x
_atom_site_fract_y
_atom_site_fract_z
Si Si1 0.425795 0.045283 0.100270
Si Si2 0.925562 0.635742 0.517896
Si Si3 0.081088 0.721561 0.178529
Si Si4 0.416239 0.823277 0.183334
Si Si5 0.073001 0.453871 0.815662
Si Si6 0.572359 0.711486 0.982140
Si Si7 0.926814 0.797885 0.863111
Si Si8 0.927803 0.132813 0.372857
O O1 0.250000 0.039524 0.088858
O O2 0.489987 0.086024 0.036860
O O3 0.468900 0.054957 0.207505
O O4 0.500000 0.000000 0.063569
O O5 0.750000 0.632758 0.525594
O O6 0.973414 0.657400 0.419909
O O7 0.974828 0.669754 0.597481
O O8 0.250000 0.704120 0.159424
O O9 0.083908 0.772155 0.212387
O O10 0.008556 0.695268 0.264841
O O11 0.980487 0.717353 0.087546
O O12 0.250000 0.839266 0.154964
O O13 0.475808 0.850242 0.271375
O O14 0.250000 0.455443 0.831148
O O15 0.000000 0.500000 0.848687
O O16 0.000755 0.416038 0.881482
O O17 0.750000 0.706695 0.979726
O O18 0.520103 0.753784 0.919777
O O19 0.497712 0.665876 0.948079
O O20 0.750000 0.795285 0.846522
O O21 0.750000 0.130661 0.386905
#
# Coordination Sequence:
#
# PCOD8191806 Si02
#       8
#     8   8   8   8   8   8   8   8
#     4   9  18  30  47  70 100 132 166 207 252 300
#     4  10  19  33  50  72  99 134 173 210 249 297
#     4  11  22  36  51  71 102 136 171 213 257 300
#     4  10  20  30  46  71 101 135 169 208 250 296
#     4  10  19  32  50  74 103 137 172 212 258 308
#     4  11  22  35  53  75 100 135 175 213 254 305
#     4  10  21  34  51  73  99 132 172 211 251 302
#     4  11  21  34  50  74 105 139 176 213 255 306
#
# _framework density 16.634695000000001
#
# number of rings (size 3 to 8) (size 9 to 14) (size 15 to 20)
#    0.000    1.750    3.750    1.500    0.000    3.000 
#    0.000    0.000    0.000    0.000    0.000    0.875 
#    0.000    2.000    0.000    0.000    0.000    0.000 
#
# Total GULP energy -396769.185425 kJ/mol
# GULP energy per Si atom -12399.037045 kJ/mol
# Density = 1.659683 g / cm^3
# Si number density = 16.634695 Si / 1000 Ang^3
#
#
#
# Elastic Constant Matrix: (Units=GPa)
#
#
# Indices 1 2 3 4 5 6 
#
# 1 48.4943 40.8456 29.6562 0.0000 0.0000 0.0000
# 2 40.8456 95.5829 28.6539 0.0003 0.0001 0.0000
# 3 29.6562 28.6539 69.7348 0.0006 0.0000 -0.0001
# 4 0.0000 0.0003 0.0006 23.2781 0.0000 0.0000
# 5 0.0000 0.0001 0.0000 0.0000 24.9774 0.0000
# 6 0.0000 0.0000 -0.0001 0.0000 0.0000 27.5719
#
#
#
# Elastic Compliance Matrix: (Units=1/GPa)
#
#
# Indices 1 2 3 4 5 6 
#
# 1 0.038341 -0.013111 -0.010918 0.000001 0.000000 0.000000
# 2 -0.013111 0.016416 -0.001169 0.000000 0.000000 0.000000
# 3 -0.010918 -0.001169 0.019464 -0.000001 0.000000 0.000000
# 4 0.000001 0.000000 -0.000001 0.042959 0.000000 0.000000
# 5 0.000000 0.000000 0.000000 0.000000 0.040036 0.000000
# 6 0.000000 0.000000 0.000000 0.000000 0.000000 0.036269
#
#
# Mechanical properties :
#
#
# Convention : Reuss Voigt Hill
#
# Bulk Modulus (GPa) = 41.97600 45.79150 43.88375
# Shear Modulus (GPa) = 19.85528 22.80923 21.33226
#
# Velocity S-wave (km/s) = 3.45861 3.70697 3.58494
# Velocity P-wave (km/s) = 6.42169 6.77566 6.60105
#
# Compressibility (1/GPa) = 0.02382314
#
# Stress axis : x y z
#
# Youngs Moduli (GPa) = 26.08166 60.91792 51.37806
#
# Poissons Ratio (x) = 0.79872 0.56094
# Poissons Ratio (y) = 0.34197 0.06007
# Poissons Ratio (z) = 0.28476 0.07123
#
# Static dielectric constant tensor:
#      x y z
#    x 3.152110 0.000000 0.000000 
#    y 0.000000 3.279400 0.000000 
#    z 0.000000 0.000000 2.931530 
# 
# 
# High freq. dielectric constant tensor:
#      x y z
#    x 1.648280 0.000000 0.000000 
#    y 0.000000 1.635100 0.000000 
#    z 0.000000 0.000000 1.611770 
# 
# From -- ./inp_files/9689.got.cif
#   From: 2010.03.12/outbox.cif.g09.slc.cpg/sg46_5_cif.got.tgz:9689.got - 2010.04.14 02:56:35.
