data_PCOD8191809
_publ_section_title
;
Structure prediction by ZEFSAII (Michael W. Deem and Ramdas Pophale) SiO2 
 PCOD8191809
Probable space group: I M A 2
;
_chemical_formula_sum "Si O2"
_cell_formula_units_Z 64
_cell_length_a 8.646672
_cell_length_b 14.628665
_cell_length_c 27.446312
_cell_angle_alpha 90.000000
_cell_angle_beta 90.000000
_cell_angle_gamma 90.000000
_cell_volume 3471.663916
_symmetry_space_group_name_H-M "I M A 2"
_symmetry_group_IT_number 46
_symmetry_cell_setting 'orthorhombic'
loop_
_space_group_symop_operation_xyz
x,y,z
-x,-y,z
1/2-x,y,z
1/2+x,-y,z
1/2+x,1/2+y,1/2+z
1/2-x,1/2-y,1/2+z
-x,1/2+y,1/2+z
x,1/2-y,1/2+z
loop_
_atom_site_type_symbol
_atom_site_label
_atom_site_fract_x
_atom_site_fract_y
_atom_site_fract_z
Si Si1 0.426964 0.716700 0.415510
Si Si2 0.567139 0.902689 0.111157
Si Si3 0.567220 0.596129 0.063158
Si Si4 0.930859 0.405620 0.506818
Si Si5 0.569320 0.596643 0.335196
Si Si6 0.932339 0.402885 0.231917
Si Si7 0.932532 0.223971 0.643559
Si Si8 0.430755 0.906775 0.457884
O O1 0.250000 0.697127 0.400673
O O2 0.463527 0.672804 0.467796
O O3 0.536719 0.674984 0.374535
O O4 0.459877 0.824907 0.419717
O O5 0.750000 0.904791 0.114925
O O6 0.516839 0.878177 0.056267
O O7 0.498831 0.826367 0.147354
O O8 0.500000 0.000000 0.127690
O O9 0.500000 0.500000 0.082215
O O10 0.750000 0.592396 0.066193
O O11 0.505249 0.676736 0.096556
O O12 0.515406 0.615890 0.008219
O O13 0.750000 0.418086 0.518081
O O14 0.000000 0.500000 0.485861
O O15 0.500000 0.500000 0.353015
O O16 0.750000 0.583435 0.328487
O O17 0.497720 0.627932 0.284007
O O18 0.750000 0.412278 0.235865
O O19 0.983108 0.327921 0.192553
O O20 0.000000 0.500000 0.215368
O O21 0.750000 0.226044 0.637134
O O22 0.250000 0.919267 0.469023
O O23 0.500000 0.000000 0.434926
#
# Coordination Sequence:
#
# PCOD8191809 Si02
#       8
#     8   8   8   8   8   8   8   8
#     4  10  21  35  53  76 104 138 176 217 262 309
#     4  11  22  36  54  76 106 143 180 221 263 310
#     4  11  21  33  51  77 110 145 179 218 261 312
#     4  10  19  32  50  74 106 141 176 216 260 310
#     4  11  22  36  57  81 109 138 168 209 257 313
#     4  10  21  37  58  81 109 139 169 209 258 311
#     4  11  22  36  55  79 106 139 178 220 264 313
#     4  10  20  35  53  74 105 143 180 222 263 306
#
# _framework density 18.434963
#
# number of rings (size 3 to 8) (size 9 to 14) (size 15 to 20)
#    0.000    1.500    0.000    8.625    0.000    7.000 
#    0.000    0.000    0.000    0.750    0.000    3.500 
#    0.000    0.000    0.000    0.000    0.000    0.000 
#
# Total GULP energy -396938.439826 kJ/mol
# GULP energy per Si atom -12404.326245 kJ/mol
# Density = 1.839300 g / cm^3
# Si number density = 18.434963 Si / 1000 Ang^3
#
#
#
# Elastic Constant Matrix: (Units=GPa)
#
#
# Indices 1 2 3 4 5 6 
#
# 1 112.1481 50.4442 39.2427 0.0000 0.0000 0.0000
# 2 50.4442 132.8505 62.8043 0.0000 0.0000 0.0000
# 3 39.2427 62.8043 74.2256 0.0000 0.0000 0.0000
# 4 0.0000 0.0000 0.0000 22.1470 0.0000 0.0000
# 5 0.0000 0.0000 0.0000 0.0000 26.9911 0.0000
# 6 0.0000 0.0000 0.0000 0.0000 0.0000 33.3827
#
#
#
# Elastic Compliance Matrix: (Units=1/GPa)
#
#
# Indices 1 2 3 4 5 6 
#
# 1 0.011406 -0.002467 -0.003943 0.000000 0.000000 0.000000
# 2 -0.002467 0.013079 -0.009762 0.000000 0.000000 0.000000
# 3 -0.003943 -0.009762 0.023817 0.000000 0.000000 0.000000
# 4 0.000000 0.000000 0.000000 0.045153 0.000000 0.000000
# 5 0.000000 0.000000 0.000000 0.000000 0.037049 0.000000
# 6 0.000000 0.000000 0.000000 0.000000 0.000000 0.029956
#
#
# Mechanical properties :
#
#
# Convention : Reuss Voigt Hill
#
# Bulk Modulus (GPa) = 62.66475 69.35628 66.01051
# Shear Modulus (GPa) = 25.23675 27.61970 26.42822
#
# Velocity S-wave (km/s) = 3.70396 3.87489 3.79039
# Velocity P-wave (km/s) = 7.23592 7.59760 7.41896
#
# Compressibility (1/GPa) = 0.01595794
#
# Stress axis : x y z
#
# Youngs Moduli (GPa) = 87.67198 76.45833 41.98645
#
# Poissons Ratio (x) = 0.18862 0.16555
# Poissons Ratio (y) = 0.21628 0.40988
# Poissons Ratio (z) = 0.34569 0.74641
#
# Static dielectric constant tensor:
#      x y z
#    x 3.518960 0.000000 0.000000 
#    y 0.000000 3.871510 0.000000 
#    z 0.000000 0.000000 3.196620 
# 
# 
# High freq. dielectric constant tensor:
#      x y z
#    x 1.733290 0.000000 0.000000 
#    y 0.000000 1.719890 0.000000 
#    z 0.000000 0.000000 1.688630 
# 
# From -- ./inp_files/25306.got.cif
#   From: 2010.03.12/outbox.cif.g09.slc.cpg/sg46_13_cif.got.tgz:25306.got - 2010.04.14 02:56:35.
