data_PCOD8191191
_publ_section_title
;
Structure prediction by ZEFSAII (Michael W. Deem and Ramdas Pophale) SiO2 
 PCOD8191191
Probable space group: I M A 2
;
_chemical_formula_sum "Si O2"
_cell_formula_units_Z 48
_cell_length_a 8.653610
_cell_length_b 9.159554
_cell_length_c 31.384096
_cell_angle_alpha 90.000000
_cell_angle_beta 90.000000
_cell_angle_gamma 90.000000
_cell_volume 2487.604132
_symmetry_space_group_name_H-M "I M A 2"
_symmetry_group_IT_number 46
_symmetry_cell_setting 'orthorhombic'
loop_
_space_group_symop_operation_xyz
x,y,z
-x,-y,z
1/2-x,y,z
1/2+x,-y,z
1/2+x,1/2+y,1/2+z
1/2-x,1/2-y,1/2+z
-x,1/2+y,1/2+z
x,1/2-y,1/2+z
loop_
_atom_site_type_symbol
_atom_site_label
_atom_site_fract_x
_atom_site_fract_y
_atom_site_fract_z
Si Si1 0.432087 0.159597 0.423520
Si Si2 0.933224 0.837519 0.252545
Si Si3 0.067911 0.659599 0.666505
Si Si4 0.568465 0.159859 0.583594
Si Si5 0.066776 0.662481 0.837481
Si Si6 0.568466 0.659859 0.506433
O O1 0.250000 0.145012 0.417063
O O2 0.506417 0.235268 0.381276
O O3 0.477738 0.262283 0.462562
O O4 0.500000 0.000000 0.432605
O O5 0.750000 0.837707 0.254196
O O6 0.993594 0.764733 0.208751
O O7 0.999994 0.757133 0.295014
O O8 0.000000 0.000000 0.251839
O O9 0.250000 0.645020 0.672958
O O10 0.022244 0.762284 0.627464
O O11 0.000000 0.500000 0.657423
O O12 0.750000 0.150330 0.577558
O O13 0.500009 0.250003 0.545013
O O14 0.500000 0.000000 0.583749
O O15 0.250000 0.662295 0.835825
O O16 0.000000 0.500000 0.838193
O O17 0.500000 0.500000 0.506274
O O18 0.750000 0.650330 0.512476
#
# Coordination Sequence:
#
# PCOD8191191 Si02
#       6
#     8   8   8   8   8   8
#     4  10  20  34  53  80 110 143 181 224 270 320
#     4  10  17  27  46  73 106 142 178 221 266 314
#     4  10  20  34  53  80 110 143 181 224 270 320
#     4  11  24  40  60  83 111 144 182 226 274 328
#     4  10  17  27  46  73 106 142 178 221 266 314
#     4  11  24  40  60  83 111 144 182 226 274 328
#
# _framework density 19.295676
#
# number of rings (size 3 to 8) (size 9 to 14) (size 15 to 20)
#    0.000    1.667    0.000    9.000    0.000    8.000 
#    0.000    0.000    0.000    1.000    0.000    7.000 
#    0.000    0.000    0.000    0.000    0.000    0.000 
#
# Total GULP energy -297559.575370 kJ/mol
# GULP energy per Si atom -12398.315640 kJ/mol
# Density = 1.925176 g / cm^3
# Si number density = 19.295676 Si / 1000 Ang^3
#
#
#
# Elastic Constant Matrix: (Units=GPa)
#
#
# Indices 1 2 3 4 5 6 
#
# 1 138.0214 45.9707 104.6138 0.0000 0.0000 0.0000
# 2 45.9707 96.7762 81.4096 0.0000 0.0000 0.0000
# 3 104.6138 81.4096 226.6922 0.0000 0.0000 0.0000
# 4 0.0000 0.0000 0.0000 2.0335 0.0000 0.0000
# 5 0.0000 0.0000 0.0000 0.0000 36.1995 0.0000
# 6 0.0000 0.0000 0.0000 0.0000 0.0000 25.2988
#
#
#
# Elastic Compliance Matrix: (Units=1/GPa)
#
#
# Indices 1 2 3 4 5 6 
#
# 1 0.011274 -0.001402 -0.004699 0.000000 0.000000 0.000000
# 2 -0.001402 0.014980 -0.004733 0.000000 0.000000 0.000000
# 3 -0.004699 -0.004733 0.008279 0.000000 0.000000 0.000000
# 4 0.000000 0.000000 0.000000 0.491754 0.000000 0.000000
# 5 0.000000 0.000000 0.000000 0.000000 0.027625 0.000000
# 6 0.000000 0.000000 0.000000 0.000000 0.000000 0.039528
#
#
# Mechanical properties :
#
#
# Convention : Reuss Voigt Hill
#
# Bulk Modulus (GPa) = 77.72658 102.83087 90.27872
# Shear Modulus (GPa) = 8.07237 28.00608 18.03923
#
# Velocity S-wave (km/s) = 2.04758 3.81388 3.06090
# Velocity P-wave (km/s) = 6.77934 8.53242 7.70589
#
# Compressibility (1/GPa) = 0.01286561
#
# Stress axis : x y z
#
# Youngs Moduli (GPa) = 88.69910 66.75382 120.78236
#
# Poissons Ratio (x) = 0.09362 0.56757
# Poissons Ratio (y) = 0.12440 0.57161
# Poissons Ratio (z) = 0.41681 0.31592
#
# Static dielectric constant tensor:
#      x y z
#    x 3.690890 0.000000 0.000000 
#    y 0.000000 3.178990 0.000000 
#    z 0.000000 0.000000 4.723880 
# 
# 
# High freq. dielectric constant tensor:
#      x y z
#    x 1.772870 0.000000 0.000000 
#    y 0.000000 1.699860 0.000000 
#    z 0.000000 0.000000 1.786570 
# 
# From -- ./inp_files/24997.got.cif
#   From: 2010.03.12/outbox.cif.g09.slc.cpg/sg46_13_cif.got.tgz:24997.got - 2010.04.14 02:56:35.
