data_PCOD8191574
_publ_section_title
;
Structure prediction by ZEFSAII (Michael W. Deem and Ramdas Pophale) SiO2 
 PCOD8191574
Probable space group: I M A 2
;
_chemical_formula_sum "Si O2"
_cell_formula_units_Z 40
_cell_length_a 8.692731
_cell_length_b 28.595321
_cell_length_c 7.804121
_cell_angle_alpha 90.000000
_cell_angle_beta 90.000000
_cell_angle_gamma 90.000000
_cell_volume 1939.881543
_symmetry_space_group_name_H-M "I M A 2"
_symmetry_group_IT_number 46
_symmetry_cell_setting 'orthorhombic'
loop_
_space_group_symop_operation_xyz
x,y,z
-x,-y,z
1/2-x,y,z
1/2+x,-y,z
1/2+x,1/2+y,1/2+z
1/2-x,1/2-y,1/2+z
-x,1/2+y,1/2+z
x,1/2-y,1/2+z
loop_
_atom_site_type_symbol
_atom_site_label
_atom_site_fract_x
_atom_site_fract_y
_atom_site_fract_z
Si Si1 0.068214 0.202067 0.869780
Si Si2 0.430891 0.197828 0.259196
Si Si3 0.567369 0.600284 0.895756
Si Si4 0.069003 0.889506 0.746830
Si Si5 0.932148 0.050004 0.072235
O O1 0.250000 0.199707 0.834268
O O2 0.999794 0.253391 0.827616
O O3 0.987052 0.164138 0.749622
O O4 0.023518 0.190196 0.063130
O O5 0.250000 0.201005 0.283144
O O6 0.494044 0.153195 0.362453
O O7 0.750000 0.597025 0.885631
O O8 0.498972 0.566026 0.753787
O O9 0.508596 0.585062 0.083333
O O10 0.250000 0.891882 0.723542
O O11 0.015162 0.915198 0.920385
O O12 0.750000 0.047248 0.086303
O O13 0.000000 0.000000 0.024065
#
# Coordination Sequence:
#
# PCOD8191574 Si02
#       5
#     8   8   8   8   8
#     4  10  18  34  58  87 123 164 215 260 305 370
#     4   9  18  32  57  90 123 162 211 262 307 369
#     4  11  22  40  67  95 126 166 211 262 318 374
#     4  11  24  41  61  91 130 168 207 260 319 377
#     4  11  25  45  68  93 126 164 211 264 320 380
#
# _framework density 20.619814000000002
#
# number of rings (size 3 to 8) (size 9 to 14) (size 15 to 20)
#    0.000    1.600    2.000    3.000    0.000    6.400 
#    0.000    7.000    0.000    0.000    0.000    0.000 
#    0.000    0.000    0.000    0.000    0.000    0.000 
#
# Total GULP energy -248049.705673 kJ/mol
# GULP energy per Si atom -12402.485284 kJ/mol
# Density = 2.057288 g / cm^3
# Si number density = 20.619814 Si / 1000 Ang^3
#
#
#
# Elastic Constant Matrix: (Units=GPa)
#
#
# Indices 1 2 3 4 5 6 
#
# 1 65.0270 31.9444 31.8036 0.0030 0.0006 -0.0013
# 2 31.9444 91.5908 40.2871 0.0094 -0.0006 -0.0021
# 3 31.8036 40.2871 73.5674 0.0174 -0.0011 -0.0051
# 4 0.0030 0.0094 0.0174 37.4601 -0.0013 -0.0036
# 5 0.0006 -0.0006 -0.0011 -0.0013 32.2758 0.0018
# 6 -0.0013 -0.0021 -0.0051 -0.0036 0.0018 25.8897
#
#
#
# Elastic Compliance Matrix: (Units=1/GPa)
#
#
# Indices 1 2 3 4 5 6 
#
# 1 0.020729 -0.004331 -0.006589 0.000002 -0.000001 -0.000001
# 2 -0.004331 0.015288 -0.006499 0.000000 0.000000 0.000000
# 3 -0.006589 -0.006499 0.020001 -0.000007 0.000001 0.000003
# 4 0.000002 0.000000 -0.000007 0.026695 0.000001 0.000004
# 5 -0.000001 0.000000 0.000001 0.000001 0.030983 -0.000002
# 6 -0.000001 0.000000 0.000003 0.000004 -0.000002 0.038625
#
#
# Mechanical properties :
#
#
# Convention : Reuss Voigt Hill
#
# Bulk Modulus (GPa) = 47.22053 48.69505 47.95779
# Shear Modulus (GPa) = 25.74411 27.53511 26.63961
#
# Velocity S-wave (km/s) = 3.53726 3.65824 3.59826
# Velocity P-wave (km/s) = 6.29549 6.44287 6.36961
#
# Compressibility (1/GPa) = 0.02117723
#
# Stress axis : x y z
#
# Youngs Moduli (GPa) = 48.24251 65.41264 49.99815
#
# Poissons Ratio (x) = 0.28332 0.32945
# Poissons Ratio (y) = 0.20895 0.32496
# Poissons Ratio (z) = 0.31788 0.42514
#
# Static dielectric constant tensor:
#      x y z
#    x 3.437810 0.000000 -0.000010 
#    y 0.000000 3.831070 0.000010 
#    z -0.000010 0.000010 3.859290 
# 
# 
# High freq. dielectric constant tensor:
#      x y z
#    x 1.782700 0.000000 0.000000 
#    y 0.000000 1.809110 0.000000 
#    z 0.000000 0.000000 1.821770 
# 
# From -- ./inp_files/3672.got.cif
#   From: 2010.03.12/outbox.cif.g09.slc.cpg/sg46_2_cif.got.tgz:3672.got - 2010.04.14 02:56:35.
