data_PCOD8191635
_publ_section_title
;
Structure prediction by ZEFSAII (Michael W. Deem and Ramdas Pophale) SiO2 
 PCOD8191635
Probable space group: I M A 2
;
_chemical_formula_sum "Si O2"
_cell_formula_units_Z 64
_cell_length_a 9.299513
_cell_length_b 18.271104
_cell_length_c 26.701288
_cell_angle_alpha 90.000000
_cell_angle_beta 90.000000
_cell_angle_gamma 90.000000
_cell_volume 4536.879104
_symmetry_space_group_name_H-M "I M A 2"
_symmetry_group_IT_number 46
_symmetry_cell_setting 'orthorhombic'
loop_
_space_group_symop_operation_xyz
x,y,z
-x,-y,z
1/2-x,y,z
1/2+x,-y,z
1/2+x,1/2+y,1/2+z
1/2-x,1/2-y,1/2+z
-x,1/2+y,1/2+z
x,1/2-y,1/2+z
loop_
_atom_site_type_symbol
_atom_site_label
_atom_site_fract_x
_atom_site_fract_y
_atom_site_fract_z
Si Si1 0.587843 0.784929 0.342820
Si Si2 0.587222 0.927343 0.389371
Si Si3 0.085428 0.152253 0.782748
Si Si4 0.918863 0.074114 0.871220
Si Si5 0.584259 0.214402 0.928981
Si Si6 0.081876 0.172591 0.483091
Si Si7 0.916844 0.927578 0.685471
Si Si8 0.418501 0.426291 0.073091
O O1 0.750000 0.770040 0.364415
O O2 0.567882 0.873113 0.340874
O O3 0.569256 0.740644 0.290604
O O4 0.467303 0.754285 0.379113
O O5 0.750000 0.952845 0.396132
O O6 0.536803 0.883978 0.439140
O O7 0.500000 0.000000 0.379429
O O8 0.250000 0.127784 0.792999
O O9 0.042702 0.135663 0.725277
O O10 0.984736 0.107418 0.820402
O O11 0.750000 0.060097 0.861795
O O12 0.941770 0.127960 0.919122
O O13 0.000000 0.000000 0.885502
O O14 0.750000 0.231793 0.938104
O O15 0.497147 0.248906 0.975857
O O16 0.250000 0.188599 0.481946
O O17 0.032952 0.138524 0.536035
O O18 0.750000 0.947386 0.687109
O O19 0.960188 0.901767 0.629554
O O20 0.000000 0.000000 0.701656
O O21 0.500000 0.500000 0.057793
O O22 0.250000 0.442246 0.067214
#
# Coordination Sequence:
#
# PCOD8191635 Si02
#       8
#     8   8   8   8   8   8   8   8
#     4   8  15  27  39  52  73 100 127 153 186 227
#     4   9  16  24  35  52  72  95 123 151 181 219
#     4   9  16  27  42  56  74 103 133 160 191 224
#     4  10  19  28  39  57  79 102 128 157 188 225
#     4   9  17  27  39  56  75  95 124 159 188 218
#     4   9  17  28  40  53  73 102 129 153 186 226
#     4   9  17  27  39  56  77 101 129 161 192 220
#     4   9  17  28  40  56  78 102 130 162 192 223
#
# _framework density 14.106612999999999
#
# number of rings (size 3 to 8) (size 9 to 14) (size 15 to 20)
#    0.000    3.000    0.000    2.250    0.000    5.500 
#    0.000    0.000    0.000    0.000    0.000    0.000 
#    0.000    1.000    0.000    6.250    0.000    2.250 
#
# Total GULP energy -396456.377628 kJ/mol
# GULP energy per Si atom -12389.261801 kJ/mol
# Density = 1.407451 g / cm^3
# Si number density = 14.106613 Si / 1000 Ang^3
#
#
#
# Elastic Constant Matrix: (Units=GPa)
#
#
# Indices 1 2 3 4 5 6 
#
# 1 55.3573 45.8911 31.7942 0.0000 0.0000 0.0000
# 2 45.8911 99.3732 54.9006 0.0000 0.0000 0.0000
# 3 31.7942 54.9006 82.3850 0.0000 0.0000 0.0000
# 4 0.0000 0.0000 0.0000 26.4690 0.0000 0.0000
# 5 0.0000 0.0000 0.0000 0.0000 14.5354 0.0000
# 6 0.0000 0.0000 0.0000 0.0000 0.0000 24.3903
#
#
#
# Elastic Compliance Matrix: (Units=1/GPa)
#
#
# Indices 1 2 3 4 5 6 
#
# 1 0.029969 -0.011791 -0.003708 0.000000 0.000000 0.000000
# 2 -0.011791 0.020566 -0.009154 0.000000 0.000000 0.000000
# 3 -0.003708 -0.009154 0.019670 0.000000 0.000000 0.000000
# 4 0.000000 0.000000 0.000000 0.037780 0.000000 0.000000
# 5 0.000000 0.000000 0.000000 0.000000 0.068798 0.000000
# 6 0.000000 0.000000 0.000000 0.000000 0.000000 0.041000
#
#
# Mechanical properties :
#
#
# Convention : Reuss Voigt Hill
#
# Bulk Modulus (GPa) = 47.85383 55.80970 51.83177
# Shear Modulus (GPa) = 18.24447 20.04758 19.14602
#
# Velocity S-wave (km/s) = 3.60019 3.77390 3.68807
# Velocity P-wave (km/s) = 7.16090 7.65757 7.41340
#
# Compressibility (1/GPa) = 0.02089697
#
# Stress axis : x y z
#
# Youngs Moduli (GPa) = 33.36756 48.62418 50.83991
#
# Poissons Ratio (x) = 0.57334 0.18852
# Poissons Ratio (y) = 0.39345 0.46541
# Poissons Ratio (z) = 0.12373 0.44512
#
# Static dielectric constant tensor:
#      x y z
#    x 2.831550 0.000000 0.000000 
#    y 0.000000 2.907730 0.000000 
#    z 0.000000 0.000000 2.762040 
# 
# 
# High freq. dielectric constant tensor:
#      x y z
#    x 1.546510 0.000000 0.000000 
#    y 0.000000 1.525870 0.000000 
#    z 0.000000 0.000000 1.506260 
# 
# From -- ./inp_files/24394.got.cif
#   From: 2010.03.12/outbox.cif.g09.slc.cpg/sg46_13_cif.got.tgz:24394.got - 2010.04.14 02:56:35.
