data_PCOD8191384
_publ_section_title
;
Structure prediction by ZEFSAII (Michael W. Deem and Ramdas Pophale) SiO2 
 PCOD8191384
Probable space group: I M A 2
;
_chemical_formula_sum "Si O2"
_cell_formula_units_Z 48
_cell_length_a 21.754683
_cell_length_b 15.416996
_cell_length_c 8.817081
_cell_angle_alpha 90.000000
_cell_angle_beta 90.000000
_cell_angle_gamma 90.000000
_cell_volume 2957.177203
_symmetry_space_group_name_H-M "I M A 2"
_symmetry_group_IT_number 46
_symmetry_cell_setting 'orthorhombic'
loop_
_space_group_symop_operation_xyz
x,y,z
-x,-y,z
1/2-x,y,z
1/2+x,-y,z
1/2+x,1/2+y,1/2+z
1/2-x,1/2-y,1/2+z
-x,1/2+y,1/2+z
x,1/2-y,1/2+z
loop_
_atom_site_type_symbol
_atom_site_label
_atom_site_fract_x
_atom_site_fract_y
_atom_site_fract_z
Si Si1 0.493793 0.736791 0.062750
Si Si2 0.454288 0.425982 0.215073
Si Si3 0.087069 0.457139 0.882521
Si Si4 0.116532 0.316378 0.430433
Si Si5 0.537864 0.368132 0.797052
Si Si6 0.677842 0.668396 0.743902
O O1 0.507280 0.662140 0.186452
O O2 0.457855 0.817807 0.137582
O O3 0.559019 0.763352 0.993609
O O4 0.449313 0.699656 0.932751
O O5 0.500000 0.500000 0.276863
O O6 0.404737 0.404848 0.346101
O O7 0.420971 0.461586 0.063816
O O8 0.086430 0.553737 0.810529
O O9 0.150763 0.412259 0.839038
O O10 0.031620 0.402613 0.810925
O O11 0.161494 0.341738 0.567160
O O12 0.152232 0.258683 0.307592
O O13 0.750000 0.665650 0.766218
#
# Coordination Sequence:
#
# PCOD8191384 Si02
#       6
#     8   8   8   8   8   8
#     4  11  16  30  48  74 104 134 159 197 255 317
#     4  11  19  30  51  75 107 135 162 210 265 309
#     4  10  18  34  49  74 103 139 166 211 255 311
#     4  12  20  33  50  73 104 139 180 210 242 306
#     4  10  18  29  52  71 109 132 160 204 264 309
#     4  12  23  36  51  71 103 147 184 212 245 293
#
# _framework density 16.231695999999999
#
# number of rings (size 3 to 8) (size 9 to 14) (size 15 to 20)
#    0.000    1.000   11.667    0.500    0.000    1.333 
#    0.000    0.833    0.000    0.000    0.000    1.167 
#    0.000    0.000    0.000    0.000    0.000    0.000 
#
# Total GULP energy -297599.507153 kJ/mol
# GULP energy per Si atom -12399.979465 kJ/mol
# Density = 1.619475 g / cm^3
# Si number density = 16.231696 Si / 1000 Ang^3
#
#
#
# Elastic Constant Matrix: (Units=GPa)
#
#
# Indices 1 2 3 4 5 6 
#
# 1 75.1159 49.9311 38.6374 0.0000 0.0000 0.0000
# 2 49.9311 102.5565 47.5449 0.0000 0.0000 0.0000
# 3 38.6374 47.5449 78.5878 0.0000 0.0000 0.0000
# 4 0.0000 0.0000 0.0000 32.0746 0.0000 0.0000
# 5 0.0000 0.0000 0.0000 0.0000 17.1995 0.0000
# 6 0.0000 0.0000 0.0000 0.0000 0.0000 16.0454
#
#
#
# Elastic Compliance Matrix: (Units=1/GPa)
#
#
# Indices 1 2 3 4 5 6 
#
# 1 0.021476 -0.007729 -0.005883 0.000000 0.000000 0.000000
# 2 -0.007729 0.016333 -0.006081 0.000000 0.000000 0.000000
# 3 -0.005883 -0.006081 0.019296 0.000000 0.000000 0.000000
# 4 0.000000 0.000000 0.000000 0.031177 0.000000 0.000000
# 5 0.000000 0.000000 0.000000 0.000000 0.058141 0.000000
# 6 0.000000 0.000000 0.000000 0.000000 0.000000 0.062323
#
#
# Mechanical properties :
#
#
# Convention : Reuss Voigt Hill
#
# Bulk Modulus (GPa) = 56.43623 58.72079 57.57851
# Shear Modulus (GPa) = 19.68197 21.07368 20.37782
#
# Velocity S-wave (km/s) = 3.48597 3.60711 3.54705
# Velocity P-wave (km/s) = 7.14474 7.32144 7.23363
#
# Compressibility (1/GPa) = 0.01771911
#
# Stress axis : x y z
#
# Youngs Moduli (GPa) = 46.56321 61.22607 51.82378
#
# Poissons Ratio (x) = 0.47320 0.30487
# Poissons Ratio (y) = 0.35987 0.31517
# Poissons Ratio (z) = 0.27393 0.37235
#
# Static dielectric constant tensor:
#      x y z
#    x 2.638450 0.000000 0.000000 
#    y 0.000000 3.230710 0.000000 
#    z 0.000000 0.000000 3.245470 
# 
# 
# High freq. dielectric constant tensor:
#      x y z
#    x 1.562370 0.000000 0.000000 
#    y 0.000000 1.625010 0.000000 
#    z 0.000000 0.000000 1.638690 
# 
# From -- ./inp_files/6705.got.cif
#   From: 2010.03.12/outbox.cif.g09.slc.cpg/sg46_4_cif.got.tgz:6705.got - 2010.04.14 02:56:35.
