data_PCOD8191848
_publ_section_title
;
Structure prediction by ZEFSAII (Michael W. Deem and Ramdas Pophale) SiO2 
 PCOD8191848
Probable space group: I M A 2
;
_chemical_formula_sum "Si O2"
_cell_formula_units_Z 64
_cell_length_a 9.504771
_cell_length_b 15.723567
_cell_length_c 22.368791
_cell_angle_alpha 90.000000
_cell_angle_beta 90.000000
_cell_angle_gamma 90.000000
_cell_volume 3342.991291
_symmetry_space_group_name_H-M "I M A 2"
_symmetry_group_IT_number 46
_symmetry_cell_setting 'orthorhombic'
loop_
_space_group_symop_operation_xyz
x,y,z
-x,-y,z
1/2-x,y,z
1/2+x,-y,z
1/2+x,1/2+y,1/2+z
1/2-x,1/2-y,1/2+z
-x,1/2+y,1/2+z
x,1/2-y,1/2+z
loop_
_atom_site_type_symbol
_atom_site_label
_atom_site_fract_x
_atom_site_fract_y
_atom_site_fract_z
Si Si1 0.595151 0.573038 0.529650
Si Si2 0.593240 0.279063 0.954189
Si Si3 0.592995 0.866952 0.902662
Si Si4 0.911407 0.760526 0.559764
Si Si5 0.086435 0.253848 0.194359
Si Si6 0.414422 0.418272 0.270705
Si Si7 0.919297 0.086376 0.227295
Si Si8 0.597236 0.071112 0.362200
O O1 0.500000 0.500000 0.558180
O O2 0.750000 0.557587 0.555425
O O3 0.593878 0.566193 0.457321
O O4 0.538274 0.662912 0.552896
O O5 0.750000 0.249945 0.973060
O O6 0.517281 0.204827 0.918657
O O7 0.601087 0.353016 0.907335
O O8 0.509653 0.311589 0.013261
O O9 0.750000 0.827230 0.895557
O O10 0.548842 0.911080 0.840873
O O11 0.750000 0.769435 0.538556
O O12 0.931462 0.791579 0.627368
O O13 0.250000 0.228367 0.205842
O O14 0.038687 0.330348 0.238241
O O15 0.987932 0.170627 0.198059
O O16 0.500000 0.500000 0.245538
O O17 0.250000 0.435140 0.259062
O O18 0.750000 0.081873 0.214254
O O19 0.955032 0.100053 0.297039
O O20 0.000000 0.000000 0.205021
O O21 0.750000 0.029534 0.354518
O O22 0.500000 0.000000 0.391006
#
# Coordination Sequence:
#
# PCOD8191848 Si02
#       8
#     8   8   8   8   8   8   8   8
#     4   9  17  29  46  69  97 127 158 196 244 300
#     4  10  19  32  52  78 103 129 169 217 261 308
#     4   9  18  32  50  75 105 135 165 201 257 323
#     4   9  20  37  52  69  99 138 177 215 258 310
#     4  10  21  38  57  77 105 144 188 229 268 315
#     4  10  21  36  56  81 108 141 182 226 272 323
#     4  10  20  35  56  83 114 145 177 216 266 323
#     4   9  19  33  50  76 106 133 165 208 258 314
#
# _framework density 19.144532000000002
#
# number of rings (size 3 to 8) (size 9 to 14) (size 15 to 20)
#    0.000    2.500    0.000    2.625    0.000    5.500 
#    0.000    1.875    0.000    3.000    0.000    0.000 
#    0.000    0.000    0.000    0.000    0.000    0.000 
#
# Total GULP energy -396597.139814 kJ/mol
# GULP energy per Si atom -12393.660619 kJ/mol
# Density = 1.910096 g / cm^3
# Si number density = 19.144532 Si / 1000 Ang^3
#
#
#
# Elastic Constant Matrix: (Units=GPa)
#
#
# Indices 1 2 3 4 5 6 
#
# 1 98.6075 43.3198 24.1848 0.0000 0.0000 0.0000
# 2 43.3198 65.7440 12.3915 0.0000 0.0000 0.0000
# 3 24.1848 12.3915 58.9015 0.0000 0.0000 0.0000
# 4 0.0000 0.0000 0.0000 12.1319 0.0000 0.0000
# 5 0.0000 0.0000 0.0000 0.0000 33.7870 0.0000
# 6 0.0000 0.0000 0.0000 0.0000 0.0000 33.4489
#
#
#
# Elastic Compliance Matrix: (Units=1/GPa)
#
#
# Indices 1 2 3 4 5 6 
#
# 1 0.015261 -0.009241 -0.004322 0.000000 0.000000 0.000000
# 2 -0.009241 0.021434 -0.000715 0.000000 0.000000 0.000000
# 3 -0.004322 -0.000715 0.018903 0.000000 0.000000 0.000000
# 4 0.000000 0.000000 0.000000 0.082427 0.000000 0.000000
# 5 0.000000 0.000000 0.000000 0.000000 0.029597 0.000000
# 6 0.000000 0.000000 0.000000 0.000000 0.000000 0.029896
#
#
# Mechanical properties :
#
#
# Convention : Reuss Voigt Hill
#
# Bulk Modulus (GPa) = 36.97977 42.56058 39.77018
# Shear Modulus (GPa) = 21.26857 25.43070 23.34963
#
# Velocity S-wave (km/s) = 3.33670 3.64861 3.49614
# Velocity P-wave (km/s) = 5.84832 6.32687 6.09229
#
# Compressibility (1/GPa) = 0.02704181
#
# Stress axis : x y z
#
# Youngs Moduli (GPa) = 65.52646 46.65400 52.90305
#
# Poissons Ratio (x) = 0.43114 0.22865
# Poissons Ratio (y) = 0.60554 0.03782
# Poissons Ratio (z) = 0.28321 0.03335
#
# Static dielectric constant tensor:
#      x y z
#    x 3.898340 0.000000 0.000000 
#    y 0.000000 3.262570 0.000000 
#    z 0.000000 0.000000 3.565290 
# 
# 
# High freq. dielectric constant tensor:
#      x y z
#    x 1.750230 0.000000 0.000000 
#    y 0.000000 1.719030 0.000000 
#    z 0.000000 0.000000 1.743400 
# 
# From -- ./inp_files/23176.got.cif
#   From: 2010.03.12/outbox.cif.g09.slc.cpg/sg46_12_cif.got.tgz:23176.got - 2010.04.14 02:56:35.
