data_PCOD8191066
_publ_section_title
;
Structure prediction by ZEFSAII (Michael W. Deem and Ramdas Pophale) SiO2 
 PCOD8191066
Probable space group: I B A 2
;
_chemical_formula_sum "Si O2"
_cell_formula_units_Z 56
_cell_length_a 13.824938
_cell_length_b 13.832489
_cell_length_c 13.503682
_cell_angle_alpha 90.000000
_cell_angle_beta 90.000000
_cell_angle_gamma 90.000000
_cell_volume 2582.353709
_symmetry_space_group_name_H-M "I B A 2"
_symmetry_group_IT_number 45
_symmetry_cell_setting 'orthorhombic'
loop_
_space_group_symop_operation_xyz
x,y,z
-x,-y,z
-x,y,1/2+z
x,-y,1/2+z
1/2+x,1/2+y,1/2+z
1/2-x,1/2-y,1/2+z
1/2-x,1/2+y,z
1/2+x,1/2-y,z
loop_
_atom_site_type_symbol
_atom_site_label
_atom_site_fract_x
_atom_site_fract_y
_atom_site_fract_z
Si Si1 0.763570 0.281428 0.303400
Si Si2 0.544565 0.639807 0.026562
Si Si3 0.781456 0.736552 0.580942
Si Si4 0.000000 0.500000 0.942391
Si Si5 0.500000 0.500000 0.191767
Si Si6 0.902364 0.691576 0.983383
Si Si7 0.191685 0.402358 0.401266
Si Si8 0.639753 0.544471 0.857006
O O1 0.799694 0.298644 0.192232
O O2 0.853478 0.304170 0.375179
O O3 0.721122 0.173795 0.316946
O O4 0.673821 0.349769 0.325781
O O5 0.650638 0.673679 0.057186
O O6 0.491990 0.594474 0.122386
O O7 0.486674 0.729857 0.983089
O O8 0.558247 0.558579 0.941643
O O9 0.673537 0.778612 0.567876
O O10 0.803840 0.646206 0.509629
O O11 0.946783 0.584761 0.005951
O O12 0.915183 0.446833 0.878831
O O13 0.405498 0.491833 0.261175
O O14 0.270480 0.486468 0.401017
#
# Coordination Sequence:
#
# PCOD8191066 Si02
#       8
#     8   8   8   4   4   8   8   8
#     4  11  24  46  70  99 142 184 224 284 352 415
#     4  12  25  47  68 106 138 183 236 290 351 411
#     4  11  24  46  70  99 142 184 224 284 352 415
#     4  12  20  48  74 100 132 186 228 276 366 404
#     4  12  30  40  76 102 136 188 242 288 344 430
#     4  11  24  46  71 100 142 178 230 294 342 421
#     4  11  24  46  71 100 142 178 230 294 342 421
#     4  12  25  47  68 106 138 183 236 290 351 411
#
# _framework density 21.685644
#
# number of rings (size 3 to 8) (size 9 to 14) (size 15 to 20)
#    0.000    0.571    5.714    2.143   12.000    0.000 
#    5.143    1.429    0.000    0.000    0.000    0.000 
#    0.000    0.000    0.000    0.000    0.000    0.000 
#
# Total GULP energy -347206.190172 kJ/mol
# GULP energy per Si atom -12400.221078 kJ/mol
# Density = 2.163629 g / cm^3
# Si number density = 21.685644 Si / 1000 Ang^3
#
#
#
# Elastic Constant Matrix: (Units=GPa)
#
#
# Indices 1 2 3 4 5 6 
#
# 1 92.5716 73.4125 30.8111 0.0000 0.0000 0.0000
# 2 73.4125 93.9729 33.3776 0.0000 0.0000 0.0000
# 3 30.8111 33.3776 138.4865 0.0000 0.0000 0.0000
# 4 0.0000 0.0000 0.0000 19.7387 0.0000 0.0000
# 5 0.0000 0.0000 0.0000 0.0000 19.6757 0.0000
# 6 0.0000 0.0000 0.0000 0.0000 0.0000 51.2214
#
#
#
# Elastic Compliance Matrix: (Units=1/GPa)
#
#
# Indices 1 2 3 4 5 6 
#
# 1 0.028536 -0.021913 -0.001067 0.000000 0.000000 0.000000
# 2 -0.021913 0.028465 -0.001985 0.000000 0.000000 0.000000
# 3 -0.001067 -0.001985 0.007937 0.000000 0.000000 0.000000
# 4 0.000000 0.000000 0.000000 0.050662 0.000000 0.000000
# 5 0.000000 0.000000 0.000000 0.000000 0.050824 0.000000
# 6 0.000000 0.000000 0.000000 0.000000 0.000000 0.019523
#
#
# Mechanical properties :
#
#
# Convention : Reuss Voigt Hill
#
# Bulk Modulus (GPa) = 66.63887 66.69262 66.66574
# Shear Modulus (GPa) = 20.75718 30.62249 25.68983
#
# Velocity S-wave (km/s) = 3.09720 3.76188 3.44560
# Velocity P-wave (km/s) = 6.60200 7.04912 6.82922
#
# Compressibility (1/GPa) = 0.01500626
#
# Stress axis : x y z
#
# Youngs Moduli (GPa) = 35.04390 35.13048 125.99445
#
# Poissons Ratio (x) = 0.76982 0.13447
# Poissons Ratio (y) = 0.76792 0.25013
# Poissons Ratio (z) = 0.03740 0.06974
#
# Static dielectric constant tensor:
#      x y z
#    x 4.013900 0.000000 0.000000 
#    y 0.000000 4.016310 0.000000 
#    z 0.000000 0.000000 4.638110 
# 
# 
# High freq. dielectric constant tensor:
#      x y z
#    x 1.865070 0.000000 0.000000 
#    y 0.000000 1.865280 0.000000 
#    z 0.000000 0.000000 1.832060 
# 
# From -- ./inp_files/6547.got.cif
#   From: 2010.03.12/outbox.cif.g09.slc.cpg/sg45_4_cif.got.tgz:6547.got - 2010.04.14 02:50:11.
