data_PCOD8191116
_publ_section_title
;
Structure prediction by ZEFSAII (Michael W. Deem and Ramdas Pophale) SiO2 
 PCOD8191116
Probable space group: I B A 2
;
_chemical_formula_sum "Si O2"
_cell_formula_units_Z 36
_cell_length_a 15.804742
_cell_length_b 5.320093
_cell_length_c 18.316021
_cell_angle_alpha 90.000000
_cell_angle_beta 90.000000
_cell_angle_gamma 90.000000
_cell_volume 1540.060449
_symmetry_space_group_name_H-M "I B A 2"
_symmetry_group_IT_number 45
_symmetry_cell_setting 'orthorhombic'
loop_
_space_group_symop_operation_xyz
x,y,z
-x,-y,z
-x,y,1/2+z
x,-y,1/2+z
1/2+x,1/2+y,1/2+z
1/2-x,1/2-y,1/2+z
1/2-x,1/2+y,z
1/2+x,1/2-y,z
loop_
_atom_site_type_symbol
_atom_site_label
_atom_site_fract_x
_atom_site_fract_y
_atom_site_fract_z
Si Si1 0.417771 0.350970 0.104810
Si Si2 0.500000 0.000000 0.720720
Si Si3 0.697981 0.480011 0.220670
Si Si4 0.081751 0.147683 0.337104
Si Si5 0.192966 0.276941 0.470789
O O1 0.500000 0.500000 0.074826
O O2 0.439460 0.157095 0.168488
O O3 0.354435 0.540740 0.145062
O O4 0.369684 0.210553 0.039658
O O5 0.441413 0.161928 0.772955
O O6 0.736163 0.203631 0.221866
O O7 0.643743 0.541107 0.294104
O O8 0.130950 0.288723 0.401429
O O9 0.000000 0.000000 0.368585
O O10 0.252596 0.520901 0.470771
#
# Coordination Sequence:
#
# PCOD8191116 Si02
#       5
#     8   4   8   8   8
#     4  12  26  48  76 114 152 205 261 315 383 467
#     4  12  24  46  84 112 152 196 270 314 386 440
#     4  12  24  42  71 107 150 196 244 312 376 446
#     4  12  26  48  76 114 152 205 261 315 383 467
#     4  12  31  53  76 114 158 206 254 320 395 458
#
# _framework density 23.375706999999998
#
# number of rings (size 3 to 8) (size 9 to 14) (size 15 to 20)
#    0.000    0.000    4.444    4.667    6.222    0.889 
#    0.000    0.000    0.000    0.000    0.000    0.000 
#    0.000    0.000    0.000    0.000    0.000    0.000 
#
# Total GULP energy -223183.622087 kJ/mol
# GULP energy per Si atom -12399.090116 kJ/mol
# Density = 2.332250 g / cm^3
# Si number density = 23.375707 Si / 1000 Ang^3
#
#
#
# Elastic Constant Matrix: (Units=GPa)
#
#
# Indices 1 2 3 4 5 6 
#
# 1 131.0041 48.6727 63.3835 0.0000 0.0000 0.0000
# 2 48.6727 117.6758 40.5791 0.0000 0.0000 0.0000
# 3 63.3835 40.5791 168.1943 0.0000 0.0000 0.0000
# 4 0.0000 0.0000 0.0000 -201.0993 0.0000 0.0000
# 5 0.0000 0.0000 0.0000 0.0000 -9.6398 0.0000
# 6 0.0000 0.0000 0.0000 0.0000 0.0000 10.7626
#
#
#
# Elastic Compliance Matrix: (Units=1/GPa)
#
#
# Indices 1 2 3 4 5 6 
#
# 1 0.010332 -0.003197 -0.003122 0.000000 0.000000 0.000000
# 2 -0.003197 0.010258 -0.001270 0.000000 0.000000 0.000000
# 3 -0.003122 -0.001270 0.007429 0.000000 0.000000 0.000000
# 4 0.000000 0.000000 0.000000 -0.004973 0.000000 0.000000
# 5 0.000000 0.000000 0.000000 0.000000 -0.103737 0.000000
# 6 0.000000 0.000000 0.000000 0.000000 0.000000 0.092914
#
#
# Mechanical properties :
#
#
# Convention : Reuss Voigt Hill
#
# Bulk Modulus (GPa) = 77.88118 80.23831 79.05974
# Shear Modulus (GPa) = 157.82131 -22.37936 67.72098
#
# Velocity S-wave (km/s) = 8.22567 -3.09751 5.38828
# Velocity P-wave (km/s) = 11.11778 4.64836 8.52092
#
# Compressibility (1/GPa) = 0.01284007
#
# Stress axis : x y z
#
# Youngs Moduli (GPa) = 96.78995 97.48338 134.61553
#
# Poissons Ratio (x) = 0.31162 0.42030
# Poissons Ratio (y) = 0.30941 0.17100
# Poissons Ratio (z) = 0.30220 0.12383
#
# Static dielectric constant tensor:
#      x y z
#    x 6.402060 0.000000 0.000000 
#    y 0.000000 4.231180 0.000000 
#    z 0.000000 0.000000 4.382760 
# 
# 
# High freq. dielectric constant tensor:
#      x y z
#    x 1.952710 0.000000 0.000000 
#    y 0.000000 1.922850 0.000000 
#    z 0.000000 0.000000 1.933240 
# 
# From -- ./inp_files/9125.got.cif
#   From: 2010.03.12/outbox.cif.g09.slc.cpg/sg45_5_cif.got.tgz:9125.got - 2010.04.14 02:50:11.
