data_PCOD8191712
_publ_section_title
;
Structure prediction by ZEFSAII (Michael W. Deem and Ramdas Pophale) SiO2 
 PCOD8191712
Probable space group: I M A 2
;
_chemical_formula_sum "Si O2"
_cell_formula_units_Z 56
_cell_length_a 9.050909
_cell_length_b 19.198870
_cell_length_c 17.256169
_cell_angle_alpha 90.000000
_cell_angle_beta 90.000000
_cell_angle_gamma 90.000000
_cell_volume 2998.556606
_symmetry_space_group_name_H-M "I M A 2"
_symmetry_group_IT_number 46
_symmetry_cell_setting 'orthorhombic'
loop_
_space_group_symop_operation_xyz
x,y,z
-x,-y,z
1/2-x,y,z
1/2+x,-y,z
1/2+x,1/2+y,1/2+z
1/2-x,1/2-y,1/2+z
-x,1/2+y,1/2+z
x,1/2-y,1/2+z
loop_
_atom_site_type_symbol
_atom_site_label
_atom_site_fract_x
_atom_site_fract_y
_atom_site_fract_z
Si Si1 0.922430 0.680220 0.018730
Si Si2 0.085212 0.565234 0.936947
Si Si3 0.579885 0.790887 0.902622
Si Si4 0.419406 0.787317 0.270195
Si Si5 0.420621 0.652083 0.177568
Si Si6 0.074626 0.073285 0.816158
Si Si7 0.588707 0.436368 0.755217
O O1 0.750000 0.667073 0.033717
O O2 0.011730 0.653332 0.092644
O O3 0.948245 0.761446 0.990518
O O4 0.984424 0.633092 0.949317
O O5 0.250000 0.572888 0.973613
O O6 0.101067 0.551730 0.846426
O O7 0.000000 0.500000 0.976162
O O8 0.750000 0.782772 0.880465
O O9 0.494396 0.739297 0.847125
O O10 0.534141 0.871526 0.885585
O O11 0.250000 0.802003 0.293211
O O12 0.435918 0.731765 0.202674
O O13 0.487793 0.860775 0.240139
O O14 0.250000 0.627599 0.176474
O O15 0.510293 0.600963 0.234550
O O16 0.250000 0.063221 0.807728
O O17 0.000000 0.000000 0.838352
O O18 0.500000 0.500000 0.716179
O O19 0.750000 0.438123 0.716184
#
# Coordination Sequence:
#
# PCOD8191712 Si02
#       7
#     8   8   8   8   8   8   8
#     4  11  21  34  51  75 106 139 174 213 258 311
#     4  10  19  31  47  70 101 133 165 200 241 290
#     4   9  19  33  53  77 102 133 171 215 262 309
#     4   9  17  32  51  72  98 128 167 211 251 299
#     4  10  21  35  53  76 103 137 173 212 261 314
#     4  10  20  37  58  82 108 137 176 222 269 321
#     4   9  17  28  45  70  97 125 157 197 239 286
#
# _framework density 18.675651999999999
#
# number of rings (size 3 to 8) (size 9 to 14) (size 15 to 20)
#    0.000    2.286    1.429    1.714    0.000    3.429 
#    0.000    2.857    0.000    0.857    0.000    6.000 
#    0.000    0.000    0.000    0.000    0.000    0.000 
#
# Total GULP energy -346902.580355 kJ/mol
# GULP energy per Si atom -12389.377870 kJ/mol
# Density = 1.863315 g / cm^3
# Si number density = 18.675652 Si / 1000 Ang^3
#
#
#
# Elastic Constant Matrix: (Units=GPa)
#
#
# Indices 1 2 3 4 5 6 
#
# 1 79.9658 42.6696 14.3381 0.0000 0.0000 0.0000
# 2 42.6696 135.0234 10.2375 0.0000 0.0000 0.0000
# 3 14.3381 10.2375 31.1416 0.0000 0.0000 0.0000
# 4 0.0000 0.0000 0.0000 16.2643 0.0000 0.0000
# 5 0.0000 0.0000 0.0000 0.0000 15.6753 0.0000
# 6 0.0000 0.0000 0.0000 0.0000 0.0000 30.4726
#
#
#
# Elastic Compliance Matrix: (Units=1/GPa)
#
#
# Indices 1 2 3 4 5 6 
#
# 1 0.016020 -0.004618 -0.005858 0.000000 0.000000 0.000000
# 2 -0.004618 0.008927 -0.000808 0.000000 0.000000 0.000000
# 3 -0.005858 -0.000808 0.035074 0.000000 0.000000 0.000000
# 4 0.000000 0.000000 0.000000 0.061484 0.000000 0.000000
# 5 0.000000 0.000000 0.000000 0.000000 0.063795 0.000000
# 6 0.000000 0.000000 0.000000 0.000000 0.000000 0.032816
#
#
# Mechanical properties :
#
#
# Convention : Reuss Voigt Hill
#
# Bulk Modulus (GPa) = 26.70059 42.29125 34.49592
# Shear Modulus (GPa) = 19.74965 24.40815 22.07890
#
# Velocity S-wave (km/s) = 3.25546 3.61910 3.44209
# Velocity P-wave (km/s) = 5.33468 6.33704 5.85734
#
# Compressibility (1/GPa) = 0.03745235
#
# Stress axis : x y z
#
# Youngs Moduli (GPa) = 62.42177 112.02074 28.51115
#
# Poissons Ratio (x) = 0.51736 0.16701
# Poissons Ratio (y) = 0.28829 0.02304
# Poissons Ratio (z) = 0.36564 0.09054
#
# Static dielectric constant tensor:
#      x y z
#    x 3.660870 0.000000 0.000000 
#    y 0.000000 3.772190 0.000000 
#    z 0.000000 0.000000 3.042210 
# 
# 
# High freq. dielectric constant tensor:
#      x y z
#    x 1.733800 0.000000 0.000000 
#    y 0.000000 1.736630 0.000000 
#    z 0.000000 0.000000 1.676390 
# 
# From -- ./inp_files/18456.got.cif
#   From: 2010.03.12/outbox.cif.g09.slc.cpg/sg46_10_cif.got.tgz:18456.got - 2010.04.14 02:56:35.
