data_PCOD8191816
_publ_section_title
;
Structure prediction by ZEFSAII (Michael W. Deem and Ramdas Pophale) SiO2 
 PCOD8191816
Probable space group: I M A 2
;
_chemical_formula_sum "Si O2"
_cell_formula_units_Z 64
_cell_length_a 8.611726
_cell_length_b 27.736136
_cell_length_c 14.802178
_cell_angle_alpha 90.000000
_cell_angle_beta 90.000000
_cell_angle_gamma 90.000000
_cell_volume 3535.589081
_symmetry_space_group_name_H-M "I M A 2"
_symmetry_group_IT_number 46
_symmetry_cell_setting 'orthorhombic'
loop_
_space_group_symop_operation_xyz
x,y,z
-x,-y,z
1/2-x,y,z
1/2+x,-y,z
1/2+x,1/2+y,1/2+z
1/2-x,1/2-y,1/2+z
-x,1/2+y,1/2+z
x,1/2-y,1/2+z
loop_
_atom_site_type_symbol
_atom_site_label
_atom_site_fract_x
_atom_site_fract_y
_atom_site_fract_z
Si Si1 0.568430 0.781896 0.240510
Si Si2 0.931771 0.678090 0.428128
Si Si3 0.066794 0.136198 0.546333
Si Si4 0.931713 0.051044 0.227707
Si Si5 0.069268 0.781886 0.428914
Si Si6 0.065440 0.052015 0.420239
Si Si7 0.429394 0.368195 0.610849
Si Si8 0.067176 0.173814 0.729122
O O1 0.750000 0.781228 0.264949
O O2 0.476363 0.799288 0.328707
O O3 0.530341 0.817890 0.159243
O O4 0.508828 0.728656 0.213393
O O5 0.750000 0.691892 0.429018
O O6 0.968900 0.638577 0.504827
O O7 0.980561 0.656194 0.330004
O O8 0.026724 0.726457 0.446566
O O9 0.250000 0.130637 0.546311
O O10 0.997668 0.090085 0.493223
O O11 0.000122 0.139109 0.649800
O O12 0.024282 0.186019 0.499208
O O13 0.750000 0.045456 0.243745
O O14 0.009412 0.068316 0.321102
O O15 0.964653 0.089363 0.149171
O O16 0.000000 0.000000 0.196166
O O17 0.250000 0.790060 0.444371
O O18 0.250000 0.050264 0.419695
O O19 0.000000 0.000000 0.446928
O O20 0.250000 0.382120 0.625761
O O21 0.250000 0.173416 0.718563
#
# Coordination Sequence:
#
# PCOD8191816 Si02
#       8
#     8   8   8   8   8   8   8   8
#     4   9  17  30  48  69  97 131 164 198 238 289
#     4   9  18  34  53  70  95 132 169 203 238 283
#     4  10  19  32  51  72  95 128 168 202 238 291
#     4  11  22  36  54  75 102 130 158 197 244 295
#     4  11  21  30  44  70 103 133 163 202 245 287
#     4  10  20  34  53  75 100 128 159 198 244 296
#     4  10  19  32  53  77  98 127 167 205 244 292
#     4   8  15  30  51  72  93 125 169 205 231 271
#
# _framework density 18.101652000000001
#
# number of rings (size 3 to 8) (size 9 to 14) (size 15 to 20)
#    0.000    2.250    0.000    5.625    0.000    7.000 
#    0.000    5.000    0.000    0.750    0.000    1.750 
#    0.000    0.000    0.000    0.000    0.000    0.000 
#
# Total GULP energy -396721.203056 kJ/mol
# GULP energy per Si atom -12397.537596 kJ/mol
# Density = 1.806045 g / cm^3
# Si number density = 18.101652 Si / 1000 Ang^3
#
#
#
# Elastic Constant Matrix: (Units=GPa)
#
#
# Indices 1 2 3 4 5 6 
#
# 1 37.0487 19.2096 15.5548 0.0000 0.0000 0.0000
# 2 19.2096 79.8627 71.2121 0.0000 0.0000 0.0000
# 3 15.5548 71.2121 141.7349 -0.0006 -0.0003 0.0000
# 4 0.0000 0.0000 -0.0006 31.5583 -0.0001 0.0000
# 5 0.0000 0.0000 -0.0003 -0.0001 11.1408 -0.0001
# 6 0.0000 0.0000 0.0000 0.0000 -0.0001 23.3595
#
#
#
# Elastic Compliance Matrix: (Units=1/GPa)
#
#
# Indices 1 2 3 4 5 6 
#
# 1 0.030868 -0.007978 0.000621 0.000000 0.000000 0.000000
# 2 -0.007978 0.024746 -0.011558 0.000000 0.000000 0.000000
# 3 0.000621 -0.011558 0.012794 0.000000 0.000000 0.000000
# 4 0.000000 0.000000 0.000000 0.031687 0.000000 0.000000
# 5 0.000000 0.000000 0.000000 0.000000 0.089760 0.000000
# 6 0.000000 0.000000 0.000000 0.000000 0.000000 0.042809
#
#
# Mechanical properties :
#
#
# Convention : Reuss Voigt Hill
#
# Bulk Modulus (GPa) = 32.70341 52.28882 42.49612
# Shear Modulus (GPa) = 17.81338 23.38972 20.60155
#
# Velocity S-wave (km/s) = 3.14040 3.59852 3.37724
# Velocity P-wave (km/s) = 5.59064 6.79814 6.22374
#
# Compressibility (1/GPa) = 0.03057785
#
# Stress axis : x y z
#
# Youngs Moduli (GPa) = 32.39653 40.40984 78.15997
#
# Poissons Ratio (x) = 0.32241 -0.04854
# Poissons Ratio (y) = 0.25847 0.90336
# Poissons Ratio (z) = -0.02012 0.46705
#
# Static dielectric constant tensor:
#      x y z
#    x 3.131560 0.000000 0.000000 
#    y 0.000000 3.252950 0.000000 
#    z 0.000000 0.000000 3.730760 
# 
# 
# High freq. dielectric constant tensor:
#      x y z
#    x 1.684020 0.000000 0.000000 
#    y 0.000000 1.677890 0.000000 
#    z 0.000000 0.000000 1.706770 
# 
# From -- ./inp_files/14476.got.cif
#   From: 2010.03.12/outbox.cif.g09.slc.cpg/sg46_8_cif.got.tgz:14476.got - 2010.04.14 02:56:35.
