data_PCOD8191759
_publ_section_title
;
Structure prediction by ZEFSAII (Michael W. Deem and Ramdas Pophale) SiO2 
 PCOD8191759
Probable space group: I M A 2
;
_chemical_formula_sum "Si O2"
_cell_formula_units_Z 64
_cell_length_a 9.253643
_cell_length_b 14.267948
_cell_length_c 23.658841
_cell_angle_alpha 90.000000
_cell_angle_beta 90.000000
_cell_angle_gamma 90.000000
_cell_volume 3123.688539
_symmetry_space_group_name_H-M "I M A 2"
_symmetry_group_IT_number 46
_symmetry_cell_setting 'orthorhombic'
loop_
_space_group_symop_operation_xyz
x,y,z
-x,-y,z
1/2-x,y,z
1/2+x,-y,z
1/2+x,1/2+y,1/2+z
1/2-x,1/2-y,1/2+z
-x,1/2+y,1/2+z
x,1/2-y,1/2+z
loop_
_atom_site_type_symbol
_atom_site_label
_atom_site_fract_x
_atom_site_fract_y
_atom_site_fract_z
Si Si1 0.083741 0.175054 0.113670
Si Si2 0.419054 0.591941 0.720578
Si Si3 0.092607 0.079736 0.729420
Si Si4 0.405513 0.109898 0.606377
Si Si5 0.082158 0.587484 0.001336
Si Si6 0.918350 0.403494 0.386169
Si Si7 0.585578 0.224245 0.782529
Si Si8 0.079655 0.799920 0.999835
O O1 0.250000 0.138004 0.112204
O O2 0.078594 0.284058 0.127144
O O3 0.993623 0.122374 0.161940
O O4 0.009027 0.159062 0.052612
O O5 0.500000 0.500000 0.742955
O O6 0.250000 0.573475 0.708455
O O7 0.436972 0.664801 0.773125
O O8 0.250000 0.083156 0.757763
O O9 0.101006 0.050624 0.663782
O O10 0.014668 0.178731 0.735035
O O11 0.000000 0.000000 0.762012
O O12 0.250000 0.097468 0.573774
O O13 0.540940 0.079421 0.567975
O O14 0.250000 0.571942 0.991543
O O15 0.033883 0.692349 0.982945
O O16 0.000000 0.500000 0.969925
O O17 0.750000 0.425566 0.382419
O O18 0.960509 0.318189 0.343388
O O19 0.961042 0.366460 0.447946
O O20 0.000000 0.500000 0.372676
O O21 0.750000 0.196606 0.769405
O O22 0.250000 0.800526 0.014160
#
# Coordination Sequence:
#
# PCOD8191759 Si02
#       8
#     8   8   8   8   8   8   8   8
#     4  10  19  35  58  86 120 155 196 243 293 346
#     4  11  23  39  61  88 120 157 198 241 294 356
#     4  11  21  32  49  77 112 149 189 233 284 341
#     4   9  18  31  48  74 109 149 187 229 278 335
#     4  10  19  31  50  76 109 151 192 234 283 338
#     4  10  22  42  65  89 117 150 195 245 297 353
#     4  10  22  40  61  84 113 151 192 241 294 350
#     4   9  20  38  59  84 118 160 200 242 296 355
#
# _framework density 20.488598
#
# number of rings (size 3 to 8) (size 9 to 14) (size 15 to 20)
#    0.000    2.000    1.250    2.250    0.000    6.000 
#    0.000    1.875    0.000    0.000    0.000    0.000 
#    0.000    0.000    0.000    0.000    0.000    0.000 
#
# Total GULP energy -396510.379340 kJ/mol
# GULP energy per Si atom -12390.949354 kJ/mol
# Density = 2.044196 g / cm^3
# Si number density = 20.488598 Si / 1000 Ang^3
#
#
#
# Elastic Constant Matrix: (Units=GPa)
#
#
# Indices 1 2 3 4 5 6 
#
# 1 115.9097 60.2647 42.2543 0.0000 0.0000 0.0000
# 2 60.2647 118.9832 41.9835 0.0000 0.0000 0.0000
# 3 42.2543 41.9835 89.3790 0.0000 0.0000 0.0000
# 4 0.0000 0.0000 0.0000 20.7610 0.0000 0.0000
# 5 0.0000 0.0000 0.0000 0.0000 31.3239 0.0000
# 6 0.0000 0.0000 0.0000 0.0000 0.0000 35.5127
#
#
#
# Elastic Compliance Matrix: (Units=1/GPa)
#
#
# Indices 1 2 3 4 5 6 
#
# 1 0.012582 -0.005123 -0.003542 0.000000 0.000000 0.000000
# 2 -0.005123 0.012160 -0.003290 0.000000 0.000000 0.000000
# 3 -0.003542 -0.003290 0.014408 0.000000 0.000000 0.000000
# 4 0.000000 0.000000 0.000000 0.048167 0.000000 0.000000
# 5 0.000000 0.000000 0.000000 0.000000 0.031925 0.000000
# 6 0.000000 0.000000 0.000000 0.000000 0.000000 0.028159
#
#
# Mechanical properties :
#
#
# Convention : Reuss Voigt Hill
#
# Bulk Modulus (GPa) = 65.61381 68.14188 66.87785
# Shear Modulus (GPa) = 28.34605 29.50415 28.92510
#
# Velocity S-wave (km/s) = 3.72358 3.79889 3.76142
# Velocity P-wave (km/s) = 7.11202 7.25070 7.18170
#
# Compressibility (1/GPa) = 0.01524069
#
# Stress axis : x y z
#
# Youngs Moduli (GPa) = 79.47722 82.23489 69.40526
#
# Poissons Ratio (x) = 0.42130 0.24582
# Poissons Ratio (y) = 0.40717 0.22834
# Poissons Ratio (z) = 0.28150 0.27055
#
# Static dielectric constant tensor:
#      x y z
#    x 3.857910 0.000000 0.000000 
#    y 0.000000 3.899120 0.000000 
#    z 0.000000 0.000000 3.420780 
# 
# 
# High freq. dielectric constant tensor:
#      x y z
#    x 1.808270 0.000000 0.000000 
#    y 0.000000 1.806720 0.000000 
#    z 0.000000 0.000000 1.769430 
# 
# From -- ./inp_files/23205.got.cif
#   From: 2010.03.12/outbox.cif.g09.slc.cpg/sg46_12_cif.got.tgz:23205.got - 2010.04.14 02:56:35.
