data_PCOD8191019
_publ_section_title
;
Structure prediction by ZEFSAII (Michael W. Deem and Ramdas Pophale) SiO2 
 PCOD8191019
Probable space group: I B A 2
;
_chemical_formula_sum "Si O2"
_cell_formula_units_Z 48
_cell_length_a 14.016880
_cell_length_b 8.056649
_cell_length_c 17.690408
_cell_angle_alpha 90.000000
_cell_angle_beta 90.000000
_cell_angle_gamma 90.000000
_cell_volume 1997.761540
_symmetry_space_group_name_H-M "I B A 2"
_symmetry_group_IT_number 45
_symmetry_cell_setting 'orthorhombic'
loop_
_space_group_symop_operation_xyz
x,y,z
-x,-y,z
-x,y,1/2+z
x,-y,1/2+z
1/2+x,1/2+y,1/2+z
1/2-x,1/2-y,1/2+z
1/2-x,1/2+y,z
1/2+x,1/2-y,z
loop_
_atom_site_type_symbol
_atom_site_label
_atom_site_fract_x
_atom_site_fract_y
_atom_site_fract_z
Si Si1 0.269118 0.987216 0.885970
Si Si2 0.371313 0.289608 0.806956
Si Si3 0.788387 0.887503 0.549654
Si Si4 0.134110 0.810047 0.632817
Si Si5 0.974817 0.692788 0.542881
Si Si6 0.043145 0.317119 0.885554
O O1 0.175971 0.963137 0.833032
O O2 0.343180 0.831840 0.871556
O O3 0.321766 0.155619 0.862798
O O4 0.233675 0.988786 0.972751
O O5 0.349239 0.261593 0.719653
O O6 0.485959 0.287729 0.821303
O O7 0.689174 0.821573 0.581027
O O8 0.861768 0.732358 0.539406
O O9 0.832085 0.005619 0.613938
O O10 0.022206 0.790818 0.613010
O O11 0.000000 0.500000 0.552216
O O12 0.022783 0.766493 0.466682
O O13 0.000000 0.500000 0.887195
#
# Coordination Sequence:
#
# PCOD8191019 Si02
#       6
#     8   8   8   8   8   8
#     4  11  22  42  70  97 133 184 235 282 349 433
#     4  11  24  43  65 100 138 177 229 293 355 416
#     4  12  24  43  72 104 143 189 242 293 353 445
#     4  12  26  42  67 105 143 182 234 300 366 420
#     4  11  23  43  71 101 136 185 237 292 354 427
#     4   9  20  39  67  95 128 175 229 277 343 422
#
# _framework density 24.026890999999999
#
# number of rings (size 3 to 8) (size 9 to 14) (size 15 to 20)
#    0.000    1.000    3.333    3.500    2.333    3.333 
#    0.000    2.500    0.000    0.000    0.000    0.000 
#    0.000    0.000    0.000    0.000    0.000    0.000 
#
# Total GULP energy -297547.742783 kJ/mol
# GULP energy per Si atom -12397.822616 kJ/mol
# Density = 2.397220 g / cm^3
# Si number density = 24.026891 Si / 1000 Ang^3
#
#
#
# Elastic Constant Matrix: (Units=GPa)
#
#
# Indices 1 2 3 4 5 6 
#
# 1 110.8324 4.7755 29.6581 0.0000 0.0000 0.0000
# 2 4.7755 47.9280 16.5433 0.0000 0.0000 0.0000
# 3 29.6581 16.5433 137.6627 0.0000 0.0000 0.0000
# 4 0.0000 0.0000 0.0000 26.3200 0.0000 0.0000
# 5 0.0000 0.0000 0.0000 0.0000 35.3775 0.0000
# 6 0.0000 0.0000 0.0000 0.0000 0.0000 36.8086
#
#
#
# Elastic Compliance Matrix: (Units=1/GPa)
#
#
# Indices 1 2 3 4 5 6 
#
# 1 0.009578 -0.000253 -0.002033 0.000000 0.000000 0.000000
# 2 -0.000253 0.021774 -0.002562 0.000000 0.000000 0.000000
# 3 -0.002033 -0.002562 0.008010 0.000000 0.000000 0.000000
# 4 0.000000 0.000000 0.000000 0.037994 0.000000 0.000000
# 5 0.000000 0.000000 0.000000 0.000000 0.028267 0.000000
# 6 0.000000 0.000000 0.000000 0.000000 0.000000 0.027168
#
#
# Mechanical properties :
#
#
# Convention : Reuss Voigt Hill
#
# Bulk Modulus (GPa) = 33.70852 44.26410 38.98631
# Shear Modulus (GPa) = 32.81397 36.06432 34.43914
#
# Velocity S-wave (km/s) = 3.69957 3.87847 3.79008
# Velocity P-wave (km/s) = 5.68411 6.20641 5.95099
#
# Compressibility (1/GPa) = 0.02966609
#
# Stress axis : x y z
#
# Youngs Moduli (GPa) = 104.41086 45.92594 124.84327
#
# Poissons Ratio (x) = 0.01160 0.25381
# Poissons Ratio (y) = 0.02637 0.31988
# Poissons Ratio (z) = 0.21227 0.11767
#
# Static dielectric constant tensor:
#      x y z
#    x 4.808160 0.000000 0.000000 
#    y 0.000000 4.047160 0.000000 
#    z 0.000000 0.000000 4.083750 
# 
# 
# High freq. dielectric constant tensor:
#      x y z
#    x 1.972470 0.000000 0.000000 
#    y 0.000000 1.941290 0.000000 
#    z 0.000000 0.000000 1.935540 
# 
# From -- ./inp_files/7561.got.cif
#   From: 2010.03.12/outbox.cif.g09.slc.cpg/sg45_4_cif.got.tgz:7561.got - 2010.04.14 02:50:11.
