data_PCOD8191741
_publ_section_title
;
Structure prediction by ZEFSAII (Michael W. Deem and Ramdas Pophale) SiO2 
 PCOD8191741
Probable space group: I M A 2
;
_chemical_formula_sum "Si O2"
_cell_formula_units_Z 64
_cell_length_a 9.194831
_cell_length_b 28.886424
_cell_length_c 12.746231
_cell_angle_alpha 90.000000
_cell_angle_beta 90.000000
_cell_angle_gamma 90.000000
_cell_volume 3385.472714
_symmetry_space_group_name_H-M "I M A 2"
_symmetry_group_IT_number 46
_symmetry_cell_setting 'orthorhombic'
loop_
_space_group_symop_operation_xyz
x,y,z
-x,-y,z
1/2-x,y,z
1/2+x,-y,z
1/2+x,1/2+y,1/2+z
1/2-x,1/2-y,1/2+z
-x,1/2+y,1/2+z
x,1/2-y,1/2+z
loop_
_atom_site_type_symbol
_atom_site_label
_atom_site_fract_x
_atom_site_fract_y
_atom_site_fract_z
Si Si1 0.425283 0.050002 0.955000
Si Si2 0.086011 0.042718 0.312664
Si Si3 0.580626 0.613739 0.644130
Si Si4 0.583100 0.601263 0.249930
Si Si5 0.081224 0.201409 0.260602
Si Si6 0.084750 0.413002 0.020949
Si Si7 0.081382 0.199387 0.669033
Si Si8 0.421727 0.677042 0.969988
O O1 0.250000 0.043516 0.956670
O O2 0.486380 0.072859 0.846461
O O3 0.500000 0.000000 0.970501
O O4 0.484633 0.085758 0.044778
O O5 0.250000 0.032262 0.282461
O O6 0.035042 0.089011 0.253371
O O7 0.063162 0.045508 0.438528
O O8 0.000000 0.000000 0.265559
O O9 0.750000 0.612688 0.623269
O O10 0.532237 0.667419 0.663343
O O11 0.750000 0.606518 0.280169
O O12 0.559551 0.571825 0.141939
O O13 0.522371 0.653815 0.232210
O O14 0.250000 0.190622 0.287757
O O15 0.058002 0.254907 0.235791
O O16 0.980243 0.193493 0.359232
O O17 0.250000 0.393136 0.009172
O O18 0.966076 0.375586 0.989703
O O19 0.250000 0.191556 0.639911
O O20 0.992296 0.207538 0.562372
O O21 0.250000 0.682541 0.972453
#
# Coordination Sequence:
#
# PCOD8191741 Si02
#       8
#     8   8   8   8   8   8   8   8
#     4  10  20  35  54  76 108 145 184 225 277 331
#     4  10  19  31  49  73 103 135 171 220 270 321
#     4   9  18  33  53  77 105 139 176 228 276 316
#     4   8  16  32  54  79 104 134 173 226 276 313
#     4  10  19  35  59  82 105 142 193 233 274 335
#     4   9  17  34  55  72 100 140 182 222 265 324
#     4   9  19  35  58  83 106 142 190 233 275 334
#     4  11  21  33  52  78 112 144 171 221 286 340
#
# _framework density 18.904302999999999
#
# number of rings (size 3 to 8) (size 9 to 14) (size 15 to 20)
#    0.000    2.500    1.250    2.250    0.000    2.500 
#    0.000    6.875    0.000    1.500    0.000    0.000 
#    0.000    0.000    0.000    0.000    0.000    0.000 
#
# Total GULP energy -396431.072096 kJ/mol
# GULP energy per Si atom -12388.471003 kJ/mol
# Density = 1.886128 g / cm^3
# Si number density = 18.904303 Si / 1000 Ang^3
#
#
#
# Elastic Constant Matrix: (Units=GPa)
#
#
# Indices 1 2 3 4 5 6 
#
# 1 62.1839 21.0143 33.3802 -0.0017 0.0010 0.0003
# 2 21.0143 77.9676 36.0972 -0.0024 0.0004 -0.0004
# 3 33.3802 36.0972 119.5692 -0.0073 0.0009 -0.0009
# 4 -0.0017 -0.0024 -0.0073 18.1308 0.0003 -0.0003
# 5 0.0010 0.0004 0.0009 0.0003 15.4354 -0.0003
# 6 0.0003 -0.0004 -0.0009 -0.0003 -0.0003 18.3457
#
#
#
# Elastic Compliance Matrix: (Units=1/GPa)
#
#
# Indices 1 2 3 4 5 6 
#
# 1 0.019576 -0.003192 -0.004501 0.000000 -0.000001 -0.000001
# 2 -0.003192 0.015430 -0.003767 0.000000 0.000000 0.000000
# 3 -0.004501 -0.003767 0.010757 0.000003 0.000000 0.000001
# 4 0.000000 0.000000 0.000003 0.055155 -0.000001 0.000001
# 5 -0.000001 0.000000 0.000000 -0.000001 0.064786 0.000001
# 6 -0.000001 0.000000 0.000001 0.000001 0.000001 0.054509
#
#
# Mechanical properties :
#
#
# Convention : Reuss Voigt Hill
#
# Bulk Modulus (GPa) = 43.77829 48.96713 46.37271
# Shear Modulus (GPa) = 19.94019 21.66430 20.80224
#
# Velocity S-wave (km/s) = 3.25129 3.38893 3.32082
# Velocity P-wave (km/s) = 6.10759 6.42433 6.26796
#
# Compressibility (1/GPa) = 0.02284237
#
# Stress axis : x y z
#
# Youngs Moduli (GPa) = 51.08167 64.80734 92.96009
#
# Poissons Ratio (x) = 0.20689 0.41845
# Poissons Ratio (y) = 0.16307 0.35019
# Poissons Ratio (z) = 0.22994 0.24414
#
# Static dielectric constant tensor:
#      x y z
#    x 3.123470 0.000000 0.000000 
#    y 0.000000 3.516440 0.000000 
#    z 0.000000 0.000000 3.706130 
# 
# 
# High freq. dielectric constant tensor:
#      x y z
#    x 1.693710 0.000000 0.000000 
#    y 0.000000 1.729440 0.000000 
#    z 0.000000 0.000000 1.743190 
# 
# From -- ./inp_files/9742.got.cif
#   From: 2010.03.12/outbox.cif.g09.slc.cpg/sg46_5_cif.got.tgz:9742.got - 2010.04.14 02:56:35.
