data_PCOD8191775
_publ_section_title
;
Structure prediction by ZEFSAII (Michael W. Deem and Ramdas Pophale) SiO2 
 PCOD8191775
Probable space group: I M A 2
;
_chemical_formula_sum "Si O2"
_cell_formula_units_Z 56
_cell_length_a 9.023616
_cell_length_b 19.211387
_cell_length_c 17.049809
_cell_angle_alpha 90.000000
_cell_angle_beta 90.000000
_cell_angle_gamma 90.000000
_cell_volume 2955.689743
_symmetry_space_group_name_H-M "I M A 2"
_symmetry_group_IT_number 46
_symmetry_cell_setting 'orthorhombic'
loop_
_space_group_symop_operation_xyz
x,y,z
-x,-y,z
1/2-x,y,z
1/2+x,-y,z
1/2+x,1/2+y,1/2+z
1/2-x,1/2-y,1/2+z
-x,1/2+y,1/2+z
x,1/2-y,1/2+z
loop_
_atom_site_type_symbol
_atom_site_label
_atom_site_fract_x
_atom_site_fract_y
_atom_site_fract_z
Si Si1 0.921816 0.691342 0.009180
Si Si2 0.087268 0.564012 0.948904
Si Si3 0.426737 0.802906 0.919530
Si Si4 0.424761 0.786153 0.270976
Si Si5 0.581574 0.672069 0.186760
Si Si6 0.925882 0.924598 0.829518
Si Si7 0.589194 0.437277 0.767664
O O1 0.750000 0.701321 0.988039
O O2 0.941207 0.656836 0.095199
O O3 0.996805 0.635429 0.952363
O O4 0.003699 0.766651 0.997677
O O5 0.250000 0.572363 0.988670
O O6 0.110281 0.545386 0.858662
O O7 0.000000 0.500000 0.990294
O O8 0.250000 0.812816 0.928111
O O9 0.475009 0.749021 0.851856
O O10 0.502142 0.876889 0.898291
O O11 0.250000 0.794153 0.271426
O O12 0.477650 0.738219 0.200421
O O13 0.494237 0.862990 0.258643
O O14 0.750000 0.693478 0.205489
O O15 0.537111 0.607437 0.243138
O O16 0.750000 0.930645 0.843330
O O17 0.000000 0.000000 0.833854
O O18 0.500000 0.500000 0.726372
O O19 0.750000 0.435021 0.726452
#
# Coordination Sequence:
#
# PCOD8191775 Si02
#       7
#     8   8   8   8   8   8   8
#     4  11  21  34  51  76 109 144 179 219 266 320
#     4  10  19  32  47  70 103 136 171 207 247 299
#     4  10  19  34  55  79 105 137 178 226 272 318
#     4   9  17  32  51  72  99 129 170 217 259 309
#     4   9  21  36  51  75 106 138 177 217 263 321
#     4  10  20  37  58  82 109 142 183 228 277 329
#     4   9  17  29  45  70  98 126 161 202 243 293
#
# _framework density 18.946507
#
# number of rings (size 3 to 8) (size 9 to 14) (size 15 to 20)
#    0.000    2.286    1.429    1.714    0.000    4.000 
#    0.000    1.429    0.000    0.857    0.000    2.000 
#    0.000    0.000    0.000    0.000    0.000    0.000 
#
# Total GULP energy -346991.968943 kJ/mol
# GULP energy per Si atom -12392.570319 kJ/mol
# Density = 1.890338 g / cm^3
# Si number density = 18.946507 Si / 1000 Ang^3
#
#
#
# Elastic Constant Matrix: (Units=GPa)
#
#
# Indices 1 2 3 4 5 6 
#
# 1 93.7275 57.6250 19.6553 0.0000 0.0000 0.0000
# 2 57.6250 159.1752 18.7321 0.0000 0.0000 0.0000
# 3 19.6553 18.7321 32.2828 0.0000 0.0000 0.0000
# 4 0.0000 0.0000 0.0000 18.2149 0.0000 0.0000
# 5 0.0000 0.0000 0.0000 0.0000 20.2917 0.0000
# 6 0.0000 0.0000 0.0000 0.0000 0.0000 35.7771
#
#
#
# Elastic Compliance Matrix: (Units=1/GPa)
#
#
# Indices 1 2 3 4 5 6 
#
# 1 0.014847 -0.004627 -0.006354 0.000000 0.000000 0.000000
# 2 -0.004627 0.008185 -0.001932 0.000000 0.000000 0.000000
# 3 -0.006354 -0.001932 0.035966 0.000000 0.000000 0.000000
# 4 0.000000 0.000000 0.000000 0.054900 0.000000 0.000000
# 5 0.000000 0.000000 0.000000 0.000000 0.049281 0.000000
# 6 0.000000 0.000000 0.000000 0.000000 0.000000 0.027951
#
#
# Mechanical properties :
#
#
# Convention : Reuss Voigt Hill
#
# Bulk Modulus (GPa) = 30.14727 53.02336 41.58531
# Shear Modulus (GPa) = 21.92851 27.46829 24.69840
#
# Velocity S-wave (km/s) = 3.40574 3.81173 3.61444
# Velocity P-wave (km/s) = 5.60461 6.88614 6.27816
#
# Compressibility (1/GPa) = 0.03317050
#
# Stress axis : x y z
#
# Youngs Moduli (GPa) = 67.35576 122.17716 27.80384
#
# Poissons Ratio (x) = 0.56531 0.17668
# Poissons Ratio (y) = 0.31165 0.05372
# Poissons Ratio (z) = 0.42801 0.23606
#
# Static dielectric constant tensor:
#      x y z
#    x 3.717690 0.000000 0.000000 
#    y 0.000000 3.575160 0.000000 
#    z 0.000000 0.000000 3.102790 
# 
# 
# High freq. dielectric constant tensor:
#      x y z
#    x 1.744440 0.000000 0.000000 
#    y 0.000000 1.740780 0.000000 
#    z 0.000000 0.000000 1.687430 
# 
# From -- ./inp_files/18452.got.cif
#   From: 2010.03.12/outbox.cif.g09.slc.cpg/sg46_10_cif.got.tgz:18452.got - 2010.04.14 02:56:35.
