data_PCOD8191979
_publ_section_title
;
Structure prediction by ZEFSAII (Michael W. Deem and Ramdas Pophale) SiO2 
 PCOD8191979
Probable space group: I M A 2
;
_chemical_formula_sum "Si O2"
_cell_formula_units_Z 64
_cell_length_a 8.910784
_cell_length_b 16.135203
_cell_length_c 22.609700
_cell_angle_alpha 90.000000
_cell_angle_beta 90.000000
_cell_angle_gamma 90.000000
_cell_volume 3250.761817
_symmetry_space_group_name_H-M "I M A 2"
_symmetry_group_IT_number 46
_symmetry_cell_setting 'orthorhombic'
loop_
_space_group_symop_operation_xyz
x,y,z
-x,-y,z
1/2-x,y,z
1/2+x,-y,z
1/2+x,1/2+y,1/2+z
1/2-x,1/2-y,1/2+z
-x,1/2+y,1/2+z
x,1/2-y,1/2+z
loop_
_atom_site_type_symbol
_atom_site_label
_atom_site_fract_x
_atom_site_fract_y
_atom_site_fract_z
Si Si1 0.422986 0.243346 0.738070
Si Si2 0.420910 0.590254 0.776700
Si Si3 0.571148 0.914381 0.814101
Si Si4 0.577075 0.709133 0.981264
Si Si5 0.073256 0.865821 0.935045
Si Si6 0.919483 0.733926 0.607962
Si Si7 0.424070 0.580379 0.564038
Si Si8 0.919015 0.083147 0.408116
O O1 0.250000 0.256430 0.755280
O O2 0.501520 0.332860 0.743212
O O3 0.486932 0.166426 0.777162
O O4 0.443352 0.216467 0.669135
O O5 0.500000 0.500000 0.767057
O O6 0.250000 0.579358 0.754048
O O7 0.419569 0.625766 0.843820
O O8 0.750000 0.921690 0.810931
O O9 0.519017 0.906126 0.881872
O O10 0.500000 0.000000 0.788432
O O11 0.750000 0.728076 0.966256
O O12 0.471612 0.770533 0.943799
O O13 0.525990 0.621066 0.957847
O O14 0.546903 0.707793 0.051566
O O15 0.250000 0.872731 0.922139
O O16 0.023512 0.909915 0.995921
O O17 0.750000 0.699591 0.603787
O O18 0.030569 0.656593 0.604993
O O19 0.500000 0.500000 0.591868
O O20 0.250000 0.568606 0.567614
O O21 0.750000 0.073971 0.432906
O O22 0.000000 0.000000 0.392214
#
# Coordination Sequence:
#
# PCOD8191979 Si02
#       8
#     8   8   8   8   8   8   8   8
#     4  10  22  40  59  79 108 147 189 232 275 321
#     4  10  21  36  57  85 115 147 182 222 271 329
#     4  11  23  38  58  83 111 145 186 231 280 332
#     4  10  19  33  55  80 107 140 177 218 269 325
#     4  10  20  34  54  81 112 142 175 217 267 325
#     4   9  20  38  56  74 101 139 181 222 264 315
#     4  10  20  33  52  79 109 140 173 212 261 318
#     4  10  20  34  53  79 110 140 174 218 269 325
#
# _framework density 19.687691999999998
#
# number of rings (size 3 to 8) (size 9 to 14) (size 15 to 20)
#    0.000    2.000    0.000    3.375    0.000    8.500 
#    0.000    0.625    0.000    1.500    0.000    0.000 
#    0.000    0.000    0.000    0.000    0.000    0.000 
#
# Total GULP energy -396599.789487 kJ/mol
# GULP energy per Si atom -12393.743421 kJ/mol
# Density = 1.964288 g / cm^3
# Si number density = 19.687692 Si / 1000 Ang^3
#
#
#
# Elastic Constant Matrix: (Units=GPa)
#
#
# Indices 1 2 3 4 5 6 
#
# 1 65.0657 29.4480 26.1343 0.0000 0.0000 0.0000
# 2 29.4480 77.1850 36.8003 0.0000 0.0000 0.0000
# 3 26.1343 36.8003 76.8193 0.0000 0.0000 0.0000
# 4 0.0000 0.0000 0.0000 9.4080 0.0000 0.0000
# 5 0.0000 0.0000 0.0000 0.0000 23.5309 0.0000
# 6 0.0000 0.0000 0.0000 0.0000 0.0000 36.5541
#
#
#
# Elastic Compliance Matrix: (Units=1/GPa)
#
#
# Indices 1 2 3 4 5 6 
#
# 1 0.019469 -0.005534 -0.003972 0.000000 0.000000 0.000000
# 2 -0.005534 0.018364 -0.006915 0.000000 0.000000 0.000000
# 3 -0.003972 -0.006915 0.017681 0.000000 0.000000 0.000000
# 4 0.000000 0.000000 0.000000 0.106292 0.000000 0.000000
# 5 0.000000 0.000000 0.000000 0.000000 0.042497 0.000000
# 6 0.000000 0.000000 0.000000 0.000000 0.000000 0.027357
#
#
# Mechanical properties :
#
#
# Convention : Reuss Voigt Hill
#
# Bulk Modulus (GPa) = 44.10614 44.87060 44.48837
# Shear Modulus (GPa) = 18.37825 22.34444 20.36135
#
# Velocity S-wave (km/s) = 3.05862 3.37255 3.21941
# Velocity P-wave (km/s) = 5.90974 6.16491 6.03868
#
# Compressibility (1/GPa) = 0.02267258
#
# Stress axis : x y z
#
# Youngs Moduli (GPa) = 51.36290 54.45436 56.55640
#
# Poissons Ratio (x) = 0.30135 0.22467
# Poissons Ratio (y) = 0.28424 0.39106
# Poissons Ratio (z) = 0.20404 0.37653
#
# Static dielectric constant tensor:
#      x y z
#    x 3.599800 0.000000 0.000000 
#    y 0.000000 3.531840 0.000000 
#    z 0.000000 0.000000 3.625450 
# 
# 
# High freq. dielectric constant tensor:
#      x y z
#    x 1.774150 0.000000 0.000000 
#    y 0.000000 1.754770 0.000000 
#    z 0.000000 0.000000 1.763550 
# 
# From -- ./inp_files/23218.got.cif
#   From: 2010.03.12/outbox.cif.g09.slc.cpg/sg46_12_cif.got.tgz:23218.got - 2010.04.14 02:56:35.
