data_PCOD8191280
_publ_section_title
;
Structure prediction by ZEFSAII (Michael W. Deem and Ramdas Pophale) SiO2 
 PCOD8191280
Probable space group: I M A 2
;
_chemical_formula_sum "Si O2"
_cell_formula_units_Z 64
_cell_length_a 8.891261
_cell_length_b 18.245974
_cell_length_c 21.521566
_cell_angle_alpha 90.000000
_cell_angle_beta 90.000000
_cell_angle_gamma 90.000000
_cell_volume 3491.437562
_symmetry_space_group_name_H-M "I M A 2"
_symmetry_group_IT_number 46
_symmetry_cell_setting 'orthorhombic'
loop_
_space_group_symop_operation_xyz
x,y,z
-x,-y,z
1/2-x,y,z
1/2+x,-y,z
1/2+x,1/2+y,1/2+z
1/2-x,1/2-y,1/2+z
-x,1/2+y,1/2+z
x,1/2-y,1/2+z
loop_
_atom_site_type_symbol
_atom_site_label
_atom_site_fract_x
_atom_site_fract_y
_atom_site_fract_z
Si Si1 0.086060 0.435489 0.857100
Si Si2 0.570390 0.923172 0.557870
Si Si3 0.917739 0.810852 0.454300
Si Si4 0.570461 0.925530 0.811258
Si Si5 0.078360 0.783942 0.231841
Si Si6 0.072672 0.785217 0.861616
Si Si7 0.425429 0.624542 0.185304
Si Si8 0.426936 0.073003 0.218860
O O1 0.250000 0.467176 0.844228
O O2 0.091840 0.362721 0.895380
O O3 0.012501 0.422711 0.789776
O O4 0.000000 0.500000 0.893910
O O5 0.750000 0.930200 0.556128
O O6 0.517803 0.856649 0.512567
O O7 0.511314 0.904632 0.625546
O O8 0.500000 0.000000 0.534951
O O9 0.750000 0.779970 0.469030
O O10 0.029354 0.747598 0.429620
O O11 0.750000 0.929225 0.808349
O O12 0.518484 0.860625 0.856626
O O13 0.502029 0.914945 0.743063
O O14 0.500000 0.000000 0.838938
O O15 0.250000 0.809138 0.232820
O O16 0.025920 0.766465 0.303006
O O17 0.055065 0.711756 0.190133
O O18 0.986142 0.847856 0.195408
O O19 0.250000 0.801170 0.858915
O O20 0.250000 0.602370 0.182485
O O21 0.250000 0.069542 0.208593
O O22 0.500000 0.000000 0.187116
#
# Coordination Sequence:
#
# PCOD8191280 Si02
#       8
#     8   8   8   8   8   8   8   8
#     4   9  17  27  40  61  90 127 166 202 241 286
#     4  11  23  37  54  76 105 143 186 226 264 309
#     4  10  20  34  49  70 101 137 177 216 256 303
#     4  11  21  35  56  80 108 137 170 214 266 319
#     4   9  18  32  49  71  98 130 168 213 261 312
#     4  10  20  33  51  76 104 135 172 212 261 316
#     4  10  21  37  55  76 104 137 178 223 269 318
#     4  10  18  27  43  66  96 130 164 202 246 299
#
# _framework density 18.330558
#
# number of rings (size 3 to 8) (size 9 to 14) (size 15 to 20)
#    0.000    2.000    1.250    4.125    0.000    4.500 
#    0.000    0.000    0.000    0.000    0.000    0.875 
#    0.000    2.000    0.000    0.000    0.000    0.000 
#
# Total GULP energy -396569.592229 kJ/mol
# GULP energy per Si atom -12392.799757 kJ/mol
# Density = 1.828884 g / cm^3
# Si number density = 18.330558 Si / 1000 Ang^3
#
#
#
# Elastic Constant Matrix: (Units=GPa)
#
#
# Indices 1 2 3 4 5 6 
#
# 1 96.3325 52.8546 17.3890 0.0000 0.0000 0.0000
# 2 52.8546 112.2966 19.9696 0.0000 0.0000 0.0000
# 3 17.3890 19.9696 55.4233 0.0000 0.0000 0.0000
# 4 0.0000 0.0000 0.0000 17.1770 0.0000 0.0000
# 5 0.0000 0.0000 0.0000 0.0000 19.1659 0.0000
# 6 0.0000 0.0000 0.0000 0.0000 0.0000 36.1823
#
#
#
# Elastic Compliance Matrix: (Units=1/GPa)
#
#
# Indices 1 2 3 4 5 6 
#
# 1 0.014240 -0.006312 -0.002193 0.000000 0.000000 0.000000
# 2 -0.006312 0.012313 -0.002456 0.000000 0.000000 0.000000
# 3 -0.002193 -0.002456 0.019616 0.000000 0.000000 0.000000
# 4 0.000000 0.000000 0.000000 0.058217 0.000000 0.000000
# 5 0.000000 0.000000 0.000000 0.000000 0.052176 0.000000
# 6 0.000000 0.000000 0.000000 0.000000 0.000000 0.027638
#
#
# Mechanical properties :
#
#
# Convention : Reuss Voigt Hill
#
# Bulk Modulus (GPa) = 41.24475 49.38655 45.31565
# Shear Modulus (GPa) = 23.34212 26.09431 24.71821
#
# Velocity S-wave (km/s) = 3.57234 3.77708 3.67614
# Velocity P-wave (km/s) = 6.29006 6.78398 6.54169
#
# Compressibility (1/GPa) = 0.02424551
#
# Stress axis : x y z
#
# Youngs Moduli (GPa) = 70.22471 81.21676 50.97868
#
# Poissons Ratio (x) = 0.51266 0.11182
# Poissons Ratio (y) = 0.44328 0.12520
# Poissons Ratio (z) = 0.15403 0.19946
#
# Static dielectric constant tensor:
#      x y z
#    x 3.533340 0.000000 0.000000 
#    y 0.000000 3.638890 0.000000 
#    z 0.000000 0.000000 3.025080 
# 
# 
# High freq. dielectric constant tensor:
#      x y z
#    x 1.720340 0.000000 0.000000 
#    y 0.000000 1.717270 0.000000 
#    z 0.000000 0.000000 1.659030 
# 
# From -- ./inp_files/23299.got.cif
#   From: 2010.03.12/outbox.cif.g09.slc.cpg/sg46_12_cif.got.tgz:23299.got - 2010.04.14 02:56:35.
