data_PCOD8191520
_publ_section_title
;
Structure prediction by ZEFSAII (Michael W. Deem and Ramdas Pophale) SiO2 
 PCOD8191520
Probable space group: I M A 2
;
_chemical_formula_sum "Si O2"
_cell_formula_units_Z 64
_cell_length_a 15.224336
_cell_length_b 9.455734
_cell_length_c 21.786413
_cell_angle_alpha 90.000000
_cell_angle_beta 90.000000
_cell_angle_gamma 90.000000
_cell_volume 3136.312572
_symmetry_space_group_name_H-M "I M A 2"
_symmetry_group_IT_number 46
_symmetry_cell_setting 'orthorhombic'
loop_
_space_group_symop_operation_xyz
x,y,z
-x,-y,z
1/2-x,y,z
1/2+x,-y,z
1/2+x,1/2+y,1/2+z
1/2-x,1/2-y,1/2+z
-x,1/2+y,1/2+z
x,1/2-y,1/2+z
loop_
_atom_site_type_symbol
_atom_site_label
_atom_site_fract_x
_atom_site_fract_y
_atom_site_fract_z
Si Si1 0.352262 0.156176 0.206890
Si Si2 0.650026 0.893383 0.621597
Si Si3 0.347237 0.361248 0.315820
Si Si4 0.149955 0.851874 0.394162
Si Si5 0.986834 0.656349 0.422643
Si Si6 0.089714 0.931150 0.726271
Si Si7 0.586314 0.919028 0.488924
Si Si8 0.648238 0.366907 0.752604
O O1 0.250000 0.135065 0.195720
O O2 0.392614 0.248313 0.150163
O O3 0.370356 0.232560 0.271129
O O4 0.391121 0.998186 0.213466
O O5 0.750000 0.894355 0.642676
O O6 0.646250 0.904559 0.548689
O O7 0.606378 0.028002 0.655070
O O8 0.250000 0.341576 0.346284
O O9 0.425386 0.368081 0.364201
O O10 0.340507 0.504351 0.274688
O O11 0.250000 0.798354 0.406146
O O12 0.137319 0.901536 0.324506
O O13 0.082145 0.724482 0.407630
O O14 0.133038 0.991069 0.435513
O O15 0.935039 0.760178 0.467992
O O16 0.000000 0.500000 0.452562
O O17 0.088084 0.762979 0.731655
O O18 0.000000 0.000000 0.749198
O O19 0.500000 0.000000 0.510676
O O20 0.750000 0.334560 0.737255
#
# Coordination Sequence:
#
# PCOD8191520 Si02
#       8
#     8   8   8   8   8   8   8   8
#     4   8  17  32  53  82 112 142 181 229 277 332
#     4  10  20  38  59  78 105 146 194 237 286 349
#     4  10  19  34  56  84 120 159 194 229 283 354
#     4  10  21  38  61  88 119 157 197 239 290 354
#     4  11  23  38  58  87 120 151 193 248 301 355
#     4  11  21  34  54  82 116 153 192 234 287 348
#     4  10  22  40  60  81 110 151 198 241 288 352
#     4  10  18  32  55  84 114 141 178 229 284 336
#
# _framework density 20.406130999999998
#
# number of rings (size 3 to 8) (size 9 to 14) (size 15 to 20)
#    0.000    2.000    0.000    5.250    0.000    3.500 
#    0.000    8.750    0.000    1.500    0.000    0.000 
#    0.000    0.000    0.000    0.000    0.000    0.000 
#
# Total GULP energy -396607.256544 kJ/mol
# GULP energy per Si atom -12393.976767 kJ/mol
# Density = 2.035969 g / cm^3
# Si number density = 20.406131 Si / 1000 Ang^3
#
#
#
# Elastic Constant Matrix: (Units=GPa)
#
#
# Indices 1 2 3 4 5 6 
#
# 1 74.5311 29.0225 26.5485 0.0000 0.0000 0.0000
# 2 29.0225 173.5543 59.5364 0.0000 0.0000 0.0000
# 3 26.5485 59.5364 104.7035 0.0000 0.0000 0.0000
# 4 0.0000 0.0000 0.0000 15.8878 0.0000 0.0000
# 5 0.0000 0.0000 0.0000 0.0000 25.6166 0.0000
# 6 0.0000 0.0000 0.0000 0.0000 0.0000 22.8405
#
#
#
# Elastic Compliance Matrix: (Units=1/GPa)
#
#
# Indices 1 2 3 4 5 6 
#
# 1 0.015058 -0.001501 -0.002964 0.000000 0.000000 0.000000
# 2 -0.001501 0.007308 -0.003775 0.000000 0.000000 0.000000
# 3 -0.002964 -0.003775 0.012449 0.000000 0.000000 0.000000
# 4 0.000000 0.000000 0.000000 0.062941 0.000000 0.000000
# 5 0.000000 0.000000 0.000000 0.000000 0.039037 0.000000
# 6 0.000000 0.000000 0.000000 0.000000 0.000000 0.043782
#
#
# Mechanical properties :
#
#
# Convention : Reuss Voigt Hill
#
# Bulk Modulus (GPa) = 54.54419 64.77818 59.66119
# Shear Modulus (GPa) = 24.61034 28.71441 26.66238
#
# Velocity S-wave (km/s) = 3.47656 3.75526 3.61860
# Velocity P-wave (km/s) = 6.55001 7.11450 6.83808
#
# Compressibility (1/GPa) = 0.01833376
#
# Stress axis : x y z
#
# Youngs Moduli (GPa) = 66.41122 136.84019 80.32883
#
# Poissons Ratio (x) = 0.20541 0.23813
# Poissons Ratio (y) = 0.09969 0.30322
# Poissons Ratio (z) = 0.19687 0.51654
#
# Static dielectric constant tensor:
#      x y z
#    x 3.773630 0.000000 0.000000 
#    y 0.000000 3.947900 0.000000 
#    z 0.000000 0.000000 3.401670 
# 
# 
# High freq. dielectric constant tensor:
#      x y z
#    x 1.801530 0.000000 0.000000 
#    y 0.000000 1.801750 0.000000 
#    z 0.000000 0.000000 1.769200 
# 
# From -- ./inp_files/23706.got.cif
#   From: 2010.03.12/outbox.cif.g09.slc.cpg/sg46_12_cif.got.tgz:23706.got - 2010.04.14 02:56:35.
