data_PCOD8191575
_publ_section_title
;
Structure prediction by ZEFSAII (Michael W. Deem and Ramdas Pophale) SiO2 
 PCOD8191575
Probable space group: I M A 2
;
_chemical_formula_sum "Si O2"
_cell_formula_units_Z 48
_cell_length_a 10.039624
_cell_length_b 8.865935
_cell_length_c 27.952715
_cell_angle_alpha 90.000000
_cell_angle_beta 90.000000
_cell_angle_gamma 90.000000
_cell_volume 2488.089438
_symmetry_space_group_name_H-M "I M A 2"
_symmetry_group_IT_number 46
_symmetry_cell_setting 'orthorhombic'
loop_
_space_group_symop_operation_xyz
x,y,z
-x,-y,z
1/2-x,y,z
1/2+x,-y,z
1/2+x,1/2+y,1/2+z
1/2-x,1/2-y,1/2+z
-x,1/2+y,1/2+z
x,1/2-y,1/2+z
loop_
_atom_site_type_symbol
_atom_site_label
_atom_site_fract_x
_atom_site_fract_y
_atom_site_fract_z
Si Si1 0.903535 0.371261 0.337760
Si Si2 0.750000 0.326455 0.592763
Si Si3 0.750000 0.815678 0.490292
Si Si4 0.250000 0.314592 0.596877
Si Si5 0.403324 0.638483 0.753393
Si Si6 0.504858 0.173822 0.942862
Si Si7 0.750000 0.173643 0.491950
Si Si8 0.494525 0.821098 0.154200
O O1 0.750000 0.426474 0.347237
O O2 0.901826 0.237221 0.300496
O O3 0.974827 0.315365 0.386090
O O4 0.000000 0.500000 0.316332
O O5 0.750000 0.506905 0.586824
O O6 0.750000 0.238979 0.544178
O O7 0.877448 0.266185 0.620423
O O8 0.750000 0.762164 0.545215
O O9 0.627172 0.755140 0.460077
O O10 0.750000 0.994646 0.491279
O O11 0.372500 0.258790 0.629555
O O12 0.500000 0.500000 0.764830
O O13 0.250000 0.587058 0.741290
O O14 0.464804 0.733822 0.708517
O O15 0.622271 0.264794 0.966070
O O16 0.500000 0.000000 0.960065
O O17 0.500000 0.000000 0.157865
#
# Coordination Sequence:
#
# PCOD8191575 Si02
#       8
#     8   4   4   4   8   8   4   8
#     4  10  23  43  65  92 122 158 207 256 305 368
#     4  10  18  34  59  80 113 163 208 249 301 366
#     4  12  26  40  61  96 131 161 204 269 325 372
#     4  10  20  36  57  86 117 161 216 255 299 372
#     4  10  21  38  61  94 128 161 202 254 311 364
#     4  11  23  43  66  89 119 171 216 254 303 379
#     4  12  24  40  61  92 131 159 202 269 327 368
#     4   9  18  33  57  86 115 156 208 257 292 353
#
# _framework density 19.291910999999999
#
# number of rings (size 3 to 8) (size 9 to 14) (size 15 to 20)
#    0.000    1.667    1.667    3.000    7.000    3.333 
#    0.000    1.667    0.000    0.000    0.000    0.000 
#    0.000    0.000    0.000    0.000    0.000    0.000 
#
# Total GULP energy -297485.445953 kJ/mol
# GULP energy per Si atom -12395.226915 kJ/mol
# Density = 1.924800 g / cm^3
# Si number density = 19.291911 Si / 1000 Ang^3
#
#
#
# Elastic Constant Matrix: (Units=GPa)
#
#
# Indices 1 2 3 4 5 6 
#
# 1 178.0259 46.7356 54.5695 0.0000 0.0000 0.0000
# 2 46.7356 84.1100 36.0078 0.0000 0.0000 0.0000
# 3 54.5695 36.0078 91.7513 0.0000 0.0000 0.0000
# 4 0.0000 0.0000 0.0000 27.6212 0.0000 0.0000
# 5 0.0000 0.0000 0.0000 0.0000 42.0934 0.0000
# 6 0.0000 0.0000 0.0000 0.0000 0.0000 28.6689
#
#
#
# Elastic Compliance Matrix: (Units=1/GPa)
#
#
# Indices 1 2 3 4 5 6 
#
# 1 0.007331 -0.002652 -0.003319 0.000000 0.000000 0.000000
# 2 -0.002652 0.015250 -0.004407 0.000000 0.000000 0.000000
# 3 -0.003319 -0.004407 0.014603 0.000000 0.000000 0.000000
# 4 0.000000 0.000000 0.000000 0.036204 0.000000 0.000000
# 5 0.000000 0.000000 0.000000 0.000000 0.023757 0.000000
# 6 0.000000 0.000000 0.000000 0.000000 0.000000 0.034881
#
#
# Mechanical properties :
#
#
# Convention : Reuss Voigt Hill
#
# Bulk Modulus (GPa) = 60.87994 69.83479 65.35736
# Shear Modulus (GPa) = 31.59398 34.11499 32.85449
#
# Velocity S-wave (km/s) = 4.05122 4.20975 4.13124
# Velocity P-wave (km/s) = 7.31498 7.73995 7.53046
#
# Compressibility (1/GPa) = 0.01642577
#
# Stress axis : x y z
#
# Youngs Moduli (GPa) = 136.40922 65.57468 68.48045
#
# Poissons Ratio (x) = 0.17393 0.22729
# Poissons Ratio (y) = 0.36182 0.30181
# Poissons Ratio (z) = 0.45276 0.28900
#
# Static dielectric constant tensor:
#      x y z
#    x 3.978720 0.000000 0.000000 
#    y 0.000000 3.275130 0.000000 
#    z 0.000000 0.000000 3.833840 
# 
# 
# High freq. dielectric constant tensor:
#      x y z
#    x 1.776390 0.000000 0.000000 
#    y 0.000000 1.718860 0.000000 
#    z 0.000000 0.000000 1.770040 
# 
# From -- ./inp_files/25080.got.cif
#   From: 2010.03.12/outbox.cif.g09.slc.cpg/sg46_13_cif.got.tgz:25080.got - 2010.04.14 02:56:35.
