data_PCOD8191618
_publ_section_title
;
Structure prediction by ZEFSAII (Michael W. Deem and Ramdas Pophale) SiO2 
 PCOD8191618
Probable space group: I M A 2
;
_chemical_formula_sum "Si O2"
_cell_formula_units_Z 48
_cell_length_a 14.797616
_cell_length_b 11.427470
_cell_length_c 13.443210
_cell_angle_alpha 90.000000
_cell_angle_beta 90.000000
_cell_angle_gamma 90.000000
_cell_volume 2273.237574
_symmetry_space_group_name_H-M "I M A 2"
_symmetry_group_IT_number 46
_symmetry_cell_setting 'orthorhombic'
loop_
_space_group_symop_operation_xyz
x,y,z
-x,-y,z
1/2-x,y,z
1/2+x,-y,z
1/2+x,1/2+y,1/2+z
1/2-x,1/2-y,1/2+z
-x,1/2+y,1/2+z
x,1/2-y,1/2+z
loop_
_atom_site_type_symbol
_atom_site_label
_atom_site_fract_x
_atom_site_fract_y
_atom_site_fract_z
Si Si1 0.250000 0.594790 0.240150
Si Si2 0.750000 0.801636 0.409091
Si Si3 0.910826 0.237551 0.809001
Si Si4 0.250000 0.148897 0.639317
Si Si5 0.106386 0.199138 0.251882
Si Si6 0.857503 0.052195 0.202119
Si Si7 0.250000 0.037251 0.939926
Si Si8 0.582477 0.418039 0.499911
O O1 0.343217 0.669520 0.232271
O O2 0.250000 0.489063 0.162265
O O3 0.250000 0.552938 0.351509
O O4 0.750000 0.845333 0.520776
O O5 0.840446 0.841225 0.351979
O O6 0.750000 0.663917 0.395028
O O7 0.878518 0.373539 0.803020
O O8 0.905482 0.188319 0.921968
O O9 0.014931 0.230623 0.775104
O O10 0.338084 0.212756 0.681898
O O11 0.091962 0.073736 0.199524
O O12 0.750000 0.037241 0.188432
O O13 0.908770 0.127664 0.113705
O O14 0.162325 0.013880 0.004536
O O15 0.500000 0.500000 0.469388
#
# Coordination Sequence:
#
# PCOD8191618 Si02
#       8
#     4   4   8   4   8   8   4   8
#     4  10  22  40  62  98 135 173 206 273 338 394
#     4  11  21  39  66  98 130 174 224 270 335 391
#     4  11  25  42  69  97 136 171 219 282 336 392
#     4  11  23  41  67  99 141 177 219 274 339 404
#     4  11  23  43  70  98 132 178 228 283 325 396
#     4  12  23  46  69  96 133 180 225 274 335 394
#     4  10  18  36  61  93 128 162 217 263 318 377
#     4  11  23  39  69 100 125 171 227 271 321 397
#
# _framework density 21.115258000000001
#
# number of rings (size 3 to 8) (size 9 to 14) (size 15 to 20)
#    0.000    1.000    5.000    3.500    2.333    1.333 
#    3.000    0.000    3.667    0.000    0.000    0.000 
#    0.000    0.000    0.000    0.000    0.000    0.000 
#
# Total GULP energy -297366.509869 kJ/mol
# GULP energy per Si atom -12390.271245 kJ/mol
# Density = 2.106720 g / cm^3
# Si number density = 21.115258 Si / 1000 Ang^3
#
#
#
# Elastic Constant Matrix: (Units=GPa)
#
#
# Indices 1 2 3 4 5 6 
#
# 1 142.4911 41.5313 45.6878 0.0000 0.0000 0.0000
# 2 41.5313 100.3775 34.9455 0.0000 0.0000 0.0000
# 3 45.6878 34.9455 113.3227 0.0000 0.0000 0.0000
# 4 0.0000 0.0000 0.0000 29.5668 0.0000 0.0000
# 5 0.0000 0.0000 0.0000 0.0000 20.3647 0.0000
# 6 0.0000 0.0000 0.0000 0.0000 0.0000 40.4273
#
#
#
# Elastic Compliance Matrix: (Units=1/GPa)
#
#
# Indices 1 2 3 4 5 6 
#
# 1 0.008646 -0.002648 -0.002669 0.000000 0.000000 0.000000
# 2 -0.002648 0.011972 -0.002624 0.000000 0.000000 0.000000
# 3 -0.002669 -0.002624 0.010710 0.000000 0.000000 0.000000
# 4 0.000000 0.000000 0.000000 0.033822 0.000000 0.000000
# 5 0.000000 0.000000 0.000000 0.000000 0.049105 0.000000
# 6 0.000000 0.000000 0.000000 0.000000 0.000000 0.024736
#
#
# Mechanical properties :
#
#
# Convention : Reuss Voigt Hill
#
# Bulk Modulus (GPa) = 64.74780 66.72451 65.73616
# Shear Modulus (GPa) = 31.24625 33.67353 32.45989
#
# Velocity S-wave (km/s) = 3.85098 3.99776 3.92506
# Velocity P-wave (km/s) = 7.10662 7.27861 7.19313
#
# Compressibility (1/GPa) = 0.01544454
#
# Stress axis : x y z
#
# Youngs Moduli (GPa) = 115.66647 83.53154 93.37383
#
# Poissons Ratio (x) = 0.22118 0.24922
# Poissons Ratio (y) = 0.30627 0.24503
# Poissons Ratio (z) = 0.30872 0.21920
#
# Static dielectric constant tensor:
#      x y z
#    x 4.131110 0.000000 0.000000 
#    y 0.000000 3.890590 0.000000 
#    z 0.000000 0.000000 3.907270 
# 
# 
# High freq. dielectric constant tensor:
#      x y z
#    x 1.846220 0.000000 0.000000 
#    y 0.000000 1.819160 0.000000 
#    z 0.000000 0.000000 1.818900 
# 
# From -- ./inp_files/15904.got.cif
#   From: 2010.03.12/outbox.cif.g09.slc.cpg/sg46_8_cif.got.tgz:15904.got - 2010.04.14 02:56:35.
