data_PCOD8191393
_publ_section_title
;
Structure prediction by ZEFSAII (Michael W. Deem and Ramdas Pophale) SiO2 
 PCOD8191393
Probable space group: I M A 2
;
_chemical_formula_sum "Si O2"
_cell_formula_units_Z 40
_cell_length_a 24.166035
_cell_length_b 16.032941
_cell_length_c 5.273434
_cell_angle_alpha 90.000000
_cell_angle_beta 90.000000
_cell_angle_gamma 90.000000
_cell_volume 2043.205785
_symmetry_space_group_name_H-M "I M A 2"
_symmetry_group_IT_number 46
_symmetry_cell_setting 'orthorhombic'
loop_
_space_group_symop_operation_xyz
x,y,z
-x,-y,z
1/2-x,y,z
1/2+x,-y,z
1/2+x,1/2+y,1/2+z
1/2-x,1/2-y,1/2+z
-x,1/2+y,1/2+z
x,1/2-y,1/2+z
loop_
_atom_site_type_symbol
_atom_site_label
_atom_site_fract_x
_atom_site_fract_y
_atom_site_fract_z
Si Si1 0.525722 0.292297 0.509590
Si Si2 0.592226 0.722041 0.009872
Si Si3 0.596282 0.444158 0.510055
Si Si4 0.686417 0.197007 0.010193
Si Si5 0.563371 0.530470 0.010095
O O1 0.552485 0.250079 0.259470
O O2 0.459827 0.285939 0.509555
O O3 0.540074 0.389698 0.509895
O O4 0.627018 0.749949 0.759819
O O5 0.567256 0.630122 0.010000
O O6 0.650176 0.386324 0.510090
O O7 0.596183 0.499938 0.257973
O O8 0.596159 0.499889 0.762220
O O9 0.750000 0.168233 0.010168
O O10 0.672411 0.250026 0.760243
O O11 0.500000 0.500000 0.010172
#
# Coordination Sequence:
#
# PCOD8191393 Si02
#       5
#     8   8   8   8   8
#     4  10  18  30  46  64  91 134 175 204 246 305
#     4  10  19  33  47  64  95 137 175 208 252 305
#     4  12  22  35  53  78 109 142 184 228 276 323
#     4  10  21  38  60  85 113 148 190 234 279 334
#     4  12  23  34  50  77 109 143 184 228 268 323
#
# _framework density 19.577078
#
# number of rings (size 3 to 8) (size 9 to 14) (size 15 to 20)
#    0.000    1.200    0.000   10.200    0.000    0.000 
#    0.000    0.000    0.000    0.000    0.000    0.000 
#    0.000   16.000    0.000    0.000    0.000    0.000 
#
# Total GULP energy -247915.874588 kJ/mol
# GULP energy per Si atom -12395.793729 kJ/mol
# Density = 1.953252 g / cm^3
# Si number density = 19.577078 Si / 1000 Ang^3
#
#
#
# Elastic Constant Matrix: (Units=GPa)
#
#
# Indices 1 2 3 4 5 6 
#
# 1 60.6585 10.5838 19.6727 0.0000 0.0000 0.0000
# 2 10.5838 87.3080 56.6997 0.0000 0.0000 0.0000
# 3 19.6727 56.6997 223.5710 0.0000 0.0000 0.0000
# 4 0.0000 0.0000 0.0000 38.7918 0.0000 0.0000
# 5 0.0000 0.0000 0.0000 0.0000 -30.9903 0.0000
# 6 0.0000 0.0000 0.0000 0.0000 0.0000 22.1139
#
#
#
# Elastic Compliance Matrix: (Units=1/GPa)
#
#
# Indices 1 2 3 4 5 6 
#
# 1 0.017095 -0.001311 -0.001172 0.000000 0.000000 0.000000
# 2 -0.001311 0.013813 -0.003388 0.000000 0.000000 0.000000
# 3 -0.001172 -0.003388 0.005435 0.000000 0.000000 0.000000
# 4 0.000000 0.000000 0.000000 0.025779 0.000000 0.000000
# 5 0.000000 0.000000 0.000000 0.000000 -0.032268 0.000000
# 6 0.000000 0.000000 0.000000 0.000000 0.000000 0.045220
#
#
# Mechanical properties :
#
#
# Convention : Reuss Voigt Hill
#
# Bulk Modulus (GPa) = 40.64876 60.60558 50.62717
# Shear Modulus (GPa) = 52.62339 24.95516 38.78928
#
# Velocity S-wave (km/s) = 5.19023 3.57419 4.45608
# Velocity P-wave (km/s) = 7.53170 6.93237 7.23824
#
# Compressibility (1/GPa) = 0.02460099
#
# Stress axis : x y z
#
# Youngs Moduli (GPa) = 58.49826 72.39725 183.98986
#
# Poissons Ratio (x) = 0.09494 0.21557
# Poissons Ratio (y) = 0.07671 0.62329
# Poissons Ratio (z) = 0.06854 0.24526
#
# Static dielectric constant tensor:
#      x y z
#    x 3.001840 0.000000 0.000000 
#    y 0.000000 3.540600 0.000000 
#    z 0.000000 0.000000 4.089720 
# 
# 
# High freq. dielectric constant tensor:
#      x y z
#    x 1.689470 0.000000 0.000000 
#    y 0.000000 1.763590 0.000000 
#    z 0.000000 0.000000 1.809910 
# 
# From -- ./inp_files/2296.got.cif
#   From: 2010.03.12/outbox.cif.g09.slc.cpg/sg46_2_cif.got.tgz:2296.got - 2010.04.14 02:56:35.
