data_PCOD8191602
_publ_section_title
;
Structure prediction by ZEFSAII (Michael W. Deem and Ramdas Pophale) SiO2 
 PCOD8191602
Probable space group: I M A 2
;
_chemical_formula_sum "Si O2"
_cell_formula_units_Z 64
_cell_length_a 8.742766
_cell_length_b 23.689870
_cell_length_c 15.409370
_cell_angle_alpha 90.000000
_cell_angle_beta 90.000000
_cell_angle_gamma 90.000000
_cell_volume 3191.511513
_symmetry_space_group_name_H-M "I M A 2"
_symmetry_group_IT_number 46
_symmetry_cell_setting 'orthorhombic'
loop_
_space_group_symop_operation_xyz
x,y,z
-x,-y,z
1/2-x,y,z
1/2+x,-y,z
1/2+x,1/2+y,1/2+z
1/2-x,1/2-y,1/2+z
-x,1/2+y,1/2+z
x,1/2-y,1/2+z
loop_
_atom_site_type_symbol
_atom_site_label
_atom_site_fract_x
_atom_site_fract_y
_atom_site_fract_z
Si Si1 0.568933 0.439421 0.785630
Si Si2 0.930739 0.374684 0.143533
Si Si3 0.928591 0.559770 0.300414
Si Si4 0.577337 0.133782 0.942578
Si Si5 0.069234 0.873472 0.451025
Si Si6 0.574103 0.255936 0.876851
Si Si7 0.927919 0.145889 0.135929
Si Si8 0.428192 0.242210 0.694684
O O1 0.500000 0.500000 0.766320
O O2 0.750000 0.444545 0.787285
O O3 0.503795 0.415482 0.877177
O O4 0.515811 0.397576 0.709168
O O5 0.750000 0.380257 0.153451
O O6 0.007463 0.417573 0.209881
O O7 0.975251 0.310531 0.161377
O O8 0.987836 0.391563 0.046656
O O9 0.750000 0.552586 0.290050
O O10 0.000000 0.500000 0.324257
O O11 0.961868 0.602485 0.378819
O O12 0.750000 0.116758 0.915674
O O13 0.555573 0.200955 0.935983
O O14 0.543912 0.117071 0.042167
O O15 0.250000 0.876178 0.448174
O O16 0.017396 0.809286 0.432702
O O17 0.750000 0.263866 0.845632
O O18 0.464491 0.252038 0.794913
O O19 0.750000 0.161506 0.148517
O O20 0.026260 0.202688 0.140542
O O21 0.250000 0.229089 0.682758
#
# Coordination Sequence:
#
# PCOD8191602 Si02
#       8
#     8   8   8   8   8   8   8   8
#     4  10  21  39  61  86 118 155 199 248 296 351
#     4  11  22  40  65  91 121 159 202 251 304 366
#     4  12  26  44  64  88 121 161 205 256 306 361
#     4  10  21  38  65  95 118 155 202 250 306 363
#     4   9  19  37  63  91 117 155 203 245 295 357
#     4  10  18  35  62  88 120 157 197 244 301 367
#     4  10  21  40  65  89 120 162 205 245 297 363
#     4  12  23  35  57  92 128 161 198 246 305 359
#
# _framework density 20.053194999999999
#
# number of rings (size 3 to 8) (size 9 to 14) (size 15 to 20)
#    0.000    1.500    2.500    3.375    0.000    4.000 
#    0.000    6.250    0.000    0.000    0.000    0.000 
#    0.000    0.000    0.000    0.000    0.000    0.000 
#
# Total GULP energy -396892.120127 kJ/mol
# GULP energy per Si atom -12402.878754 kJ/mol
# Density = 2.000755 g / cm^3
# Si number density = 20.053195 Si / 1000 Ang^3
#
#
#
# Elastic Constant Matrix: (Units=GPa)
#
#
# Indices 1 2 3 4 5 6 
#
# 1 74.6201 19.3494 26.2012 -0.0002 -0.0001 0.0000
# 2 19.3494 78.4633 15.8881 -0.0005 -0.0001 0.0000
# 3 26.2012 15.8881 121.8975 -0.0011 -0.0001 0.0001
# 4 -0.0002 -0.0005 -0.0011 8.1277 -0.0001 0.0000
# 5 -0.0001 -0.0001 -0.0001 -0.0001 29.2225 0.0000
# 6 0.0000 0.0000 0.0001 0.0000 0.0000 31.0614
#
#
#
# Elastic Compliance Matrix: (Units=1/GPa)
#
#
# Indices 1 2 3 4 5 6 
#
# 1 0.015229 -0.003177 -0.002859 0.000000 0.000000 0.000000
# 2 -0.003177 0.013753 -0.001110 0.000001 0.000000 0.000000
# 3 -0.002859 -0.001110 0.008963 0.000001 0.000000 0.000000
# 4 0.000000 0.000001 0.000001 0.123037 0.000000 0.000000
# 5 0.000000 0.000000 0.000000 0.000000 0.034220 0.000000
# 6 0.000000 0.000000 0.000000 0.000000 0.000000 0.032194
#
#
# Mechanical properties :
#
#
# Convention : Reuss Voigt Hill
#
# Bulk Modulus (GPa) = 42.27728 44.20647 43.24187
# Shear Modulus (GPa) = 20.03434 27.91846 23.97640
#
# Velocity S-wave (km/s) = 3.16422 3.73529 3.46155
# Velocity P-wave (km/s) = 5.87180 6.37932 6.13081
#
# Compressibility (1/GPa) = 0.02365337
#
# Stress axis : x y z
#
# Youngs Moduli (GPa) = 65.66468 72.71207 111.57153
#
# Poissons Ratio (x) = 0.23097 0.31902
# Poissons Ratio (y) = 0.20858 0.12382
# Poissons Ratio (z) = 0.18776 0.08069
#
# Static dielectric constant tensor:
#      x y z
#    x 3.407430 0.000000 0.000000 
#    y 0.000000 3.669590 0.000000 
#    z 0.000000 0.000000 3.940050 
# 
# 
# High freq. dielectric constant tensor:
#      x y z
#    x 1.761500 0.000000 0.000000 
#    y 0.000000 1.780490 0.000000 
#    z 0.000000 0.000000 1.797390 
# 
# From -- ./inp_files/14516.got.cif
#   From: 2010.03.12/outbox.cif.g09.slc.cpg/sg46_8_cif.got.tgz:14516.got - 2010.04.14 02:56:35.
