data_PCOD8191750
_publ_section_title
;
Structure prediction by ZEFSAII (Michael W. Deem and Ramdas Pophale) SiO2 
 PCOD8191750
Probable space group: I M A 2
;
_chemical_formula_sum "Si O2"
_cell_formula_units_Z 64
_cell_length_a 8.812095
_cell_length_b 29.914914
_cell_length_c 14.339128
_cell_angle_alpha 90.000000
_cell_angle_beta 90.000000
_cell_angle_gamma 90.000000
_cell_volume 3779.981468
_symmetry_space_group_name_H-M "I M A 2"
_symmetry_group_IT_number 46
_symmetry_cell_setting 'orthorhombic'
loop_
_space_group_symop_operation_xyz
x,y,z
-x,-y,z
1/2-x,y,z
1/2+x,-y,z
1/2+x,1/2+y,1/2+z
1/2-x,1/2-y,1/2+z
-x,1/2+y,1/2+z
x,1/2-y,1/2+z
loop_
_atom_site_type_symbol
_atom_site_label
_atom_site_fract_x
_atom_site_fract_y
_atom_site_fract_z
Si Si1 0.917957 0.825542 0.803940
Si Si2 0.071348 0.700196 0.628493
Si Si3 0.572927 0.454889 0.199048
Si Si4 0.579265 0.721783 0.812252
Si Si5 0.926706 0.868380 0.996890
Si Si6 0.428997 0.284196 0.022963
Si Si7 0.430101 0.546415 0.410750
Si Si8 0.924801 0.139008 0.633549
O O1 0.750000 0.844600 0.778477
O O2 0.919616 0.773359 0.785734
O O3 0.955576 0.834988 0.910986
O O4 0.047172 0.847399 0.740668
O O5 0.250000 0.700425 0.616377
O O6 0.028465 0.697600 0.737732
O O7 0.003047 0.655227 0.584981
O O8 0.007580 0.744887 0.580494
O O9 0.500000 0.500000 0.157942
O O10 0.750000 0.463124 0.204727
O O11 0.513704 0.444764 0.304238
O O12 0.534818 0.413860 0.129068
O O13 0.750000 0.702243 0.805394
O O14 0.513792 0.715047 0.916304
O O15 0.750000 0.876004 0.016836
O O16 0.005302 0.915571 0.978088
O O17 0.250000 0.275528 0.027865
O O18 0.468460 0.332662 0.065467
O O19 0.500000 0.500000 0.446597
O O20 0.250000 0.545192 0.418893
O O21 0.750000 0.148057 0.608285
#
# Coordination Sequence:
#
# PCOD8191750 Si02
#       8
#     8   8   8   8   8   8   8   8
#     4  10  19  31  50  72 100 139 177 212 250 300
#     4  12  24  35  52  77 104 136 173 217 262 307
#     4   9  19  32  48  72 104 137 171 211 256 305
#     4  10  21  38  54  71 100 137 178 218 253 301
#     4  11  21  35  53  75 103 141 180 215 257 309
#     4  11  22  37  54  74 101 138 178 214 255 309
#     4  10  19  33  50  75 106 138 174 214 260 311
#     4  11  21  33  49  76 106 136 172 215 259 305
#
# _framework density 16.9313
#
# number of rings (size 3 to 8) (size 9 to 14) (size 15 to 20)
#    0.000    1.500    3.750    2.625    0.000    3.000 
#    0.000    0.000    0.000    0.000    0.000    0.875 
#    0.000    4.000    0.000    0.000    0.000    0.000 
#
# Total GULP energy -396827.477198 kJ/mol
# GULP energy per Si atom -12400.858662 kJ/mol
# Density = 1.689276 g / cm^3
# Si number density = 16.931300 Si / 1000 Ang^3
#
#
#
# Elastic Constant Matrix: (Units=GPa)
#
#
# Indices 1 2 3 4 5 6 
#
# 1 78.8092 37.0935 31.2584 0.0003 0.0001 0.0000
# 2 37.0935 94.6797 27.5893 0.0009 0.0002 0.0000
# 3 31.2584 27.5893 70.4686 0.0018 0.0006 0.0001
# 4 0.0003 0.0009 0.0018 22.0573 0.0002 0.0000
# 5 0.0001 0.0002 0.0006 0.0002 20.2999 0.0001
# 6 0.0000 0.0000 0.0001 0.0000 0.0001 29.9227
#
#
#
# Elastic Compliance Matrix: (Units=1/GPa)
#
#
# Indices 1 2 3 4 5 6 
#
# 1 0.017368 -0.005147 -0.005689 0.000000 0.000000 0.000000
# 2 -0.005147 0.013447 -0.002982 0.000000 0.000000 0.000000
# 3 -0.005689 -0.002982 0.017882 -0.000001 0.000000 0.000000
# 4 0.000000 0.000000 -0.000001 0.045337 0.000000 0.000000
# 5 0.000000 0.000000 0.000000 0.000000 0.049261 0.000000
# 6 0.000000 0.000000 0.000000 0.000000 0.000000 0.033419
#
#
# Mechanical properties :
#
#
# Convention : Reuss Voigt Hill
#
# Bulk Modulus (GPa) = 47.47945 48.42665 47.95305
# Shear Modulus (GPa) = 23.65533 24.32375 23.98954
#
# Velocity S-wave (km/s) = 3.74188 3.79438 3.76822
# Velocity P-wave (km/s) = 6.83902 6.91812 6.87868
#
# Compressibility (1/GPa) = 0.02106175
#
# Stress axis : x y z
#
# Youngs Moduli (GPa) = 57.57831 74.36540 55.92327
#
# Poissons Ratio (x) = 0.38272 0.31815
# Poissons Ratio (y) = 0.29633 0.16675
# Poissons Ratio (z) = 0.32756 0.22174
#
# Static dielectric constant tensor:
#      x y z
#    x 3.211610 0.000000 0.000000 
#    y 0.000000 3.162920 0.000000 
#    z 0.000000 0.000000 3.068620 
# 
# 
# High freq. dielectric constant tensor:
#      x y z
#    x 1.661240 0.000000 0.000000 
#    y 0.000000 1.644780 0.000000 
#    z 0.000000 0.000000 1.625390 
# 
# From -- ./inp_files/14740.got.cif
#   From: 2010.03.12/outbox.cif.g09.slc.cpg/sg46_8_cif.got.tgz:14740.got - 2010.04.14 02:56:35.
