data_PCOD8191059
_publ_section_title
;
Structure prediction by ZEFSAII (Michael W. Deem and Ramdas Pophale) SiO2 
 PCOD8191059
Probable space group: I B A 2
;
_chemical_formula_sum "Si O2"
_cell_formula_units_Z 64
_cell_length_a 9.493874
_cell_length_b 23.559107
_cell_length_c 12.259573
_cell_angle_alpha 90.000000
_cell_angle_beta 90.000000
_cell_angle_gamma 90.000000
_cell_volume 2742.064285
_symmetry_space_group_name_H-M "I B A 2"
_symmetry_group_IT_number 45
_symmetry_cell_setting 'orthorhombic'
loop_
_space_group_symop_operation_xyz
x,y,z
-x,-y,z
-x,y,1/2+z
x,-y,1/2+z
1/2+x,1/2+y,1/2+z
1/2-x,1/2-y,1/2+z
1/2-x,1/2+y,z
1/2+x,1/2-y,z
loop_
_atom_site_type_symbol
_atom_site_label
_atom_site_fract_x
_atom_site_fract_y
_atom_site_fract_z
Si Si1 0.692942 0.417113 0.770060
Si Si2 0.360120 0.233573 0.912522
Si Si3 0.306834 0.913261 0.707370
Si Si4 0.345602 0.495478 0.078707
Si Si5 0.401449 0.739113 0.063225
Si Si6 0.345585 0.007056 0.399580
Si Si7 0.934535 0.838650 0.262709
Si Si8 0.075996 0.340749 0.213522
O O1 0.620721 0.462513 0.690597
O O2 0.756979 0.448775 0.875959
O O3 0.585541 0.365395 0.797384
O O4 0.823189 0.394045 0.699526
O O5 0.386256 0.290083 0.844058
O O6 0.410316 0.179833 0.840291
O O7 0.450384 0.238240 0.020948
O O8 0.201101 0.227532 0.959731
O O9 0.241609 0.945698 0.602293
O O10 0.376278 0.958235 0.789356
O O11 0.418936 0.862625 0.680124
O O12 0.178255 0.887851 0.775322
O O13 0.500000 0.500000 0.024037
O O14 0.249004 0.461479 0.991364
O O15 0.428778 0.683300 0.136910
O O16 0.355752 0.790949 0.140801
O O17 0.500000 0.000000 0.452031
#
# Coordination Sequence:
#
# PCOD8191059 Si02
#       8
#     8   8   8   8   8   8   8   8
#     4  11  24  45  67  94 138 175 227 280 345 405
#     4  11  24  43  67  99 139 176 228 285 340 407
#     4  11  24  45  67  94 138 175 227 280 345 405
#     4  11  26  44  68 100 135 177 226 285 347 415
#     4  11  24  43  67  99 139 176 228 285 340 407
#     4  11  26  44  68 100 135 177 226 285 347 415
#     4  11  24  43  68  99 134 182 228 284 342 410
#     4  11  24  43  68  99 134 182 228 284 342 410
#
# _framework density 23.340081000000001
#
# number of rings (size 3 to 8) (size 9 to 14) (size 15 to 20)
#    0.000    1.000    2.500    3.000    3.500   10.000 
#    0.000    0.000    0.000    0.000    0.000    0.000 
#    0.000    0.000    0.000    0.000    0.000    0.000 
#
# Total GULP energy -396586.534033 kJ/mol
# GULP energy per Si atom -12393.329189 kJ/mol
# Density = 2.328696 g / cm^3
# Si number density = 23.340081 Si / 1000 Ang^3
#
#
#
# Elastic Constant Matrix: (Units=GPa)
#
#
# Indices 1 2 3 4 5 6 
#
# 1 132.1795 23.3537 33.6273 0.0002 0.0000 0.0000
# 2 23.3537 84.6473 23.2189 0.0000 0.0000 0.0000
# 3 33.6273 23.2189 80.4091 0.0012 -0.0006 -0.0001
# 4 0.0002 0.0000 0.0012 23.0006 -0.0002 -0.0001
# 5 0.0000 0.0000 -0.0006 -0.0002 40.9678 0.0000
# 6 0.0000 0.0000 -0.0001 -0.0001 0.0000 45.7106
#
#
#
# Elastic Compliance Matrix: (Units=1/GPa)
#
#
# Indices 1 2 3 4 5 6 
#
# 1 0.008641 -0.001513 -0.003177 0.000000 0.000000 0.000000
# 2 -0.001513 0.013095 -0.003149 0.000000 0.000000 0.000000
# 3 -0.003177 -0.003149 0.014674 -0.000001 0.000000 0.000000
# 4 0.000000 0.000000 -0.000001 0.043477 0.000000 0.000000
# 5 0.000000 0.000000 0.000000 0.000000 0.024409 0.000000
# 6 0.000000 0.000000 0.000000 0.000000 0.000000 0.021877
#
#
# Mechanical properties :
#
#
# Convention : Reuss Voigt Hill
#
# Bulk Modulus (GPa) = 48.23088 50.84841 49.53965
# Shear Modulus (GPa) = 33.61103 36.40485 35.00794
#
# Velocity S-wave (km/s) = 3.79892 3.95366 3.87706
# Velocity P-wave (km/s) = 6.32074 6.53262 6.42755
#
# Compressibility (1/GPa) = 0.02073361
#
# Stress axis : x y z
#
# Youngs Moduli (GPa) = 115.72828 76.36665 68.14685
#
# Poissons Ratio (x) = 0.11551 0.21650
# Poissons Ratio (y) = 0.17505 0.21457
# Poissons Ratio (z) = 0.36766 0.24045
#
# Static dielectric constant tensor:
#      x y z
#    x 4.138750 0.000000 0.000000 
#    y 0.000000 4.142790 0.000000 
#    z 0.000000 0.000000 4.156140 
# 
# 
# High freq. dielectric constant tensor:
#      x y z
#    x 1.935760 0.000000 0.000000 
#    y 0.000000 1.919130 0.000000 
#    z 0.000000 0.000000 1.917220 
# 
# From -- ./inp_files/5872.got.cif
#   From: 2010.03.12/outbox.cif.g09.slc.cpg/sg45_3_cif.got.tgz:5872.got - 2010.04.14 02:50:11.
