data_PCOD8191818
_publ_section_title
;
Structure prediction by ZEFSAII (Michael W. Deem and Ramdas Pophale) SiO2 
 PCOD8191818
Probable space group: I M A 2
;
_chemical_formula_sum "Si O2"
_cell_formula_units_Z 64
_cell_length_a 8.751249
_cell_length_b 23.367001
_cell_length_c 19.019280
_cell_angle_alpha 90.000000
_cell_angle_beta 90.000000
_cell_angle_gamma 90.000000
_cell_volume 3889.261014
_symmetry_space_group_name_H-M "I M A 2"
_symmetry_group_IT_number 46
_symmetry_cell_setting 'orthorhombic'
loop_
_space_group_symop_operation_xyz
x,y,z
-x,-y,z
1/2-x,y,z
1/2+x,-y,z
1/2+x,1/2+y,1/2+z
1/2-x,1/2-y,1/2+z
-x,1/2+y,1/2+z
x,1/2-y,1/2+z
loop_
_atom_site_type_symbol
_atom_site_label
_atom_site_fract_x
_atom_site_fract_y
_atom_site_fract_z
Si Si1 0.068811 0.885816 0.773700
Si Si2 0.429656 0.233826 0.127495
Si Si3 0.929568 0.667458 0.494891
Si Si4 0.068716 0.439463 0.410898
Si Si5 0.931173 0.722091 0.913068
Si Si6 0.571576 0.166630 0.538494
Si Si7 0.429672 0.746295 0.272537
Si Si8 0.926664 0.060114 0.628850
O O1 0.250000 0.891210 0.782591
O O2 0.017411 0.819698 0.775516
O O3 0.008596 0.912308 0.700660
O O4 0.986156 0.921239 0.834136
O O5 0.250000 0.235954 0.143162
O O6 0.477531 0.292268 0.089928
O O7 0.521442 0.225246 0.199220
O O8 0.472597 0.180479 0.076020
O O9 0.750000 0.667606 0.485149
O O10 0.993583 0.606503 0.468403
O O11 0.993096 0.717867 0.444839
O O12 0.250000 0.443824 0.410648
O O13 0.000000 0.500000 0.433133
O O14 0.750000 0.715475 0.917904
O O15 0.986123 0.717723 0.833048
O O16 0.009688 0.671855 0.958871
O O17 0.750000 0.182611 0.543679
O O18 0.541452 0.102025 0.563501
O O19 0.250000 0.752248 0.282027
O O20 0.750000 0.049406 0.640396
O O21 0.000000 0.000000 0.610302
#
# Coordination Sequence:
#
# PCOD8191818 Si02
#       8
#     8   8   8   8   8   8   8   8
#     4  10  20  34  47  68  99 134 172 204 237 288
#     4  10  19  32  51  73  97 129 166 205 248 300
#     4   8  17  32  48  68  95 125 162 204 243 284
#     4  11  21  34  49  69  97 132 170 208 244 286
#     4  10  19  33  51  74  98 128 168 204 247 302
#     4  10  19  34  50  71 100 131 164 209 255 294
#     4  11  20  32  50  75 104 133 163 202 252 301
#     4  10  21  35  49  68  98 133 173 209 244 291
#
# _framework density 16.455566999999999
#
# number of rings (size 3 to 8) (size 9 to 14) (size 15 to 20)
#    0.000    2.000    2.500    3.000    0.000    3.000 
#    0.000    1.875    0.000    0.000    0.000    0.875 
#    0.000    4.000    0.000    0.000    0.000    0.000 
#
# Total GULP energy -396798.900906 kJ/mol
# GULP energy per Si atom -12399.965653 kJ/mol
# Density = 1.641811 g / cm^3
# Si number density = 16.455567 Si / 1000 Ang^3
#
#
#
# Elastic Constant Matrix: (Units=GPa)
#
#
# Indices 1 2 3 4 5 6 
#
# 1 42.4572 32.5219 19.8118 0.0000 0.0000 0.0000
# 2 32.5219 90.1222 53.8589 0.0000 0.0000 0.0000
# 3 19.8118 53.8589 99.9549 0.0000 0.0000 0.0000
# 4 0.0000 0.0000 0.0000 22.8692 0.0000 0.0000
# 5 0.0000 0.0000 0.0000 0.0000 28.8853 0.0000
# 6 0.0000 0.0000 0.0000 0.0000 0.0000 22.5171
#
#
#
# Elastic Compliance Matrix: (Units=1/GPa)
#
#
# Indices 1 2 3 4 5 6 
#
# 1 0.032553 -0.011639 -0.000181 0.000000 0.000000 0.000000
# 2 -0.011639 0.020528 -0.008754 0.000000 0.000000 0.000000
# 3 -0.000181 -0.008754 0.014757 0.000000 0.000000 0.000000
# 4 0.000000 0.000000 0.000000 0.043727 0.000000 0.000000
# 5 0.000000 0.000000 0.000000 0.000000 0.034620 0.000000
# 6 0.000000 0.000000 0.000000 0.000000 0.000000 0.044411
#
#
# Mechanical properties :
#
#
# Convention : Reuss Voigt Hill
#
# Bulk Modulus (GPa) = 37.46698 49.43552 43.45125
# Shear Modulus (GPa) = 20.77792 23.27710 22.02751
#
# Velocity S-wave (km/s) = 3.55726 3.76512 3.66266
# Velocity P-wave (km/s) = 6.30001 7.00061 6.65953
#
# Compressibility (1/GPa) = 0.02669017
#
# Stress axis : x y z
#
# Youngs Moduli (GPa) = 30.71918 48.71432 67.76308
#
# Poissons Ratio (x) = 0.56700 0.01224
# Poissons Ratio (y) = 0.35755 0.59320
# Poissons Ratio (z) = 0.00555 0.42645
#
# Static dielectric constant tensor:
#      x y z
#    x 3.064610 0.000000 0.000000 
#    y 0.000000 3.136890 0.000000 
#    z 0.000000 0.000000 3.216350 
# 
# 
# High freq. dielectric constant tensor:
#      x y z
#    x 1.636450 0.000000 0.000000 
#    y 0.000000 1.606410 0.000000 
#    z 0.000000 0.000000 1.631230 
# 
# From -- ./inp_files/18624.got.cif
#   From: 2010.03.12/outbox.cif.g09.slc.cpg/sg46_10_cif.got.tgz:18624.got - 2010.04.14 02:56:35.
