data_PCOD8191260
_publ_section_title
;
Structure prediction by ZEFSAII (Michael W. Deem and Ramdas Pophale) SiO2 
 PCOD8191260
Probable space group: I M A 2
;
_chemical_formula_sum "Si O2"
_cell_formula_units_Z 64
_cell_length_a 8.874213
_cell_length_b 18.690860
_cell_length_c 21.381354
_cell_angle_alpha 90.000000
_cell_angle_beta 90.000000
_cell_angle_gamma 90.000000
_cell_volume 3546.454048
_symmetry_space_group_name_H-M "I M A 2"
_symmetry_group_IT_number 46
_symmetry_cell_setting 'orthorhombic'
loop_
_space_group_symop_operation_xyz
x,y,z
-x,-y,z
1/2-x,y,z
1/2+x,-y,z
1/2+x,1/2+y,1/2+z
1/2-x,1/2-y,1/2+z
-x,1/2+y,1/2+z
x,1/2-y,1/2+z
loop_
_atom_site_type_symbol
_atom_site_label
_atom_site_fract_x
_atom_site_fract_y
_atom_site_fract_z
Si Si1 0.075435 0.430326 0.800610
Si Si2 0.928050 0.574731 0.126635
Si Si3 0.916434 0.322299 0.034001
Si Si4 0.427386 0.371684 0.258118
Si Si5 0.428893 0.426474 0.391096
Si Si6 0.071332 0.715013 0.434345
Si Si7 0.582764 0.062963 0.430534
Si Si8 0.071589 0.274893 0.811882
O O1 0.250000 0.441649 0.790841
O O2 0.027954 0.350227 0.777398
O O3 0.000000 0.500000 0.766808
O O4 0.030197 0.427573 0.872861
O O5 0.750000 0.565340 0.125903
O O6 0.995487 0.593455 0.195333
O O7 0.000000 0.500000 0.103890
O O8 0.968835 0.641961 0.082385
O O9 0.750000 0.317006 0.065280
O O10 0.968780 0.246565 0.003963
O O11 0.903919 0.367597 0.971215
O O12 0.250000 0.374872 0.251853
O O13 0.480912 0.415325 0.319044
O O14 0.478707 0.288877 0.265256
O O15 0.500000 0.500000 0.415888
O O16 0.250000 0.428293 0.397592
O O17 0.493000 0.362296 0.432884
O O18 0.250000 0.707287 0.426168
O O19 0.010612 0.765659 0.378535
O O20 0.750000 0.040683 0.406990
O O21 0.500000 0.000000 0.470893
O O22 0.250000 0.271388 0.825777
#
# Coordination Sequence:
#
# PCOD8191260 Si02
#       8
#     8   8   8   8   8   8   8   8
#     4  10  18  26  41  64  92 124 155 192 235 285
#     4  11  22  35  52  71  97 132 171 210 245 288
#     4  10  21  34  47  66  96 130 165 205 243 284
#     4   8  17  33  51  72  97 127 166 209 249 291
#     4  10  19  33  53  77 104 131 161 200 248 300
#     4  10  19  32  49  71  98 127 160 202 249 296
#     4  10  18  28  40  58  86 122 158 193 229 272
#     4   9  17  31  49  69  95 127 163 203 249 299
#
# _framework density 18.046195000000001
#
# number of rings (size 3 to 8) (size 9 to 14) (size 15 to 20)
#    0.000    2.250    1.250    4.125    0.000    3.500 
#    0.000    5.625    0.000    0.000    0.000    0.875 
#    0.000    4.000    0.000    0.000    0.000    0.000 
#
# Total GULP energy -396435.672153 kJ/mol
# GULP energy per Si atom -12388.614755 kJ/mol
# Density = 1.800512 g / cm^3
# Si number density = 18.046195 Si / 1000 Ang^3
#
#
#
# Elastic Constant Matrix: (Units=GPa)
#
#
# Indices 1 2 3 4 5 6 
#
# 1 71.5041 46.6273 20.8264 0.0000 0.0000 0.0000
# 2 46.6273 137.4961 27.7290 0.0000 0.0000 0.0000
# 3 20.8264 27.7290 52.9438 0.0000 0.0000 0.0000
# 4 0.0000 0.0000 0.0000 20.6385 0.0000 0.0000
# 5 0.0000 0.0000 0.0000 0.0000 12.4191 0.0000
# 6 0.0000 0.0000 0.0000 0.0000 0.0000 28.5645
#
#
#
# Elastic Compliance Matrix: (Units=1/GPa)
#
#
# Indices 1 2 3 4 5 6 
#
# 1 0.018891 -0.005487 -0.004557 0.000000 0.000000 0.000000
# 2 -0.005487 0.009726 -0.002935 0.000000 0.000000 0.000000
# 3 -0.004557 -0.002935 0.022218 0.000000 0.000000 0.000000
# 4 0.000000 0.000000 0.000000 0.048453 0.000000 0.000000
# 5 0.000000 0.000000 0.000000 0.000000 0.080521 0.000000
# 6 0.000000 0.000000 0.000000 0.000000 0.000000 0.035009
#
#
# Mechanical properties :
#
#
# Convention : Reuss Voigt Hill
#
# Bulk Modulus (GPa) = 40.20078 50.25659 45.22868
# Shear Modulus (GPa) = 20.07484 23.44183 21.75834
#
# Velocity S-wave (km/s) = 3.33891 3.60806 3.47609
# Velocity P-wave (km/s) = 6.09831 6.72806 6.42091
#
# Compressibility (1/GPa) = 0.02487514
#
# Stress axis : x y z
#
# Youngs Moduli (GPa) = 52.93624 102.82065 45.00868
#
# Poissons Ratio (x) = 0.56419 0.20511
# Poissons Ratio (y) = 0.29047 0.13211
# Poissons Ratio (z) = 0.24124 0.30181
#
# Static dielectric constant tensor:
#      x y z
#    x 3.338420 0.000000 0.000000 
#    y 0.000000 3.953430 0.000000 
#    z 0.000000 0.000000 3.043140 
# 
# 
# High freq. dielectric constant tensor:
#      x y z
#    x 1.698810 0.000000 0.000000 
#    y 0.000000 1.714940 0.000000 
#    z 0.000000 0.000000 1.641310 
# 
# From -- ./inp_files/21444.got.cif
#   From: 2010.03.12/outbox.cif.g09.slc.cpg/sg46_11_cif.got.tgz:21444.got - 2010.04.14 02:56:35.
