data_PCOD8191010
_publ_section_title
;
Structure prediction by ZEFSAII (Michael W. Deem and Ramdas Pophale) SiO2 
 PCOD8191010
Probable space group: I B A 2
;
_chemical_formula_sum "Si O2"
_cell_formula_units_Z 64
_cell_length_a 10.821026
_cell_length_b 15.176221
_cell_length_c 19.204980
_cell_angle_alpha 90.000000
_cell_angle_beta 90.000000
_cell_angle_gamma 90.000000
_cell_volume 3153.885642
_symmetry_space_group_name_H-M "I B A 2"
_symmetry_group_IT_number 45
_symmetry_cell_setting 'orthorhombic'
loop_
_space_group_symop_operation_xyz
x,y,z
-x,-y,z
-x,y,1/2+z
x,-y,1/2+z
1/2+x,1/2+y,1/2+z
1/2-x,1/2-y,1/2+z
1/2-x,1/2+y,z
1/2+x,1/2-y,z
loop_
_atom_site_type_symbol
_atom_site_label
_atom_site_fract_x
_atom_site_fract_y
_atom_site_fract_z
Si Si1 0.865356 0.749354 0.006670
Si Si2 0.180562 0.547182 0.286646
Si Si3 0.077474 0.639758 0.791459
Si Si4 0.434615 0.857689 0.136508
Si Si5 0.602381 0.255185 0.425636
Si Si6 0.388666 0.552119 0.389821
Si Si7 0.378561 0.450377 0.526759
Si Si8 0.330576 0.049637 0.134811
O O1 0.855216 0.693421 0.078477
O O2 0.901660 0.847028 0.028445
O O3 0.733933 0.749184 0.966399
O O4 0.983561 0.709878 0.963874
O O5 0.171136 0.442069 0.297220
O O6 0.281877 0.582089 0.339262
O O7 0.228874 0.572021 0.209707
O O8 0.057854 0.600665 0.305132
O O9 0.082783 0.684910 0.714063
O O10 0.116272 0.710766 0.849731
O O11 0.579896 0.867566 0.114418
O O12 0.400847 0.958842 0.146451
O O13 0.560506 0.356829 0.421061
O O14 0.500000 0.500000 0.351044
O O15 0.341010 0.487913 0.451201
O O16 0.500000 0.500000 0.554673
O O17 0.267094 0.471631 0.576682
#
# Coordination Sequence:
#
# PCOD8191010 Si02
#       8
#     8   8   8   8   8   8   8   8
#     4  12  24  40  63  94 126 166 213 263 314 377
#     4   9  19  39  63  88 120 160 206 255 313 379
#     4   9  20  39  64  91 121 159 208 262 310 373
#     4   9  20  39  64  91 121 159 208 262 310 373
#     4  12  24  40  63  94 126 166 213 263 314 377
#     4  11  22  39  58  83 126 164 202 255 323 376
#     4  11  22  39  58  83 126 164 202 255 323 376
#     4   9  19  39  63  88 120 160 206 255 313 379
#
# _framework density 20.29243
#
# number of rings (size 3 to 8) (size 9 to 14) (size 15 to 20)
#    0.000    1.750    2.500    4.500    0.000    1.500 
#    0.000    3.750    0.000    0.000    0.000    0.000 
#    0.000    0.000    0.000    0.000    0.000    0.000 
#
# Total GULP energy -396504.929142 kJ/mol
# GULP energy per Si atom -12390.779036 kJ/mol
# Density = 2.024624 g / cm^3
# Si number density = 20.292430 Si / 1000 Ang^3
#
#
#
# Elastic Constant Matrix: (Units=GPa)
#
#
# Indices 1 2 3 4 5 6 
#
# 1 103.8648 5.3968 51.2128 0.0000 0.0000 0.0000
# 2 5.3968 75.7406 28.6978 0.0000 0.0000 0.0000
# 3 51.2128 28.6978 121.4640 0.0000 0.0000 0.0000
# 4 0.0000 0.0000 0.0000 32.5303 0.0000 0.0000
# 5 0.0000 0.0000 0.0000 0.0000 -69.6051 0.0000
# 6 0.0000 0.0000 0.0000 0.0000 0.0000 21.5931
#
#
#
# Elastic Compliance Matrix: (Units=1/GPa)
#
#
# Indices 1 2 3 4 5 6 
#
# 1 0.012252 0.001191 -0.005447 0.000000 0.000000 0.000000
# 2 0.001191 0.014617 -0.003956 0.000000 0.000000 0.000000
# 3 -0.005447 -0.003956 0.011464 0.000000 0.000000 0.000000
# 4 0.000000 0.000000 0.000000 0.030741 0.000000 0.000000
# 5 0.000000 0.000000 0.000000 0.000000 -0.014367 0.000000
# 6 0.000000 0.000000 0.000000 0.000000 0.000000 0.046311
#
#
# Mechanical properties :
#
#
# Convention : Reuss Voigt Hill
#
# Bulk Modulus (GPa) = 45.64285 52.40936 49.02611
# Shear Modulus (GPa) = 40.08195 11.28778 25.68487
#
# Velocity S-wave (km/s) = 4.44916 2.36107 3.56158
# Velocity P-wave (km/s) = 6.99534 5.77200 6.41291
#
# Compressibility (1/GPa) = 0.02190923
#
# Stress axis : x y z
#
# Youngs Moduli (GPa) = 81.62049 68.41412 87.22872
#
# Poissons Ratio (x) = -0.08147 0.47514
# Poissons Ratio (y) = -0.09720 0.34504
# Poissons Ratio (z) = 0.44459 0.27062
#
# Static dielectric constant tensor:
#      x y z
#    x 3.809790 0.000000 0.000000 
#    y 0.000000 3.540310 0.000000 
#    z 0.000000 0.000000 3.795610 
# 
# 
# High freq. dielectric constant tensor:
#      x y z
#    x 1.790210 0.000000 0.000000 
#    y 0.000000 1.785490 0.000000 
#    z 0.000000 0.000000 1.796260 
# 
# From -- ./inp_files/7993.got.cif
#   From: 2010.03.12/outbox.cif.g09.slc.cpg/sg45_4_cif.got.tgz:7993.got - 2010.04.14 02:50:11.
