data_PCOD8191733
_publ_section_title
;
Structure prediction by ZEFSAII (Michael W. Deem and Ramdas Pophale) SiO2 
 PCOD8191733
Probable space group: I M A 2
;
_chemical_formula_sum "Si O2"
_cell_formula_units_Z 64
_cell_length_a 9.254419
_cell_length_b 14.651699
_cell_length_c 27.183832
_cell_angle_alpha 90.000000
_cell_angle_beta 90.000000
_cell_angle_gamma 90.000000
_cell_volume 3685.936289
_symmetry_space_group_name_H-M "I M A 2"
_symmetry_group_IT_number 46
_symmetry_cell_setting 'orthorhombic'
loop_
_space_group_symop_operation_xyz
x,y,z
-x,-y,z
1/2-x,y,z
1/2+x,-y,z
1/2+x,1/2+y,1/2+z
1/2-x,1/2-y,1/2+z
-x,1/2+y,1/2+z
x,1/2-y,1/2+z
loop_
_atom_site_type_symbol
_atom_site_label
_atom_site_fract_x
_atom_site_fract_y
_atom_site_fract_z
Si Si1 0.417822 0.715804 0.534730
Si Si2 0.581934 0.411860 0.895445
Si Si3 0.917349 0.089217 0.123004
Si Si4 0.918675 0.090844 0.234377
Si Si5 0.080925 0.765598 0.315980
Si Si6 0.918407 0.908626 0.961597
Si Si7 0.418826 0.091937 0.846959
Si Si8 0.583601 0.413292 0.007660
O O1 0.250000 0.700131 0.520479
O O2 0.457109 0.672904 0.587432
O O3 0.516206 0.675033 0.491815
O O4 0.451863 0.823372 0.539323
O O5 0.500000 0.500000 0.874226
O O6 0.750000 0.432786 0.889723
O O7 0.538866 0.323415 0.864196
O O8 0.535631 0.393331 0.951576
O O9 0.750000 0.064873 0.120309
O O10 0.963109 0.115679 0.178425
O O11 0.000000 0.000000 0.104081
O O12 0.750000 0.069978 0.239665
O O13 0.962374 0.176612 0.267808
O O14 0.000000 0.000000 0.252301
O O15 0.250000 0.739721 0.315986
O O16 0.986489 0.674161 0.315567
O O17 0.750000 0.920350 0.973766
O O18 0.945358 0.888556 0.904409
O O19 0.000000 0.000000 0.978477
O O20 0.250000 0.082174 0.834684
O O21 0.500000 0.000000 0.830791
O O22 0.500000 0.500000 0.029981
O O23 0.750000 0.439388 0.010047
#
# Coordination Sequence:
#
# PCOD8191733 Si02
#       8
#     8   8   8   8   8   8   8   8
#     4  10  19  31  49  70  94 127 164 200 239 284
#     4   9  17  28  43  65  93 122 152 187 228 276
#     4   9  18  32  49  71  98 126 156 192 237 286
#     4   9  18  32  50  73 100 128 157 193 238 285
#     4  10  19  31  49  71  95 125 159 194 235 283
#     4  10  20  32  47  70  99 128 158 194 236 283
#     4  10  21  35  50  69  95 127 161 198 238 280
#     4   9  18  31  45  63  89 121 155 192 232 273
#
# _framework density 17.363295000000001
#
# number of rings (size 3 to 8) (size 9 to 14) (size 15 to 20)
#    0.000    2.500    0.000    2.250    0.000    5.500 
#    0.000    2.500    0.000    0.750    0.000    1.750 
#    0.000    0.000    0.000    0.000    0.000    0.000 
#
# Total GULP energy -396862.730685 kJ/mol
# GULP energy per Si atom -12401.960334 kJ/mol
# Density = 1.732378 g / cm^3
# Si number density = 17.363295 Si / 1000 Ang^3
#
#
#
# Elastic Constant Matrix: (Units=GPa)
#
#
# Indices 1 2 3 4 5 6 
#
# 1 71.2383 67.8219 37.0305 0.0000 0.0000 0.0000
# 2 67.8219 152.5637 62.7379 0.0000 0.0000 0.0000
# 3 37.0305 62.7379 69.1679 0.0000 0.0000 0.0000
# 4 0.0000 0.0000 0.0000 25.3384 0.0000 0.0000
# 5 0.0000 0.0000 0.0000 0.0000 17.8601 0.0000
# 6 0.0000 0.0000 0.0000 0.0000 0.0000 35.7085
#
#
#
# Elastic Compliance Matrix: (Units=1/GPa)
#
#
# Indices 1 2 3 4 5 6 
#
# 1 0.025535 -0.009138 -0.005382 0.000000 0.000000 0.000000
# 2 -0.009138 0.013724 -0.007556 0.000000 0.000000 0.000000
# 3 -0.005382 -0.007556 0.024192 0.000000 0.000000 0.000000
# 4 0.000000 0.000000 0.000000 0.039466 0.000000 0.000000
# 5 0.000000 0.000000 0.000000 0.000000 0.055991 0.000000
# 6 0.000000 0.000000 0.000000 0.000000 0.000000 0.028005
#
#
# Mechanical properties :
#
#
# Convention : Reuss Voigt Hill
#
# Bulk Modulus (GPa) = 51.81541 69.79448 60.80494
# Shear Modulus (GPa) = 21.05274 24.14004 22.59639
#
# Velocity S-wave (km/s) = 3.48585 3.73271 3.61139
# Velocity P-wave (km/s) = 6.79031 7.67211 7.24464
#
# Compressibility (1/GPa) = 0.01929928
#
# Stress axis : x y z
#
# Youngs Moduli (GPa) = 39.16172 72.86329 41.33516
#
# Poissons Ratio (x) = 0.66586 0.22246
# Poissons Ratio (y) = 0.35788 0.31233
# Poissons Ratio (z) = 0.21076 0.55056
#
# Static dielectric constant tensor:
#      x y z
#    x 3.218480 0.000000 0.000000 
#    y 0.000000 3.232130 0.000000 
#    z 0.000000 0.000000 3.189820 
# 
# 
# High freq. dielectric constant tensor:
#      x y z
#    x 1.670730 0.000000 0.000000 
#    y 0.000000 1.668670 0.000000 
#    z 0.000000 0.000000 1.649400 
# 
# From -- ./inp_files/25207.got.cif
#   From: 2010.03.12/outbox.cif.g09.slc.cpg/sg46_13_cif.got.tgz:25207.got - 2010.04.14 02:56:35.
