data_PCOD8191230
_publ_section_title
;
Structure prediction by ZEFSAII (Michael W. Deem and Ramdas Pophale) SiO2 
 PCOD8191230
Probable space group: I M A 2
;
_chemical_formula_sum "Si O2"
_cell_formula_units_Z 64
_cell_length_a 18.259674
_cell_length_b 13.458354
_cell_length_c 14.924587
_cell_angle_alpha 90.000000
_cell_angle_beta 90.000000
_cell_angle_gamma 90.000000
_cell_volume 3667.644970
_symmetry_space_group_name_H-M "I M A 2"
_symmetry_group_IT_number 46
_symmetry_cell_setting 'orthorhombic'
loop_
_space_group_symop_operation_xyz
x,y,z
-x,-y,z
1/2-x,y,z
1/2+x,-y,z
1/2+x,1/2+y,1/2+z
1/2-x,1/2-y,1/2+z
-x,1/2+y,1/2+z
x,1/2-y,1/2+z
loop_
_atom_site_type_symbol
_atom_site_label
_atom_site_fract_x
_atom_site_fract_y
_atom_site_fract_z
Si Si1 0.168333 0.536223 0.284630
Si Si2 0.333744 0.066319 0.966914
Si Si3 0.670951 0.650058 0.164267
Si Si4 0.929062 0.935451 0.132903
Si Si5 0.476912 0.885597 0.744033
Si Si6 0.167867 0.147340 0.273949
Si Si7 0.068278 0.237666 0.890523
Si Si8 0.963830 0.717406 0.078117
O O1 0.250000 0.570506 0.255977
O O2 0.166769 0.516232 0.390350
O O3 0.144418 0.436726 0.231098
O O4 0.109893 0.622573 0.264476
O O5 0.250000 0.088894 0.998659
O O6 0.369708 0.166946 0.931613
O O7 0.384308 0.024442 0.046885
O O8 0.750000 0.624703 0.123043
O O9 0.674271 0.749577 0.221518
O O10 0.615470 0.663410 0.082512
O O11 0.870309 0.937678 0.213703
O O12 0.960643 0.825789 0.120600
O O13 0.000000 0.000000 0.154895
O O14 0.521173 0.815041 0.812525
O O15 0.483617 0.848993 0.641038
O O16 0.500000 0.000000 0.758234
O O17 0.250000 0.112925 0.302926
O O18 0.112490 0.166196 0.356091
O O19 0.015178 0.274954 0.972515
#
# Coordination Sequence:
#
# PCOD8191230 Si02
#       8
#     8   8   8   8   8   8   8   8
#     4  10  19  30  54  81 109 141 180 226 273 324
#     4  10  18  29  48  81 111 137 170 222 284 334
#     4   9  15  29  47  74 109 138 165 207 272 333
#     4  10  21  33  48  72 111 150 183 218 269 327
#     4  12  19  36  58  80 112 146 182 225 276 331
#     4  10  17  32  51  73 105 142 176 219 277 330
#     4  11  20  30  52  85 111 140 172 224 273 341
#     4  10  21  32  50  81 109 143 176 219 278 317
#
# _framework density 17.44989
#
# number of rings (size 3 to 8) (size 9 to 14) (size 15 to 20)
#    0.000    1.750    6.250    0.750    3.500    3.500 
#    0.000    0.625    0.000    2.250    0.000    0.000 
#    0.000    0.000    0.000    0.000    0.000    0.000 
#
# Total GULP energy -396494.853114 kJ/mol
# GULP energy per Si atom -12390.464160 kJ/mol
# Density = 1.741017 g / cm^3
# Si number density = 17.449890 Si / 1000 Ang^3
#
#
#
# Elastic Constant Matrix: (Units=GPa)
#
#
# Indices 1 2 3 4 5 6 
#
# 1 120.3378 44.7392 43.9378 0.0000 0.0000 0.0000
# 2 44.7392 36.0400 30.8102 0.0000 0.0000 0.0000
# 3 43.9378 30.8102 90.9076 0.0000 0.0000 0.0000
# 4 0.0000 0.0000 0.0000 19.6692 0.0000 0.0000
# 5 0.0000 0.0000 0.0000 0.0000 23.4012 0.0000
# 6 0.0000 0.0000 0.0000 0.0000 0.0000 28.9605
#
#
#
# Elastic Compliance Matrix: (Units=1/GPa)
#
#
# Indices 1 2 3 4 5 6 
#
# 1 0.015553 -0.018135 -0.001371 0.000000 0.000000 0.000000
# 2 -0.018135 0.060211 -0.011642 0.000000 0.000000 0.000000
# 3 -0.001371 -0.011642 0.015608 0.000000 0.000000 0.000000
# 4 0.000000 0.000000 0.000000 0.050841 0.000000 0.000000
# 5 0.000000 0.000000 0.000000 0.000000 0.042733 0.000000
# 6 0.000000 0.000000 0.000000 0.000000 0.000000 0.034530
#
#
# Mechanical properties :
#
#
# Convention : Reuss Voigt Hill
#
# Bulk Modulus (GPa) = 34.39055 54.02889 44.20972
# Shear Modulus (GPa) = 17.15483 22.92605 20.04044
#
# Velocity S-wave (km/s) = 3.13883 3.62860 3.39257
# Velocity P-wave (km/s) = 5.73475 6.97031 6.38249
#
# Compressibility (1/GPa) = 0.02907775
#
# Stress axis : x y z
#
# Youngs Moduli (GPa) = 64.29796 16.60814 64.06853
#
# Poissons Ratio (x) = 0.30119 0.08782
# Poissons Ratio (y) = 1.16603 0.74587
# Poissons Ratio (z) = 0.08814 0.19335
#
# Static dielectric constant tensor:
#      x y z
#    x 3.546200 0.000000 0.000000 
#    y 0.000000 2.872830 0.000000 
#    z 0.000000 0.000000 3.392440 
# 
# 
# High freq. dielectric constant tensor:
#      x y z
#    x 1.678610 0.000000 0.000000 
#    y 0.000000 1.617560 0.000000 
#    z 0.000000 0.000000 1.669050 
# 
# From -- ./inp_files/16862.got.cif
#   From: 2010.03.12/outbox.cif.g09.slc.cpg/sg46_9_cif.got.tgz:16862.got - 2010.04.14 02:56:35.
