data_PCOD8191786
_publ_section_title
;
Structure prediction by ZEFSAII (Michael W. Deem and Ramdas Pophale) SiO2 
 PCOD8191786
Probable space group: I M A 2
;
_chemical_formula_sum "Si O2"
_cell_formula_units_Z 64
_cell_length_a 8.772893
_cell_length_b 14.752536
_cell_length_c 27.717537
_cell_angle_alpha 90.000000
_cell_angle_beta 90.000000
_cell_angle_gamma 90.000000
_cell_volume 3587.270710
_symmetry_space_group_name_H-M "I M A 2"
_symmetry_group_IT_number 46
_symmetry_cell_setting 'orthorhombic'
loop_
_space_group_symop_operation_xyz
x,y,z
-x,-y,z
1/2-x,y,z
1/2+x,-y,z
1/2+x,1/2+y,1/2+z
1/2-x,1/2-y,1/2+z
-x,1/2+y,1/2+z
x,1/2-y,1/2+z
loop_
_atom_site_type_symbol
_atom_site_label
_atom_site_fract_x
_atom_site_fract_y
_atom_site_fract_z
Si Si1 0.928953 0.906120 0.694010
Si Si2 0.429618 0.722175 0.381706
Si Si3 0.432548 0.282426 0.109017
Si Si4 0.085131 0.353895 0.012844
Si Si5 0.930517 0.908655 0.073466
Si Si6 0.083602 0.345096 0.472721
Si Si7 0.566949 0.908082 0.413052
Si Si8 0.930560 0.595781 0.304058
O O1 0.750000 0.916656 0.689212
O O2 0.988300 0.824573 0.659608
O O3 0.976698 0.884286 0.748676
O O4 0.000000 0.000000 0.676013
O O5 0.250000 0.733171 0.378131
O O6 0.469751 0.657682 0.427306
O O7 0.505046 0.821359 0.384408
O O8 0.494481 0.676470 0.333806
O O9 0.250000 0.282845 0.104194
O O10 0.491327 0.178738 0.103682
O O11 0.499745 0.345517 0.064807
O O12 0.250000 0.400334 0.020991
O O13 0.110302 0.253345 0.993819
O O14 0.002140 0.406267 0.968790
O O15 0.750000 0.913153 0.076581
O O16 0.983347 0.904017 0.017133
O O17 0.000000 0.000000 0.096537
O O18 0.250000 0.382129 0.455473
O O19 0.750000 0.906363 0.411290
O O20 0.500000 0.000000 0.389280
O O21 0.750000 0.593773 0.311786
O O22 0.000000 0.500000 0.320857
#
# Coordination Sequence:
#
# PCOD8191786 Si02
#       8
#     8   8   8   8   8   8   8   8
#     4   9  18  32  52  74  96 122 155 195 243 293
#     4  11  21  33  51  74  98 129 166 206 248 294
#     4   8  14  28  48  70  96 129 162 192 234 289
#     4   7  12  24  43  64  90 124 160 194 230 272
#     4   9  17  29  47  69  98 133 166 197 233 278
#     4   8  15  29  45  63  91 128 162 196 236 279
#     4  10  19  32  49  72 103 138 171 204 240 284
#     4  10  20  35  53  74  97 123 156 200 251 303
#
# _framework density 17.840861
#
# number of rings (size 3 to 8) (size 9 to 14) (size 15 to 20)
#    0.000    3.000    0.000    4.125    0.000    2.000 
#    0.000    1.875    0.000    3.750    0.000    1.750 
#    0.000    0.000    0.000    0.000    0.000    0.000 
#
# Total GULP energy -396418.346523 kJ/mol
# GULP energy per Si atom -12388.073329 kJ/mol
# Density = 1.780025 g / cm^3
# Si number density = 17.840861 Si / 1000 Ang^3
#
#
#
# Elastic Constant Matrix: (Units=GPa)
#
#
# Indices 1 2 3 4 5 6 
#
# 1 62.1891 38.3111 32.6343 0.0000 0.0000 0.0000
# 2 38.3111 126.6330 66.1386 0.0000 0.0000 0.0000
# 3 32.6343 66.1386 96.8366 0.0000 0.0000 0.0000
# 4 0.0000 0.0000 0.0000 26.2085 0.0000 0.0000
# 5 0.0000 0.0000 0.0000 0.0000 10.7828 0.0000
# 6 0.0000 0.0000 0.0000 0.0000 0.0000 26.8021
#
#
#
# Elastic Compliance Matrix: (Units=1/GPa)
#
#
# Indices 1 2 3 4 5 6 
#
# 1 0.020816 -0.004094 -0.004219 0.000000 0.000000 0.000000
# 2 -0.004094 0.013081 -0.007555 0.000000 0.000000 0.000000
# 3 -0.004219 -0.007555 0.016908 0.000000 0.000000 0.000000
# 4 0.000000 0.000000 0.000000 0.038156 0.000000 0.000000
# 5 0.000000 0.000000 0.000000 0.000000 0.092741 0.000000
# 6 0.000000 0.000000 0.000000 0.000000 0.000000 0.037311
#
#
# Mechanical properties :
#
#
# Convention : Reuss Voigt Hill
#
# Bulk Modulus (GPa) = 52.43778 62.20296 57.32037
# Shear Modulus (GPa) = 19.44741 22.66365 21.05553
#
# Velocity S-wave (km/s) = 3.30517 3.56803 3.43911
# Velocity P-wave (km/s) = 6.63485 7.20524 6.92592
#
# Compressibility (1/GPa) = 0.01907022
#
# Stress axis : x y z
#
# Youngs Moduli (GPa) = 48.03990 76.44622 59.14328
#
# Poissons Ratio (x) = 0.31299 0.24951
# Poissons Ratio (y) = 0.19668 0.44680
# Poissons Ratio (z) = 0.20267 0.57751
#
# Static dielectric constant tensor:
#      x y z
#    x 3.095870 0.000000 0.000000 
#    y 0.000000 3.448110 0.000000 
#    z 0.000000 0.000000 3.451190 
# 
# 
# High freq. dielectric constant tensor:
#      x y z
#    x 1.667880 0.000000 0.000000 
#    y 0.000000 1.684050 0.000000 
#    z 0.000000 0.000000 1.672580 
# 
# From -- ./inp_files/25299.got.cif
#   From: 2010.03.12/outbox.cif.g09.slc.cpg/sg46_13_cif.got.tgz:25299.got - 2010.04.14 02:56:35.
