data_PCOD8191970
_publ_section_title
;
Structure prediction by ZEFSAII (Michael W. Deem and Ramdas Pophale) SiO2 
 PCOD8191970
Probable space group: I M A 2
;
_chemical_formula_sum "Si O2"
_cell_formula_units_Z 64
_cell_length_a 8.795315
_cell_length_b 19.476119
_cell_length_c 20.558277
_cell_angle_alpha 90.000000
_cell_angle_beta 90.000000
_cell_angle_gamma 90.000000
_cell_volume 3521.604101
_symmetry_space_group_name_H-M "I M A 2"
_symmetry_group_IT_number 46
_symmetry_cell_setting 'orthorhombic'
loop_
_space_group_symop_operation_xyz
x,y,z
-x,-y,z
1/2-x,y,z
1/2+x,-y,z
1/2+x,1/2+y,1/2+z
1/2-x,1/2-y,1/2+z
-x,1/2+y,1/2+z
x,1/2-y,1/2+z
loop_
_atom_site_type_symbol
_atom_site_label
_atom_site_fract_x
_atom_site_fract_y
_atom_site_fract_z
Si Si1 0.428889 0.211977 0.719230
Si Si2 0.928759 0.569368 0.278607
Si Si3 0.071031 0.798061 0.586944
Si Si4 0.569829 0.571141 0.032111
Si Si5 0.071501 0.793400 0.965269
Si Si6 0.570830 0.930112 0.926880
Si Si7 0.426760 0.569077 0.893368
Si Si8 0.074648 0.713016 0.836087
O O1 0.250000 0.215523 0.706551
O O2 0.482826 0.135087 0.737806
O O3 0.519536 0.235427 0.655055
O O4 0.469638 0.263725 0.777034
O O5 0.750000 0.561295 0.276318
O O6 0.985291 0.579851 0.352615
O O7 0.000000 0.500000 0.248581
O O8 0.250000 0.811392 0.585165
O O9 0.020418 0.747903 0.529029
O O10 0.982815 0.869800 0.581027
O O11 0.500000 0.500000 0.057805
O O12 0.750000 0.565961 0.031470
O O13 0.508877 0.588245 0.960397
O O14 0.250000 0.806597 0.964840
O O15 0.020663 0.750705 0.901851
O O16 0.987409 0.866103 0.968616
O O17 0.750000 0.934801 0.932238
O O18 0.500000 0.000000 0.955782
O O19 0.500000 0.500000 0.862931
O O20 0.250000 0.556467 0.908900
O O21 0.448934 0.631320 0.843378
O O22 0.250000 0.730498 0.821189
#
# Coordination Sequence:
#
# PCOD8191970 Si02
#       8
#     8   8   8   8   8   8   8   8
#     4  11  23  38  54  81 114 146 189 232 277 330
#     4   9  19  33  50  75 108 143 180 220 261 317
#     4  11  23  40  57  79 112 151 190 230 280 335
#     4  11  21  34  54  80 112 150 190 230 276 329
#     4  10  20  36  58  82 110 144 186 231 277 327
#     4  10  19  33  54  83 113 143 180 225 277 326
#     4  10  19  34  55  84 115 145 184 229 281 334
#     4  10  20  36  58  82 110 146 186 229 281 333
#
# _framework density 18.173535999999999
#
# number of rings (size 3 to 8) (size 9 to 14) (size 15 to 20)
#    0.000    1.750    2.500    3.375    0.000    4.000 
#    0.000    1.250    0.000    0.750    0.000    3.500 
#    0.000    0.000    0.000    0.000    0.000    0.000 
#
# Total GULP energy -396920.302926 kJ/mol
# GULP energy per Si atom -12403.759466 kJ/mol
# Density = 1.813217 g / cm^3
# Si number density = 18.173536 Si / 1000 Ang^3
#
#
#
# Elastic Constant Matrix: (Units=GPa)
#
#
# Indices 1 2 3 4 5 6 
#
# 1 83.7914 46.2236 37.4455 0.0000 0.0000 0.0000
# 2 46.2236 115.5053 50.4329 0.0000 0.0000 0.0000
# 3 37.4455 50.4329 96.5899 0.0000 0.0000 0.0000
# 4 0.0000 0.0000 0.0000 20.8245 0.0000 0.0000
# 5 0.0000 0.0000 0.0000 0.0000 26.4238 0.0000
# 6 0.0000 0.0000 0.0000 0.0000 0.0000 34.5283
#
#
#
# Elastic Compliance Matrix: (Units=1/GPa)
#
#
# Indices 1 2 3 4 5 6 
#
# 1 0.016314 -0.004880 -0.003777 0.000000 0.000000 0.000000
# 2 -0.004880 0.012674 -0.004726 0.000000 0.000000 0.000000
# 3 -0.003777 -0.004726 0.014285 0.000000 0.000000 0.000000
# 4 0.000000 0.000000 0.000000 0.048020 0.000000 0.000000
# 5 0.000000 0.000000 0.000000 0.000000 0.037845 0.000000
# 6 0.000000 0.000000 0.000000 0.000000 0.000000 0.028962
#
#
# Mechanical properties :
#
#
# Convention : Reuss Voigt Hill
#
# Bulk Modulus (GPa) = 60.57546 62.67675 61.62611
# Shear Modulus (GPa) = 26.26520 27.14096 26.70308
#
# Velocity S-wave (km/s) = 3.80576 3.86869 3.83735
# Velocity P-wave (km/s) = 7.26057 7.38366 7.32237
#
# Compressibility (1/GPa) = 0.01650833
#
# Stress axis : x y z
#
# Youngs Moduli (GPa) = 61.29696 78.90331 70.00529
#
# Poissons Ratio (x) = 0.38502 0.26439
# Poissons Ratio (y) = 0.29911 0.33082
# Poissons Ratio (z) = 0.23150 0.37287
#
# Static dielectric constant tensor:
#      x y z
#    x 3.317640 0.000000 0.000000 
#    y 0.000000 3.529570 0.000000 
#    z 0.000000 0.000000 3.151420 
# 
# 
# High freq. dielectric constant tensor:
#      x y z
#    x 1.711590 0.000000 0.000000 
#    y 0.000000 1.707530 0.000000 
#    z 0.000000 0.000000 1.677140 
# 
# From -- ./inp_files/18572.got.cif
#   From: 2010.03.12/outbox.cif.g09.slc.cpg/sg46_10_cif.got.tgz:18572.got - 2010.04.14 02:56:35.
