data_PCOD8191524
_publ_section_title
;
Structure prediction by ZEFSAII (Michael W. Deem and Ramdas Pophale) SiO2 
 PCOD8191524
Probable space group: I M A 2
;
_chemical_formula_sum "Si O2"
_cell_formula_units_Z 64
_cell_length_a 8.638048
_cell_length_b 14.714407
_cell_length_c 24.339928
_cell_angle_alpha 90.000000
_cell_angle_beta 90.000000
_cell_angle_gamma 90.000000
_cell_volume 3093.696220
_symmetry_space_group_name_H-M "I M A 2"
_symmetry_group_IT_number 46
_symmetry_cell_setting 'orthorhombic'
loop_
_space_group_symop_operation_xyz
x,y,z
-x,-y,z
1/2-x,y,z
1/2+x,-y,z
1/2+x,1/2+y,1/2+z
1/2-x,1/2-y,1/2+z
-x,1/2+y,1/2+z
x,1/2-y,1/2+z
loop_
_atom_site_type_symbol
_atom_site_label
_atom_site_fract_x
_atom_site_fract_y
_atom_site_fract_z
Si Si1 0.067304 0.899546 0.475700
Si Si2 0.069438 0.268766 0.065233
Si Si3 0.569996 0.097806 0.253066
Si Si4 0.066611 0.399205 0.864095
Si Si5 0.933613 0.099786 0.774983
Si Si6 0.430591 0.766358 0.681209
Si Si7 0.067576 0.899421 0.012034
Si Si8 0.929597 0.402801 0.393176
O O1 0.250000 0.906616 0.470475
O O2 0.024298 0.837912 0.527248
O O3 0.001189 0.853071 0.419484
O O4 0.000000 0.000000 0.484785
O O5 0.250000 0.281228 0.053943
O O6 0.031263 0.289999 0.128228
O O7 0.016876 0.165348 0.055106
O O8 0.750000 0.085920 0.266199
O O9 0.492458 0.144989 0.307074
O O10 0.541631 0.163141 0.201194
O O11 0.500000 0.000000 0.238073
O O12 0.250000 0.397707 0.866913
O O13 0.000000 0.500000 0.862779
O O14 0.750000 0.094844 0.772026
O O15 0.995006 0.167005 0.728441
O O16 0.989269 0.139765 0.835276
O O17 0.000000 0.000000 0.764770
O O18 0.250000 0.782839 0.668399
O O19 0.250000 0.902278 0.024299
O O20 0.033932 0.853661 0.951332
O O21 0.000000 0.000000 0.018597
O O22 0.750000 0.417746 0.386852
O O23 0.000000 0.500000 0.400959
#
# Coordination Sequence:
#
# PCOD8191524 Si02
#       8
#     8   8   8   8   8   8   8   8
#     4  11  22  40  64  89 119 153 192 239 294 352
#     4  12  26  42  59  83 115 153 201 249 294 349
#     4  10  20  36  59  85 115 152 192 237 291 345
#     4  10  18  32  56  88 122 152 187 230 284 348
#     4   9  18  35  58  84 113 144 180 223 275 334
#     4  10  23  41  58  79 111 152 198 243 288 342
#     4  10  20  37  61  88 119 154 191 235 289 346
#     4   8  15  29  53  84 114 144 179 222 275 336
#
# _framework density 20.687228000000001
#
# number of rings (size 3 to 8) (size 9 to 14) (size 15 to 20)
#    0.000    2.000    0.000    5.625    0.000    4.000 
#    0.000    5.000    0.000    0.000    0.000    0.000 
#    0.000    0.000    0.000    0.000    0.000    0.000 
#
# Total GULP energy -396576.926929 kJ/mol
# GULP energy per Si atom -12393.028967 kJ/mol
# Density = 2.064014 g / cm^3
# Si number density = 20.687228 Si / 1000 Ang^3
#
#
#
# Elastic Constant Matrix: (Units=GPa)
#
#
# Indices 1 2 3 4 5 6 
#
# 1 110.7965 12.0421 26.5677 0.0000 0.0000 0.0000
# 2 12.0421 39.1103 3.2084 0.0000 0.0000 0.0000
# 3 26.5677 3.2084 89.1366 0.0000 0.0000 0.0000
# 4 0.0000 0.0000 0.0000 19.4535 0.0000 0.0000
# 5 0.0000 0.0000 0.0000 0.0000 35.1120 0.0000
# 6 0.0000 0.0000 0.0000 0.0000 0.0000 27.2950
#
#
#
# Elastic Compliance Matrix: (Units=1/GPa)
#
#
# Indices 1 2 3 4 5 6 
#
# 1 0.010027 -0.002851 -0.002886 0.000000 0.000000 0.000000
# 2 -0.002851 0.026455 -0.000103 0.000000 0.000000 0.000000
# 3 -0.002886 -0.000103 0.012083 0.000000 0.000000 0.000000
# 4 0.000000 0.000000 0.000000 0.051405 0.000000 0.000000
# 5 0.000000 0.000000 0.000000 0.000000 0.028480 0.000000
# 6 0.000000 0.000000 0.000000 0.000000 0.000000 0.036637
#
#
# Mechanical properties :
#
#
# Convention : Reuss Voigt Hill
#
# Bulk Modulus (GPa) = 27.11041 35.85330 31.48185
# Shear Modulus (GPa) = 26.44652 29.52045 27.98349
#
# Velocity S-wave (km/s) = 3.57935 3.78165 3.68189
# Velocity P-wave (km/s) = 5.49688 6.03627 5.77288
#
# Compressibility (1/GPa) = 0.03688621
#
# Stress axis : x y z
#
# Youngs Moduli (GPa) = 99.72633 37.80023 82.76325
#
# Poissons Ratio (x) = 0.10776 0.23887
# Poissons Ratio (y) = 0.28429 0.00849
# Poissons Ratio (z) = 0.28782 0.00388
#
# Static dielectric constant tensor:
#      x y z
#    x 3.730830 0.000000 0.000000 
#    y 0.000000 3.635670 0.000000 
#    z 0.000000 0.000000 4.288080 
# 
# 
# High freq. dielectric constant tensor:
#      x y z
#    x 1.811250 0.000000 0.000000 
#    y 0.000000 1.791070 0.000000 
#    z 0.000000 0.000000 1.824000 
# 
# From -- ./inp_files/23198.got.cif
#   From: 2010.03.12/outbox.cif.g09.slc.cpg/sg46_12_cif.got.tgz:23198.got - 2010.04.14 02:56:35.
