data_PCOD8191749
_publ_section_title
;
Structure prediction by ZEFSAII (Michael W. Deem and Ramdas Pophale) SiO2 
 PCOD8191749
Probable space group: I M A 2
;
_chemical_formula_sum "Si O2"
_cell_formula_units_Z 56
_cell_length_a 8.939453
_cell_length_b 20.775481
_cell_length_c 13.885804
_cell_angle_alpha 90.000000
_cell_angle_beta 90.000000
_cell_angle_gamma 90.000000
_cell_volume 2578.891458
_symmetry_space_group_name_H-M "I M A 2"
_symmetry_group_IT_number 46
_symmetry_cell_setting 'orthorhombic'
loop_
_space_group_symop_operation_xyz
x,y,z
-x,-y,z
1/2-x,y,z
1/2+x,-y,z
1/2+x,1/2+y,1/2+z
1/2-x,1/2-y,1/2+z
-x,1/2+y,1/2+z
x,1/2-y,1/2+z
loop_
_atom_site_type_symbol
_atom_site_label
_atom_site_fract_x
_atom_site_fract_y
_atom_site_fract_z
Si Si1 0.920366 0.110962 0.097030
Si Si2 0.085040 0.163980 0.440754
Si Si3 0.074069 0.636581 0.246315
Si Si4 0.924027 0.241400 0.593400
Si Si5 0.913613 0.557357 0.098208
Si Si6 0.926851 0.567349 0.410030
Si Si7 0.922268 0.066131 0.309169
O O1 0.750000 0.105058 0.058786
O O2 0.961008 0.185184 0.116900
O O3 0.940637 0.071899 0.195074
O O4 0.033184 0.080077 0.021107
O O5 0.250000 0.185151 0.403021
O O6 0.106042 0.114145 0.525350
O O7 0.001136 0.223947 0.490910
O O8 0.992992 0.130537 0.355323
O O9 0.250000 0.637103 0.264821
O O10 0.021187 0.700197 0.186911
O O11 0.022551 0.574600 0.186206
O O12 0.990908 0.628289 0.348846
O O13 0.750000 0.227241 0.578192
O O14 0.750000 0.536847 0.137166
O O15 0.000000 0.500000 0.043348
O O16 0.750000 0.562958 0.397844
O O17 0.000000 0.500000 0.376316
O O18 0.750000 0.062854 0.341174
O O19 0.000000 0.000000 0.343555
#
# Coordination Sequence:
#
# PCOD8191749 Si02
#       7
#     8   8   8   8   8   8   8
#     4  10  23  43  64  87 117 157 202 248 295 349
#     4  10  21  36  57  86 120 155 194 242 294 349
#     4  10  20  36  59  86 117 154 194 240 291 349
#     4   9  20  40  64  89 120 158 199 240 291 353
#     4  10  19  31  49  77 113 151 191 238 291 349
#     4  12  25  41  62  89 120 157 199 247 300 353
#     4  11  23  39  61  88 119 156 200 249 301 354
#
# _framework density 21.714756000000001
#
# number of rings (size 3 to 8) (size 9 to 14) (size 15 to 20)
#    0.000    1.714    0.000    4.286    0.000    7.429 
#    0.000    2.857    0.000    0.000    0.000    0.000 
#    0.000    0.000    0.000    0.000    0.000    0.000 
#
# Total GULP energy -347144.285656 kJ/mol
# GULP energy per Si atom -12398.010202 kJ/mol
# Density = 2.166533 g / cm^3
# Si number density = 21.714756 Si / 1000 Ang^3
#
#
#
# Elastic Constant Matrix: (Units=GPa)
#
#
# Indices 1 2 3 4 5 6 
#
# 1 123.1637 29.8121 32.5212 0.0000 0.0000 0.0000
# 2 29.8121 69.8078 5.3342 0.0001 0.0000 0.0000
# 3 32.5212 5.3342 73.6692 0.0001 0.0000 0.0000
# 4 0.0000 0.0001 0.0001 12.6747 0.0000 0.0000
# 5 0.0000 0.0000 0.0000 0.0000 45.7790 0.0000
# 6 0.0000 0.0000 0.0000 0.0000 0.0000 26.2262
#
#
#
# Elastic Compliance Matrix: (Units=1/GPa)
#
#
# Indices 1 2 3 4 5 6 
#
# 1 0.010210 -0.004038 -0.004215 0.000000 0.000000 0.000000
# 2 -0.004038 0.016002 0.000624 0.000000 0.000000 0.000000
# 3 -0.004215 0.000624 0.015390 0.000000 0.000000 0.000000
# 4 0.000000 0.000000 0.000000 0.078898 0.000000 0.000000
# 5 0.000000 0.000000 0.000000 0.000000 0.021844 0.000000
# 6 0.000000 0.000000 0.000000 0.000000 0.000000 0.038130
#
#
# Mechanical properties :
#
#
# Convention : Reuss Voigt Hill
#
# Bulk Modulus (GPa) = 37.95999 44.66398 41.31198
# Shear Modulus (GPa) = 24.44856 30.20085 27.32471
#
# Velocity S-wave (km/s) = 3.35908 3.73339 3.55117
# Velocity P-wave (km/s) = 5.70646 6.26078 5.99004
#
# Compressibility (1/GPa) = 0.02634353
#
# Stress axis : x y z
#
# Youngs Moduli (GPa) = 97.94743 62.49273 64.97913
#
# Poissons Ratio (x) = 0.25235 0.27386
# Poissons Ratio (y) = 0.39552 -0.04054
# Poissons Ratio (z) = 0.41281 -0.03899
#
# Static dielectric constant tensor:
#      x y z
#    x 4.173240 0.000000 0.000000 
#    y 0.000000 4.033030 0.000000 
#    z 0.000000 0.000000 3.863600 
# 
# 
# High freq. dielectric constant tensor:
#      x y z
#    x 1.856940 0.000000 0.000000 
#    y 0.000000 1.847340 0.000000 
#    z 0.000000 0.000000 1.850090 
# 
# From -- ./inp_files/14202.got.cif
#   From: 2010.03.12/outbox.cif.g09.slc.cpg/sg46_8_cif.got.tgz:14202.got - 2010.04.14 02:56:35.
