data_PCOD8191354
_publ_section_title
;
Structure prediction by ZEFSAII (Michael W. Deem and Ramdas Pophale) SiO2 
 PCOD8191354
Probable space group: I M A 2
;
_chemical_formula_sum "Si O2"
_cell_formula_units_Z 60
_cell_length_a 13.160655
_cell_length_b 25.004100
_cell_length_c 10.393183
_cell_angle_alpha 90.000000
_cell_angle_beta 90.000000
_cell_angle_gamma 90.000000
_cell_volume 3420.088198
_symmetry_space_group_name_H-M "I M A 2"
_symmetry_group_IT_number 46
_symmetry_cell_setting 'orthorhombic'
loop_
_space_group_symop_operation_xyz
x,y,z
-x,-y,z
1/2-x,y,z
1/2+x,-y,z
1/2+x,1/2+y,1/2+z
1/2-x,1/2-y,1/2+z
-x,1/2+y,1/2+z
x,1/2-y,1/2+z
loop_
_atom_site_type_symbol
_atom_site_label
_atom_site_fract_x
_atom_site_fract_y
_atom_site_fract_z
Si Si1 0.129902 0.294140 0.253200
Si Si2 0.128961 0.282985 0.535230
Si Si3 0.868156 0.588566 0.189079
Si Si4 0.500000 0.000000 0.829938
Si Si5 0.633366 0.491286 0.554046
Si Si6 0.135900 0.958769 0.333608
Si Si7 0.926708 0.576346 0.904645
Si Si8 0.631062 0.893546 0.139330
O O1 0.250000 0.292552 0.238120
O O2 0.095858 0.268313 0.389569
O O3 0.081793 0.260122 0.135335
O O4 0.095862 0.356028 0.252860
O O5 0.250000 0.284041 0.548395
O O6 0.085585 0.342186 0.566172
O O7 0.750000 0.575453 0.219959
O O8 0.940055 0.541265 0.239430
O O9 0.883188 0.597624 0.037580
O O10 0.421373 0.969324 0.925485
O O11 0.750000 0.495790 0.519083
O O12 0.616938 0.454075 0.679507
O O13 0.585550 0.550563 0.584371
O O14 0.250000 0.938755 0.368780
O O15 0.050351 0.925035 0.408241
O O16 0.125285 0.019774 0.375902
O O17 0.892739 0.615498 0.790289
O O18 0.750000 0.896955 0.117209
#
# Coordination Sequence:
#
# PCOD8191354 Si02
#       8
#     8   8   8   4   8   8   8   8
#     4   9  19  32  46  66  96 129 164 199 240 290
#     4   9  17  29  46  67  92 128 163 197 239 289
#     4  11  23  34  45  66 100 136 169 204 242 288
#     4  12  20  30  46  62  92 136 170 198 236 290
#     4   9  17  29  46  68  93 124 162 201 243 288
#     4   9  17  30  46  68  96 122 158 207 247 292
#     4  10  18  29  46  67  91 130 166 195 245 294
#     4   9  16  27  47  70  94 123 162 202 240 289
#
# _framework density 17.543406999999998
#
# number of rings (size 3 to 8) (size 9 to 14) (size 15 to 20)
#    0.000    2.400    0.000    5.600    1.867    2.133 
#    0.000    0.667    0.000    0.000    0.000    0.000 
#    0.000    3.200    0.000    0.000    0.000    0.133 
#
# Total GULP energy -371758.787984 kJ/mol
# GULP energy per Si atom -12391.959599 kJ/mol
# Density = 1.750348 g / cm^3
# Si number density = 17.543407 Si / 1000 Ang^3
#
#
#
# Elastic Constant Matrix: (Units=GPa)
#
#
# Indices 1 2 3 4 5 6 
#
# 1 43.8561 4.4992 3.1276 0.0002 0.0000 0.0001
# 2 4.4992 53.9894 28.5603 0.0009 -0.0002 -0.0002
# 3 3.1276 28.5603 104.4732 0.0022 -0.0007 -0.0004
# 4 0.0002 0.0009 0.0022 23.9501 -0.0003 -0.0002
# 5 0.0000 -0.0002 -0.0007 -0.0003 25.6305 0.0000
# 6 0.0001 -0.0002 -0.0004 -0.0002 0.0000 7.6121
#
#
#
# Elastic Compliance Matrix: (Units=1/GPa)
#
#
# Indices 1 2 3 4 5 6 
#
# 1 0.023002 -0.001815 -0.000192 0.000000 0.000000 0.000000
# 2 -0.001815 0.021797 -0.005904 0.000000 0.000000 0.000000
# 3 -0.000192 -0.005904 0.011192 -0.000001 0.000000 0.000000
# 4 0.000000 0.000000 -0.000001 0.041753 0.000000 0.000001
# 5 0.000000 0.000000 0.000000 0.000000 0.039016 0.000000
# 6 0.000000 0.000000 0.000000 0.000001 0.000000 0.131370
#
#
# Mechanical properties :
#
#
# Convention : Reuss Voigt Hill
#
# Bulk Modulus (GPa) = 24.89629 30.52142 27.70885
# Shear Modulus (GPa) = 16.81567 22.51401 19.66484
#
# Velocity S-wave (km/s) = 3.09935 3.58625 3.35165
# Velocity P-wave (km/s) = 5.19904 5.88079 5.55039
#
# Compressibility (1/GPa) = 0.04016663
#
# Stress axis : x y z
#
# Youngs Moduli (GPa) = 43.47496 45.87836 89.35206
#
# Poissons Ratio (x) = 0.08327 0.01719
# Poissons Ratio (y) = 0.07891 0.52756
# Poissons Ratio (z) = 0.00836 0.27088
#
# Static dielectric constant tensor:
#      x y z
#    x 3.069660 0.000000 0.000000 
#    y 0.000000 3.127580 0.000000 
#    z 0.000000 0.000000 3.498310 
# 
# 
# High freq. dielectric constant tensor:
#      x y z
#    x 1.642330 0.000000 0.000000 
#    y 0.000000 1.638810 0.000000 
#    z 0.000000 0.000000 1.694790 
# 
# From -- ./inp_files/6036.got.cif
#   From: 2010.03.12/outbox.cif.g09.slc.cpg/sg46_4_cif.got.tgz:6036.got - 2010.04.14 02:56:35.
