data_PCOD8191773
_publ_section_title
;
Structure prediction by ZEFSAII (Michael W. Deem and Ramdas Pophale) SiO2 
 PCOD8191773
Probable space group: I M A 2
;
_chemical_formula_sum "Si O2"
_cell_formula_units_Z 64
_cell_length_a 8.652353
_cell_length_b 19.680709
_cell_length_c 20.739917
_cell_angle_alpha 90.000000
_cell_angle_beta 90.000000
_cell_angle_gamma 90.000000
_cell_volume 3531.685184
_symmetry_space_group_name_H-M "I M A 2"
_symmetry_group_IT_number 46
_symmetry_cell_setting 'orthorhombic'
loop_
_space_group_symop_operation_xyz
x,y,z
-x,-y,z
1/2-x,y,z
1/2+x,-y,z
1/2+x,1/2+y,1/2+z
1/2-x,1/2-y,1/2+z
-x,1/2+y,1/2+z
x,1/2-y,1/2+z
loop_
_atom_site_type_symbol
_atom_site_label
_atom_site_fract_x
_atom_site_fract_y
_atom_site_fract_z
Si Si1 0.067472 0.291588 0.059760
Si Si2 0.430071 0.432047 0.731144
Si Si3 0.068178 0.429927 0.262459
Si Si4 0.568704 0.292212 0.301166
Si Si5 0.067813 0.069467 0.614789
Si Si6 0.067778 0.292362 0.916187
Si Si7 0.566703 0.428629 0.870649
Si Si8 0.429529 0.287579 0.682223
O O1 0.250000 0.296429 0.065581
O O2 0.000286 0.366695 0.074968
O O3 0.006283 0.238184 0.113228
O O4 0.021541 0.267407 0.988174
O O5 0.500000 0.500000 0.697896
O O6 0.250000 0.442605 0.748033
O O7 0.523687 0.417664 0.796171
O O8 0.455340 0.368652 0.683584
O O9 0.250000 0.432423 0.269133
O O10 0.013823 0.420850 0.188625
O O11 0.000000 0.500000 0.290975
O O12 0.006136 0.366559 0.303101
O O13 0.750000 0.300656 0.299495
O O14 0.521178 0.254385 0.366215
O O15 0.518356 0.248829 0.239657
O O16 0.250000 0.064892 0.610162
O O17 0.000000 0.000000 0.585404
O O18 0.250000 0.287648 0.902974
O O19 0.014235 0.370091 0.911721
O O20 0.500000 0.500000 0.896281
O O21 0.750000 0.425747 0.879261
O O22 0.250000 0.268882 0.691482
#
# Coordination Sequence:
#
# PCOD8191773 Si02
#       8
#     8   8   8   8   8   8   8   8
#     4   9  19  36  56  78 105 143 187 227 272 329
#     4  10  19  31  54  81 110 141 177 222 275 326
#     4  10  19  34  57  83 114 143 179 227 277 326
#     4  12  23  35  55  83 112 145 186 229 275 326
#     4   9  17  31  51  76 107 142 177 218 261 318
#     4  11  22  37  56  78 109 148 188 230 279 325
#     4  11  21  34  52  76 110 146 186 225 269 326
#     4  10  19  36  59  81 106 142 184 228 278 330
#
# _framework density 18.121662000000001
#
# number of rings (size 3 to 8) (size 9 to 14) (size 15 to 20)
#    0.000    1.750    2.500    4.125    0.000    1.500 
#    0.000    3.750    0.000    0.750    0.000    1.750 
#    0.000    0.000    0.000    0.000    0.000    0.000 
#
# Total GULP energy -396805.330850 kJ/mol
# GULP energy per Si atom -12400.166589 kJ/mol
# Density = 1.808042 g / cm^3
# Si number density = 18.121662 Si / 1000 Ang^3
#
#
#
# Elastic Constant Matrix: (Units=GPa)
#
#
# Indices 1 2 3 4 5 6 
#
# 1 54.4131 25.1972 16.5239 0.0000 0.0000 0.0000
# 2 25.1972 120.1511 52.0200 0.0000 0.0000 0.0000
# 3 16.5239 52.0200 94.0972 0.0000 0.0000 0.0000
# 4 0.0000 0.0000 0.0000 30.0519 0.0000 0.0000
# 5 0.0000 0.0000 0.0000 0.0000 4.4425 0.0000
# 6 0.0000 0.0000 0.0000 0.0000 0.0000 32.6740
#
#
#
# Elastic Compliance Matrix: (Units=1/GPa)
#
#
# Indices 1 2 3 4 5 6 
#
# 1 0.020539 -0.003610 -0.001611 0.000000 0.000000 0.000000
# 2 -0.003610 0.011576 -0.005766 0.000000 0.000000 0.000000
# 3 -0.001611 -0.005766 0.014098 0.000000 0.000000 0.000000
# 4 0.000000 0.000000 0.000000 0.033276 0.000000 0.000000
# 5 0.000000 0.000000 0.000000 0.000000 0.225099 0.000000
# 6 0.000000 0.000000 0.000000 0.000000 0.000000 0.030605
#
#
# Mechanical properties :
#
#
# Convention : Reuss Voigt Hill
#
# Bulk Modulus (GPa) = 41.25513 50.68261 45.96887
# Shear Modulus (GPa) = 13.68940 25.09504 19.39222
#
# Velocity S-wave (km/s) = 2.75147 3.72534 3.27481
# Velocity P-wave (km/s) = 5.73665 6.82150 6.30246
#
# Compressibility (1/GPa) = 0.02423941
#
# Stress axis : x y z
#
# Youngs Moduli (GPa) = 48.68845 86.38428 70.93323
#
# Poissons Ratio (x) = 0.31182 0.11429
# Poissons Ratio (y) = 0.17575 0.40899
# Poissons Ratio (z) = 0.07845 0.49808
#
# Static dielectric constant tensor:
#      x y z
#    x 3.300330 0.000000 0.000000 
#    y 0.000000 3.486870 0.000000 
#    z 0.000000 0.000000 3.288520 
# 
# 
# High freq. dielectric constant tensor:
#      x y z
#    x 1.700060 0.000000 0.000000 
#    y 0.000000 1.711230 0.000000 
#    z 0.000000 0.000000 1.673210 
# 
# From -- ./inp_files/21442.got.cif
#   From: 2010.03.12/outbox.cif.g09.slc.cpg/sg46_11_cif.got.tgz:21442.got - 2010.04.14 02:56:35.
