data_PCOD8191254
_publ_section_title
;
Structure prediction by ZEFSAII (Michael W. Deem and Ramdas Pophale) SiO2 
 PCOD8191254
Probable space group: I M A 2
;
_chemical_formula_sum "Si O2"
_cell_formula_units_Z 64
_cell_length_a 9.372330
_cell_length_b 18.126612
_cell_length_c 26.070947
_cell_angle_alpha 90.000000
_cell_angle_beta 90.000000
_cell_angle_gamma 90.000000
_cell_volume 4429.156411
_symmetry_space_group_name_H-M "I M A 2"
_symmetry_group_IT_number 46
_symmetry_cell_setting 'orthorhombic'
loop_
_space_group_symop_operation_xyz
x,y,z
-x,-y,z
1/2-x,y,z
1/2+x,-y,z
1/2+x,1/2+y,1/2+z
1/2-x,1/2-y,1/2+z
-x,1/2+y,1/2+z
x,1/2-y,1/2+z
loop_
_atom_site_type_symbol
_atom_site_label
_atom_site_fract_x
_atom_site_fract_y
_atom_site_fract_z
Si Si1 0.082949 0.336524 0.833960
Si Si2 0.092594 0.288609 0.996233
Si Si3 0.417395 0.574966 0.754074
Si Si4 0.591783 0.694968 0.393272
Si Si5 0.082332 0.425199 0.934840
Si Si6 0.585659 0.427803 0.636417
Si Si7 0.917864 0.076533 0.944689
Si Si8 0.085217 0.829095 0.044416
O O1 0.250000 0.345429 0.820574
O O2 0.047923 0.251163 0.847671
O O3 0.039126 0.390332 0.880395
O O4 0.984849 0.357950 0.785845
O O5 0.250000 0.293437 0.020524
O O6 0.098049 0.242168 0.944530
O O7 0.037250 0.370081 0.981082
O O8 0.992461 0.249190 0.037611
O O9 0.500000 0.500000 0.768430
O O10 0.250000 0.564967 0.766711
O O11 0.442422 0.595948 0.694793
O O12 0.750000 0.661866 0.382630
O O13 0.477312 0.629194 0.399135
O O14 0.250000 0.440251 0.936317
O O15 0.000000 0.500000 0.944163
O O16 0.500000 0.500000 0.621059
O O17 0.750000 0.446859 0.626534
O O18 0.535865 0.362288 0.598879
O O19 0.750000 0.064155 0.936289
O O20 0.952276 0.112913 0.999613
O O21 0.000000 0.000000 0.942030
O O22 0.250000 0.809799 0.043713
#
# Coordination Sequence:
#
# PCOD8191254 Si02
#       8
#     8   8   8   8   8   8   8   8
#     4   9  17  29  43  58  78 105 135 165 198 234
#     4   8  15  27  40  55  76 101 129 160 194 232
#     4  10  19  29  41  57  79 106 135 168 200 230
#     4   8  15  28  42  55  76 104 130 160 197 234
#     4   9  17  27  39  57  80 105 132 161 193 230
#     4   9  18  30  41  56  79 105 134 167 199 230
#     4  10  18  26  39  59  81 105 134 165 195 231
#     4   9  17  28  41  57  77 103 135 166 196 231
#
# _framework density 14.449703
#
# number of rings (size 3 to 8) (size 9 to 14) (size 15 to 20)
#    0.000    3.000    0.000    3.000    0.000    4.000 
#    0.000    2.500    0.000    0.000    0.000    0.000 
#    0.000    1.000    0.000    6.500    0.000    5.250 
#
# Total GULP energy -396677.549198 kJ/mol
# GULP energy per Si atom -12396.173412 kJ/mol
# Density = 1.441682 g / cm^3
# Si number density = 14.449703 Si / 1000 Ang^3
#
#
#
# Elastic Constant Matrix: (Units=GPa)
#
#
# Indices 1 2 3 4 5 6 
#
# 1 74.2418 56.6915 41.8829 0.0000 0.0000 0.0000
# 2 56.6915 96.2281 45.0169 0.0000 0.0000 0.0000
# 3 41.8829 45.0169 66.0556 0.0000 0.0000 0.0000
# 4 0.0000 0.0000 0.0000 24.3777 0.0000 0.0000
# 5 0.0000 0.0000 0.0000 0.0000 19.0038 0.0000
# 6 0.0000 0.0000 0.0000 0.0000 0.0000 29.3692
#
#
#
# Elastic Compliance Matrix: (Units=1/GPa)
#
#
# Indices 1 2 3 4 5 6 
#
# 1 0.028091 -0.012063 -0.009590 0.000000 0.000000 0.000000
# 2 -0.012063 0.020436 -0.006278 0.000000 0.000000 0.000000
# 3 -0.009590 -0.006278 0.025498 0.000000 0.000000 0.000000
# 4 0.000000 0.000000 0.000000 0.041021 0.000000 0.000000
# 5 0.000000 0.000000 0.000000 0.000000 0.052621 0.000000
# 6 0.000000 0.000000 0.000000 0.000000 0.000000 0.034049
#
#
# Mechanical properties :
#
#
# Convention : Reuss Voigt Hill
#
# Bulk Modulus (GPa) = 55.06087 58.18977 56.62532
# Shear Modulus (GPa) = 18.96562 20.74575 19.85568
#
# Velocity S-wave (km/s) = 3.62681 3.79320 3.71094
# Velocity P-wave (km/s) = 7.46500 7.71638 7.59173
#
# Compressibility (1/GPa) = 0.01816172
#
# Stress axis : x y z
#
# Youngs Moduli (GPa) = 35.59819 48.93341 39.21815
#
# Poissons Ratio (x) = 0.59029 0.37612
# Poissons Ratio (y) = 0.42942 0.24623
# Poissons Ratio (z) = 0.34140 0.30723
#
# Static dielectric constant tensor:
#      x y z
#    x 2.918780 0.000000 0.000000 
#    y 0.000000 2.823760 0.000000 
#    z 0.000000 0.000000 2.700870 
# 
# 
# High freq. dielectric constant tensor:
#      x y z
#    x 1.559630 0.000000 0.000000 
#    y 0.000000 1.539340 0.000000 
#    z 0.000000 0.000000 1.519800 
# 
# From -- ./inp_files/23303.got.cif
#   From: 2010.03.12/outbox.cif.g09.slc.cpg/sg46_12_cif.got.tgz:23303.got - 2010.04.14 02:56:35.
