data_PCOD8191845
_publ_section_title
;
Structure prediction by ZEFSAII (Michael W. Deem and Ramdas Pophale) SiO2 
 PCOD8191845
Probable space group: I M A 2
;
_chemical_formula_sum "Si O2"
_cell_formula_units_Z 64
_cell_length_a 8.964177
_cell_length_b 20.808923
_cell_length_c 19.450911
_cell_angle_alpha 90.000000
_cell_angle_beta 90.000000
_cell_angle_gamma 90.000000
_cell_volume 3628.273134
_symmetry_space_group_name_H-M "I M A 2"
_symmetry_group_IT_number 46
_symmetry_cell_setting 'orthorhombic'
loop_
_space_group_symop_operation_xyz
x,y,z
-x,-y,z
1/2-x,y,z
1/2+x,-y,z
1/2+x,1/2+y,1/2+z
1/2-x,1/2-y,1/2+z
-x,1/2+y,1/2+z
x,1/2-y,1/2+z
loop_
_atom_site_type_symbol
_atom_site_label
_atom_site_fract_x
_atom_site_fract_y
_atom_site_fract_z
Si Si1 0.425080 0.435529 0.306910
Si Si2 0.926389 0.064113 0.223361
Si Si3 0.926088 0.237515 0.596547
Si Si4 0.923820 0.625258 0.443917
Si Si5 0.073096 0.374706 0.597961
Si Si6 0.426589 0.309897 0.224666
Si Si7 0.079175 0.757246 0.443926
Si Si8 0.577633 0.307455 0.800768
O O1 0.500000 0.500000 0.277935
O O2 0.250000 0.444341 0.300264
O O3 0.476356 0.425742 0.386490
O O4 0.479205 0.374292 0.263192
O O5 0.750000 0.055607 0.215855
O O6 0.969858 0.122935 0.273060
O O7 0.999849 0.073867 0.148546
O O8 0.000000 0.000000 0.255353
O O9 0.750000 0.242306 0.608981
O O10 0.966882 0.214798 0.518834
O O11 0.998197 0.306359 0.612726
O O12 0.998335 0.187097 0.649279
O O13 0.750000 0.636553 0.436996
O O14 0.966710 0.602088 0.520496
O O15 0.991007 0.693683 0.425235
O O16 0.250000 0.369606 0.609857
O O17 0.250000 0.306616 0.217039
O O18 0.479499 0.247263 0.265736
O O19 0.250000 0.736128 0.447363
O O20 0.050182 0.808712 0.383322
O O21 0.750000 0.293007 0.783231
#
# Coordination Sequence:
#
# PCOD8191845 Si02
#       8
#     8   8   8   8   8   8   8   8
#     4  10  22  37  52  75 106 141 180 220 264 314
#     4  11  23  37  53  75 107 142 181 222 266 319
#     4  10  19  32  52  80 110 138 175 218 265 316
#     4   9  18  33  50  74 107 141 176 215 257 308
#     4  10  19  32  52  76 107 143 179 216 259 310
#     4  11  21  34  55  80 107 139 178 221 266 315
#     4   9  18  32  53  80 106 136 173 216 264 314
#     4  10  20  35  56  80 105 136 177 220 264 315
#
# _framework density 17.639246
#
# number of rings (size 3 to 8) (size 9 to 14) (size 15 to 20)
#    0.000    2.000    2.500    1.500    0.000    3.500 
#    0.000    1.250    0.000    0.750    0.000    3.500 
#    0.000    0.000    0.000    0.000    0.000    0.000 
#
# Total GULP energy -396756.914423 kJ/mol
# GULP energy per Si atom -12398.653576 kJ/mol
# Density = 1.759910 g / cm^3
# Si number density = 17.639246 Si / 1000 Ang^3
#
#
#
# Elastic Constant Matrix: (Units=GPa)
#
#
# Indices 1 2 3 4 5 6 
#
# 1 57.7997 43.3183 35.8533 0.0000 0.0000 0.0000
# 2 43.3183 116.6112 62.0239 0.0000 0.0000 0.0000
# 3 35.8533 62.0239 109.5498 0.0000 0.0000 0.0000
# 4 0.0000 0.0000 0.0000 22.0179 0.0000 0.0000
# 5 0.0000 0.0000 0.0000 0.0000 24.9571 0.0000
# 6 0.0000 0.0000 0.0000 0.0000 0.0000 28.4841
#
#
#
# Elastic Compliance Matrix: (Units=1/GPa)
#
#
# Indices 1 2 3 4 5 6 
#
# 1 0.025276 -0.007139 -0.004230 0.000000 0.000000 0.000000
# 2 -0.007139 0.014287 -0.005752 0.000000 0.000000 0.000000
# 3 -0.004230 -0.005752 0.013770 0.000000 0.000000 0.000000
# 4 0.000000 0.000000 0.000000 0.045418 0.000000 0.000000
# 5 0.000000 0.000000 0.000000 0.000000 0.040069 0.000000
# 6 0.000000 0.000000 0.000000 0.000000 0.000000 0.035107
#
#
# Mechanical properties :
#
#
# Convention : Reuss Voigt Hill
#
# Bulk Modulus (GPa) = 52.38712 62.92796 57.65754
# Shear Modulus (GPa) = 23.30644 24.60950 23.95797
#
# Velocity S-wave (km/s) = 3.63889 3.73923 3.68940
# Velocity P-wave (km/s) = 6.88615 7.37529 7.13491
#
# Compressibility (1/GPa) = 0.01908866
#
# Stress axis : x y z
#
# Youngs Moduli (GPa) = 39.56371 69.99231 72.62394
#
# Poissons Ratio (x) = 0.49970 0.30720
# Poissons Ratio (y) = 0.28246 0.41777
# Poissons Ratio (z) = 0.16736 0.40263
#
# Static dielectric constant tensor:
#      x y z
#    x 3.301380 0.000000 0.000000 
#    y 0.000000 3.099400 0.000000 
#    z 0.000000 0.000000 3.679950 
# 
# 
# High freq. dielectric constant tensor:
#      x y z
#    x 1.689070 0.000000 0.000000 
#    y 0.000000 1.652820 0.000000 
#    z 0.000000 0.000000 1.690110 
# 
# From -- ./inp_files/21294.got.cif
#   From: 2010.03.12/outbox.cif.g09.slc.cpg/sg46_11_cif.got.tgz:21294.got - 2010.04.14 02:56:35.
