data_PCOD8191975
_publ_section_title
;
Structure prediction by ZEFSAII (Michael W. Deem and Ramdas Pophale) SiO2 
 PCOD8191975
Probable space group: I M A 2
;
_chemical_formula_sum "Si O2"
_cell_formula_units_Z 64
_cell_length_a 8.837207
_cell_length_b 20.577790
_cell_length_c 19.337660
_cell_angle_alpha 90.000000
_cell_angle_beta 90.000000
_cell_angle_gamma 90.000000
_cell_volume 3516.557142
_symmetry_space_group_name_H-M "I M A 2"
_symmetry_group_IT_number 46
_symmetry_cell_setting 'orthorhombic'
loop_
_space_group_symop_operation_xyz
x,y,z
-x,-y,z
1/2-x,y,z
1/2+x,-y,z
1/2+x,1/2+y,1/2+z
1/2-x,1/2-y,1/2+z
-x,1/2+y,1/2+z
x,1/2-y,1/2+z
loop_
_atom_site_type_symbol
_atom_site_label
_atom_site_fract_x
_atom_site_fract_y
_atom_site_fract_z
Si Si1 0.927502 0.933314 0.465510
Si Si2 0.426297 0.616502 0.251809
Si Si3 0.926147 0.620231 0.111222
Si Si4 0.928572 0.184651 0.969033
Si Si5 0.424884 0.814930 0.391781
Si Si6 0.576822 0.266068 0.742731
Si Si7 0.925585 0.770821 0.104016
Si Si8 0.070824 0.433043 0.386933
O O1 0.750000 0.939352 0.459689
O O2 0.977538 0.920229 0.544434
O O3 0.978393 0.875489 0.416245
O O4 0.000000 0.000000 0.439228
O O5 0.250000 0.601791 0.262713
O O6 0.476715 0.593727 0.175476
O O7 0.465163 0.692212 0.261923
O O8 0.520568 0.576727 0.307769
O O9 0.750000 0.611900 0.128715
O O10 0.964528 0.695050 0.095317
O O11 0.750000 0.174168 0.961842
O O12 0.981627 0.249797 0.929701
O O13 0.012142 0.124319 0.935164
O O14 0.976788 0.188940 0.048933
O O15 0.250000 0.827092 0.409549
O O16 0.451894 0.809592 0.309865
O O17 0.750000 0.269289 0.717842
O O18 0.472527 0.293230 0.681051
O O19 0.750000 0.785658 0.091846
O O20 0.250000 0.436702 0.391140
O O21 0.000000 0.500000 0.414945
#
# Coordination Sequence:
#
# PCOD8191975 Si02
#       8
#     8   8   8   8   8   8   8   8
#     4  11  23  38  55  79 113 150 192 234 282 335
#     4  10  19  34  55  81 113 150 190 229 276 334
#     4   9  19  34  51  77 113 152 192 232 274 330
#     4  11  21  37  60  86 114 148 189 234 282 335
#     4  10  20  36  59  84 112 146 188 233 281 332
#     4   9  18  34  55  83 114 147 185 228 279 335
#     4  10  19  33  54  85 116 146 186 232 282 331
#     4  12  25  40  58  81 114 152 191 235 283 337
#
# _framework density 18.199618999999998
#
# number of rings (size 3 to 8) (size 9 to 14) (size 15 to 20)
#    0.000    1.750    2.500    2.625    0.000    3.500 
#    0.000    1.250    0.000    0.750    0.000    1.750 
#    0.000    0.000    0.000    0.000    0.000    0.000 
#
# Total GULP energy -396954.413880 kJ/mol
# GULP energy per Si atom -12404.825434 kJ/mol
# Density = 1.815820 g / cm^3
# Si number density = 18.199619 Si / 1000 Ang^3
#
#
#
# Elastic Constant Matrix: (Units=GPa)
#
#
# Indices 1 2 3 4 5 6 
#
# 1 90.4236 48.0848 45.2768 0.0000 0.0000 0.0000
# 2 48.0848 101.9548 49.4230 0.0000 0.0000 0.0000
# 3 45.2768 49.4230 88.8165 0.0000 0.0000 0.0000
# 4 0.0000 0.0000 0.0000 14.6697 0.0000 0.0000
# 5 0.0000 0.0000 0.0000 0.0000 34.8872 0.0000
# 6 0.0000 0.0000 0.0000 0.0000 0.0000 28.7173
#
#
#
# Elastic Compliance Matrix: (Units=1/GPa)
#
#
# Indices 1 2 3 4 5 6 
#
# 1 0.016582 -0.005098 -0.005616 0.000000 0.000000 0.000000
# 2 -0.005098 0.014999 -0.005747 0.000000 0.000000 0.000000
# 3 -0.005616 -0.005747 0.017320 0.000000 0.000000 0.000000
# 4 0.000000 0.000000 0.000000 0.068167 0.000000 0.000000
# 5 0.000000 0.000000 0.000000 0.000000 0.028664 0.000000
# 6 0.000000 0.000000 0.000000 0.000000 0.000000 0.034822
#
#
# Mechanical properties :
#
#
# Convention : Reuss Voigt Hill
#
# Bulk Modulus (GPa) = 62.58671 62.97378 62.78025
# Shear Modulus (GPa) = 22.85143 24.88220 23.86681
#
# Velocity S-wave (km/s) = 3.54729 3.70155 3.62524
# Velocity P-wave (km/s) = 7.15831 7.27637 7.21758
#
# Compressibility (1/GPa) = 0.01597783
#
# Stress axis : x y z
#
# Youngs Moduli (GPa) = 60.30509 66.67238 57.73514
#
# Poissons Ratio (x) = 0.33990 0.32427
# Poissons Ratio (y) = 0.30744 0.33182
# Poissons Ratio (z) = 0.33870 0.38319
#
# Static dielectric constant tensor:
#      x y z
#    x 3.358700 0.000000 0.000000 
#    y 0.000000 3.188880 0.000000 
#    z 0.000000 0.000000 3.397340 
# 
# 
# High freq. dielectric constant tensor:
#      x y z
#    x 1.712790 0.000000 0.000000 
#    y 0.000000 1.682620 0.000000 
#    z 0.000000 0.000000 1.706850 
# 
# From -- ./inp_files/18522.got.cif
#   From: 2010.03.12/outbox.cif.g09.slc.cpg/sg46_10_cif.got.tgz:18522.got - 2010.04.14 02:56:35.
