data_PCOD8191278
_publ_section_title
;
Structure prediction by ZEFSAII (Michael W. Deem and Ramdas Pophale) SiO2 
 PCOD8191278
Probable space group: I M A 2
;
_chemical_formula_sum "Si O2"
_cell_formula_units_Z 64
_cell_length_a 9.285875
_cell_length_b 18.629327
_cell_length_c 20.684262
_cell_angle_alpha 90.000000
_cell_angle_beta 90.000000
_cell_angle_gamma 90.000000
_cell_volume 3578.162248
_symmetry_space_group_name_H-M "I M A 2"
_symmetry_group_IT_number 46
_symmetry_cell_setting 'orthorhombic'
loop_
_space_group_symop_operation_xyz
x,y,z
-x,-y,z
1/2-x,y,z
1/2+x,-y,z
1/2+x,1/2+y,1/2+z
1/2-x,1/2-y,1/2+z
-x,1/2+y,1/2+z
x,1/2-y,1/2+z
loop_
_atom_site_type_symbol
_atom_site_label
_atom_site_fract_x
_atom_site_fract_y
_atom_site_fract_z
Si Si1 0.917700 0.072550 0.700000
Si Si2 0.581321 0.277243 0.620690
Si Si3 0.583958 0.794017 0.736660
Si Si4 0.587929 0.368781 0.057458
Si Si5 0.905908 0.061980 0.250273
Si Si6 0.407085 0.935140 0.099274
Si Si7 0.580544 0.572995 0.938812
Si Si8 0.911871 0.666793 0.818376
O O1 0.750000 0.066040 0.718324
O O2 0.938859 0.092289 0.625365
O O3 0.990832 0.133989 0.743839
O O4 0.000000 0.000000 0.716538
O O5 0.750000 0.282799 0.643171
O O6 0.481546 0.256723 0.680890
O O7 0.564983 0.216748 0.565397
O O8 0.529651 0.354153 0.590915
O O9 0.750000 0.811928 0.718908
O O10 0.577044 0.752661 0.806415
O O11 0.750000 0.384600 0.032803
O O12 0.473320 0.400975 0.008351
O O13 0.750000 0.060714 0.283702
O O14 0.891657 0.048924 0.174764
O O15 0.982457 0.136708 0.263696
O O16 0.000000 0.000000 0.284096
O O17 0.250000 0.938946 0.066231
O O18 0.500000 0.000000 0.067594
O O19 0.500000 0.500000 0.917878
O O20 0.750000 0.557869 0.943305
O O21 0.543291 0.638025 0.889121
O O22 0.750000 0.640308 0.803391
#
# Coordination Sequence:
#
# PCOD8191278 Si02
#       8
#     8   8   8   8   8   8   8   8
#     4  10  20  34  53  77 104 130 160 200 250 301
#     4   9  17  32  49  69  97 128 163 204 251 298
#     4  10  19  31  49  72  98 127 162 201 247 298
#     4   9  19  34  53  73  96 128 167 209 249 292
#     4  10  18  27  42  62  89 125 162 196 233 279
#     4   9  17  27  41  64  94 125 156 192 236 285
#     4  11  23  37  51  70  99 133 173 211 245 285
#     4  10  21  34  47  67  96 130 166 205 242 284
#
# _framework density 17.886275999999999
#
# number of rings (size 3 to 8) (size 9 to 14) (size 15 to 20)
#    0.000    2.250    1.250    3.000    0.000    7.000 
#    0.000    0.000    0.000    0.000    0.000    0.875 
#    0.000    4.000    0.000    0.000    0.000    0.125 
#
# Total GULP energy -396563.451782 kJ/mol
# GULP energy per Si atom -12392.607868 kJ/mol
# Density = 1.784557 g / cm^3
# Si number density = 17.886276 Si / 1000 Ang^3
#
#
#
# Elastic Constant Matrix: (Units=GPa)
#
#
# Indices 1 2 3 4 5 6 
#
# 1 112.8792 60.8180 29.4095 0.0000 0.0000 0.0000
# 2 60.8180 137.9804 26.4216 0.0000 0.0000 0.0000
# 3 29.4095 26.4216 41.1505 0.0000 0.0000 0.0000
# 4 0.0000 0.0000 0.0000 21.4967 0.0000 0.0000
# 5 0.0000 0.0000 0.0000 0.0000 13.2428 0.0000
# 6 0.0000 0.0000 0.0000 0.0000 0.0000 33.4646
#
#
#
# Elastic Compliance Matrix: (Units=1/GPa)
#
#
# Indices 1 2 3 4 5 6 
#
# 1 0.012932 -0.004481 -0.006365 0.000000 0.000000 0.000000
# 2 -0.004481 0.009816 -0.003100 0.000000 0.000000 0.000000
# 3 -0.006365 -0.003100 0.030840 0.000000 0.000000 0.000000
# 4 0.000000 0.000000 0.000000 0.046519 0.000000 0.000000
# 5 0.000000 0.000000 0.000000 0.000000 0.075513 0.000000
# 6 0.000000 0.000000 0.000000 0.000000 0.000000 0.029882
#
#
# Mechanical properties :
#
#
# Convention : Reuss Voigt Hill
#
# Bulk Modulus (GPa) = 38.91640 58.36758 48.64199
# Shear Modulus (GPa) = 20.66460 25.33156 22.99808
#
# Velocity S-wave (km/s) = 3.40271 3.76740 3.58969
# Velocity P-wave (km/s) = 6.10269 7.18525 6.66598
#
# Compressibility (1/GPa) = 0.02569611
#
# Stress axis : x y z
#
# Youngs Moduli (GPa) = 77.32930 101.87227 32.42501
#
# Poissons Ratio (x) = 0.45651 0.20638
# Poissons Ratio (y) = 0.34652 0.10052
# Poissons Ratio (z) = 0.49219 0.31582
#
# Static dielectric constant tensor:
#      x y z
#    x 3.593430 0.000000 0.000000 
#    y 0.000000 3.541520 0.000000 
#    z 0.000000 0.000000 2.816640 
# 
# 
# High freq. dielectric constant tensor:
#      x y z
#    x 1.706020 0.000000 0.000000 
#    y 0.000000 1.701300 0.000000 
#    z 0.000000 0.000000 1.630190 
# 
# From -- ./inp_files/21342.got.cif
#   From: 2010.03.12/outbox.cif.g09.slc.cpg/sg46_11_cif.got.tgz:21342.got - 2010.04.14 02:56:35.
