data_PCOD8191208
_publ_section_title
;
Structure prediction by ZEFSAII (Michael W. Deem and Ramdas Pophale) SiO2 
 PCOD8191208
Probable space group: I M A 2
;
_chemical_formula_sum "Si O2"
_cell_formula_units_Z 52
_cell_length_a 13.095112
_cell_length_b 11.482723
_cell_length_c 19.665843
_cell_angle_alpha 90.000000
_cell_angle_beta 90.000000
_cell_angle_gamma 90.000000
_cell_volume 2957.104508
_symmetry_space_group_name_H-M "I M A 2"
_symmetry_group_IT_number 46
_symmetry_cell_setting 'orthorhombic'
loop_
_space_group_symop_operation_xyz
x,y,z
-x,-y,z
1/2-x,y,z
1/2+x,-y,z
1/2+x,1/2+y,1/2+z
1/2-x,1/2-y,1/2+z
-x,1/2+y,1/2+z
x,1/2-y,1/2+z
loop_
_atom_site_type_symbol
_atom_site_label
_atom_site_fract_x
_atom_site_fract_y
_atom_site_fract_z
Si Si1 0.500000 0.500000 0.335901
Si Si2 0.635059 0.317851 0.641573
Si Si3 0.628890 0.810063 0.913798
Si Si4 0.633534 0.192517 0.775664
Si Si5 0.523413 0.630625 0.822003
Si Si6 0.964319 0.870353 0.052009
Si Si7 0.132290 0.431449 0.687333
O O1 0.427585 0.419872 0.381118
O O2 0.425705 0.573244 0.287738
O O3 0.750000 0.338796 0.615186
O O4 0.629596 0.212382 0.694497
O O5 0.564559 0.296830 0.575580
O O6 0.593939 0.434266 0.680841
O O7 0.750000 0.829150 0.910801
O O8 0.599333 0.690481 0.876081
O O9 0.591083 0.802635 0.991510
O O10 0.750000 0.183665 0.801195
O O11 0.582061 0.297294 0.818189
O O12 0.500000 0.500000 0.847052
O O13 0.574951 0.634148 0.747891
O O14 0.886275 0.869215 0.115361
O O15 0.000000 0.000000 0.030188
O O16 0.250000 0.428766 0.706586
#
# Coordination Sequence:
#
# PCOD8191208 Si02
#       7
#     4   8   8   8   8   8   8
#     4  10  22  38  54  80 112 146 182 220 266 330
#     4   9  17  30  55  84 107 136 176 226 278 317
#     4  11  23  37  55  79 113 151 182 218 271 327
#     4  10  19  34  57  81 109 142 178 224 275 323
#     4  11  20  35  55  84 111 141 180 231 272 321
#     4  10  18  34  50  81 111 146 179 226 270 317
#     4  10  17  29  53  83 112 137 175 225 274 319
#
# _framework density 17.584769999999999
#
# number of rings (size 3 to 8) (size 9 to 14) (size 15 to 20)
#    0.000    1.846    3.846    1.846    0.000    1.231 
#    0.000    0.769    1.692    0.000    0.000    0.000 
#    0.000    0.000    0.000    0.000    0.000    0.000 
#
# Total GULP energy -322393.942048 kJ/mol
# GULP energy per Si atom -12399.767002 kJ/mol
# Density = 1.754475 g / cm^3
# Si number density = 17.584770 Si / 1000 Ang^3
#
#
#
# Elastic Constant Matrix: (Units=GPa)
#
#
# Indices 1 2 3 4 5 6 
#
# 1 127.4189 49.8428 57.0736 0.0000 0.0000 0.0000
# 2 49.8428 90.5560 46.8048 0.0000 0.0000 0.0000
# 3 57.0736 46.8048 110.0074 0.0000 0.0000 0.0000
# 4 0.0000 0.0000 0.0000 23.1950 0.0000 0.0000
# 5 0.0000 0.0000 0.0000 0.0000 28.7848 0.0000
# 6 0.0000 0.0000 0.0000 0.0000 0.0000 24.2490
#
#
#
# Elastic Compliance Matrix: (Units=1/GPa)
#
#
# Indices 1 2 3 4 5 6 
#
# 1 0.011292 -0.004086 -0.004120 0.000000 0.000000 0.000000
# 2 -0.004086 0.015634 -0.004532 0.000000 0.000000 0.000000
# 3 -0.004120 -0.004532 0.013156 0.000000 0.000000 0.000000
# 4 0.000000 0.000000 0.000000 0.043113 0.000000 0.000000
# 5 0.000000 0.000000 0.000000 0.000000 0.034741 0.000000
# 6 0.000000 0.000000 0.000000 0.000000 0.000000 0.041239
#
#
# Mechanical properties :
#
#
# Convention : Reuss Voigt Hill
#
# Bulk Modulus (GPa) = 68.46310 70.60273 69.53292
# Shear Modulus (GPa) = 26.38263 26.86316 26.62290
#
# Velocity S-wave (km/s) = 3.87759 3.91274 3.89520
# Velocity P-wave (km/s) = 7.68539 7.78780 7.73677
#
# Compressibility (1/GPa) = 0.01460641
#
# Stress axis : x y z
#
# Youngs Moduli (GPa) = 88.56019 63.96263 76.01005
#
# Poissons Ratio (x) = 0.26132 0.31317
# Poissons Ratio (y) = 0.36182 0.34449
# Poissons Ratio (z) = 0.36487 0.28989
#
# Static dielectric constant tensor:
#      x y z
#    x 3.481130 0.000000 0.000000 
#    y 0.000000 3.062780 0.000000 
#    z 0.000000 0.000000 3.152470 
# 
# 
# High freq. dielectric constant tensor:
#      x y z
#    x 1.703340 0.000000 0.000000 
#    y 0.000000 1.647700 0.000000 
#    z 0.000000 0.000000 1.665880 
# 
# From -- ./inp_files/19535.got.cif
#   From: 2010.03.12/outbox.cif.g09.slc.cpg/sg46_10_cif.got.tgz:19535.got - 2010.04.14 02:56:35.
