data_PCOD8191246
_publ_section_title
;
Structure prediction by ZEFSAII (Michael W. Deem and Ramdas Pophale) SiO2 
 PCOD8191246
Probable space group: I M A 2
;
_chemical_formula_sum "Si O2"
_cell_formula_units_Z 40
_cell_length_a 15.279496
_cell_length_b 12.728425
_cell_length_c 10.061453
_cell_angle_alpha 90.000000
_cell_angle_beta 90.000000
_cell_angle_gamma 90.000000
_cell_volume 1956.790809
_symmetry_space_group_name_H-M "I M A 2"
_symmetry_group_IT_number 46
_symmetry_cell_setting 'orthorhombic'
loop_
_space_group_symop_operation_xyz
x,y,z
-x,-y,z
1/2-x,y,z
1/2+x,-y,z
1/2+x,1/2+y,1/2+z
1/2-x,1/2-y,1/2+z
-x,1/2+y,1/2+z
x,1/2-y,1/2+z
loop_
_atom_site_type_symbol
_atom_site_label
_atom_site_fract_x
_atom_site_fract_y
_atom_site_fract_z
Si Si1 0.846756 0.473616 0.483620
Si Si2 0.250000 0.166424 0.061902
Si Si3 0.098934 0.519190 0.924585
Si Si4 0.750000 0.858370 0.362646
Si Si5 0.147263 0.671892 0.710865
Si Si6 0.645679 0.091507 0.703512
O O1 0.750000 0.423201 0.465407
O O2 0.836639 0.596111 0.527288
O O3 0.895459 0.405334 0.598203
O O4 0.891817 0.461346 0.339337
O O5 0.250000 0.196320 0.217636
O O6 0.250000 0.271709 0.977208
O O7 0.162638 0.427531 0.873280
O O8 0.126778 0.628980 0.857708
O O9 0.000000 0.500000 0.880120
O O10 0.104230 0.527033 0.083106
O O11 0.250000 0.672279 0.691522
O O12 0.110342 0.789128 0.697759
O O13 0.750000 0.084142 0.690407
#
# Coordination Sequence:
#
# PCOD8191246 Si02
#       6
#     8   4   8   4   8   8
#     4   8  16  33  55  91 119 149 209 250 302 371
#     4  10  22  38  67  93 114 174 213 247 317 374
#     4  12  24  42  62  94 130 165 207 256 314 374
#     4  12  24  46  67  87 128 170 211 263 305 380
#     4  10  17  37  64  90 122 157 206 254 322 367
#     4  10  19  33  65  93 120 162 201 260 312 370
#
# _framework density 20.441631999999998
#
# number of rings (size 3 to 8) (size 9 to 14) (size 15 to 20)
#    0.600    1.200    4.000    1.200    2.800    3.200 
#    3.600    1.000    0.000    0.000    0.000    0.000 
#    0.000    0.000    0.000    0.000    0.000    0.000 
#
# Total GULP energy -247870.442381 kJ/mol
# GULP energy per Si atom -12393.522119 kJ/mol
# Density = 2.039511 g / cm^3
# Si number density = 20.441632 Si / 1000 Ang^3
#
#
#
# Elastic Constant Matrix: (Units=GPa)
#
#
# Indices 1 2 3 4 5 6 
#
# 1 53.0047 30.6071 14.4856 0.0000 0.0000 0.0000
# 2 30.6071 83.6906 31.5405 0.0000 0.0000 0.0000
# 3 14.4856 31.5405 149.0378 0.0000 0.0000 0.0000
# 4 0.0000 0.0000 0.0000 46.7167 0.0000 0.0000
# 5 0.0000 0.0000 0.0000 0.0000 9.3141 0.0000
# 6 0.0000 0.0000 0.0000 0.0000 0.0000 5.2024
#
#
#
# Elastic Compliance Matrix: (Units=1/GPa)
#
#
# Indices 1 2 3 4 5 6 
#
# 1 0.023953 -0.008566 -0.000515 0.000000 0.000000 0.000000
# 2 -0.008566 0.016048 -0.002564 0.000000 0.000000 0.000000
# 3 -0.000515 -0.002564 0.007302 0.000000 0.000000 0.000000
# 4 0.000000 0.000000 0.000000 0.021406 0.000000 0.000000
# 5 0.000000 0.000000 0.000000 0.000000 0.107364 0.000000
# 6 0.000000 0.000000 0.000000 0.000000 0.000000 0.192219
#
#
# Mechanical properties :
#
#
# Convention : Reuss Voigt Hill
#
# Bulk Modulus (GPa) = 41.64298 48.77772 45.21035
# Shear Modulus (GPa) = 12.51295 26.18663 19.34979
#
# Velocity S-wave (km/s) = 2.47681 3.58305 3.08000
# Velocity P-wave (km/s) = 5.34746 6.40558 5.90029
#
# Compressibility (1/GPa) = 0.02401365
#
# Stress axis : x y z
#
# Youngs Moduli (GPa) = 41.74764 62.31449 136.94289
#
# Poissons Ratio (x) = 0.53378 0.07057
# Poissons Ratio (y) = 0.35761 0.35106
# Poissons Ratio (z) = 0.02151 0.15975
#
# Static dielectric constant tensor:
#      x y z
#    x 3.125810 0.000000 0.000000 
#    y 0.000000 3.612450 0.000000 
#    z 0.000000 0.000000 3.987030 
# 
# 
# High freq. dielectric constant tensor:
#      x y z
#    x 1.738740 0.000000 0.000000 
#    y 0.000000 1.788070 0.000000 
#    z 0.000000 0.000000 1.825050 
# 
# From -- ./inp_files/5470.got.cif
#   From: 2010.03.12/outbox.cif.g09.slc.cpg/sg46_3_cif.got.tgz:5470.got - 2010.04.14 02:56:35.
