data_PCOD8191268
_publ_section_title
;
Structure prediction by ZEFSAII (Michael W. Deem and Ramdas Pophale) SiO2 
 PCOD8191268
Probable space group: I M A 2
;
_chemical_formula_sum "Si O2"
_cell_formula_units_Z 64
_cell_length_a 8.853218
_cell_length_b 18.500598
_cell_length_c 26.546305
_cell_angle_alpha 90.000000
_cell_angle_beta 90.000000
_cell_angle_gamma 90.000000
_cell_volume 4348.014709
_symmetry_space_group_name_H-M "I M A 2"
_symmetry_group_IT_number 46
_symmetry_cell_setting 'orthorhombic'
loop_
_space_group_symop_operation_xyz
x,y,z
-x,-y,z
1/2-x,y,z
1/2+x,-y,z
1/2+x,1/2+y,1/2+z
1/2-x,1/2-y,1/2+z
-x,1/2+y,1/2+z
x,1/2-y,1/2+z
loop_
_atom_site_type_symbol
_atom_site_label
_atom_site_fract_x
_atom_site_fract_y
_atom_site_fract_z
Si Si1 0.071526 0.075346 0.192730
Si Si2 0.427861 0.422538 0.886455
Si Si3 0.423570 0.074224 0.899525
Si Si4 0.072286 0.841634 0.991408
Si Si5 0.924853 0.658644 0.786628
Si Si6 0.071049 0.076612 0.079114
Si Si7 0.076759 0.797032 0.435672
Si Si8 0.422073 0.215367 0.850018
O O1 0.250000 0.067038 0.195170
O O2 0.006196 0.134342 0.232820
O O3 0.023147 0.097009 0.136220
O O4 0.000000 0.000000 0.209087
O O5 0.500000 0.500000 0.894988
O O6 0.250000 0.431008 0.886975
O O7 0.489068 0.387660 0.834004
O O8 0.476480 0.369769 0.932819
O O9 0.250000 0.059647 0.912756
O O10 0.499319 0.108007 0.948743
O O11 0.439801 0.128494 0.851147
O O12 0.500000 0.000000 0.883055
O O13 0.250000 0.857376 0.991840
O O14 0.039498 0.755854 0.982895
O O15 0.998139 0.860769 0.044683
O O16 0.750000 0.640474 0.783562
O O17 0.952367 0.745093 0.796090
O O18 0.250000 0.072303 0.072122
O O19 0.000000 0.000000 0.063279
O O20 0.250000 0.821227 0.436031
O O21 0.044811 0.747262 0.387568
O O22 0.250000 0.236008 0.867476
#
# Coordination Sequence:
#
# PCOD8191268 Si02
#       8
#     8   8   8   8   8   8   8   8
#     4   9  17  28  41  57  78 103 131 164 196 227
#     4  10  18  27  41  60  83 109 135 163 193 229
#     4  10  18  27  40  58  80 105 133 163 195 233
#     4  10  19  30  43  57  76 104 135 166 199 235
#     4   8  14  26  42  58  77 103 134 163 193 229
#     4  10  19  29  41  57  78 104 133 166 200 232
#     4   9  17  28  41  57  77 101 130 163 198 234
#     4   8  15  27  41  56  76 103 131 160 195 233
#
# _framework density 14.719360999999999
#
# number of rings (size 3 to 8) (size 9 to 14) (size 15 to 20)
#    0.000    2.750    0.000    3.375    0.000    2.500 
#    0.000    2.500    0.000    0.000    0.000    0.000 
#    0.000    1.000    0.000    7.500    0.000    1.375 
#
# Total GULP energy -396464.851279 kJ/mol
# GULP energy per Si atom -12389.526602 kJ/mol
# Density = 1.468586 g / cm^3
# Si number density = 14.719361 Si / 1000 Ang^3
#
#
#
# Elastic Constant Matrix: (Units=GPa)
#
#
# Indices 1 2 3 4 5 6 
#
# 1 58.5785 38.7624 27.9081 0.0000 0.0000 0.0000
# 2 38.7624 112.7395 56.5859 0.0000 0.0000 0.0000
# 3 27.9081 56.5859 80.7951 0.0000 0.0000 0.0000
# 4 0.0000 0.0000 0.0000 26.4051 0.0000 0.0000
# 5 0.0000 0.0000 0.0000 0.0000 12.2176 0.0000
# 6 0.0000 0.0000 0.0000 0.0000 0.0000 22.6895
#
#
#
# Elastic Compliance Matrix: (Units=1/GPa)
#
#
# Indices 1 2 3 4 5 6 
#
# 1 0.022786 -0.005989 -0.003676 0.000000 0.000000 0.000000
# 2 -0.005989 0.015252 -0.008613 0.000000 0.000000 0.000000
# 3 -0.003676 -0.008613 0.019679 0.000000 0.000000 0.000000
# 4 0.000000 0.000000 0.000000 0.037871 0.000000 0.000000
# 5 0.000000 0.000000 0.000000 0.000000 0.081849 0.000000
# 6 0.000000 0.000000 0.000000 0.000000 0.000000 0.044073
#
#
# Mechanical properties :
#
#
# Convention : Reuss Voigt Hill
#
# Bulk Modulus (GPa) = 47.25875 55.40286 51.33081
# Shear Modulus (GPa) = 18.85926 20.85291 19.85608
#
# Velocity S-wave (km/s) = 3.58335 3.76799 3.67683
# Velocity P-wave (km/s) = 7.02116 7.52672 7.27833
#
# Compressibility (1/GPa) = 0.02116010
#
# Stress axis : x y z
#
# Youngs Moduli (GPa) = 43.88744 65.56316 50.81477
#
# Poissons Ratio (x) = 0.39267 0.18679
# Poissons Ratio (y) = 0.26285 0.43769
# Poissons Ratio (z) = 0.16133 0.56473
#
# Static dielectric constant tensor:
#      x y z
#    x 2.873830 0.000000 0.000000 
#    y 0.000000 3.049020 0.000000 
#    z 0.000000 0.000000 2.882610 
# 
# 
# High freq. dielectric constant tensor:
#      x y z
#    x 1.569040 0.000000 0.000000 
#    y 0.000000 1.555300 0.000000 
#    z 0.000000 0.000000 1.527360 
# 
# From -- ./inp_files/23309.got.cif
#   From: 2010.03.12/outbox.cif.g09.slc.cpg/sg46_12_cif.got.tgz:23309.got - 2010.04.14 02:56:35.
