data_PCOD8191788
_publ_section_title
;
Structure prediction by ZEFSAII (Michael W. Deem and Ramdas Pophale) SiO2 
 PCOD8191788
Probable space group: I M A 2
;
_chemical_formula_sum "Si O2"
_cell_formula_units_Z 64
_cell_length_a 8.992161
_cell_length_b 14.754702
_cell_length_c 26.987992
_cell_angle_alpha 90.000000
_cell_angle_beta 90.000000
_cell_angle_gamma 90.000000
_cell_volume 3580.676528
_symmetry_space_group_name_H-M "I M A 2"
_symmetry_group_IT_number 46
_symmetry_cell_setting 'orthorhombic'
loop_
_space_group_symop_operation_xyz
x,y,z
-x,-y,z
1/2-x,y,z
1/2+x,-y,z
1/2+x,1/2+y,1/2+z
1/2-x,1/2-y,1/2+z
-x,1/2+y,1/2+z
x,1/2-y,1/2+z
loop_
_atom_site_type_symbol
_atom_site_label
_atom_site_fract_x
_atom_site_fract_y
_atom_site_fract_z
Si Si1 0.426122 0.772747 0.744400
Si Si2 0.926445 0.907301 0.818600
Si Si3 0.424095 0.280446 0.970936
Si Si4 0.423189 0.410401 0.432648
Si Si5 0.926761 0.593856 0.770500
Si Si6 0.425194 0.592766 0.046881
Si Si7 0.422220 0.089832 0.383612
Si Si8 0.577480 0.409590 0.159607
O O1 0.250000 0.765805 0.753341
O O2 0.502857 0.823095 0.790205
O O3 0.498624 0.673732 0.738686
O O4 0.465501 0.824755 0.693665
O O5 0.750000 0.909964 0.809804
O O6 0.969505 0.893275 0.875864
O O7 0.000000 0.000000 0.798534
O O8 0.250000 0.291853 0.982387
O O9 0.470431 0.175459 0.965843
O O10 0.465823 0.327058 0.918775
O O11 0.517346 0.322551 0.015464
O O12 0.500000 0.500000 0.454536
O O13 0.250000 0.427334 0.435900
O O14 0.750000 0.591316 0.762070
O O15 0.971110 0.612495 0.827671
O O16 0.000000 0.500000 0.752472
O O17 0.500000 0.500000 0.027615
O O18 0.250000 0.583025 0.040335
O O19 0.472859 0.611940 0.103521
O O20 0.250000 0.068419 0.385192
O O21 0.500000 0.000000 0.404178
O O22 0.500000 0.500000 0.180131
O O23 0.750000 0.430628 0.161936
#
# Coordination Sequence:
#
# PCOD8191788 Si02
#       8
#     8   8   8   8   8   8   8   8
#     4  11  21  33  51  75 100 131 169 208 247 293
#     4  10  19  32  49  73 104 136 167 203 245 293
#     4  10  19  32  50  73  99 129 164 203 243 289
#     4   9  19  34  50  69  99 134 168 205 245 287
#     4  10  20  35  52  72 100 135 170 207 247 290
#     4  10  20  35  53  75 101 129 159 197 244 295
#     4   9  18  31  47  69 100 132 162 196 239 287
#     4   9  20  36  53  74 102 130 159 197 244 294
#
# _framework density 17.873716999999999
#
# number of rings (size 3 to 8) (size 9 to 14) (size 15 to 20)
#    0.000    2.250    0.000    3.000    0.000    7.500 
#    0.000    1.250    0.000    0.750    0.000    1.750 
#    0.000    0.000    0.000    0.000    0.000    0.000 
#
# Total GULP energy -396879.017291 kJ/mol
# GULP energy per Si atom -12402.469290 kJ/mol
# Density = 1.783304 g / cm^3
# Si number density = 17.873717 Si / 1000 Ang^3
#
#
#
# Elastic Constant Matrix: (Units=GPa)
#
#
# Indices 1 2 3 4 5 6 
#
# 1 71.5801 60.8606 37.6307 0.0000 0.0000 0.0000
# 2 60.8606 157.2671 59.0337 0.0000 0.0000 0.0000
# 3 37.6307 59.0337 66.5819 0.0000 0.0000 0.0000
# 4 0.0000 0.0000 0.0000 25.2317 0.0000 0.0000
# 5 0.0000 0.0000 0.0000 0.0000 21.0260 0.0000
# 6 0.0000 0.0000 0.0000 0.0000 0.0000 36.5923
#
#
#
# Elastic Compliance Matrix: (Units=1/GPa)
#
#
# Indices 1 2 3 4 5 6 
#
# 1 0.023198 -0.006079 -0.007721 0.000000 0.000000 0.000000
# 2 -0.006079 0.011124 -0.006427 0.000000 0.000000 0.000000
# 3 -0.007721 -0.006427 0.025081 0.000000 0.000000 0.000000
# 4 0.000000 0.000000 0.000000 0.039633 0.000000 0.000000
# 5 0.000000 0.000000 0.000000 0.000000 0.047560 0.000000
# 6 0.000000 0.000000 0.000000 0.000000 0.000000 0.027328
#
#
# Mechanical properties :
#
#
# Convention : Reuss Voigt Hill
#
# Bulk Modulus (GPa) = 52.77377 67.83100 60.30239
# Shear Modulus (GPa) = 22.65575 25.76360 24.20968
#
# Velocity S-wave (km/s) = 3.56412 3.80073 3.68433
# Velocity P-wave (km/s) = 6.82109 7.56923 7.20488
#
# Compressibility (1/GPa) = 0.01894881
#
# Stress axis : x y z
#
# Youngs Moduli (GPa) = 43.10660 89.89906 39.87059
#
# Poissons Ratio (x) = 0.54651 0.30785
# Poissons Ratio (y) = 0.26205 0.25624
# Poissons Ratio (z) = 0.33284 0.57776
#
# Static dielectric constant tensor:
#      x y z
#    x 3.321940 0.000000 0.000000 
#    y 0.000000 3.579160 0.000000 
#    z 0.000000 0.000000 3.245020 
# 
# 
# High freq. dielectric constant tensor:
#      x y z
#    x 1.697000 0.000000 0.000000 
#    y 0.000000 1.694750 0.000000 
#    z 0.000000 0.000000 1.667950 
# 
# From -- ./inp_files/23196.got.cif
#   From: 2010.03.12/outbox.cif.g09.slc.cpg/sg46_12_cif.got.tgz:23196.got - 2010.04.14 02:56:35.
