data_PCOD8191132
_publ_section_title
;
Structure prediction by ZEFSAII (Michael W. Deem and Ramdas Pophale) SiO2 
 PCOD8191132
Probable space group: I M A 2
;
_chemical_formula_sum "Si O2"
_cell_formula_units_Z 64
_cell_length_a 15.673620
_cell_length_b 24.391690
_cell_length_c 8.450071
_cell_angle_alpha 90.000000
_cell_angle_beta 90.000000
_cell_angle_gamma 90.000000
_cell_volume 3230.513522
_symmetry_space_group_name_H-M "I M A 2"
_symmetry_group_IT_number 46
_symmetry_cell_setting 'orthorhombic'
loop_
_space_group_symop_operation_xyz
x,y,z
-x,-y,z
1/2-x,y,z
1/2+x,-y,z
1/2+x,1/2+y,1/2+z
1/2-x,1/2-y,1/2+z
-x,1/2+y,1/2+z
x,1/2-y,1/2+z
loop_
_atom_site_type_symbol
_atom_site_label
_atom_site_fract_x
_atom_site_fract_y
_atom_site_fract_z
Si Si1 0.404417 0.499992 0.981300
Si Si2 0.844500 0.617688 0.595785
Si Si3 0.847967 0.999989 0.139750
Si Si4 0.000012 0.689601 0.596416
Si Si5 0.156372 0.383622 0.973330
Si Si6 0.844501 0.117664 0.095772
Si Si7 0.499990 0.688395 0.972431
Si Si8 0.656373 0.116359 0.473318
O O1 0.500000 0.500000 0.047791
O O2 0.409633 0.499986 0.790657
O O3 0.357847 0.555126 0.041877
O O4 0.357861 0.444854 0.041893
O O5 0.750000 0.637030 0.539178
O O6 0.863809 0.555263 0.535958
O O7 0.915640 0.659134 0.528992
O O8 0.848113 0.614958 0.784685
O O9 0.750000 0.999994 0.202993
O O10 0.863820 0.055240 0.035958
O O11 0.084363 0.659113 0.528979
O O12 0.000034 0.750726 0.535870
O O13 0.000012 0.689004 0.784272
O O14 0.250000 0.363187 0.029707
O O15 0.084112 0.342394 0.038477
O O16 0.750000 0.137000 0.039157
O O17 0.848114 0.114941 0.284673
O O18 0.415889 0.657583 0.038477
O O19 0.750000 0.136800 0.529688
#
# Coordination Sequence:
#
# PCOD8191132 Si02
#       8
#     8   8   8   8   8   8   8   8
#     4  10  14  20  38  65  93 115 139 175 229 278
#     4   8  15  26  41  64  90 116 143 181 226 268
#     4   8  14  22  36  62  92 116 141 174 226 280
#     4  10  20  31  47  63  91 118 155 188 220 258
#     4   9  16  27  42  63  92 118 145 181 226 272
#     4   8  15  26  41  64  90 116 143 181 226 268
#     4  10  20  33  45  67  87 122 155 190 218 260
#     4   9  16  27  42  63  92 118 145 181 226 272
#
# _framework density 19.811093
#
# number of rings (size 3 to 8) (size 9 to 14) (size 15 to 20)
#    0.000    3.000    1.250    2.625    5.250    1.000 
#    0.000    0.000    0.000    0.000    0.000    3.500 
#    0.000    4.000    0.000    0.000    0.000    0.000 
#
# Total GULP energy -396521.077399 kJ/mol
# GULP energy per Si atom -12391.283669 kJ/mol
# Density = 1.976600 g / cm^3
# Si number density = 19.811093 Si / 1000 Ang^3
#
#
#
# Elastic Constant Matrix: (Units=GPa)
#
#
# Indices 1 2 3 4 5 6 
#
# 1 192.4345 106.3821 7.1861 0.0001 0.0001 0.0000
# 2 106.3821 188.6531 6.0447 0.0001 0.0001 0.0000
# 3 7.1861 6.0447 2.8399 0.0016 0.0009 0.0000
# 4 0.0001 0.0001 0.0016 20.2521 0.0003 0.0000
# 5 0.0001 0.0001 0.0009 0.0003 5.2594 0.0001
# 6 0.0000 0.0000 0.0000 0.0000 0.0001 29.4872
#
#
#
# Elastic Compliance Matrix: (Units=1/GPa)
#
#
# Indices 1 2 3 4 5 6 
#
# 1 0.007871 -0.004078 -0.011235 0.000001 0.000002 0.000000
# 2 -0.004078 0.007802 -0.006286 0.000000 0.000001 0.000000
# 3 -0.011235 -0.006286 0.393929 -0.000032 -0.000071 0.000000
# 4 0.000001 0.000000 -0.000032 0.049378 -0.000002 0.000000
# 5 0.000002 0.000001 -0.000071 -0.000002 0.190137 0.000000
# 6 0.000000 0.000000 0.000000 0.000000 0.000000 0.033913
#
#
# Mechanical properties :
#
#
# Convention : Reuss Voigt Hill
#
# Bulk Modulus (GPa) = 2.72925 69.23927 35.98426
# Shear Modulus (GPa) = 5.89371 28.62072 17.25721
#
# Velocity S-wave (km/s) = 1.72668 3.80502 2.95462
# Velocity P-wave (km/s) = 2.31427 7.37088 5.46286
#
# Compressibility (1/GPa) = 0.36640145
#
# Stress axis : x y z
#
# Youngs Moduli (GPa) = 127.05296 128.17319 2.53853
#
# Poissons Ratio (x) = 0.52273 0.02852
# Poissons Ratio (y) = 0.51816 0.01596
# Poissons Ratio (z) = 1.42748 0.80574
#
# Static dielectric constant tensor:
#      x y z
#    x 3.998720 0.000000 0.000000 
#    y 0.000000 3.895630 0.000000 
#    z 0.000000 0.000000 2.677920 
# 
# 
# High freq. dielectric constant tensor:
#      x y z
#    x 1.791270 0.000000 0.000000 
#    y 0.000000 1.778860 0.000000 
#    z 0.000000 0.000000 1.672840 
# 
# From -- ./inp_files/6092.got.cif
#   From: 2010.03.12/outbox.cif.g09.slc.cpg/sg46_4_cif.got.tgz:6092.got - 2010.04.14 02:56:35.
