data_PCOD8191666
_publ_section_title
;
Structure prediction by ZEFSAII (Michael W. Deem and Ramdas Pophale) SiO2 
 PCOD8191666
Probable space group: I M A 2
;
_chemical_formula_sum "Si O2"
_cell_formula_units_Z 64
_cell_length_a 9.094412
_cell_length_b 18.204190
_cell_length_c 26.269129
_cell_angle_alpha 90.000000
_cell_angle_beta 90.000000
_cell_angle_gamma 90.000000
_cell_volume 4349.022533
_symmetry_space_group_name_H-M "I M A 2"
_symmetry_group_IT_number 46
_symmetry_cell_setting 'orthorhombic'
loop_
_space_group_symop_operation_xyz
x,y,z
-x,-y,z
1/2-x,y,z
1/2+x,-y,z
1/2+x,1/2+y,1/2+z
1/2-x,1/2-y,1/2+z
-x,1/2+y,1/2+z
x,1/2-y,1/2+z
loop_
_atom_site_type_symbol
_atom_site_label
_atom_site_fract_x
_atom_site_fract_y
_atom_site_fract_z
Si Si1 0.583325 0.574429 0.935390
Si Si2 0.424227 0.168669 0.533136
Si Si3 0.080003 0.573284 0.231853
Si Si4 0.422718 0.673533 0.322993
Si Si5 0.079490 0.785199 0.975612
Si Si6 0.579846 0.783707 0.381495
Si Si7 0.076355 0.924214 0.615425
Si Si8 0.918995 0.424495 0.417859
O O1 0.500000 0.500000 0.924288
O O2 0.750000 0.551581 0.944059
O O3 0.565674 0.627805 0.886060
O O4 0.528504 0.615869 0.986375
O O5 0.250000 0.171287 0.541183
O O6 0.483170 0.251288 0.521694
O O7 0.504902 0.141428 0.583675
O O8 0.250000 0.555311 0.237589
O O9 0.035134 0.640909 0.267950
O O10 0.039491 0.593825 0.174025
O O11 0.000000 0.500000 0.250284
O O12 0.250000 0.691330 0.327586
O O13 0.516788 0.749475 0.328875
O O14 0.474104 0.615729 0.366353
O O15 0.250000 0.766234 0.984872
O O16 0.056274 0.872745 0.967779
O O17 0.026911 0.749327 0.923526
O O18 0.750000 0.760947 0.390446
O O19 0.250000 0.930075 0.605051
O O20 0.000000 0.000000 0.598512
O O21 0.750000 0.443890 0.410609
O O22 0.000000 0.500000 0.427747
#
# Coordination Sequence:
#
# PCOD8191666 Si02
#       8
#     8   8   8   8   8   8   8   8
#     4   9  18  28  39  57  80 104 133 165 198 236
#     4  10  19  30  43  60  81 108 141 174 206 245
#     4   9  18  30  43  60  83 109 141 176 209 244
#     4   9  17  29  42  58  80 109 142 172 203 242
#     4   9  17  29  42  58  80 107 137 169 204 243
#     4   9  17  28  40  58  81 105 135 170 203 240
#     4  10  19  30  43  60  83 111 140 175 211 244
#     4   9  17  26  39  59  82 107 136 167 200 238
#
# _framework density 14.715949999999999
#
# number of rings (size 3 to 8) (size 9 to 14) (size 15 to 20)
#    0.000    2.750    0.000    3.750    0.000    7.500 
#    0.000    0.000    0.000    0.000    0.000    0.000 
#    0.000    1.000    0.000    8.500    0.000    5.875 
#
# Total GULP energy -396600.758727 kJ/mol
# GULP energy per Si atom -12393.773710 kJ/mol
# Density = 1.468246 g / cm^3
# Si number density = 14.715950 Si / 1000 Ang^3
#
#
#
# Elastic Constant Matrix: (Units=GPa)
#
#
# Indices 1 2 3 4 5 6 
#
# 1 64.5230 43.1761 31.3662 0.0000 0.0000 0.0000
# 2 43.1761 82.8350 40.2274 0.0000 0.0000 0.0000
# 3 31.3662 40.2274 63.8110 0.0000 0.0000 0.0000
# 4 0.0000 0.0000 0.0000 23.7937 0.0000 0.0000
# 5 0.0000 0.0000 0.0000 0.0000 19.4434 0.0000
# 6 0.0000 0.0000 0.0000 0.0000 0.0000 29.5892
#
#
#
# Elastic Compliance Matrix: (Units=1/GPa)
#
#
# Indices 1 2 3 4 5 6 
#
# 1 0.025268 -0.010288 -0.005934 0.000000 0.000000 0.000000
# 2 -0.010288 0.021588 -0.008552 0.000000 0.000000 0.000000
# 3 -0.005934 -0.008552 0.023980 0.000000 0.000000 0.000000
# 4 0.000000 0.000000 0.000000 0.042028 0.000000 0.000000
# 5 0.000000 0.000000 0.000000 0.000000 0.051431 0.000000
# 6 0.000000 0.000000 0.000000 0.000000 0.000000 0.033796
#
#
# Mechanical properties :
#
#
# Convention : Reuss Voigt Hill
#
# Bulk Modulus (GPa) = 46.98001 48.96759 47.97380
# Shear Modulus (GPa) = 19.62815 20.99186 20.31001
#
# Velocity S-wave (km/s) = 3.65609 3.78096 3.71905
# Velocity P-wave (km/s) = 7.05808 7.23936 7.14929
#
# Compressibility (1/GPa) = 0.02128565
#
# Stress axis : x y z
#
# Youngs Moduli (GPa) = 39.57614 46.32202 41.70183
#
# Poissons Ratio (x) = 0.47658 0.24747
# Poissons Ratio (y) = 0.40717 0.35664
# Poissons Ratio (z) = 0.23486 0.39615
#
# Static dielectric constant tensor:
#      x y z
#    x 2.956760 0.000000 0.000000 
#    y 0.000000 2.949220 0.000000 
#    z 0.000000 0.000000 2.824150 
# 
# 
# High freq. dielectric constant tensor:
#      x y z
#    x 1.575800 0.000000 0.000000 
#    y 0.000000 1.548540 0.000000 
#    z 0.000000 0.000000 1.529790 
# 
# From -- ./inp_files/23322.got.cif
#   From: 2010.03.12/outbox.cif.g09.slc.cpg/sg46_12_cif.got.tgz:23322.got - 2010.04.14 02:56:35.
