data_PCOD8191256
_publ_section_title
;
Structure prediction by ZEFSAII (Michael W. Deem and Ramdas Pophale) SiO2 
 PCOD8191256
Probable space group: I M A 2
;
_chemical_formula_sum "Si O2"
_cell_formula_units_Z 64
_cell_length_a 8.896083
_cell_length_b 18.172465
_cell_length_c 26.377304
_cell_angle_alpha 90.000000
_cell_angle_beta 90.000000
_cell_angle_gamma 90.000000
_cell_volume 4264.254063
_symmetry_space_group_name_H-M "I M A 2"
_symmetry_group_IT_number 46
_symmetry_cell_setting 'orthorhombic'
loop_
_space_group_symop_operation_xyz
x,y,z
-x,-y,z
1/2-x,y,z
1/2+x,-y,z
1/2+x,1/2+y,1/2+z
1/2-x,1/2-y,1/2+z
-x,1/2+y,1/2+z
x,1/2-y,1/2+z
loop_
_atom_site_type_symbol
_atom_site_label
_atom_site_fract_x
_atom_site_fract_y
_atom_site_fract_z
Si Si1 0.429111 0.921395 0.943770
Si Si2 0.925114 0.075550 0.241608
Si Si3 0.584033 0.800808 0.483568
Si Si4 0.574949 0.421591 0.928991
Si Si5 0.072169 0.577524 0.626140
Si Si6 0.418258 0.299239 0.384843
Si Si7 0.928622 0.659580 0.538085
Si Si8 0.573374 0.326151 0.832901
O O1 0.250000 0.925836 0.946477
O O2 0.478803 0.869692 0.896912
O O3 0.500000 0.000000 0.932568
O O4 0.491628 0.892141 0.997047
O O5 0.750000 0.061839 0.247412
O O6 0.968529 0.096617 0.184239
O O7 0.977209 0.140935 0.278782
O O8 0.000000 0.000000 0.259113
O O9 0.750000 0.832796 0.494392
O O10 0.472248 0.869337 0.476215
O O11 0.586779 0.751132 0.433947
O O12 0.532885 0.745975 0.528773
O O13 0.500000 0.500000 0.934560
O O14 0.750000 0.434103 0.931458
O O15 0.524418 0.384016 0.876358
O O16 0.250000 0.574430 0.616724
O O17 0.000000 0.500000 0.610235
O O18 0.995191 0.640895 0.593002
O O19 0.250000 0.324557 0.369730
O O20 0.489778 0.251814 0.339167
O O21 0.750000 0.645957 0.535224
O O22 0.750000 0.311050 0.836173
#
# Coordination Sequence:
#
# PCOD8191256 Si02
#       8
#     8   8   8   8   8   8   8   8
#     4  11  20  30  44  62  85 112 141 173 207 248
#     4   9  18  30  43  60  84 112 145 181 215 248
#     4   8  16  29  42  56  78 105 134 168 205 243
#     4  10  18  26  40  60  83 109 138 169 202 241
#     4  10  19  30  43  60  83 112 144 180 215 249
#     4   9  17  29  43  61  83 108 138 172 208 247
#     4  10  19  31  45  61  82 110 142 176 212 252
#     4   9  17  29  43  60  82 112 145 175 208 246
#
# _framework density 15.008487000000001
#
# number of rings (size 3 to 8) (size 9 to 14) (size 15 to 20)
#    0.000    2.500    0.000    4.125    0.000    5.000 
#    0.000    0.000    0.000    0.000    0.000    0.000 
#    0.000    1.000    0.000    5.250    0.000    4.500 
#
# Total GULP energy -396737.107060 kJ/mol
# GULP energy per Si atom -12398.034596 kJ/mol
# Density = 1.497433 g / cm^3
# Si number density = 15.008487 Si / 1000 Ang^3
#
#
#
# Elastic Constant Matrix: (Units=GPa)
#
#
# Indices 1 2 3 4 5 6 
#
# 1 84.5929 50.7717 34.4769 0.0000 0.0000 0.0000
# 2 50.7717 96.0230 48.0887 0.0000 0.0000 0.0000
# 3 34.4769 48.0887 72.8376 0.0000 0.0000 0.0000
# 4 0.0000 0.0000 0.0000 25.7323 0.0000 0.0000
# 5 0.0000 0.0000 0.0000 0.0000 18.4213 0.0000
# 6 0.0000 0.0000 0.0000 0.0000 0.0000 27.8536
#
#
#
# Elastic Compliance Matrix: (Units=1/GPa)
#
#
# Indices 1 2 3 4 5 6 
#
# 1 0.017836 -0.007772 -0.003311 0.000000 0.000000 0.000000
# 2 -0.007772 0.018945 -0.008829 0.000000 0.000000 0.000000
# 3 -0.003311 -0.008829 0.021125 0.000000 0.000000 0.000000
# 4 0.000000 0.000000 0.000000 0.038862 0.000000 0.000000
# 5 0.000000 0.000000 0.000000 0.000000 0.054285 0.000000
# 6 0.000000 0.000000 0.000000 0.000000 0.000000 0.035902
#
#
# Mechanical properties :
#
#
# Convention : Reuss Voigt Hill
#
# Bulk Modulus (GPa) = 55.30424 57.79202 56.54813
# Shear Modulus (GPa) = 21.47701 22.40919 21.94310
#
# Velocity S-wave (km/s) = 3.78695 3.86826 3.82782
# Velocity P-wave (km/s) = 7.48665 7.65121 7.56938
#
# Compressibility (1/GPa) = 0.01808179
#
# Stress axis : x y z
#
# Youngs Moduli (GPa) = 56.06763 52.78309 47.33623
#
# Poissons Ratio (x) = 0.41025 0.15672
# Poissons Ratio (y) = 0.43578 0.41794
# Poissons Ratio (z) = 0.18563 0.46603
#
# Static dielectric constant tensor:
#      x y z
#    x 3.040200 0.000000 0.000000 
#    y 0.000000 2.940540 0.000000 
#    z 0.000000 0.000000 2.848650 
# 
# 
# High freq. dielectric constant tensor:
#      x y z
#    x 1.589280 0.000000 0.000000 
#    y 0.000000 1.562360 0.000000 
#    z 0.000000 0.000000 1.541250 
# 
# From -- ./inp_files/24392.got.cif
#   From: 2010.03.12/outbox.cif.g09.slc.cpg/sg46_13_cif.got.tgz:24392.got - 2010.04.14 02:56:35.
