data_PCOD8191133
_publ_section_title
;
Structure prediction by ZEFSAII (Michael W. Deem and Ramdas Pophale) SiO2 
 PCOD8191133
Probable space group: I M A 2
;
_chemical_formula_sum "Si O2"
_cell_formula_units_Z 40
_cell_length_a 7.944542
_cell_length_b 29.627107
_cell_length_c 7.958168
_cell_angle_alpha 90.000000
_cell_angle_beta 90.000000
_cell_angle_gamma 90.000000
_cell_volume 1873.144211
_symmetry_space_group_name_H-M "I M A 2"
_symmetry_group_IT_number 46
_symmetry_cell_setting 'orthorhombic'
loop_
_space_group_symop_operation_xyz
x,y,z
-x,-y,z
1/2-x,y,z
1/2+x,-y,z
1/2+x,1/2+y,1/2+z
1/2-x,1/2-y,1/2+z
-x,1/2+y,1/2+z
x,1/2-y,1/2+z
loop_
_atom_site_type_symbol
_atom_site_label
_atom_site_fract_x
_atom_site_fract_y
_atom_site_fract_z
Si Si1 0.062773 0.857202 0.895960
Si Si2 0.933920 0.141767 0.494599
Si Si3 0.750000 0.802284 0.495554
Si Si4 0.561470 0.952512 0.486493
Si Si5 0.055703 0.954663 0.854587
Si Si6 0.750000 0.699392 0.392374
O O1 0.250000 0.841620 0.957218
O O2 0.058194 0.858655 0.695219
O O3 0.023112 0.908477 0.959546
O O4 0.919123 0.823847 0.967878
O O5 0.750000 0.159653 0.434671
O O6 0.081733 0.173863 0.422380
O O7 0.953612 0.090670 0.425060
O O8 0.750000 0.751046 0.440516
O O9 0.750000 0.806343 0.694382
O O10 0.750000 0.943540 0.426838
O O11 0.557946 0.955293 0.688101
O O12 0.500000 0.000000 0.406677
O O13 0.250000 0.956207 0.800045
O O14 0.000000 0.000000 0.958549
#
# Coordination Sequence:
#
# PCOD8191133 Si02
#       6
#     8   8   4   8   8   4
#     4   8  16  27  40  61  87 120 150 183 227 275
#     4   9  16  28  42  60  89 119 151 186 229 274
#     4  10  20  34  48  72  86 126 154 196 231 278
#     4  10  15  20  32  54  84 119 153 176 215 273
#     4   9  15  20  31  53  82 118 152 176 217 272
#     4  10  20  32  52  64  94 118 160 190 235 270
#
# _framework density 21.354468000000001
#
# number of rings (size 3 to 8) (size 9 to 14) (size 15 to 20)
#    0.000    2.800    1.000    4.800    5.600    0.800 
#    0.000    0.000    0.000    0.000    0.000    0.000 
#    0.000    1.600    0.000    0.000    0.000    0.000 
#
# Total GULP energy -247785.339808 kJ/mol
# GULP energy per Si atom -12389.266990 kJ/mol
# Density = 2.130586 g / cm^3
# Si number density = 21.354468 Si / 1000 Ang^3
#
#
#
# Elastic Constant Matrix: (Units=GPa)
#
#
# Indices 1 2 3 4 5 6 
#
# 1 194.0882 103.1474 2.2405 0.0015 -0.0003 -0.0001
# 2 103.1474 196.5569 -1.8188 0.0029 -0.0003 -0.0002
# 3 2.2405 -1.8188 3.6878 0.0035 -0.0008 -0.0003
# 4 0.0015 0.0029 0.0035 16.3741 -0.0006 -0.0001
# 5 -0.0003 -0.0003 -0.0008 -0.0006 1.7102 0.0003
# 6 -0.0001 -0.0002 -0.0003 -0.0001 0.0003 40.1167
#
#
#
# Elastic Compliance Matrix: (Units=1/GPa)
#
#
# Indices 1 2 3 4 5 6 
#
# 1 0.007290 -0.003884 -0.006345 0.000001 -0.000002 0.000000
# 2 -0.003884 0.007180 0.005901 -0.000002 0.000003 0.000000
# 3 -0.006345 0.005901 0.277930 -0.000060 0.000129 0.000002
# 4 0.000001 -0.000002 -0.000060 0.061072 0.000022 0.000000
# 5 -0.000002 0.000003 0.000129 0.000022 0.584728 -0.000005
# 6 0.000000 0.000000 0.000002 0.000000 -0.000005 0.024927
#
#
# Mechanical properties :
#
#
# Convention : Reuss Voigt Hill
#
# Bulk Modulus (GPa) = 3.52429 66.83013 35.17721
# Shear Modulus (GPa) = 4.68883 31.02446 17.85664
#
# Velocity S-wave (km/s) = 1.48340 3.81574 2.89485
# Velocity P-wave (km/s) = 2.14195 7.12578 5.26140
#
# Compressibility (1/GPa) = 0.28374493
#
# Stress axis : x y z
#
# Youngs Moduli (GPa) = 137.17868 139.26628 3.59803
#
# Poissons Ratio (x) = 0.54093 0.02283
# Poissons Ratio (y) = 0.53282 -0.02123
# Poissons Ratio (z) = 0.87035 -0.82185
#
# Static dielectric constant tensor:
#      x y z
#    x 4.214920 -0.000010 0.000000 
#    y -0.000010 0.650570 0.000060 
#    z 0.000000 0.000060 2.859410 
# 
# 
# High freq. dielectric constant tensor:
#      x y z
#    x 1.856710 0.000000 0.000000 
#    y 0.000000 1.846880 0.000000 
#    z 0.000000 0.000000 1.736380 
# 
# From -- ./inp_files/3697.got.cif
#   From: 2010.03.12/outbox.cif.g09.slc.cpg/sg46_2_cif.got.tgz:3697.got - 2010.04.14 02:56:35.
