data_PCOD8191156
_publ_section_title
;
Structure prediction by ZEFSAII (Michael W. Deem and Ramdas Pophale) SiO2 
 PCOD8191156
Probable space group: I M A 2
;
_chemical_formula_sum "Si O2"
_cell_formula_units_Z 52
_cell_length_a 26.223778
_cell_length_b 10.898050
_cell_length_c 8.939587
_cell_angle_alpha 90.000000
_cell_angle_beta 90.000000
_cell_angle_gamma 90.000000
_cell_volume 2554.827081
_symmetry_space_group_name_H-M "I M A 2"
_symmetry_group_IT_number 46
_symmetry_cell_setting 'orthorhombic'
loop_
_space_group_symop_operation_xyz
x,y,z
-x,-y,z
1/2-x,y,z
1/2+x,-y,z
1/2+x,1/2+y,1/2+z
1/2-x,1/2-y,1/2+z
-x,1/2+y,1/2+z
x,1/2-y,1/2+z
loop_
_atom_site_type_symbol
_atom_site_label
_atom_site_fract_x
_atom_site_fract_y
_atom_site_fract_z
Si Si1 0.750000 0.824219 0.657140
Si Si2 0.918702 0.259714 0.389503
Si Si3 0.250000 0.572617 0.090851
Si Si4 0.142312 0.161656 0.544258
Si Si5 0.139388 0.609083 0.136830
Si Si6 0.250000 0.421823 0.781698
Si Si7 0.451777 0.914974 0.147875
Si Si8 0.863126 0.902369 0.208510
O O1 0.797715 0.809646 0.545319
O O2 0.750000 0.728549 0.794376
O O3 0.750000 0.964710 0.718745
O O4 0.877507 0.336770 0.295078
O O5 0.891077 0.164637 0.498447
O O6 0.955742 0.186680 0.277880
O O7 0.953679 0.351774 0.485383
O O8 0.250000 0.501804 0.931002
O O9 0.198556 0.650016 0.110717
O O10 0.124212 0.138312 0.376933
O O11 0.117702 0.285272 0.611352
O O12 0.131121 0.038290 0.640726
O O13 0.303596 0.446901 0.692206
O O14 0.500000 0.000000 0.167491
O O15 0.397708 0.983463 0.161933
#
# Coordination Sequence:
#
# PCOD8191156 Si02
#       8
#     4   8   4   8   8   4   8   8
#     4   8  16  28  48  81 125 170 204 250 309 356
#     4  10  23  45  66  87 125 164 203 265 316 366
#     4  10  16  32  56  85 124 170 215 247 297 379
#     4  10  19  33  57  90 125 165 207 258 308 367
#     4  10  20  39  61  90 130 169 209 260 308 366
#     4  10  16  32  54  86 131 170 203 251 322 355
#     4  11  25  47  69  93 124 162 211 258 319 376
#     4  11  21  36  61  93 129 167 207 265 310 372
#
# _framework density 20.353628
#
# number of rings (size 3 to 8) (size 9 to 14) (size 15 to 20)
#    0.000    1.846    4.615    0.000    2.154    1.846 
#    0.000    5.385    0.000    0.000    0.000    0.000 
#    0.000    0.000    0.000    0.000    0.000    0.000 
#
# Total GULP energy -322101.817369 kJ/mol
# GULP energy per Si atom -12388.531437 kJ/mol
# Density = 2.030730 g / cm^3
# Si number density = 20.353628 Si / 1000 Ang^3
#
#
#
# Elastic Constant Matrix: (Units=GPa)
#
#
# Indices 1 2 3 4 5 6 
#
# 1 94.1850 40.5980 35.7353 0.0000 0.0000 0.0000
# 2 40.5980 92.0482 50.1536 0.0000 0.0000 0.0000
# 3 35.7353 50.1536 105.3729 0.0000 0.0000 0.0000
# 4 0.0000 0.0000 0.0000 37.9655 0.0000 0.0000
# 5 0.0000 0.0000 0.0000 0.0000 15.3098 0.0000
# 6 0.0000 0.0000 0.0000 0.0000 0.0000 34.3183
#
#
#
# Elastic Compliance Matrix: (Units=1/GPa)
#
#
# Indices 1 2 3 4 5 6 
#
# 1 0.013531 -0.004682 -0.002360 0.000000 0.000000 0.000000
# 2 -0.004682 0.016288 -0.006165 0.000000 0.000000 0.000000
# 3 -0.002360 -0.006165 0.013225 0.000000 0.000000 0.000000
# 4 0.000000 0.000000 0.000000 0.026340 0.000000 0.000000
# 5 0.000000 0.000000 0.000000 0.000000 0.065318 0.000000
# 6 0.000000 0.000000 0.000000 0.000000 0.000000 0.029139
#
#
# Mechanical properties :
#
#
# Convention : Reuss Voigt Hill
#
# Bulk Modulus (GPa) = 60.13302 60.50888 60.32095
# Shear Modulus (GPa) = 25.53673 28.52668 27.03171
#
# Velocity S-wave (km/s) = 3.54595 3.74779 3.64827
# Velocity P-wave (km/s) = 6.80979 6.96572 6.88820
#
# Compressibility (1/GPa) = 0.01662980
#
# Stress axis : x y z
#
# Youngs Moduli (GPa) = 73.90408 61.39636 75.61599
#
# Poissons Ratio (x) = 0.28744 0.17849
# Poissons Ratio (y) = 0.34600 0.46614
# Poissons Ratio (z) = 0.17445 0.37848
#
# Static dielectric constant tensor:
#      x y z
#    x 3.508540 0.000000 0.000000 
#    y 0.000000 3.943290 0.000000 
#    z 0.000000 0.000000 3.691920 
# 
# 
# High freq. dielectric constant tensor:
#      x y z
#    x 1.773380 0.000000 0.000000 
#    y 0.000000 1.799760 0.000000 
#    z 0.000000 0.000000 1.787130 
# 
# From -- ./inp_files/8192.got.cif
#   From: 2010.03.12/outbox.cif.g09.slc.cpg/sg46_5_cif.got.tgz:8192.got - 2010.04.14 02:56:35.
