data_PCOD8191690
_publ_section_title
;
Structure prediction by ZEFSAII (Michael W. Deem and Ramdas Pophale) SiO2 
 PCOD8191690
Probable space group: I M A 2
;
_chemical_formula_sum "Si O2"
_cell_formula_units_Z 56
_cell_length_a 9.120616
_cell_length_b 15.389191
_cell_length_c 19.316202
_cell_angle_alpha 90.000000
_cell_angle_beta 90.000000
_cell_angle_gamma 90.000000
_cell_volume 2711.200897
_symmetry_space_group_name_H-M "I M A 2"
_symmetry_group_IT_number 46
_symmetry_cell_setting 'orthorhombic'
loop_
_space_group_symop_operation_xyz
x,y,z
-x,-y,z
1/2-x,y,z
1/2+x,-y,z
1/2+x,1/2+y,1/2+z
1/2-x,1/2-y,1/2+z
-x,1/2+y,1/2+z
x,1/2-y,1/2+z
loop_
_atom_site_type_symbol
_atom_site_label
_atom_site_fract_x
_atom_site_fract_y
_atom_site_fract_z
Si Si1 0.081036 0.578906 0.824820
Si Si2 0.910481 0.579360 0.102362
Si Si3 0.079269 0.315555 0.438196
Si Si4 0.424493 0.591255 0.564104
Si Si5 0.589930 0.615740 0.950883
Si Si6 0.079626 0.729507 0.303894
Si Si7 0.918189 0.261555 0.146459
O O1 0.250000 0.567337 0.810491
O O2 0.022954 0.671375 0.800136
O O3 0.000000 0.500000 0.784790
O O4 0.040360 0.573637 0.906153
O O5 0.750000 0.581864 0.137512
O O6 0.000000 0.500000 0.137519
O O7 0.984570 0.673005 0.103387
O O8 0.898330 0.561531 0.021015
O O9 0.250000 0.343213 0.437084
O O10 0.055825 0.217551 0.463995
O O11 0.991004 0.377575 0.490655
O O12 0.014101 0.325667 0.359546
O O13 0.500000 0.500000 0.585361
O O14 0.250000 0.578072 0.556053
O O15 0.459553 0.662043 0.625380
O O16 0.750000 0.608606 0.912758
O O17 0.250000 0.724361 0.326030
O O18 0.054288 0.703778 0.224641
O O19 0.750000 0.275750 0.126271
#
# Coordination Sequence:
#
# PCOD8191690 Si02
#       7
#     8   8   8   8   8   8   8
#     4  10  19  30  48  75 109 145 184 229 279 340
#     4  11  22  36  56  84 116 150 189 236 291 352
#     4  10  19  36  60  88 118 151 196 248 299 355
#     4  11  23  39  63  93 125 166 211 259 313 368
#     4   9  18  32  52  79 111 144 179 225 278 336
#     4   9  20  38  58  81 113 156 200 246 303 366
#     4  10  22  41  62  86 120 160 203 251 307 367
#
# _framework density 20.655055000000001
#
# number of rings (size 3 to 8) (size 9 to 14) (size 15 to 20)
#    0.000    2.000    1.429    2.143    0.000    5.143 
#    0.000    0.714    0.000    3.429    0.000    0.000 
#    0.000    0.000    0.000    0.000    0.000    0.000 
#
# Total GULP energy -346917.619565 kJ/mol
# GULP energy per Si atom -12389.914984 kJ/mol
# Density = 2.060804 g / cm^3
# Si number density = 20.655055 Si / 1000 Ang^3
#
#
#
# Elastic Constant Matrix: (Units=GPa)
#
#
# Indices 1 2 3 4 5 6 
#
# 1 101.0341 42.9613 30.7195 0.0000 0.0000 0.0000
# 2 42.9613 87.8826 5.8164 0.0000 0.0000 0.0000
# 3 30.7195 5.8164 60.3625 0.0000 0.0000 0.0000
# 4 0.0000 0.0000 0.0000 15.6128 0.0000 0.0000
# 5 0.0000 0.0000 0.0000 0.0000 22.1454 0.0000
# 6 0.0000 0.0000 0.0000 0.0000 0.0000 35.2195
#
#
#
# Elastic Compliance Matrix: (Units=1/GPa)
#
#
# Indices 1 2 3 4 5 6 
#
# 1 0.014908 -0.006829 -0.006929 0.000000 0.000000 0.000000
# 2 -0.006829 0.014580 0.002071 0.000000 0.000000 0.000000
# 3 -0.006929 0.002071 0.019893 0.000000 0.000000 0.000000
# 4 0.000000 0.000000 0.000000 0.064050 0.000000 0.000000
# 5 0.000000 0.000000 0.000000 0.000000 0.045156 0.000000
# 6 0.000000 0.000000 0.000000 0.000000 0.000000 0.028393
#
#
# Mechanical properties :
#
#
# Convention : Reuss Voigt Hill
#
# Bulk Modulus (GPa) = 38.45189 45.36372 41.90780
# Shear Modulus (GPa) = 22.82835 25.91434 24.37135
#
# Velocity S-wave (km/s) = 3.32809 3.54591 3.43873
# Velocity P-wave (km/s) = 5.78142 6.22695 6.00832
#
# Compressibility (1/GPa) = 0.02600653
#
# Stress axis : x y z
#
# Youngs Moduli (GPa) = 67.07626 68.58565 50.26795
#
# Poissons Ratio (x) = 0.46840 0.34831
# Poissons Ratio (y) = 0.45809 -0.10409
# Poissons Ratio (z) = 0.46478 -0.14202
#
# Static dielectric constant tensor:
#      x y z
#    x 3.877060 0.000000 0.000000 
#    y 0.000000 3.713630 0.000000 
#    z 0.000000 0.000000 3.570890 
# 
# 
# High freq. dielectric constant tensor:
#      x y z
#    x 1.813070 0.000000 0.000000 
#    y 0.000000 1.802310 0.000000 
#    z 0.000000 0.000000 1.784880 
# 
# From -- ./inp_files/21042.got.cif
#   From: 2010.03.12/outbox.cif.g09.slc.cpg/sg46_11_cif.got.tgz:21042.got - 2010.04.14 02:56:35.
