data_PCOD8191891
_publ_section_title
;
Structure prediction by ZEFSAII (Michael W. Deem and Ramdas Pophale) SiO2 
 PCOD8191891
Probable space group: I M A 2
;
_chemical_formula_sum "Si O2"
_cell_formula_units_Z 64
_cell_length_a 8.875990
_cell_length_b 20.661978
_cell_length_c 19.259410
_cell_angle_alpha 90.000000
_cell_angle_beta 90.000000
_cell_angle_gamma 90.000000
_cell_volume 3532.089321
_symmetry_space_group_name_H-M "I M A 2"
_symmetry_group_IT_number 46
_symmetry_cell_setting 'orthorhombic'
loop_
_space_group_symop_operation_xyz
x,y,z
-x,-y,z
1/2-x,y,z
1/2+x,-y,z
1/2+x,1/2+y,1/2+z
1/2-x,1/2-y,1/2+z
-x,1/2+y,1/2+z
x,1/2-y,1/2+z
loop_
_atom_site_type_symbol
_atom_site_label
_atom_site_fract_x
_atom_site_fract_y
_atom_site_fract_z
Si Si1 0.076596 0.618885 0.828160
Si Si2 0.575347 0.119943 0.485171
Si Si3 0.922579 0.755957 0.976729
Si Si4 0.925061 0.183937 0.692542
Si Si5 0.927899 0.565750 0.115927
Si Si6 0.926429 0.565211 0.698315
Si Si7 0.075902 0.733821 0.340348
Si Si8 0.076727 0.194620 0.123901
O O1 0.250000 0.610684 0.806219
O O2 0.049238 0.595058 0.906889
O O3 0.025691 0.693470 0.820598
O O4 0.975376 0.575620 0.777997
O O5 0.750000 0.116586 0.506255
O O6 0.523027 0.193657 0.493311
O O7 0.480755 0.074969 0.536627
O O8 0.750000 0.733878 0.967685
O O9 0.979540 0.790879 0.906304
O O10 0.940099 0.805635 0.040514
O O11 0.750000 0.172369 0.676107
O O12 0.954222 0.187298 0.775189
O O13 0.021599 0.125064 0.663621
O O14 0.973749 0.250520 0.657244
O O15 0.750000 0.560123 0.118131
O O16 0.000000 0.500000 0.145828
O O17 0.750000 0.556213 0.695327
O O18 0.980397 0.625305 0.651174
O O19 0.000000 0.500000 0.668265
O O20 0.250000 0.734480 0.362637
O O21 0.250000 0.207314 0.145842
#
# Coordination Sequence:
#
# PCOD8191891 Si02
#       8
#     8   8   8   8   8   8   8   8
#     4   9  18  34  53  77 110 146 185 225 267 325
#     4  10  20  35  54  79 112 149 187 228 273 328
#     4  10  19  32  54  83 113 144 181 230 281 328
#     4  11  21  36  60  85 111 146 185 231 280 331
#     4  12  25  40  57  81 113 149 190 232 279 336
#     4  11  23  37  54  77 110 148 188 231 278 329
#     4   9  19  34  54  83 114 143 181 226 275 333
#     4  10  21  36  55  83 112 143 185 233 278 332
#
# _framework density 18.119586999999999
#
# number of rings (size 3 to 8) (size 9 to 14) (size 15 to 20)
#    0.000    1.750    2.500    3.375    0.000    5.000 
#    0.000    0.000    0.000    0.750    0.000    3.500 
#    0.000    0.000    0.000    0.000    0.000    0.000 
#
# Total GULP energy -396889.761078 kJ/mol
# GULP energy per Si atom -12402.805034 kJ/mol
# Density = 1.807835 g / cm^3
# Si number density = 18.119587 Si / 1000 Ang^3
#
#
#
# Elastic Constant Matrix: (Units=GPa)
#
#
# Indices 1 2 3 4 5 6 
#
# 1 106.1016 51.1625 44.7011 0.0000 0.0000 0.0000
# 2 51.1625 106.6436 47.7914 0.0000 0.0000 0.0000
# 3 44.7011 47.7914 90.3494 0.0000 0.0000 0.0000
# 4 0.0000 0.0000 0.0000 19.1149 0.0000 0.0000
# 5 0.0000 0.0000 0.0000 0.0000 25.7201 0.0000
# 6 0.0000 0.0000 0.0000 0.0000 0.0000 27.9666
#
#
#
# Elastic Compliance Matrix: (Units=1/GPa)
#
#
# Indices 1 2 3 4 5 6 
#
# 1 0.013391 -0.004529 -0.004230 0.000000 0.000000 0.000000
# 2 -0.004529 0.013822 -0.005071 0.000000 0.000000 0.000000
# 3 -0.004230 -0.005071 0.015843 0.000000 0.000000 0.000000
# 4 0.000000 0.000000 0.000000 0.052315 0.000000 0.000000
# 5 0.000000 0.000000 0.000000 0.000000 0.038880 0.000000
# 6 0.000000 0.000000 0.000000 0.000000 0.000000 0.035757
#
#
# Mechanical properties :
#
#
# Convention : Reuss Voigt Hill
#
# Bulk Modulus (GPa) = 64.94518 65.60050 65.27284
# Shear Modulus (GPa) = 24.65501 25.18964 24.92232
#
# Velocity S-wave (km/s) = 3.69274 3.73257 3.71271
# Velocity P-wave (km/s) = 7.35542 7.40668 7.38109
#
# Compressibility (1/GPa) = 0.01539760
#
# Stress axis : x y z
#
# Youngs Moduli (GPa) = 74.67902 72.34783 63.11930
#
# Poissons Ratio (x) = 0.32764 0.26697
# Poissons Ratio (y) = 0.33820 0.32006
# Poissons Ratio (z) = 0.31586 0.36686
#
# Static dielectric constant tensor:
#      x y z
#    x 3.404870 0.000000 0.000000 
#    y 0.000000 3.215490 0.000000 
#    z 0.000000 0.000000 3.540300 
# 
# 
# High freq. dielectric constant tensor:
#      x y z
#    x 1.712400 0.000000 0.000000 
#    y 0.000000 1.675620 0.000000 
#    z 0.000000 0.000000 1.702630 
# 
# From -- ./inp_files/21333.got.cif
#   From: 2010.03.12/outbox.cif.g09.slc.cpg/sg46_11_cif.got.tgz:21333.got - 2010.04.14 02:56:35.
