data_PCOD8191290
_publ_section_title
;
Structure prediction by ZEFSAII (Michael W. Deem and Ramdas Pophale) SiO2 
 PCOD8191290
Probable space group: I M A 2
;
_chemical_formula_sum "Si O2"
_cell_formula_units_Z 64
_cell_length_a 9.003345
_cell_length_b 26.461709
_cell_length_c 18.250909
_cell_angle_alpha 90.000000
_cell_angle_beta 90.000000
_cell_angle_gamma 90.000000
_cell_volume 4348.167655
_symmetry_space_group_name_H-M "I M A 2"
_symmetry_group_IT_number 46
_symmetry_cell_setting 'orthorhombic'
loop_
_space_group_symop_operation_xyz
x,y,z
-x,-y,z
1/2-x,y,z
1/2+x,-y,z
1/2+x,1/2+y,1/2+z
1/2-x,1/2-y,1/2+z
-x,1/2+y,1/2+z
x,1/2-y,1/2+z
loop_
_atom_site_type_symbol
_atom_site_label
_atom_site_fract_x
_atom_site_fract_y
_atom_site_fract_z
Si Si1 0.582703 0.698711 0.148910
Si Si2 0.073828 0.850135 0.775735
Si Si3 0.923284 0.051162 0.860313
Si Si4 0.086093 0.300577 0.741376
Si Si5 0.074374 0.947783 0.029168
Si Si6 0.926798 0.243930 0.027711
Si Si7 0.923783 0.248498 0.861240
Si Si8 0.072855 0.352343 0.598631
O O1 0.750000 0.681731 0.128701
O O2 0.502907 0.655006 0.196253
O O3 0.584441 0.749277 0.195676
O O4 0.489446 0.709381 0.075191
O O5 0.250000 0.848857 0.765244
O O6 0.019030 0.902470 0.811257
O O7 0.019882 0.805175 0.829518
O O8 0.750000 0.043160 0.850348
O O9 0.962620 0.063298 0.944410
O O10 0.000000 0.000000 0.832843
O O11 0.250000 0.312703 0.770636
O O12 0.033312 0.343948 0.684758
O O13 0.983629 0.295356 0.812811
O O14 0.250000 0.949223 0.043776
O O15 0.997449 0.905381 0.077775
O O16 0.000000 0.000000 0.053825
O O17 0.750000 0.239926 0.037188
O O18 0.998999 0.190871 0.049445
O O19 0.975789 0.254811 0.944493
O O20 0.750000 0.250864 0.855320
O O21 0.250000 0.351219 0.586160
#
# Coordination Sequence:
#
# PCOD8191290 Si02
#       8
#     8   8   8   8   8   8   8   8
#     4   9  17  28  40  58  81 106 137 171 204 243
#     4   9  16  28  43  58  79 109 140 171 205 243
#     4   9  18  30  43  60  83 109 141 176 210 245
#     4   8  16  28  40  56  80 106 134 168 205 241
#     4  10  19  31  45  62  84 111 141 175 210 244
#     4  10  18  28  42  61  84 111 140 171 206 246
#     4   9  17  27  41  60  81 106 139 171 202 243
#     4  10  19  30  43  61  83 110 143 175 206 245
#
# _framework density 14.718844000000001
#
# number of rings (size 3 to 8) (size 9 to 14) (size 15 to 20)
#    0.000    2.750    0.000    3.000    0.000    7.500 
#    0.000    2.500    0.000    0.000    0.000    0.000 
#    0.000    1.000    0.000    5.500    0.000    4.250 
#
# Total GULP energy -396705.356084 kJ/mol
# GULP energy per Si atom -12397.042378 kJ/mol
# Density = 1.468534 g / cm^3
# Si number density = 14.718844 Si / 1000 Ang^3
#
#
#
# Elastic Constant Matrix: (Units=GPa)
#
#
# Indices 1 2 3 4 5 6 
#
# 1 60.9456 37.4031 48.6662 0.0000 0.0000 0.0000
# 2 37.4031 90.1489 61.0105 0.0000 0.0000 0.0000
# 3 48.6662 61.0105 110.6179 0.0002 0.0000 0.0000
# 4 0.0000 0.0000 0.0002 27.1104 0.0000 0.0000
# 5 0.0000 0.0000 0.0000 0.0000 22.2746 0.0000
# 6 0.0000 0.0000 0.0000 0.0000 0.0000 23.7972
#
#
#
# Elastic Compliance Matrix: (Units=1/GPa)
#
#
# Indices 1 2 3 4 5 6 
#
# 1 0.026624 -0.004977 -0.008968 0.000000 0.000000 0.000000
# 2 -0.004977 0.018630 -0.008086 0.000000 0.000000 0.000000
# 3 -0.008968 -0.008086 0.017445 0.000000 0.000000 0.000000
# 4 0.000000 0.000000 0.000000 0.036886 0.000000 0.000000
# 5 0.000000 0.000000 0.000000 0.000000 0.044894 0.000000
# 6 0.000000 0.000000 0.000000 0.000000 0.000000 0.042022
#
#
# Mechanical properties :
#
#
# Convention : Reuss Voigt Hill
#
# Bulk Modulus (GPa) = 53.65508 61.76355 57.70931
# Shear Modulus (GPa) = 21.11717 22.27862 21.69790
#
# Velocity S-wave (km/s) = 3.79186 3.89474 3.84364
# Velocity P-wave (km/s) = 7.46347 7.89168 7.68056
#
# Compressibility (1/GPa) = 0.01863756
#
# Stress axis : x y z
#
# Youngs Moduli (GPa) = 37.56062 53.67749 57.32251
#
# Poissons Ratio (x) = 0.26715 0.51407
# Poissons Ratio (y) = 0.18693 0.46348
# Poissons Ratio (z) = 0.33685 0.43401
#
# Static dielectric constant tensor:
#      x y z
#    x 2.952120 0.000000 0.000000 
#    y 0.000000 2.738180 0.000000 
#    z 0.000000 0.000000 2.963740 
# 
# 
# High freq. dielectric constant tensor:
#      x y z
#    x 1.573680 0.000000 0.000000 
#    y 0.000000 1.530980 0.000000 
#    z 0.000000 0.000000 1.551530 
# 
# From -- ./inp_files/18622.got.cif
#   From: 2010.03.12/outbox.cif.g09.slc.cpg/sg46_10_cif.got.tgz:18622.got - 2010.04.14 02:56:35.
