data_PCOD8191311
_publ_section_title
;
Structure prediction by ZEFSAII (Michael W. Deem and Ramdas Pophale) SiO2 
 PCOD8191311
Probable space group: I M A 2
;
_chemical_formula_sum "Si O2"
_cell_formula_units_Z 64
_cell_length_a 30.452394
_cell_length_b 26.983304
_cell_length_c 5.178455
_cell_angle_alpha 90.000000
_cell_angle_beta 90.000000
_cell_angle_gamma 90.000000
_cell_volume 4255.168605
_symmetry_space_group_name_H-M "I M A 2"
_symmetry_group_IT_number 46
_symmetry_cell_setting 'orthorhombic'
loop_
_space_group_symop_operation_xyz
x,y,z
-x,-y,z
1/2-x,y,z
1/2+x,-y,z
1/2+x,1/2+y,1/2+z
1/2-x,1/2-y,1/2+z
-x,1/2+y,1/2+z
x,1/2-y,1/2+z
loop_
_atom_site_type_symbol
_atom_site_label
_atom_site_fract_x
_atom_site_fract_y
_atom_site_fract_z
Si Si1 0.798826 0.627606 0.563470
Si Si2 0.700692 0.935764 0.551578
Si Si3 0.930410 0.484393 0.660259
Si Si4 0.053166 0.384704 0.156422
Si Si5 0.169620 0.271006 0.400927
Si Si6 0.571573 0.727058 0.263784
Si Si7 0.009743 0.079840 0.149504
Si Si8 0.612925 0.518895 0.160347
O O1 0.750000 0.647095 0.629764
O O2 0.797714 0.596823 0.304466
O O3 0.830741 0.673543 0.512571
O O4 0.816546 0.595353 0.803623
O O5 0.750000 0.957219 0.495782
O O6 0.665176 0.978497 0.607742
O O7 0.957817 0.433050 0.652614
O O8 0.895721 0.489376 0.426079
O O9 0.963844 0.529216 0.639767
O O10 0.906440 0.485448 0.933615
O O11 0.073832 0.330421 0.184008
O O12 0.091987 0.425698 0.165714
O O13 0.019162 0.390101 0.390391
O O14 0.024765 0.388290 0.895749
O O15 0.193113 0.236053 0.620572
O O16 0.120581 0.253048 0.328211
O O17 0.547917 0.740382 0.537041
#
# Coordination Sequence:
#
# PCOD8191311 Si02
#       8
#     8   8   8   8   8   8   8   8
#     4  10  20  32  44  56  72  93 121 163 207 249
#     4  10  20  32  44  59  78 100 129 163 196 233
#     4   9  17  28  42  63  85 100 120 154 195 241
#     4  10  18  28  44  60  77 106 133 158 201 248
#     4  10  20  31  43  56  71  92 120 162 210 252
#     4  10  20  31  41  56  77 100 131 168 199 230
#     4   9  17  28  42  62  84 101 122 154 195 243
#     4  10  18  28  45  62  78 104 130 156 199 248
#
# _framework density 15.040532000000001
#
# number of rings (size 3 to 8) (size 9 to 14) (size 15 to 20)
#    0.000    2.250    0.000    3.750    0.000    7.500 
#    0.000    0.000    0.000    0.000    0.000    0.000 
#    0.000    0.000    0.000    0.000    0.000    0.000 
#
# Total GULP energy -396529.286366 kJ/mol
# GULP energy per Si atom -12391.540199 kJ/mol
# Density = 1.500630 g / cm^3
# Si number density = 15.040532 Si / 1000 Ang^3
#
#
#
# Elastic Constant Matrix: (Units=GPa)
#
#
# Indices 1 2 3 4 5 6 
#
# 1 53.3855 20.4896 22.6200 0.0000 0.0000 0.0000
# 2 20.4896 20.2306 18.4108 0.0000 0.0000 0.0000
# 3 22.6200 18.4108 130.1564 0.0000 0.0000 0.0000
# 4 0.0000 0.0000 0.0000 14.8359 0.0000 0.0000
# 5 0.0000 0.0000 0.0000 0.0000 13.4238 0.0000
# 6 0.0000 0.0000 0.0000 0.0000 0.0000 22.1819
#
#
#
# Elastic Compliance Matrix: (Units=1/GPa)
#
#
# Indices 1 2 3 4 5 6 
#
# 1 0.030774 -0.030187 -0.001078 0.000000 0.000000 0.000000
# 2 -0.030187 0.086344 -0.006967 0.000000 0.000000 0.000000
# 3 -0.001078 -0.006967 0.008856 0.000000 0.000000 0.000000
# 4 0.000000 0.000000 0.000000 0.067404 0.000000 0.000000
# 5 0.000000 0.000000 0.000000 0.000000 0.074495 0.000000
# 6 0.000000 0.000000 0.000000 0.000000 0.000000 0.045082
#
#
# Mechanical properties :
#
#
# Convention : Reuss Voigt Hill
#
# Bulk Modulus (GPa) = 20.19828 36.31258 28.25543
# Shear Modulus (GPa) = 12.31762 19.57180 15.94471
#
# Velocity S-wave (km/s) = 2.86486 3.61123 3.25947
# Velocity P-wave (km/s) = 4.93980 6.44853 5.74391
#
# Compressibility (1/GPa) = 0.04950917
#
# Stress axis : x y z
#
# Youngs Moduli (GPa) = 32.49452 11.58162 112.91792
#
# Poissons Ratio (x) = 0.34961 0.12177
# Poissons Ratio (y) = 0.98091 0.78672
# Poissons Ratio (z) = 0.03504 0.08069
#
# Static dielectric constant tensor:
#      x y z
#    x 2.862360 0.000000 0.000000 
#    y 0.000000 2.522470 0.000000 
#    z 0.000000 0.000000 3.470690 
# 
# 
# High freq. dielectric constant tensor:
#      x y z
#    x 1.540010 0.000000 0.000000 
#    y 0.000000 1.519270 0.000000 
#    z 0.000000 0.000000 1.613980 
# 
# From -- ./inp_files/2639.got.cif
#   From: 2010.03.12/outbox.cif.g09.slc.cpg/sg46_2_cif.got.tgz:2639.got - 2010.04.14 02:56:35.
