data_PCOD8191661
_publ_section_title
;
Structure prediction by ZEFSAII (Michael W. Deem and Ramdas Pophale) SiO2 
 PCOD8191661
Probable space group: I M A 2
;
_chemical_formula_sum "Si O2"
_cell_formula_units_Z 56
_cell_length_a 8.719788
_cell_length_b 13.613687
_cell_length_c 29.180718
_cell_angle_alpha 90.000000
_cell_angle_beta 90.000000
_cell_angle_gamma 90.000000
_cell_volume 3463.998228
_symmetry_space_group_name_H-M "I M A 2"
_symmetry_group_IT_number 46
_symmetry_cell_setting 'orthorhombic'
loop_
_space_group_symop_operation_xyz
x,y,z
-x,-y,z
1/2-x,y,z
1/2+x,-y,z
1/2+x,1/2+y,1/2+z
1/2-x,1/2-y,1/2+z
-x,1/2+y,1/2+z
x,1/2-y,1/2+z
loop_
_atom_site_type_symbol
_atom_site_label
_atom_site_fract_x
_atom_site_fract_y
_atom_site_fract_z
Si Si1 0.568467 0.105238 0.338120
Si Si2 0.068181 0.890764 0.970532
Si Si3 0.070161 0.601523 0.299151
Si Si4 0.427200 0.105939 0.162243
Si Si5 0.570259 0.893423 0.061803
Si Si6 0.073429 0.793216 0.245137
Si Si7 0.932042 0.791088 0.883521
O O1 0.750000 0.107123 0.345393
O O2 0.525143 0.133373 0.286030
O O3 0.493027 0.182697 0.372510
O O4 0.500000 0.000000 0.350170
O O5 0.250000 0.895641 0.966395
O O6 0.999681 0.820481 0.932252
O O7 0.000000 0.000000 0.965780
O O8 0.017517 0.841780 0.019375
O O9 0.250000 0.592310 0.309168
O O10 0.037045 0.682023 0.260178
O O11 0.000000 0.500000 0.280946
O O12 0.988190 0.630209 0.346314
O O13 0.250000 0.086203 0.168030
O O14 0.461477 0.154022 0.111955
O O15 0.478944 0.184479 0.199725
O O16 0.500000 0.000000 0.170656
O O17 0.750000 0.898247 0.050284
O O18 0.500000 0.000000 0.066234
O O19 0.250000 0.807251 0.233057
O O20 0.750000 0.791133 0.885136
#
# Coordination Sequence:
#
# PCOD8191661 Si02
#       7
#     8   8   8   8   8   8   8
#     4  10  20  34  49  69  95 124 157 194 231 271
#     4  11  20  31  47  68  94 124 155 190 229 276
#     4  10  20  34  49  68  93 122 155 194 232 273
#     4  10  19  29  45  67  94 124 155 189 227 271
#     4   9  17  29  43  64  91 120 152 187 227 273
#     4   9  19  32  47  67  93 122 155 189 225 270
#     4  11  21  33  49  69  93 124 157 191 229 274
#
# _framework density 16.16629
#
# number of rings (size 3 to 8) (size 9 to 14) (size 15 to 20)
#    0.000    2.000    0.000    6.857    0.000    6.286 
#    0.000    0.000    0.000    0.000    0.000    1.000 
#    0.000    4.571    0.000    0.000    0.000    0.000 
#
# Total GULP energy -347138.691421 kJ/mol
# GULP energy per Si atom -12397.810408 kJ/mol
# Density = 1.612950 g / cm^3
# Si number density = 16.166290 Si / 1000 Ang^3
#
#
#
# Elastic Constant Matrix: (Units=GPa)
#
#
# Indices 1 2 3 4 5 6 
#
# 1 124.1831 47.5758 67.7327 0.0000 0.0000 0.0000
# 2 47.5758 91.6775 55.0629 0.0000 0.0000 0.0000
# 3 67.7327 55.0629 138.7051 0.0000 0.0000 0.0000
# 4 0.0000 0.0000 0.0000 19.0534 0.0000 0.0000
# 5 0.0000 0.0000 0.0000 0.0000 29.5229 0.0000
# 6 0.0000 0.0000 0.0000 0.0000 0.0000 27.1386
#
#
#
# Elastic Compliance Matrix: (Units=1/GPa)
#
#
# Indices 1 2 3 4 5 6 
#
# 1 0.011768 -0.003487 -0.004362 0.000000 0.000000 0.000000
# 2 -0.003487 0.015356 -0.004393 0.000000 0.000000 0.000000
# 3 -0.004362 -0.004393 0.011084 0.000000 0.000000 0.000000
# 4 0.000000 0.000000 0.000000 0.052484 0.000000 0.000000
# 5 0.000000 0.000000 0.000000 0.000000 0.033872 0.000000
# 6 0.000000 0.000000 0.000000 0.000000 0.000000 0.036848
#
#
# Mechanical properties :
#
#
# Convention : Reuss Voigt Hill
#
# Bulk Modulus (GPa) = 72.87170 77.25650 75.06410
# Shear Modulus (GPa) = 26.25081 27.42261 26.83671
#
# Velocity S-wave (km/s) = 4.03401 4.12306 4.07878
# Velocity P-wave (km/s) = 8.17752 8.39992 8.28946
#
# Compressibility (1/GPa) = 0.01372275
#
# Stress axis : x y z
#
# Youngs Moduli (GPa) = 84.97811 65.12134 90.22203
#
# Poissons Ratio (x) = 0.22706 0.39357
# Poissons Ratio (y) = 0.29630 0.39637
# Poissons Ratio (z) = 0.37070 0.28610
#
# Static dielectric constant tensor:
#      x y z
#    x 3.220450 0.000000 0.000000 
#    y 0.000000 2.799500 0.000000 
#    z 0.000000 0.000000 3.550120 
# 
# 
# High freq. dielectric constant tensor:
#      x y z
#    x 1.642950 0.000000 0.000000 
#    y 0.000000 1.588050 0.000000 
#    z 0.000000 0.000000 1.623540 
# 
# From -- ./inp_files/25250.got.cif
#   From: 2010.03.12/outbox.cif.g09.slc.cpg/sg46_13_cif.got.tgz:25250.got - 2010.04.14 02:56:35.
