data_PCOD8191625
_publ_section_title
;
Structure prediction by ZEFSAII (Michael W. Deem and Ramdas Pophale) SiO2 
 PCOD8191625
Probable space group: I M A 2
;
_chemical_formula_sum "Si O2"
_cell_formula_units_Z 52
_cell_length_a 13.529209
_cell_length_b 20.507366
_cell_length_c 9.363549
_cell_angle_alpha 90.000000
_cell_angle_beta 90.000000
_cell_angle_gamma 90.000000
_cell_volume 2597.902069
_symmetry_space_group_name_H-M "I M A 2"
_symmetry_group_IT_number 46
_symmetry_cell_setting 'orthorhombic'
loop_
_space_group_symop_operation_xyz
x,y,z
-x,-y,z
1/2-x,y,z
1/2+x,-y,z
1/2+x,1/2+y,1/2+z
1/2-x,1/2-y,1/2+z
-x,1/2+y,1/2+z
x,1/2-y,1/2+z
loop_
_atom_site_type_symbol
_atom_site_label
_atom_site_fract_x
_atom_site_fract_y
_atom_site_fract_z
Si Si1 0.516526 0.109135 0.198990
Si Si2 0.542624 0.070506 0.508445
Si Si3 0.639368 0.083875 0.794798
Si Si4 0.363900 0.284650 0.778210
Si Si5 0.462066 0.295023 0.052578
Si Si6 0.500000 0.500000 0.478645
Si Si7 0.133485 0.697985 0.497372
O O1 0.568091 0.076653 0.339695
O O2 0.418515 0.148152 0.240759
O O3 0.472024 0.058658 0.084826
O O4 0.602807 0.153800 0.132918
O O5 0.631261 0.081138 0.622217
O O6 0.464913 0.126791 0.550359
O O7 0.500000 0.000000 0.540499
O O8 0.750000 0.072109 0.841874
O O9 0.585280 0.024143 0.872989
O O10 0.608311 0.156103 0.853608
O O11 0.250000 0.288034 0.733183
O O12 0.423854 0.225936 0.705874
O O13 0.376025 0.270679 0.945686
O O14 0.568039 0.264113 0.002400
O O15 0.250000 0.716297 0.507204
#
# Coordination Sequence:
#
# PCOD8191625 Si02
#       7
#     8   8   8   8   8   4   8
#     4   9  20  35  61  86 113 157 195 238 294 342
#     4  11  21  38  57  82 122 155 187 235 290 347
#     4  10  21  36  59  86 116 153 193 238 292 348
#     4  10  20  37  58  85 116 150 195 242 286 340
#     4  10  21  37  61  86 115 155 192 237 296 343
#     4  10  18  38  60  78 120 152 196 242 282 346
#     4   9  19  38  62  89 115 148 198 249 291 346
#
# _framework density 20.016151000000001
#
# number of rings (size 3 to 8) (size 9 to 14) (size 15 to 20)
#    0.000    2.154    1.538    1.385    0.000    1.846 
#    0.000   13.077    0.000    0.000    0.000    0.000 
#    0.000    0.000    0.000    0.000    0.000    0.000 
#
# Total GULP energy -322127.540085 kJ/mol
# GULP energy per Si atom -12389.520772 kJ/mol
# Density = 1.997059 g / cm^3
# Si number density = 20.016151 Si / 1000 Ang^3
#
#
#
# Elastic Constant Matrix: (Units=GPa)
#
#
# Indices 1 2 3 4 5 6 
#
# 1 97.2701 36.0282 18.9467 0.0000 0.0000 0.0000
# 2 36.0282 110.8569 34.2829 0.0001 0.0000 0.0000
# 3 18.9467 34.2829 94.3793 0.0002 0.0002 0.0000
# 4 0.0000 0.0001 0.0002 24.1202 0.0000 0.0000
# 5 0.0000 0.0000 0.0002 0.0000 23.9374 0.0000
# 6 0.0000 0.0000 0.0000 0.0000 0.0000 20.7908
#
#
#
# Elastic Compliance Matrix: (Units=1/GPa)
#
#
# Indices 1 2 3 4 5 6 
#
# 1 0.011788 -0.003491 -0.001098 0.000000 0.000000 0.000000
# 2 -0.003491 0.011196 -0.003366 0.000000 0.000000 0.000000
# 3 -0.001098 -0.003366 0.012039 0.000000 0.000000 0.000000
# 4 0.000000 0.000000 0.000000 0.041459 0.000000 0.000000
# 5 0.000000 0.000000 0.000000 0.000000 0.041776 0.000000
# 6 0.000000 0.000000 0.000000 0.000000 0.000000 0.048098
#
#
# Mechanical properties :
#
#
# Convention : Reuss Voigt Hill
#
# Bulk Modulus (GPa) = 52.32463 53.44687 52.88575
# Shear Modulus (GPa) = 26.50586 27.98624 27.24605
#
# Velocity S-wave (km/s) = 3.64294 3.74328 3.69345
# Velocity P-wave (km/s) = 6.62515 6.74112 6.68339
#
# Compressibility (1/GPa) = 0.01911146
#
# Stress axis : x y z
#
# Youngs Moduli (GPa) = 84.83396 89.31521 83.06523
#
# Poissons Ratio (x) = 0.31183 0.09122
# Poissons Ratio (y) = 0.29619 0.27961
# Poissons Ratio (z) = 0.09316 0.30065
#
# Static dielectric constant tensor:
#      x y z
#    x 3.285920 0.000000 0.000000 
#    y 0.000000 3.703370 0.000000 
#    z 0.000000 0.000000 4.054030 
# 
# 
# High freq. dielectric constant tensor:
#      x y z
#    x 1.749320 0.000000 0.000000 
#    y 0.000000 1.782520 0.000000 
#    z 0.000000 0.000000 1.803560 
# 
# From -- ./inp_files/5887.got.cif
#   From: 2010.03.12/outbox.cif.g09.slc.cpg/sg46_3_cif.got.tgz:5887.got - 2010.04.14 02:56:35.
