data_PCOD8191707
_publ_section_title
;
Structure prediction by ZEFSAII (Michael W. Deem and Ramdas Pophale) SiO2 
 PCOD8191707
Probable space group: I M A 2
;
_chemical_formula_sum "Si O2"
_cell_formula_units_Z 64
_cell_length_a 9.024610
_cell_length_b 18.786083
_cell_length_c 22.844475
_cell_angle_alpha 90.000000
_cell_angle_beta 90.000000
_cell_angle_gamma 90.000000
_cell_volume 3872.985414
_symmetry_space_group_name_H-M "I M A 2"
_symmetry_group_IT_number 46
_symmetry_cell_setting 'orthorhombic'
loop_
_space_group_symop_operation_xyz
x,y,z
-x,-y,z
1/2-x,y,z
1/2+x,-y,z
1/2+x,1/2+y,1/2+z
1/2-x,1/2-y,1/2+z
-x,1/2+y,1/2+z
x,1/2-y,1/2+z
loop_
_atom_site_type_symbol
_atom_site_label
_atom_site_fract_x
_atom_site_fract_y
_atom_site_fract_z
Si Si1 0.075844 0.573409 0.043540
Si Si2 0.918585 0.727635 0.493328
Si Si3 0.080382 0.651211 0.930001
Si Si4 0.422658 0.929043 0.794379
Si Si5 0.578980 0.796935 0.608831
Si Si6 0.083741 0.212425 0.330065
Si Si7 0.586765 0.863126 0.893855
Si Si8 0.425038 0.785100 0.729789
O O1 0.250000 0.572551 0.059040
O O2 0.000000 0.500000 0.061755
O O3 0.997204 0.633688 0.081757
O O4 0.051389 0.584783 0.973560
O O5 0.750000 0.752713 0.476473
O O6 0.934117 0.729857 0.563764
O O7 0.945663 0.649158 0.463701
O O8 0.041766 0.779821 0.467985
O O9 0.250000 0.655870 0.910349
O O10 0.983303 0.648858 0.870427
O O11 0.250000 0.941869 0.792903
O O12 0.470428 0.914549 0.861913
O O13 0.471475 0.863102 0.753817
O O14 0.500000 0.000000 0.769837
O O15 0.750000 0.814624 0.622631
O O16 0.495995 0.773065 0.666937
O O17 0.250000 0.191515 0.311792
O O18 0.078692 0.284278 0.367305
O O19 0.986795 0.223165 0.271797
O O20 0.750000 0.896416 0.883985
O O21 0.250000 0.777606 0.726007
#
# Coordination Sequence:
#
# PCOD8191707 Si02
#       8
#     8   8   8   8   8   8   8   8
#     4  10  20  32  45  62  86 117 151 184 218 255
#     4   8  15  27  43  62  82 107 137 170 211 258
#     4   9  16  26  42  63  84 106 135 175 220 260
#     4  10  20  31  43  59  81 111 145 178 211 248
#     4  10  19  31  46  63  86 116 149 181 214 254
#     4   9  16  27  44  63  82 107 138 173 217 262
#     4   8  14  26  43  61  81 103 131 169 211 252
#     4  10  20  32  44  61  86 115 149 184 216 251
#
# _framework density 16.524719999999999
#
# number of rings (size 3 to 8) (size 9 to 14) (size 15 to 20)
#    0.000    2.750    0.000    3.000    0.000    7.000 
#    0.000    1.250    0.000    0.000    0.000    0.000 
#    0.000    1.000    0.000    7.250    0.000    4.000 
#
# Total GULP energy -396532.100422 kJ/mol
# GULP energy per Si atom -12391.628138 kJ/mol
# Density = 1.648711 g / cm^3
# Si number density = 16.524720 Si / 1000 Ang^3
#
#
#
# Elastic Constant Matrix: (Units=GPa)
#
#
# Indices 1 2 3 4 5 6 
#
# 1 82.5197 7.2800 39.8867 0.0000 0.0000 0.0000
# 2 7.2800 4.6937 15.7490 0.0000 0.0000 0.0000
# 3 39.8867 15.7490 108.5573 0.0000 0.0000 0.0000
# 4 0.0000 0.0000 0.0000 16.3036 0.0000 0.0000
# 5 0.0000 0.0000 0.0000 0.0000 30.8680 0.0000
# 6 0.0000 0.0000 0.0000 0.0000 0.0000 18.7999
#
#
#
# Elastic Compliance Matrix: (Units=1/GPa)
#
#
# Indices 1 2 3 4 5 6 
#
# 1 0.014939 -0.009262 -0.004145 0.000000 0.000000 0.000000
# 2 -0.009262 0.420865 -0.057654 0.000000 0.000000 0.000000
# 3 -0.004145 -0.057654 0.019099 0.000000 0.000000 0.000000
# 4 0.000000 0.000000 0.000000 0.061336 0.000000 0.000000
# 5 0.000000 0.000000 0.000000 0.000000 0.032396 0.000000
# 6 0.000000 0.000000 0.000000 0.000000 0.000000 0.053192
#
#
# Mechanical properties :
#
#
# Convention : Reuss Voigt Hill
#
# Bulk Modulus (GPa) = 3.19713 35.73357 19.46535
# Shear Modulus (GPa) = 5.89477 22.05132 13.97304
#
# Velocity S-wave (km/s) = 1.89076 3.65697 2.91105
# Velocity P-wave (km/s) = 2.58952 6.28510 4.80667
#
# Compressibility (1/GPa) = 0.31278073
#
# Stress axis : x y z
#
# Youngs Moduli (GPa) = 66.93845 2.37606 52.35874
#
# Poissons Ratio (x) = 0.02201 0.21705
# Poissons Ratio (y) = 0.61996 3.01870
# Poissons Ratio (z) = 0.27748 0.13699
#
# Static dielectric constant tensor:
#      x y z
#    x 3.236780 0.000000 0.000000 
#    y 0.000000 2.795130 0.000000 
#    z 0.000000 0.000000 3.295550 
# 
# 
# High freq. dielectric constant tensor:
#      x y z
#    x 1.653490 0.000000 0.000000 
#    y 0.000000 1.577450 0.000000 
#    z 0.000000 0.000000 1.630860 
# 
# From -- ./inp_files/21425.got.cif
#   From: 2010.03.12/outbox.cif.g09.slc.cpg/sg46_11_cif.got.tgz:21425.got - 2010.04.14 02:56:35.
