data_PCOD8191530
_publ_section_title
;
Structure prediction by ZEFSAII (Michael W. Deem and Ramdas Pophale) SiO2 
 PCOD8191530
Probable space group: I M A 2
;
_chemical_formula_sum "Si O2"
_cell_formula_units_Z 64
_cell_length_a 8.626334
_cell_length_b 30.457340
_cell_length_c 14.573883
_cell_angle_alpha 90.000000
_cell_angle_beta 90.000000
_cell_angle_gamma 90.000000
_cell_volume 3829.071884
_symmetry_space_group_name_H-M "I M A 2"
_symmetry_group_IT_number 46
_symmetry_cell_setting 'orthorhombic'
loop_
_space_group_symop_operation_xyz
x,y,z
-x,-y,z
1/2-x,y,z
1/2+x,-y,z
1/2+x,1/2+y,1/2+z
1/2-x,1/2-y,1/2+z
-x,1/2+y,1/2+z
x,1/2-y,1/2+z
loop_
_atom_site_type_symbol
_atom_site_label
_atom_site_fract_x
_atom_site_fract_y
_atom_site_fract_z
Si Si1 0.068333 0.268193 0.502320
Si Si2 0.571705 0.324429 0.014231
Si Si3 0.569596 0.868973 0.681847
Si Si4 0.432313 0.546132 0.120922
Si Si5 0.569516 0.702332 0.695503
Si Si6 0.569881 0.635465 0.841332
Si Si7 0.069407 0.454973 0.922098
Si Si8 0.433686 0.211836 0.798496
O O1 0.250000 0.255198 0.500255
O O2 0.029111 0.300836 0.587216
O O3 0.017850 0.289179 0.405561
O O4 0.964691 0.226447 0.523991
O O5 0.750000 0.333732 0.039895
O O6 0.537990 0.338746 0.911247
O O7 0.458830 0.351691 0.079545
O O8 0.750000 0.877050 0.698146
O O9 0.483975 0.915846 0.691929
O O10 0.500532 0.832948 0.752933
O O11 0.500000 0.500000 0.155956
O O12 0.250000 0.542674 0.118378
O O13 0.491142 0.557438 0.018569
O O14 0.750000 0.709509 0.708163
O O15 0.521906 0.655928 0.742462
O O16 0.495042 0.745059 0.747247
O O17 0.750000 0.645085 0.863790
O O18 0.537133 0.583297 0.847330
O O19 0.250000 0.461566 0.941147
O O20 0.000000 0.500000 0.881318
O O21 0.250000 0.211395 0.787066
#
# Coordination Sequence:
#
# PCOD8191530 Si02
#       8
#     8   8   8   8   8   8   8   8
#     4  10  18  33  51  67  94 128 165 204 240 281
#     4  12  22  29  43  69  98 129 163 199 240 284
#     4  11  20  33  49  69  96 130 167 200 238 285
#     4  11  21  33  49  72  99 127 159 194 240 289
#     4   9  16  28  49  73  92 121 164 205 235 278
#     4  10  19  32  49  68  93 128 166 196 236 281
#     4  10  19  30  47  68  95 128 158 196 238 284
#     4   9  17  28  49  74  92 123 164 202 240 281
#
# _framework density 16.714234000000001
#
# number of rings (size 3 to 8) (size 9 to 14) (size 15 to 20)
#    0.000    1.750    3.750    3.750    0.000    0.500 
#    0.000    3.125    0.000    0.000    0.000    0.875 
#    0.000    2.000    0.000    0.000    0.000    0.500 
#
# Total GULP energy -396651.750234 kJ/mol
# GULP energy per Si atom -12395.367195 kJ/mol
# Density = 1.667619 g / cm^3
# Si number density = 16.714234 Si / 1000 Ang^3
#
#
#
# Elastic Constant Matrix: (Units=GPa)
#
#
# Indices 1 2 3 4 5 6 
#
# 1 62.0575 28.8336 12.3268 0.0000 0.0000 0.0000
# 2 28.8336 121.9225 41.8886 -0.0004 0.0000 0.0000
# 3 12.3268 41.8886 86.2195 -0.0010 -0.0003 -0.0001
# 4 0.0000 -0.0004 -0.0010 26.5434 -0.0001 -0.0001
# 5 0.0000 0.0000 -0.0003 -0.0001 8.0845 -0.0001
# 6 0.0000 0.0000 -0.0001 -0.0001 -0.0001 23.5065
#
#
#
# Elastic Compliance Matrix: (Units=1/GPa)
#
#
# Indices 1 2 3 4 5 6 
#
# 1 0.018130 -0.004078 -0.000611 0.000000 0.000000 0.000000
# 2 -0.004078 0.010762 -0.004646 0.000000 0.000000 0.000000
# 3 -0.000611 -0.004646 0.013943 0.000000 0.000001 0.000000
# 4 0.000000 0.000000 0.000000 0.037674 0.000001 0.000000
# 5 0.000000 0.000000 0.000001 0.000001 0.123694 0.000001
# 6 0.000000 0.000000 0.000000 0.000000 0.000001 0.042541
#
#
# Mechanical properties :
#
#
# Convention : Reuss Voigt Hill
#
# Bulk Modulus (GPa) = 41.37985 48.47749 44.92867
# Shear Modulus (GPa) = 18.28363 24.10357 21.19360
#
# Velocity S-wave (km/s) = 3.31100 3.80162 3.56476
# Velocity P-wave (km/s) = 6.27917 6.95244 6.62436
#
# Compressibility (1/GPa) = 0.02416635
#
# Stress axis : x y z
#
# Youngs Moduli (GPa) = 55.15698 92.91588 71.72186
#
# Poissons Ratio (x) = 0.37888 0.04382
# Poissons Ratio (y) = 0.22491 0.33321
# Poissons Ratio (z) = 0.03370 0.43167
#
# Static dielectric constant tensor:
#      x y z
#    x 2.964090 0.000000 0.000000 
#    y 0.000000 3.361360 0.000000 
#    z 0.000000 0.000000 3.124330 
# 
# 
# High freq. dielectric constant tensor:
#      x y z
#    x 1.628120 0.000000 0.000000 
#    y 0.000000 1.641610 0.000000 
#    z 0.000000 0.000000 1.612640 
# 
# From -- ./inp_files/14737.got.cif
#   From: 2010.03.12/outbox.cif.g09.slc.cpg/sg46_8_cif.got.tgz:14737.got - 2010.04.14 02:56:35.
