data_PCOD8191919
_publ_section_title
;
Structure prediction by ZEFSAII (Michael W. Deem and Ramdas Pophale) SiO2 
 PCOD8191919
Probable space group: I M A 2
;
_chemical_formula_sum "Si O2"
_cell_formula_units_Z 64
_cell_length_a 8.677242
_cell_length_b 23.209184
_cell_length_c 18.932494
_cell_angle_alpha 90.000000
_cell_angle_beta 90.000000
_cell_angle_gamma 90.000000
_cell_volume 3812.847269
_symmetry_space_group_name_H-M "I M A 2"
_symmetry_group_IT_number 46
_symmetry_cell_setting 'orthorhombic'
loop_
_space_group_symop_operation_xyz
x,y,z
-x,-y,z
1/2-x,y,z
1/2+x,-y,z
1/2+x,1/2+y,1/2+z
1/2-x,1/2-y,1/2+z
-x,1/2+y,1/2+z
x,1/2-y,1/2+z
loop_
_atom_site_type_symbol
_atom_site_label
_atom_site_fract_x
_atom_site_fract_y
_atom_site_fract_z
Si Si1 0.927888 0.661707 0.028810
Si Si2 0.428088 0.246780 0.313221
Si Si3 0.068426 0.061606 0.168810
Si Si4 0.928828 0.268045 0.452936
Si Si5 0.567220 0.379262 0.805667
Si Si6 0.573147 0.736923 0.157200
Si Si7 0.072056 0.841953 0.083322
Si Si8 0.569954 0.438382 0.949692
O O1 0.750000 0.647716 0.016888
O O2 0.963254 0.681120 0.109315
O O3 0.974831 0.712437 0.975665
O O4 0.023317 0.604379 0.012908
O O5 0.250000 0.246960 0.334412
O O6 0.522902 0.282009 0.372574
O O7 0.483887 0.181637 0.305490
O O8 0.456008 0.279275 0.238773
O O9 0.250000 0.057913 0.182339
O O10 0.983707 0.084349 0.238299
O O11 0.033182 0.103599 0.102851
O O12 0.000000 0.000000 0.148620
O O13 0.750000 0.251687 0.457695
O O14 0.966059 0.322621 0.502967
O O15 0.750000 0.369708 0.804994
O O16 0.511475 0.413893 0.874722
O O17 0.750000 0.757155 0.145310
O O18 0.462357 0.789257 0.135994
O O19 0.250000 0.859164 0.092193
O O20 0.500000 0.500000 0.965607
O O21 0.750000 0.445571 0.948640
#
# Coordination Sequence:
#
# PCOD8191919 Si02
#       8
#     8   8   8   8   8   8   8   8
#     4  10  19  33  52  72  98 131 169 211 254 298
#     4  11  20  31  51  77 105 138 171 206 252 303
#     4  12  24  37  53  73 101 136 177 215 253 303
#     4  10  20  33  50  74 103 133 169 210 254 304
#     4  11  22  35  50  72 104 138 175 213 247 293
#     4   9  19  33  50  74 101 131 167 208 253 304
#     4  10  20  34  52  73  99 133 171 213 256 298
#     4  11  23  36  51  71  99 134 175 212 249 297
#
# _framework density 16.785357000000001
#
# number of rings (size 3 to 8) (size 9 to 14) (size 15 to 20)
#    0.000    1.500    2.500    3.750    0.000    5.000 
#    0.000    0.000    0.000    0.000    0.000    0.875 
#    0.000    6.000    0.000    0.000    0.000    0.000 
#
# Total GULP energy -396886.075696 kJ/mol
# GULP energy per Si atom -12402.689866 kJ/mol
# Density = 1.674715 g / cm^3
# Si number density = 16.785357 Si / 1000 Ang^3
#
#
#
# Elastic Constant Matrix: (Units=GPa)
#
#
# Indices 1 2 3 4 5 6 
#
# 1 34.6504 15.3165 21.3341 0.0000 0.0000 0.0000
# 2 15.3165 79.7050 48.2758 0.0000 0.0000 0.0000
# 3 21.3341 48.2758 111.7622 0.0002 0.0000 0.0000
# 4 0.0000 0.0000 0.0002 -3.1675 0.0000 0.0000
# 5 0.0000 0.0000 0.0000 0.0000 26.3115 0.0000
# 6 0.0000 0.0000 0.0000 0.0000 0.0000 26.3607
#
#
#
# Elastic Compliance Matrix: (Units=1/GPa)
#
#
# Indices 1 2 3 4 5 6 
#
# 1 0.033394 -0.003462 -0.004879 -0.000001 0.000000 0.000000
# 2 -0.003462 0.017351 -0.006834 0.000000 0.000000 0.000000
# 3 -0.004879 -0.006834 0.012831 0.000001 0.000000 0.000000
# 4 -0.000001 0.000000 0.000001 -0.315711 0.000000 0.000000
# 5 0.000000 0.000000 0.000000 0.000000 0.038006 0.000000
# 6 0.000000 0.000000 0.000000 0.000000 0.000000 0.037935
#
#
# Mechanical properties :
#
#
# Convention : Reuss Voigt Hill
#
# Bulk Modulus (GPa) = 30.09716 43.99671 37.04693
# Shear Modulus (GPa) = -37.10051 19.31369 -8.89341
#
# Velocity S-wave (km/s) = -4.70647 3.39577 -2.30430
# Velocity P-wave (km/s) = 3.40073 6.45316 3.87803
#
# Compressibility (1/GPa) = 0.03322573
#
# Stress axis : x y z
#
# Youngs Moduli (GPa) = 29.94546 57.63493 77.93753
#
# Poissons Ratio (x) = 0.19953 0.38027
# Poissons Ratio (y) = 0.10367 0.53261
# Poissons Ratio (z) = 0.14611 0.39386
#
# Static dielectric constant tensor:
#      x y z
#    x 3.284290 0.000000 0.000000 
#    y 0.000000 3.036280 0.000000 
#    z 0.000000 0.000000 3.401890 
# 
# 
# High freq. dielectric constant tensor:
#      x y z
#    x 1.664620 0.000000 0.000000 
#    y 0.000000 1.615820 0.000000 
#    z 0.000000 0.000000 1.645280 
# 
# From -- ./inp_files/18565.got.cif
#   From: 2010.03.12/outbox.cif.g09.slc.cpg/sg46_10_cif.got.tgz:18565.got - 2010.04.14 02:56:35.
