data_PCOD8191418
_publ_section_title
;
Structure prediction by ZEFSAII (Michael W. Deem and Ramdas Pophale) SiO2 
 PCOD8191418
Probable space group: I M A 2
;
_chemical_formula_sum "Si O2"
_cell_formula_units_Z 64
_cell_length_a 9.303004
_cell_length_b 22.794324
_cell_length_c 19.097415
_cell_angle_alpha 90.000000
_cell_angle_beta 90.000000
_cell_angle_gamma 90.000000
_cell_volume 4049.715464
_symmetry_space_group_name_H-M "I M A 2"
_symmetry_group_IT_number 46
_symmetry_cell_setting 'orthorhombic'
loop_
_space_group_symop_operation_xyz
x,y,z
-x,-y,z
1/2-x,y,z
1/2+x,-y,z
1/2+x,1/2+y,1/2+z
1/2-x,1/2-y,1/2+z
-x,1/2+y,1/2+z
x,1/2-y,1/2+z
loop_
_atom_site_type_symbol
_atom_site_label
_atom_site_fract_x
_atom_site_fract_y
_atom_site_fract_z
Si Si1 0.418445 0.119468 0.664060
Si Si2 0.084360 0.057997 0.523526
Si Si3 0.913655 0.157256 0.888099
Si Si4 0.080550 0.439718 0.310001
Si Si5 0.415735 0.740264 0.166422
Si Si6 0.583874 0.831086 0.432875
Si Si7 0.585274 0.234278 0.013064
Si Si8 0.585696 0.279896 0.813593
O O1 0.250000 0.131626 0.657803
O O2 0.475730 0.084610 0.596270
O O3 0.457755 0.081634 0.732093
O O4 0.492880 0.181773 0.668021
O O5 0.250000 0.041402 0.533167
O O6 0.061441 0.103170 0.460090
O O7 0.000000 0.000000 0.502886
O O8 0.750000 0.134680 0.879174
O O9 0.946414 0.175146 0.968957
O O10 0.940941 0.213991 0.840281
O O11 0.024203 0.107002 0.866551
O O12 0.250000 0.448108 0.320502
O O13 0.000000 0.500000 0.324609
O O14 0.250000 0.721172 0.173696
O O15 0.458133 0.781920 0.231715
O O16 0.443289 0.777050 0.095287
O O17 0.750000 0.814423 0.426710
O O18 0.514032 0.787402 0.488734
O O19 0.512397 0.825366 0.356364
O O20 0.750000 0.253531 0.999030
O O21 0.750000 0.298817 0.825268
#
# Coordination Sequence:
#
# PCOD8191418 Si02
#       8
#     8   8   8   8   8   8   8   8
#     4  10  20  33  45  66  98 128 162 199 231 272
#     4  10  21  34  47  66  93 127 165 200 235 276
#     4   9  17  31  47  67  95 122 154 197 235 275
#     4  11  22  33  48  67  92 128 166 199 236 278
#     4  10  18  30  50  73  96 128 161 191 233 283
#     4  10  19  31  47  68  95 125 158 198 239 278
#     4   9  18  31  49  71  95 124 157 193 237 284
#     4   9  18  31  48  70  96 124 158 195 234 282
#
# _framework density 15.80358
#
# number of rings (size 3 to 8) (size 9 to 14) (size 15 to 20)
#    0.000    2.250    2.500    1.875    0.000    4.500 
#    0.000    0.000    0.000    0.000    0.000    0.875 
#    0.000    2.000    0.000    0.000    0.000    0.000 
#
# Total GULP energy -396802.854972 kJ/mol
# GULP energy per Si atom -12400.089218 kJ/mol
# Density = 1.576761 g / cm^3
# Si number density = 15.803580 Si / 1000 Ang^3
#
#
#
# Elastic Constant Matrix: (Units=GPa)
#
#
# Indices 1 2 3 4 5 6 
#
# 1 73.8289 49.6777 50.7390 0.0000 0.0000 0.0000
# 2 49.6777 70.9021 50.0481 0.0000 0.0000 0.0000
# 3 50.7390 50.0481 128.8658 0.0000 0.0000 0.0000
# 4 0.0000 0.0000 0.0000 19.9839 0.0000 0.0000
# 5 0.0000 0.0000 0.0000 0.0000 22.9565 0.0000
# 6 0.0000 0.0000 0.0000 0.0000 0.0000 27.7189
#
#
#
# Elastic Compliance Matrix: (Units=1/GPa)
#
#
# Indices 1 2 3 4 5 6 
#
# 1 0.027476 -0.016001 -0.004604 0.000000 0.000000 0.000000
# 2 -0.016001 0.028750 -0.004865 0.000000 0.000000 0.000000
# 3 -0.004604 -0.004865 0.011462 0.000000 0.000000 0.000000
# 4 0.000000 0.000000 0.000000 0.050040 0.000000 0.000000
# 5 0.000000 0.000000 0.000000 0.000000 0.043561 0.000000
# 6 0.000000 0.000000 0.000000 0.000000 0.000000 0.036076
#
#
# Mechanical properties :
#
#
# Convention : Reuss Voigt Hill
#
# Bulk Modulus (GPa) = 59.71242 63.83626 61.77434
# Shear Modulus (GPa) = 19.69377 22.34065 21.01721
#
# Velocity S-wave (km/s) = 3.53393 3.76393 3.65074
# Velocity P-wave (km/s) = 7.38361 7.70524 7.54614
#
# Compressibility (1/GPa) = 0.01674694
#
# Stress axis : x y z
#
# Youngs Moduli (GPa) = 36.39602 34.78314 87.24332
#
# Poissons Ratio (x) = 0.55657 0.40164
# Poissons Ratio (y) = 0.58238 0.42447
# Poissons Ratio (z) = 0.16755 0.16923
#
# Static dielectric constant tensor:
#      x y z
#    x 3.048960 0.000000 0.000000 
#    y 0.000000 2.725650 0.000000 
#    z 0.000000 0.000000 3.318560 
# 
# 
# High freq. dielectric constant tensor:
#      x y z
#    x 1.612720 0.000000 0.000000 
#    y 0.000000 1.572810 0.000000 
#    z 0.000000 0.000000 1.610150 
# 
# From -- ./inp_files/21417.got.cif
#   From: 2010.03.12/outbox.cif.g09.slc.cpg/sg46_11_cif.got.tgz:21417.got - 2010.04.14 02:56:35.
