data_PCOD8191516
_publ_section_title
;
Structure prediction by ZEFSAII (Michael W. Deem and Ramdas Pophale) SiO2 
 PCOD8191516
Probable space group: I M A 2
;
_chemical_formula_sum "Si O2"
_cell_formula_units_Z 48
_cell_length_a 10.031200
_cell_length_b 8.916952
_cell_length_c 28.011881
_cell_angle_alpha 90.000000
_cell_angle_beta 90.000000
_cell_angle_gamma 90.000000
_cell_volume 2505.599138
_symmetry_space_group_name_H-M "I M A 2"
_symmetry_group_IT_number 46
_symmetry_cell_setting 'orthorhombic'
loop_
_space_group_symop_operation_xyz
x,y,z
-x,-y,z
1/2-x,y,z
1/2+x,-y,z
1/2+x,1/2+y,1/2+z
1/2-x,1/2-y,1/2+z
-x,1/2+y,1/2+z
x,1/2-y,1/2+z
loop_
_atom_site_type_symbol
_atom_site_label
_atom_site_fract_x
_atom_site_fract_y
_atom_site_fract_z
Si Si1 0.095687 0.360687 0.309370
Si Si2 0.250000 0.330396 0.067383
Si Si3 0.594291 0.859638 0.220922
Si Si4 0.502688 0.673415 0.131859
Si Si5 0.250000 0.330315 0.469970
Si Si6 0.007029 0.178381 0.910506
Si Si7 0.750000 0.185968 0.963902
Si Si8 0.250000 0.675970 0.068253
O O1 0.250000 0.414014 0.318539
O O2 0.091589 0.245176 0.266649
O O3 0.037076 0.274621 0.355942
O O4 0.000000 0.500000 0.296551
O O5 0.377081 0.289936 0.097661
O O6 0.250000 0.503381 0.052096
O O7 0.250000 0.217817 0.024008
O O8 0.750000 0.901575 0.209245
O O9 0.520420 0.774244 0.178183
O O10 0.500000 0.000000 0.232241
O O11 0.500000 0.500000 0.148037
O O12 0.373572 0.718937 0.101681
O O13 0.377467 0.259623 0.444339
O O14 0.250000 0.508016 0.465730
O O15 0.873917 0.248614 0.933211
O O16 0.000000 0.000000 0.911286
O O17 0.750000 0.235488 0.018805
#
# Coordination Sequence:
#
# PCOD8191516 Si02
#       8
#     8   4   8   8   4   8   4   4
#     4  10  21  39  64  91 118 154 200 244 291 348
#     4  10  20  36  57  82 115 153 196 245 295 344
#     4  11  25  43  61  89 123 153 191 243 302 358
#     4  10  21  40  62  85 114 157 200 246 292 346
#     4  10  18  32  55  78 113 153 190 233 293 344
#     4   9  18  33  55  84 112 149 195 241 283 335
#     4  10  20  34  53  84 117 151 194 245 287 344
#     4  10  22  36  57  88 117 149 202 247 287 348
#
# _framework density 19.157095999999999
#
# number of rings (size 3 to 8) (size 9 to 14) (size 15 to 20)
#    0.000    2.000    1.667    1.500    4.667    2.000 
#    0.000    1.667    0.000    0.000    0.000    0.000 
#    0.000    0.000    0.000    0.000    0.000    0.000 
#
# Total GULP energy -297497.418182 kJ/mol
# GULP energy per Si atom -12395.725758 kJ/mol
# Density = 1.911349 g / cm^3
# Si number density = 19.157096 Si / 1000 Ang^3
#
#
#
# Elastic Constant Matrix: (Units=GPa)
#
#
# Indices 1 2 3 4 5 6 
#
# 1 181.3266 40.1057 72.3556 0.0000 0.0000 0.0000
# 2 40.1057 43.5114 33.5190 0.0000 0.0000 0.0000
# 3 72.3556 33.5190 122.4039 0.0000 0.0000 0.0000
# 4 0.0000 0.0000 0.0000 28.6278 0.0000 0.0000
# 5 0.0000 0.0000 0.0000 0.0000 51.3884 0.0000
# 6 0.0000 0.0000 0.0000 0.0000 0.0000 22.6541
#
#
#
# Elastic Compliance Matrix: (Units=1/GPa)
#
#
# Indices 1 2 3 4 5 6 
#
# 1 0.007901 -0.004670 -0.003392 0.000000 0.000000 0.000000
# 2 -0.004670 0.031887 -0.005971 0.000000 0.000000 0.000000
# 3 -0.003392 -0.005971 0.011810 0.000000 0.000000 0.000000
# 4 0.000000 0.000000 0.000000 0.034931 0.000000 0.000000
# 5 0.000000 0.000000 0.000000 0.000000 0.019460 0.000000
# 6 0.000000 0.000000 0.000000 0.000000 0.000000 0.044142
#
#
# Mechanical properties :
#
#
# Convention : Reuss Voigt Hill
#
# Bulk Modulus (GPa) = 42.49570 71.02250 56.75910
# Shear Modulus (GPa) = 26.87577 33.95148 30.41362
#
# Velocity S-wave (km/s) = 3.74961 4.21440 3.98878
# Velocity P-wave (km/s) = 6.40133 7.79973 7.13487
#
# Compressibility (1/GPa) = 0.02353179
#
# Stress axis : x y z
#
# Youngs Moduli (GPa) = 126.56229 31.36078 84.67524
#
# Poissons Ratio (x) = 0.14645 0.28720
# Poissons Ratio (y) = 0.59104 0.50563
# Poissons Ratio (z) = 0.42927 0.18727
#
# Static dielectric constant tensor:
#      x y z
#    x 3.994450 0.000000 0.000000 
#    y 0.000000 3.180220 0.000000 
#    z 0.000000 0.000000 3.611850 
# 
# 
# High freq. dielectric constant tensor:
#      x y z
#    x 1.769390 0.000000 0.000000 
#    y 0.000000 1.709630 0.000000 
#    z 0.000000 0.000000 1.761650 
# 
# From -- ./inp_files/23467.got.cif
#   From: 2010.03.12/outbox.cif.g09.slc.cpg/sg46_12_cif.got.tgz:23467.got - 2010.04.14 02:56:35.
