data_PCOD8191534
_publ_section_title
;
Structure prediction by ZEFSAII (Michael W. Deem and Ramdas Pophale) SiO2 
 PCOD8191534
Probable space group: I M A 2
;
_chemical_formula_sum "Si O2"
_cell_formula_units_Z 64
_cell_length_a 9.006261
_cell_length_b 20.802697
_cell_length_c 19.543569
_cell_angle_alpha 90.000000
_cell_angle_beta 90.000000
_cell_angle_gamma 90.000000
_cell_volume 3661.575963
_symmetry_space_group_name_H-M "I M A 2"
_symmetry_group_IT_number 46
_symmetry_cell_setting 'orthorhombic'
loop_
_space_group_symop_operation_xyz
x,y,z
-x,-y,z
1/2-x,y,z
1/2+x,-y,z
1/2+x,1/2+y,1/2+z
1/2-x,1/2-y,1/2+z
-x,1/2+y,1/2+z
x,1/2-y,1/2+z
loop_
_atom_site_type_symbol
_atom_site_label
_atom_site_fract_x
_atom_site_fract_y
_atom_site_fract_z
Si Si1 0.925344 0.686334 0.741210
Si Si2 0.076707 0.237128 0.379868
Si Si3 0.920728 0.130459 0.879439
Si Si4 0.421398 0.256530 0.030988
Si Si5 0.923319 0.065717 0.741558
Si Si6 0.073137 0.064815 0.157705
Si Si7 0.921994 0.816895 0.670303
Si Si8 0.576203 0.376841 0.532892
O O1 0.750000 0.683290 0.732733
O O2 0.976737 0.686996 0.821207
O O3 0.989735 0.623037 0.704588
O O4 0.982420 0.751324 0.704771
O O5 0.250000 0.246143 0.371810
O O6 0.035055 0.213635 0.456550
O O7 0.011976 0.306296 0.362501
O O8 0.750000 0.151165 0.876608
O O9 0.958686 0.077911 0.821750
O O10 0.959847 0.103005 0.954536
O O11 0.250000 0.232714 0.031386
O O12 0.445351 0.310742 0.088333
O O13 0.524894 0.195954 0.046703
O O14 0.750000 0.059112 0.727830
O O15 0.982781 0.123365 0.695171
O O16 0.000000 0.000000 0.718524
O O17 0.250000 0.058981 0.158643
O O18 0.016856 0.075195 0.080309
O O19 0.000000 0.000000 0.187089
O O20 0.750000 0.828667 0.688822
O O21 0.750000 0.382764 0.549775
#
# Coordination Sequence:
#
# PCOD8191534 Si02
#       8
#     8   8   8   8   8   8   8   8
#     4   9  17  31  53  77 103 132 170 213 254 299
#     4   9  16  29  52  78 100 133 172 206 249 302
#     4   9  19  33  48  72 105 135 168 209 250 295
#     4   9  17  30  51  78 106 134 170 210 253 301
#     4  11  23  37  52  74 103 138 175 213 257 306
#     4  11  22  37  52  73 104 138 175 215 257 304
#     4  10  18  33  54  78 104 134 170 214 258 301
#     4  10  19  32  50  74 105 139 172 207 249 300
#
# _framework density 17.478812000000001
#
# number of rings (size 3 to 8) (size 9 to 14) (size 15 to 20)
#    0.000    2.250    2.500    1.125    0.000    2.000 
#    0.000    2.500    0.000    0.750    0.000    1.750 
#    0.000    0.000    0.000    0.000    0.000    0.000 
#
# Total GULP energy -396707.509051 kJ/mol
# GULP energy per Si atom -12397.109658 kJ/mol
# Density = 1.743903 g / cm^3
# Si number density = 17.478812 Si / 1000 Ang^3
#
#
#
# Elastic Constant Matrix: (Units=GPa)
#
#
# Indices 1 2 3 4 5 6 
#
# 1 57.6918 41.1458 34.3657 0.0000 0.0000 0.0000
# 2 41.1458 119.3225 64.5744 0.0000 0.0000 0.0000
# 3 34.3657 64.5744 107.5278 0.0000 0.0000 0.0000
# 4 0.0000 0.0000 0.0000 22.2620 0.0000 0.0000
# 5 0.0000 0.0000 0.0000 0.0000 20.2753 0.0000
# 6 0.0000 0.0000 0.0000 0.0000 0.0000 27.3880
#
#
#
# Elastic Compliance Matrix: (Units=1/GPa)
#
#
# Indices 1 2 3 4 5 6 
#
# 1 0.024104 -0.006137 -0.004018 0.000000 0.000000 0.000000
# 2 -0.006137 0.013978 -0.006433 0.000000 0.000000 0.000000
# 3 -0.004018 -0.006433 0.014447 0.000000 0.000000 0.000000
# 4 0.000000 0.000000 0.000000 0.044920 0.000000 0.000000
# 5 0.000000 0.000000 0.000000 0.000000 0.049321 0.000000
# 6 0.000000 0.000000 0.000000 0.000000 0.000000 0.036512
#
#
# Mechanical properties :
#
#
# Convention : Reuss Voigt Hill
#
# Bulk Modulus (GPa) = 51.67126 62.74598 57.20862
# Shear Modulus (GPa) = 22.43056 23.61550 23.02303
#
# Velocity S-wave (km/s) = 3.58620 3.67971 3.63326
# Velocity P-wave (km/s) = 6.83917 7.35050 7.09944
#
# Compressibility (1/GPa) = 0.01935312
#
# Stress axis : x y z
#
# Youngs Moduli (GPa) = 41.48691 71.53897 69.21706
#
# Poissons Ratio (x) = 0.43906 0.27811
# Poissons Ratio (y) = 0.25462 0.44528
# Poissons Ratio (z) = 0.16669 0.46021
#
# Static dielectric constant tensor:
#      x y z
#    x 3.167440 0.000000 0.000000 
#    y 0.000000 3.060710 0.000000 
#    z 0.000000 0.000000 3.650010 
# 
# 
# High freq. dielectric constant tensor:
#      x y z
#    x 1.667710 0.000000 0.000000 
#    y 0.000000 1.645280 0.000000 
#    z 0.000000 0.000000 1.684560 
# 
# From -- ./inp_files/21275.got.cif
#   From: 2010.03.12/outbox.cif.g09.slc.cpg/sg46_11_cif.got.tgz:21275.got - 2010.04.14 02:56:35.
