data_PCOD8191031
_publ_section_title
;
Structure prediction by ZEFSAII (Michael W. Deem and Ramdas Pophale) SiO2 
 PCOD8191031
Probable space group: I B A 2
;
_chemical_formula_sum "Si O2"
_cell_formula_units_Z 60
_cell_length_a 8.693395
_cell_length_b 22.731549
_cell_length_c 13.920571
_cell_angle_alpha 90.000000
_cell_angle_beta 90.000000
_cell_angle_gamma 90.000000
_cell_volume 2750.904373
_symmetry_space_group_name_H-M "I B A 2"
_symmetry_group_IT_number 45
_symmetry_cell_setting 'orthorhombic'
loop_
_space_group_symop_operation_xyz
x,y,z
-x,-y,z
-x,y,1/2+z
x,-y,1/2+z
1/2+x,1/2+y,1/2+z
1/2-x,1/2-y,1/2+z
1/2-x,1/2+y,z
1/2+x,1/2-y,z
loop_
_atom_site_type_symbol
_atom_site_label
_atom_site_fract_x
_atom_site_fract_y
_atom_site_fract_z
Si Si1 0.346686 0.343074 0.580500
Si Si2 0.944352 0.162065 0.919782
Si Si3 0.000000 0.500000 0.556545
Si Si4 0.376658 0.100057 0.416544
Si Si5 0.545273 0.206317 0.491350
Si Si6 0.082783 0.687488 0.684068
Si Si7 0.866152 0.417327 0.199724
Si Si8 0.932124 0.201988 0.230976
O O1 0.425937 0.370487 0.485110
O O2 0.205314 0.302756 0.547566
O O3 0.289893 0.387443 0.662147
O O4 0.486865 0.307299 0.628206
O O5 0.784053 0.131108 0.941835
O O6 0.944981 0.232457 0.936517
O O7 0.994814 0.157625 0.808923
O O8 0.083018 0.549087 0.491919
O O9 0.124837 0.473385 0.629961
O O10 0.508350 0.151190 0.419069
O O11 0.358554 0.068564 0.312840
O O12 0.410620 0.206664 0.571839
O O13 0.251426 0.691130 0.728826
O O14 0.019311 0.621489 0.685555
O O15 0.968702 0.728640 0.749116
#
# Coordination Sequence:
#
# PCOD8191031 Si02
#       8
#     8   8   4   8   8   8   8   8
#     4  11  23  43  62  98 141 178 229 288 349 421
#     4  12  26  39  70 105 153 186 229 293 368 439
#     4  12  26  48  80  96 136 194 254 302 352 412
#     4  12  25  47  73 110 136 194 250 288 365 441
#     4  11  23  41  69 103 148 190 229 292 361 438
#     4  11  23  40  65  99 149 188 233 286 358 426
#     4  11  25  47  71  98 139 183 239 304 344 420
#     4  12  25  39  65 102 143 195 225 284 366 437
#
# _framework density 21.811008999999999
#
# number of rings (size 3 to 8) (size 9 to 14) (size 15 to 20)
#    0.000    0.533    5.333    4.400    5.600    0.000 
#    0.000    0.667    0.000    1.600    0.000    0.000 
#    0.000    0.000    0.000    0.000    0.000    0.000 
#
# Total GULP energy -371782.135912 kJ/mol
# GULP energy per Si atom -12392.737864 kJ/mol
# Density = 2.176137 g / cm^3
# Si number density = 21.811009 Si / 1000 Ang^3
#
#
#
# Elastic Constant Matrix: (Units=GPa)
#
#
# Indices 1 2 3 4 5 6 
#
# 1 117.5970 39.8061 30.0867 0.0000 0.0000 0.0000
# 2 39.8061 93.8280 37.3288 -0.0002 0.0000 0.0000
# 3 30.0867 37.3288 123.1305 -0.0008 0.0002 0.0000
# 4 0.0000 -0.0002 -0.0008 36.3898 0.0001 0.0000
# 5 0.0000 0.0000 0.0002 0.0001 35.5597 0.0000
# 6 0.0000 0.0000 0.0000 0.0000 0.0000 13.6850
#
#
#
# Elastic Compliance Matrix: (Units=1/GPa)
#
#
# Indices 1 2 3 4 5 6 
#
# 1 0.010118 -0.003763 -0.001332 0.000000 0.000000 0.000000
# 2 -0.003763 0.013519 -0.003179 0.000000 0.000000 0.000000
# 3 -0.001332 -0.003179 0.009411 0.000000 0.000000 0.000000
# 4 0.000000 0.000000 0.000000 0.027480 0.000000 0.000000
# 5 0.000000 0.000000 0.000000 0.000000 0.028122 0.000000
# 6 0.000000 0.000000 0.000000 0.000000 0.000000 0.073073
#
#
# Mechanical properties :
#
#
# Convention : Reuss Voigt Hill
#
# Bulk Modulus (GPa) = 60.60328 60.99986 60.80157
# Shear Modulus (GPa) = 27.20805 32.28250 29.74528
#
# Velocity S-wave (km/s) = 3.53575 3.85138 3.69694
# Velocity P-wave (km/s) = 6.67193 6.91417 6.79413
#
# Compressibility (1/GPa) = 0.01650076
#
# Stress axis : x y z
#
# Youngs Moduli (GPa) = 98.83408 73.97060 106.26310
#
# Poissons Ratio (x) = 0.27833 0.14150
# Poissons Ratio (y) = 0.37189 0.33781
# Poissons Ratio (z) = 0.13160 0.23515
#
# Static dielectric constant tensor:
#      x y z
#    x 3.815160 0.000000 0.000000 
#    y 0.000000 3.752990 0.000000 
#    z 0.000000 0.000000 4.254130 
# 
# 
# High freq. dielectric constant tensor:
#      x y z
#    x 1.853760 0.000000 0.000000 
#    y 0.000000 1.818360 0.000000 
#    z 0.000000 0.000000 1.884630 
# 
# From -- ./inp_files/5809.got.cif
#   From: 2010.03.12/outbox.cif.g09.slc.cpg/sg45_3_cif.got.tgz:5809.got - 2010.04.14 02:50:11.
