data_PCOD8191997
_publ_section_title
;
Structure prediction by ZEFSAII (Michael W. Deem and Ramdas Pophale) SiO2 
 PCOD8191997
Probable space group: I M A 2
;
_chemical_formula_sum "Si O2"
_cell_formula_units_Z 56
_cell_length_a 16.441738
_cell_length_b 5.016042
_cell_length_c 31.209194
_cell_angle_alpha 90.000000
_cell_angle_beta 90.000000
_cell_angle_gamma 90.000000
_cell_volume 2573.898641
_symmetry_space_group_name_H-M "I M A 2"
_symmetry_group_IT_number 46
_symmetry_cell_setting 'orthorhombic'
loop_
_space_group_symop_operation_xyz
x,y,z
-x,-y,z
1/2-x,y,z
1/2+x,-y,z
1/2+x,1/2+y,1/2+z
1/2-x,1/2-y,1/2+z
-x,1/2+y,1/2+z
x,1/2-y,1/2+z
loop_
_atom_site_type_symbol
_atom_site_label
_atom_site_fract_x
_atom_site_fract_y
_atom_site_fract_z
Si Si1 0.658116 0.916839 0.398030
Si Si2 0.445144 0.239209 0.116248
Si Si3 0.906039 0.472993 0.987437
Si Si4 0.658151 0.068370 0.843337
Si Si5 0.158653 0.143558 0.196523
Si Si6 0.843208 0.548970 0.534919
Si Si7 0.157994 0.660246 0.250991
O O1 0.750000 0.856157 0.414441
O O2 0.604100 0.040083 0.436387
O O3 0.618187 0.653088 0.375407
O O4 0.658058 0.142534 0.362972
O O5 0.500000 0.500000 0.107048
O O6 0.383945 0.274639 0.155353
O O7 0.397460 0.147262 0.074219
O O8 0.500000 0.000000 0.131935
O O9 0.000000 0.500000 0.999746
O O10 0.852613 0.730375 0.998673
O O11 0.872805 0.225895 0.014474
O O12 0.750000 0.962331 0.835336
O O13 0.614074 0.113942 0.797162
O O14 0.250000 0.068371 0.181889
O O15 0.156938 0.371391 0.231200
O O16 0.117034 0.881689 0.219099
O O17 0.750000 0.517912 0.549704
O O18 0.250000 0.764499 0.259007
#
# Coordination Sequence:
#
# PCOD8191997 Si02
#       7
#     8   8   8   8   8   8   8
#     4  10  19  33  55  84 118 157 203 249 297 358
#     4  12  25  42  63  89 124 161 200 249 314 378
#     4  12  25  42  64  92 128 165 202 252 318 383
#     4   9  17  30  53  85 117 151 198 254 301 346
#     4  10  20  36  59  87 118 155 202 250 299 359
#     4  12  25  44  68  93 121 158 209 260 310 373
#     4   9  17  31  55  86 118 153 199 254 302 347
#
# _framework density 21.756876999999999
#
# number of rings (size 3 to 8) (size 9 to 14) (size 15 to 20)
#    0.000    1.429    0.000    6.857    0.000    4.571 
#    0.000    4.286    0.000    8.571    0.000    0.000 
#    0.000    0.000    0.000    0.000    0.000    0.000 
#
# Total GULP energy -347018.947517 kJ/mol
# GULP energy per Si atom -12393.533840 kJ/mol
# Density = 2.170736 g / cm^3
# Si number density = 21.756877 Si / 1000 Ang^3
#
#
#
# Elastic Constant Matrix: (Units=GPa)
#
#
# Indices 1 2 3 4 5 6 
#
# 1 76.2031 19.8581 20.5824 0.0000 0.0000 0.0000
# 2 19.8581 214.5727 108.4494 0.0000 0.0000 0.0000
# 3 20.5824 108.4494 200.2434 0.0000 0.0000 0.0000
# 4 0.0000 0.0000 0.0000 48.7205 0.0000 0.0000
# 5 0.0000 0.0000 0.0000 0.0000 7.0184 0.0000
# 6 0.0000 0.0000 0.0000 0.0000 0.0000 27.5945
#
#
#
# Elastic Compliance Matrix: (Units=1/GPa)
#
#
# Indices 1 2 3 4 5 6 
#
# 1 0.013587 -0.000759 -0.000985 0.000000 0.000000 0.000000
# 2 -0.000759 0.006459 -0.003420 0.000000 0.000000 0.000000
# 3 -0.000985 -0.003420 0.006948 0.000000 0.000000 0.000000
# 4 0.000000 0.000000 0.000000 0.020525 0.000000 0.000000
# 5 0.000000 0.000000 0.000000 0.000000 0.142482 0.000000
# 6 0.000000 0.000000 0.000000 0.000000 0.000000 0.036239
#
#
# Mechanical properties :
#
#
# Convention : Reuss Voigt Hill
#
# Bulk Modulus (GPa) = 60.01004 87.64431 73.82717
# Shear Modulus (GPa) = 20.65052 39.47532 30.06292
#
# Velocity S-wave (km/s) = 3.08417 4.26418 3.72124
# Velocity P-wave (km/s) = 6.35018 8.03836 7.24362
#
# Compressibility (1/GPa) = 0.01666388
#
# Stress axis : x y z
#
# Youngs Moduli (GPa) = 73.60059 154.81362 143.93543
#
# Poissons Ratio (x) = 0.11758 0.14181
# Poissons Ratio (y) = 0.05590 0.49230
# Poissons Ratio (z) = 0.07251 0.52950
#
# Static dielectric constant tensor:
#      x y z
#    x 3.721220 0.000000 0.000000 
#    y 0.000000 3.977960 0.000000 
#    z 0.000000 0.000000 4.029710 
# 
# 
# High freq. dielectric constant tensor:
#      x y z
#    x 1.815180 0.000000 0.000000 
#    y 0.000000 1.871610 0.000000 
#    z 0.000000 0.000000 1.873010 
# 
# From -- ./inp_files/25393.got.cif
#   From: 2010.03.12/outbox.cif.g09.slc.cpg/sg46_13_cif.got.tgz:25393.got - 2010.04.14 02:56:35.
