data_PCOD8191527
_publ_section_title
;
Structure prediction by ZEFSAII (Michael W. Deem and Ramdas Pophale) SiO2 
 PCOD8191527
Probable space group: I M A 2
;
_chemical_formula_sum "Si O2"
_cell_formula_units_Z 60
_cell_length_a 14.030968
_cell_length_b 19.648990
_cell_length_c 10.472610
_cell_angle_alpha 90.000000
_cell_angle_beta 90.000000
_cell_angle_gamma 90.000000
_cell_volume 2887.239406
_symmetry_space_group_name_H-M "I M A 2"
_symmetry_group_IT_number 46
_symmetry_cell_setting 'orthorhombic'
loop_
_space_group_symop_operation_xyz
x,y,z
-x,-y,z
1/2-x,y,z
1/2+x,-y,z
1/2+x,1/2+y,1/2+z
1/2-x,1/2-y,1/2+z
-x,1/2+y,1/2+z
x,1/2-y,1/2+z
loop_
_atom_site_type_symbol
_atom_site_label
_atom_site_fract_x
_atom_site_fract_y
_atom_site_fract_z
Si Si1 0.138381 0.295707 0.791890
Si Si2 0.392740 0.521213 0.661131
Si Si3 0.852286 0.576131 0.451962
Si Si4 0.048337 0.289289 0.519643
Si Si5 0.359729 0.954069 0.779209
Si Si6 0.500000 0.000000 0.584390
Si Si7 0.642241 0.148798 0.007092
Si Si8 0.643953 0.941719 0.396027
O O1 0.250000 0.276993 0.785956
O O2 0.090046 0.271044 0.659489
O O3 0.122180 0.376226 0.807791
O O4 0.090375 0.260977 0.914382
O O5 0.500000 0.500000 0.633204
O O6 0.330126 0.472926 0.571405
O O7 0.372384 0.599867 0.629576
O O8 0.363620 0.508734 0.807635
O O9 0.750000 0.610933 0.419361
O O10 0.928784 0.633382 0.480751
O O11 0.887248 0.528100 0.337124
O O12 0.932385 0.288264 0.518979
O O13 0.250000 0.953357 0.733401
O O14 0.431528 0.947867 0.660880
O O15 0.377745 0.893351 0.877985
O O16 0.565477 0.947848 0.505239
O O17 0.750000 0.178258 0.007687
O O18 0.750000 0.936364 0.456271
#
# Coordination Sequence:
#
# PCOD8191527 Si02
#       8
#     8   8   8   8   8   4   8   8
#     4  11  25  43  62  90 126 167 214 267 320 384
#     4  11  17  33  60  93 119 148 194 265 322 369
#     4  10  18  32  59  86 113 151 198 253 310 368
#     4  12  23  40  64  89 125 167 219 263 317 376
#     4   9  20  35  54  88 124 154 195 252 318 382
#     4  12  22  34  56  84 124 164 194 240 316 384
#     4  10  21  38  65  94 119 154 210 271 322 378
#     4  11  23  38  57  85 123 159 199 252 316 381
#
# _framework density 20.781096999999999
#
# number of rings (size 3 to 8) (size 9 to 14) (size 15 to 20)
#    0.000    1.333    3.333    4.400    1.867    2.133 
#    0.000    2.000    0.000    1.600    0.000    0.000 
#    0.000    0.000    0.000    0.000    0.000    0.000 
#
# Total GULP energy -371929.791491 kJ/mol
# GULP energy per Si atom -12397.659716 kJ/mol
# Density = 2.073380 g / cm^3
# Si number density = 20.781097 Si / 1000 Ang^3
#
#
#
# Elastic Constant Matrix: (Units=GPa)
#
#
# Indices 1 2 3 4 5 6 
#
# 1 151.1814 30.5932 67.5564 0.0000 0.0000 0.0000
# 2 30.5932 37.3148 28.8566 0.0000 0.0000 0.0000
# 3 67.5564 28.8566 128.6371 -0.0001 -0.0001 -0.0001
# 4 0.0000 0.0000 -0.0001 20.1340 0.0000 0.0000
# 5 0.0000 0.0000 -0.0001 0.0000 20.1766 0.0000
# 6 0.0000 0.0000 -0.0001 0.0000 0.0000 7.1392
#
#
#
# Elastic Compliance Matrix: (Units=1/GPa)
#
#
# Indices 1 2 3 4 5 6 
#
# 1 0.009261 -0.004636 -0.003824 0.000000 0.000000 0.000000
# 2 -0.004636 0.034745 -0.005359 0.000000 0.000000 0.000000
# 3 -0.003824 -0.005359 0.010984 0.000000 0.000000 0.000000
# 4 0.000000 0.000000 0.000000 0.049667 0.000000 0.000000
# 5 0.000000 0.000000 0.000000 0.000000 0.049562 0.000000
# 6 0.000000 0.000000 0.000000 0.000000 0.000000 0.140072
#
#
# Mechanical properties :
#
#
# Convention : Reuss Voigt Hill
#
# Bulk Modulus (GPa) = 36.56089 63.46064 50.01076
# Shear Modulus (GPa) = 15.10355 22.16507 18.63431
#
# Velocity S-wave (km/s) = 2.69883 3.26942 2.99774
# Velocity P-wave (km/s) = 5.22907 6.69747 6.00830
#
# Compressibility (1/GPa) = 0.02735164
#
# Stress axis : x y z
#
# Youngs Moduli (GPa) = 107.97451 28.78149 91.03966
#
# Poissons Ratio (x) = 0.13343 0.34812
# Poissons Ratio (y) = 0.50058 0.48792
# Poissons Ratio (z) = 0.41288 0.15425
#
# Static dielectric constant tensor:
#      x y z
#    x 4.036620 0.000000 0.000000 
#    y 0.000000 3.337010 0.000000 
#    z 0.000000 0.000000 3.682720 
# 
# 
# High freq. dielectric constant tensor:
#      x y z
#    x 1.839930 0.000000 0.000000 
#    y 0.000000 1.763990 0.000000 
#    z 0.000000 0.000000 1.804940 
# 
# From -- ./inp_files/11273.got.cif
#   From: 2010.03.12/outbox.cif.g09.slc.cpg/sg46_6_cif.got.tgz:11273.got - 2010.04.14 02:56:35.
