data_PCOD8191303
_publ_section_title
;
Structure prediction by ZEFSAII (Michael W. Deem and Ramdas Pophale) SiO2 
 PCOD8191303
Probable space group: I M A 2
;
_chemical_formula_sum "Si O2"
_cell_formula_units_Z 56
_cell_length_a 8.965009
_cell_length_b 13.483234
_cell_length_c 29.596147
_cell_angle_alpha 90.000000
_cell_angle_beta 90.000000
_cell_angle_gamma 90.000000
_cell_volume 3577.502759
_symmetry_space_group_name_H-M "I M A 2"
_symmetry_group_IT_number 46
_symmetry_cell_setting 'orthorhombic'
loop_
_space_group_symop_operation_xyz
x,y,z
-x,-y,z
1/2-x,y,z
1/2+x,-y,z
1/2+x,1/2+y,1/2+z
1/2-x,1/2-y,1/2+z
-x,1/2+y,1/2+z
x,1/2-y,1/2+z
loop_
_atom_site_type_symbol
_atom_site_label
_atom_site_fract_x
_atom_site_fract_y
_atom_site_fract_z
Si Si1 0.576321 0.599529 0.522200
Si Si2 0.577745 0.103565 0.291566
Si Si3 0.923945 0.200839 0.103354
Si Si4 0.424786 0.893886 0.194482
Si Si5 0.574712 0.099662 0.555539
Si Si6 0.574891 0.699968 0.972784
Si Si7 0.426568 0.608128 0.889667
O O1 0.500000 0.500000 0.503427
O O2 0.750000 0.580141 0.527482
O O3 0.512892 0.626141 0.571331
O O4 0.541583 0.687085 0.486892
O O5 0.750000 0.079191 0.291027
O O6 0.533894 0.156510 0.243704
O O7 0.539396 0.155879 0.339544
O O8 0.500000 0.000000 0.291530
O O9 0.750000 0.179674 0.095641
O O10 0.975318 0.181153 0.154916
O O11 0.962413 0.314488 0.091641
O O12 0.250000 0.912956 0.190921
O O13 0.500000 0.000000 0.187762
O O14 0.750000 0.084551 0.548793
O O15 0.502049 0.124420 0.507371
O O16 0.500000 0.000000 0.574767
O O17 0.750000 0.676976 0.971640
O O18 0.502064 0.684533 0.923970
O O19 0.500000 0.500000 0.895069
O O20 0.250000 0.599351 0.898892
#
# Coordination Sequence:
#
# PCOD8191303 Si02
#       7
#     8   8   8   8   8   8   8
#     4  10  20  32  46  63  86 113 141 174 210 247
#     4   8  15  26  40  59  84 111 139 169 205 247
#     4   9  18  30  45  64  86 113 144 174 208 248
#     4   9  16  27  42  62  87 113 140 170 204 246
#     4  10  19  31  45  62  85 113 143 177 212 248
#     4  10  20  32  45  63  85 112 143 174 209 250
#     4  10  18  28  43  63  87 115 143 174 210 250
#
# _framework density 15.653377000000001
#
# number of rings (size 3 to 8) (size 9 to 14) (size 15 to 20)
#    0.000    2.571    0.000    2.571    0.000    4.571 
#    0.000    0.000    0.000    0.000    0.000    1.000 
#    0.000    4.571    0.000    0.000    0.000    0.286 
#
# Total GULP energy -346972.619986 kJ/mol
# GULP energy per Si atom -12391.879285 kJ/mol
# Density = 1.561775 g / cm^3
# Si number density = 15.653377 Si / 1000 Ang^3
#
#
#
# Elastic Constant Matrix: (Units=GPa)
#
#
# Indices 1 2 3 4 5 6 
#
# 1 65.1578 38.2163 47.0949 0.0000 0.0000 0.0000
# 2 38.2163 81.4028 53.0987 0.0000 0.0000 0.0000
# 3 47.0949 53.0987 151.8338 0.0000 0.0000 0.0000
# 4 0.0000 0.0000 0.0000 18.5209 0.0000 0.0000
# 5 0.0000 0.0000 0.0000 0.0000 21.5660 0.0000
# 6 0.0000 0.0000 0.0000 0.0000 0.0000 24.2430
#
#
#
# Elastic Compliance Matrix: (Units=1/GPa)
#
#
# Indices 1 2 3 4 5 6 
#
# 1 0.023243 -0.008044 -0.004396 0.000000 0.000000 0.000000
# 2 -0.008044 0.018699 -0.004044 0.000000 0.000000 0.000000
# 3 -0.004396 -0.004044 0.009364 0.000000 0.000000 0.000000
# 4 0.000000 0.000000 0.000000 0.053993 0.000000 0.000000
# 5 0.000000 0.000000 0.000000 0.000000 0.046369 0.000000
# 6 0.000000 0.000000 0.000000 0.000000 0.000000 0.041249
#
#
# Mechanical properties :
#
#
# Convention : Reuss Voigt Hill
#
# Bulk Modulus (GPa) = 54.53520 63.91269 59.22394
# Shear Modulus (GPa) = 21.55176 23.53160 22.54168
#
# Velocity S-wave (km/s) = 3.71457 3.88144 3.79892
# Velocity P-wave (km/s) = 7.30152 7.81063 7.56037
#
# Compressibility (1/GPa) = 0.01833678
#
# Stress axis : x y z
#
# Youngs Moduli (GPa) = 43.02373 53.47808 106.79120
#
# Poissons Ratio (x) = 0.43020 0.46947
# Poissons Ratio (y) = 0.34610 0.43189
# Poissons Ratio (z) = 0.18914 0.21628
#
# Static dielectric constant tensor:
#      x y z
#    x 3.036600 0.000000 0.000000 
#    y 0.000000 2.775460 0.000000 
#    z 0.000000 0.000000 3.523610 
# 
# 
# High freq. dielectric constant tensor:
#      x y z
#    x 1.614540 0.000000 0.000000 
#    y 0.000000 1.564410 0.000000 
#    z 0.000000 0.000000 1.605610 
# 
# From -- ./inp_files/25236.got.cif
#   From: 2010.03.12/outbox.cif.g09.slc.cpg/sg46_13_cif.got.tgz:25236.got - 2010.04.14 02:56:35.
