data_PCOD8191772
_publ_section_title
;
Structure prediction by ZEFSAII (Michael W. Deem and Ramdas Pophale) SiO2 
 PCOD8191772
Probable space group: I M A 2
;
_chemical_formula_sum "Si O2"
_cell_formula_units_Z 64
_cell_length_a 8.952406
_cell_length_b 19.525556
_cell_length_c 20.657792
_cell_angle_alpha 90.000000
_cell_angle_beta 90.000000
_cell_angle_gamma 90.000000
_cell_volume 3610.996599
_symmetry_space_group_name_H-M "I M A 2"
_symmetry_group_IT_number 46
_symmetry_cell_setting 'orthorhombic'
loop_
_space_group_symop_operation_xyz
x,y,z
-x,-y,z
1/2-x,y,z
1/2+x,-y,z
1/2+x,1/2+y,1/2+z
1/2-x,1/2-y,1/2+z
-x,1/2+y,1/2+z
x,1/2-y,1/2+z
loop_
_atom_site_type_symbol
_atom_site_label
_atom_site_fract_x
_atom_site_fract_y
_atom_site_fract_z
Si Si1 0.072856 0.293942 0.044000
Si Si2 0.075842 0.288333 0.418193
Si Si3 0.425926 0.710771 0.287185
Si Si4 0.076427 0.933154 0.111416
Si Si5 0.926194 0.931980 0.973869
Si Si6 0.074217 0.569843 0.081802
Si Si7 0.575529 0.431314 0.231772
Si Si8 0.422699 0.786259 0.159086
O O1 0.250000 0.302133 0.046961
O O2 0.996349 0.367941 0.041956
O O3 0.021916 0.250137 0.105364
O O4 0.019178 0.255309 0.979254
O O5 0.250000 0.277662 0.408924
O O6 0.035221 0.368043 0.428362
O O7 0.996574 0.261916 0.353416
O O8 0.250000 0.710492 0.295256
O O9 0.484428 0.634157 0.271192
O O10 0.474949 0.761488 0.229639
O O11 0.250000 0.948176 0.098626
O O12 0.054031 0.867998 0.157761
O O13 0.000000 0.000000 0.144198
O O14 0.996641 0.917747 0.043724
O O15 0.750000 0.942015 0.981942
O O16 0.000000 0.000000 0.942647
O O17 0.250000 0.566816 0.069546
O O18 0.034151 0.580933 0.156966
O O19 0.000000 0.500000 0.056182
O O20 0.500000 0.500000 0.259179
O O21 0.750000 0.440832 0.240680
O O22 0.250000 0.765861 0.146255
#
# Coordination Sequence:
#
# PCOD8191772 Si02
#       8
#     8   8   8   8   8   8   8   8
#     4  11  21  35  56  81 109 142 180 225 272 318
#     4  10  23  38  51  75 110 143 181 225 267 318
#     4  10  21  37  54  75 105 141 182 223 266 318
#     4  10  19  31  53  80 108 137 172 218 269 318
#     4  10  19  33  50  73 107 142 179 219 258 310
#     4  10  19  34  55  82 113 140 177 223 270 320
#     4   9  18  32  50  74 106 140 175 217 256 311
#     4  10  20  36  56  80 107 139 180 225 268 321
#
# _framework density 17.723638000000001
#
# number of rings (size 3 to 8) (size 9 to 14) (size 15 to 20)
#    0.000    2.000    2.500    2.250    0.000    4.500 
#    0.000    2.500    0.000    0.750    0.000    3.500 
#    0.000    0.000    0.000    0.000    0.000    0.000 
#
# Total GULP energy -396844.362459 kJ/mol
# GULP energy per Si atom -12401.386327 kJ/mol
# Density = 1.768330 g / cm^3
# Si number density = 17.723638 Si / 1000 Ang^3
#
#
#
# Elastic Constant Matrix: (Units=GPa)
#
#
# Indices 1 2 3 4 5 6 
#
# 1 72.3930 49.1022 42.6883 0.0000 0.0000 0.0000
# 2 49.1022 117.3561 59.9969 0.0000 0.0000 0.0000
# 3 42.6883 59.9969 108.7575 0.0000 0.0000 0.0000
# 4 0.0000 0.0000 0.0000 23.0680 0.0000 0.0000
# 5 0.0000 0.0000 0.0000 0.0000 26.0014 0.0000
# 6 0.0000 0.0000 0.0000 0.0000 0.0000 31.3444
#
#
#
# Elastic Compliance Matrix: (Units=1/GPa)
#
#
# Indices 1 2 3 4 5 6 
#
# 1 0.020882 -0.006333 -0.004703 0.000000 0.000000 0.000000
# 2 -0.006333 0.013789 -0.005121 0.000000 0.000000 0.000000
# 3 -0.004703 -0.005121 0.013866 0.000000 0.000000 0.000000
# 4 0.000000 0.000000 0.000000 0.043350 0.000000 0.000000
# 5 0.000000 0.000000 0.000000 0.000000 0.038459 0.000000
# 6 0.000000 0.000000 0.000000 0.000000 0.000000 0.031904
#
#
# Mechanical properties :
#
#
# Convention : Reuss Voigt Hill
#
# Bulk Modulus (GPa) = 61.64010 66.89791 64.26901
# Shear Modulus (GPa) = 25.00366 25.86406 25.43386
#
# Velocity S-wave (km/s) = 3.76007 3.82422 3.79228
# Velocity P-wave (km/s) = 7.32836 7.57143 7.45088
#
# Compressibility (1/GPa) = 0.01622321
#
# Stress axis : x y z
#
# Youngs Moduli (GPa) = 47.88807 72.52257 72.12033
#
# Poissons Ratio (x) = 0.45927 0.33917
# Poissons Ratio (y) = 0.30327 0.36933
# Poissons Ratio (z) = 0.22521 0.37139
#
# Static dielectric constant tensor:
#      x y z
#    x 3.273130 0.000000 0.000000 
#    y 0.000000 3.560180 0.000000 
#    z 0.000000 0.000000 3.102500 
# 
# 
# High freq. dielectric constant tensor:
#      x y z
#    x 1.690670 0.000000 0.000000 
#    y 0.000000 1.693140 0.000000 
#    z 0.000000 0.000000 1.657470 
# 
# From -- ./inp_files/21456.got.cif
#   From: 2010.03.12/outbox.cif.g09.slc.cpg/sg46_11_cif.got.tgz:21456.got - 2010.04.14 02:56:35.
