data_PCOD8191304
_publ_section_title
;
Structure prediction by ZEFSAII (Michael W. Deem and Ramdas Pophale) SiO2 
 PCOD8191304
Probable space group: I M A 2
;
_chemical_formula_sum "Si O2"
_cell_formula_units_Z 56
_cell_length_a 8.971315
_cell_length_b 13.642657
_cell_length_c 29.238341
_cell_angle_alpha 90.000000
_cell_angle_beta 90.000000
_cell_angle_gamma 90.000000
_cell_volume 3578.555796
_symmetry_space_group_name_H-M "I M A 2"
_symmetry_group_IT_number 46
_symmetry_cell_setting 'orthorhombic'
loop_
_space_group_symop_operation_xyz
x,y,z
-x,-y,z
1/2-x,y,z
1/2+x,-y,z
1/2+x,1/2+y,1/2+z
1/2-x,1/2-y,1/2+z
-x,1/2+y,1/2+z
x,1/2-y,1/2+z
loop_
_atom_site_type_symbol
_atom_site_label
_atom_site_fract_x
_atom_site_fract_y
_atom_site_fract_z
Si Si1 0.926287 0.606075 0.473320
Si Si2 0.924517 0.222329 0.248494
Si Si3 0.076349 0.278645 0.383042
Si Si4 0.423141 0.896062 0.161888
Si Si5 0.075782 0.896215 0.338207
Si Si6 0.924519 0.896625 0.793894
Si Si7 0.075479 0.895027 0.061503
O O1 0.750000 0.592858 0.477760
O O2 0.969675 0.675572 0.431369
O O3 0.000000 0.500000 0.465756
O O4 0.993135 0.659116 0.519128
O O5 0.750000 0.247207 0.248427
O O6 0.980849 0.178961 0.200233
O O7 0.963583 0.143795 0.287820
O O8 0.014729 0.322013 0.255835
O O9 0.250000 0.252567 0.380506
O O10 0.033263 0.357241 0.344158
O O11 0.984812 0.178937 0.376280
O O12 0.250000 0.916997 0.169295
O O13 0.451948 0.847203 0.111631
O O14 0.500000 0.000000 0.167931
O O15 0.250000 0.908916 0.345513
O O16 0.000000 0.000000 0.345584
O O17 0.750000 0.908898 0.787359
O O18 0.000000 0.000000 0.785895
O O19 0.250000 0.904082 0.050571
O O20 0.000000 0.000000 0.063830
#
# Coordination Sequence:
#
# PCOD8191304 Si02
#       7
#     8   8   8   8   8   8   8
#     4  10  18  28  43  63  88 117 145 178 215 254
#     4   9  18  31  45  64  88 116 148 178 211 253
#     4   9  19  32  45  63  87 115 148 179 212 254
#     4   9  17  28  43  63  89 118 146 177 213 252
#     4  10  19  30  46  65  88 116 145 179 215 251
#     4  10  19  31  46  64  87 115 145 180 216 253
#     4   9  16  26  40  60  86 115 144 175 212 255
#
# _framework density 15.648770000000001
#
# number of rings (size 3 to 8) (size 9 to 14) (size 15 to 20)
#    0.000    2.571    0.000    3.429    0.000    3.429 
#    0.000    0.000    0.000    0.000    0.000    1.000 
#    0.000    6.857    0.000    0.000    0.000    0.000 
#
# Total GULP energy -347108.258715 kJ/mol
# GULP energy per Si atom -12396.723526 kJ/mol
# Density = 1.561315 g / cm^3
# Si number density = 15.648770 Si / 1000 Ang^3
#
#
#
# Elastic Constant Matrix: (Units=GPa)
#
#
# Indices 1 2 3 4 5 6 
#
# 1 74.5616 53.2796 51.5124 0.0000 0.0000 0.0000
# 2 53.2796 108.4960 64.3077 0.0000 0.0000 0.0000
# 3 51.5124 64.3077 140.8189 0.0000 0.0000 0.0000
# 4 0.0000 0.0000 0.0000 21.5569 0.0000 0.0000
# 5 0.0000 0.0000 0.0000 0.0000 23.3899 0.0000
# 6 0.0000 0.0000 0.0000 0.0000 0.0000 25.6605
#
#
#
# Elastic Compliance Matrix: (Units=1/GPa)
#
#
# Indices 1 2 3 4 5 6 
#
# 1 0.022457 -0.008445 -0.004359 0.000000 0.000000 0.000000
# 2 -0.008445 0.015813 -0.004132 0.000000 0.000000 0.000000
# 3 -0.004359 -0.004132 0.010583 0.000000 0.000000 0.000000
# 4 0.000000 0.000000 0.000000 0.046389 0.000000 0.000000
# 5 0.000000 0.000000 0.000000 0.000000 0.042754 0.000000
# 6 0.000000 0.000000 0.000000 0.000000 0.000000 0.038970
#
#
# Mechanical properties :
#
#
# Convention : Reuss Voigt Hill
#
# Bulk Modulus (GPa) = 66.74627 73.56399 70.15513
# Shear Modulus (GPa) = 23.16623 24.43991 23.80307
#
# Velocity S-wave (km/s) = 3.85175 3.95622 3.90434
# Velocity P-wave (km/s) = 7.90738 8.24502 8.07797
#
# Compressibility (1/GPa) = 0.01498211
#
# Stress axis : x y z
#
# Youngs Moduli (GPa) = 44.52888 63.23813 94.49315
#
# Poissons Ratio (x) = 0.53404 0.41185
# Poissons Ratio (y) = 0.37604 0.39047
# Poissons Ratio (z) = 0.19408 0.26132
#
# Static dielectric constant tensor:
#      x y z
#    x 3.083310 0.000000 0.000000 
#    y 0.000000 2.728300 0.000000 
#    z 0.000000 0.000000 3.508200 
# 
# 
# High freq. dielectric constant tensor:
#      x y z
#    x 1.613390 0.000000 0.000000 
#    y 0.000000 1.566380 0.000000 
#    z 0.000000 0.000000 1.603370 
# 
# From -- ./inp_files/25228.got.cif
#   From: 2010.03.12/outbox.cif.g09.slc.cpg/sg46_13_cif.got.tgz:25228.got - 2010.04.14 02:56:35.
