data_PCOD8191518
_publ_section_title
;
Structure prediction by ZEFSAII (Michael W. Deem and Ramdas Pophale) SiO2 
 PCOD8191518
Probable space group: I M A 2
;
_chemical_formula_sum "Si O2"
_cell_formula_units_Z 60
_cell_length_a 11.282929
_cell_length_b 30.342605
_cell_length_c 9.847758
_cell_angle_alpha 90.000000
_cell_angle_beta 90.000000
_cell_angle_gamma 90.000000
_cell_volume 3371.414004
_symmetry_space_group_name_H-M "I M A 2"
_symmetry_group_IT_number 46
_symmetry_cell_setting 'orthorhombic'
loop_
_space_group_symop_operation_xyz
x,y,z
-x,-y,z
1/2-x,y,z
1/2+x,-y,z
1/2+x,1/2+y,1/2+z
1/2-x,1/2-y,1/2+z
-x,1/2+y,1/2+z
x,1/2-y,1/2+z
loop_
_atom_site_type_symbol
_atom_site_label
_atom_site_fract_x
_atom_site_fract_y
_atom_site_fract_z
Si Si1 0.992591 0.748509 0.392410
Si Si2 0.390149 0.413570 0.327759
Si Si3 0.883323 0.024580 0.529855
Si Si4 0.115666 0.708599 0.133463
Si Si5 0.609826 0.837390 0.023999
Si Si6 0.385623 0.162273 0.325461
Si Si7 0.000000 0.000000 0.786477
Si Si8 0.517304 0.384087 0.062689
O O1 0.038397 0.732201 0.247794
O O2 0.095948 0.768214 0.487799
O O3 0.928862 0.709526 0.469746
O O4 0.896866 0.786784 0.368405
O O5 0.250000 0.418555 0.340121
O O6 0.439545 0.375642 0.426530
O O7 0.455686 0.458639 0.376258
O O8 0.423585 0.402836 0.172152
O O9 0.750000 0.010809 0.475669
O O10 0.888328 0.013146 0.690297
O O11 0.894228 0.077358 0.515053
O O12 0.000000 0.000000 0.459281
O O13 0.250000 0.714704 0.177056
O O14 0.087680 0.656739 0.126916
O O15 0.750000 0.838054 0.026961
O O16 0.558994 0.844790 0.175372
O O17 0.250000 0.148638 0.326865
O O18 0.449846 0.130002 0.427990
#
# Coordination Sequence:
#
# PCOD8191518 Si02
#       8
#     8   8   8   8   8   8   4   8
#     4  11  20  36  52  75 107 137 181 223 273 320
#     4  10  18  32  55  82 106 138 177 220 269 323
#     4   9  18  31  53  83 114 141 174 225 278 328
#     4  11  22  35  52  72 102 143 184 224 269 322
#     4  10  20  34  54  79 109 141 176 219 271 324
#     4  10  21  35  52  78 110 145 177 221 276 327
#     4   8  18  28  52  80 110 140 172 222 274 328
#     4  10  20  33  54  79 108 139 177 227 264 330
#
# _framework density 17.796686999999999
#
# number of rings (size 3 to 8) (size 9 to 14) (size 15 to 20)
#    0.400    1.600    2.667    2.000    0.000    0.533 
#    0.000    0.000    1.467    0.000    0.000    0.000 
#    0.000    0.000    0.000    0.000    0.000    0.000 
#
# Total GULP energy -371800.869123 kJ/mol
# GULP energy per Si atom -12393.362304 kJ/mol
# Density = 1.775618 g / cm^3
# Si number density = 17.796687 Si / 1000 Ang^3
#
#
#
# Elastic Constant Matrix: (Units=GPa)
#
#
# Indices 1 2 3 4 5 6 
#
# 1 62.2571 25.1314 29.3249 0.0007 0.0004 0.0008
# 2 25.1314 118.3799 32.4812 -0.0020 0.0015 0.0012
# 3 29.3249 32.4812 78.2915 -0.0024 0.0093 0.0028
# 4 0.0007 -0.0020 -0.0024 13.0074 0.0024 0.0025
# 5 0.0004 0.0015 0.0093 0.0024 12.6605 0.0005
# 6 0.0008 0.0012 0.0028 0.0025 0.0005 20.4223
#
#
#
# Elastic Compliance Matrix: (Units=1/GPa)
#
#
# Indices 1 2 3 4 5 6 
#
# 1 0.020133 -0.002488 -0.006509 -0.000003 0.000004 0.000000
# 2 -0.002488 0.009840 -0.003150 0.000001 0.000001 0.000000
# 3 -0.006509 -0.003150 0.016518 0.000003 -0.000012 -0.000002
# 4 -0.000003 0.000001 0.000003 0.076880 -0.000014 -0.000009
# 5 0.000004 0.000001 -0.000012 -0.000014 0.078986 -0.000002
# 6 0.000000 0.000000 -0.000002 -0.000009 -0.000002 0.048966
#
#
# Mechanical properties :
#
#
# Convention : Reuss Voigt Hill
#
# Bulk Modulus (GPa) = 45.05334 48.08926 46.57130
# Shear Modulus (GPa) = 17.66693 20.68410 19.17552
#
# Velocity S-wave (km/s) = 3.15415 3.41287 3.28606
# Velocity P-wave (km/s) = 6.21574 6.52766 6.37361
#
# Compressibility (1/GPa) = 0.02219591
#
# Stress axis : x y z
#
# Youngs Moduli (GPa) = 49.67076 101.62573 60.54126
#
# Poissons Ratio (x) = 0.25287 0.39404
# Poissons Ratio (y) = 0.12359 0.19073
# Poissons Ratio (z) = 0.32329 0.32016
#
# Static dielectric constant tensor:
#      x y z
#    x 3.068150 0.000000 0.000000 
#    y 0.000000 3.534890 0.000000 
#    z 0.000000 0.000000 3.276920 
# 
# 
# High freq. dielectric constant tensor:
#      x y z
#    x 1.675110 0.000000 0.000000 
#    y 0.000000 1.702690 0.000000 
#    z 0.000000 0.000000 1.666600 
# 
# From -- ./inp_files/4987.got.cif
#   From: 2010.03.12/outbox.cif.g09.slc.cpg/sg46_3_cif.got.tgz:4987.got - 2010.04.14 02:56:35.
