data_PCOD8191192
_publ_section_title
;
Structure prediction by ZEFSAII (Michael W. Deem and Ramdas Pophale) SiO2 
 PCOD8191192
Probable space group: I M A 2
;
_chemical_formula_sum "Si O2"
_cell_formula_units_Z 48
_cell_length_a 8.708953
_cell_length_b 9.158026
_cell_length_c 31.115426
_cell_angle_alpha 90.000000
_cell_angle_beta 90.000000
_cell_angle_gamma 90.000000
_cell_volume 2481.667369
_symmetry_space_group_name_H-M "I M A 2"
_symmetry_group_IT_number 46
_symmetry_cell_setting 'orthorhombic'
loop_
_space_group_symop_operation_xyz
x,y,z
-x,-y,z
1/2-x,y,z
1/2+x,-y,z
1/2+x,1/2+y,1/2+z
1/2-x,1/2-y,1/2+z
-x,1/2+y,1/2+z
x,1/2-y,1/2+z
loop_
_atom_site_type_symbol
_atom_site_label
_atom_site_fract_x
_atom_site_fract_y
_atom_site_fract_z
Si Si1 0.927605 0.157743 0.370390
Si Si2 0.431843 0.660467 0.699930
Si Si3 0.068166 0.337881 0.786897
Si Si4 0.429719 0.157997 0.623500
Si Si5 0.927989 0.655393 0.539425
Si Si6 0.572171 0.159351 0.465429
O O1 0.750000 0.144761 0.358042
O O2 0.951354 0.228426 0.417490
O O3 0.013424 0.243604 0.331077
O O4 0.000000 0.000000 0.374915
O O5 0.500000 0.500000 0.692404
O O6 0.250000 0.647964 0.702677
O O7 0.497159 0.733691 0.743914
O O8 0.480183 0.763529 0.661418
O O9 0.250000 0.338194 0.783382
O O10 0.000000 0.500000 0.789642
O O11 0.250000 0.150403 0.634651
O O12 0.461917 0.242072 0.579645
O O13 0.500000 0.000000 0.617188
O O14 0.750000 0.633567 0.530997
O O15 0.000000 0.500000 0.549785
O O16 0.999199 0.724224 0.496985
O O17 0.750000 0.140746 0.476233
O O18 0.500000 0.000000 0.471277
#
# Coordination Sequence:
#
# PCOD8191192 Si02
#       6
#     8   8   8   8   8   8
#     4   9  16  27  45  73 107 143 181 224 270 318
#     4  11  21  35  56  82 113 148 185 229 275 325
#     4  10  17  27  46  74 108 144 182 226 271 320
#     4  11  24  41  60  84 111 143 181 224 273 328
#     4  11  24  40  60  83 111 144 182 226 274 328
#     4  10  20  34  55  82 114 148 186 229 275 325
#
# _framework density 19.341835
#
# number of rings (size 3 to 8) (size 9 to 14) (size 15 to 20)
#    0.000    1.667    0.000    8.000    0.000    7.333 
#    0.000    0.000    0.000    1.000    0.000    2.333 
#    0.000    0.000    0.000    0.000    0.000    0.000 
#
# Total GULP energy -297520.822158 kJ/mol
# GULP energy per Si atom -12396.700923 kJ/mol
# Density = 1.929781 g / cm^3
# Si number density = 19.341835 Si / 1000 Ang^3
#
#
#
# Elastic Constant Matrix: (Units=GPa)
#
#
# Indices 1 2 3 4 5 6 
#
# 1 180.8491 54.5342 93.5651 0.0000 0.0000 0.0000
# 2 54.5342 77.6204 41.6137 0.0000 0.0000 0.0000
# 3 93.5651 41.6137 143.1968 0.0000 0.0000 0.0000
# 4 0.0000 0.0000 0.0000 23.0358 0.0000 0.0000
# 5 0.0000 0.0000 0.0000 0.0000 46.7052 0.0000
# 6 0.0000 0.0000 0.0000 0.0000 0.0000 26.2136
#
#
#
# Elastic Compliance Matrix: (Units=1/GPa)
#
#
# Indices 1 2 3 4 5 6 
#
# 1 0.009233 -0.003853 -0.004913 0.000000 0.000000 0.000000
# 2 -0.003853 0.016869 -0.002385 0.000000 0.000000 0.000000
# 3 -0.004913 -0.002385 0.010887 0.000000 0.000000 0.000000
# 4 0.000000 0.000000 0.000000 0.043411 0.000000 0.000000
# 5 0.000000 0.000000 0.000000 0.000000 0.021411 0.000000
# 6 0.000000 0.000000 0.000000 0.000000 0.000000 0.038148
#
#
# Mechanical properties :
#
#
# Convention : Reuss Voigt Hill
#
# Bulk Modulus (GPa) = 68.08792 86.78803 77.43797
# Shear Modulus (GPa) = 29.91219 33.32114 31.61666
#
# Velocity S-wave (km/s) = 3.93683 4.15510 4.04744
# Velocity P-wave (km/s) = 7.47955 8.24548 7.87183
#
# Compressibility (1/GPa) = 0.01468689
#
# Stress axis : x y z
#
# Youngs Moduli (GPa) = 108.30328 59.28168 91.85443
#
# Poissons Ratio (x) = 0.22841 0.45132
# Poissons Ratio (y) = 0.41729 0.21903
# Poissons Ratio (z) = 0.53214 0.14136
#
# Static dielectric constant tensor:
#      x y z
#    x 3.746680 0.000000 0.000000 
#    y 0.000000 2.842400 0.000000 
#    z 0.000000 0.000000 4.625380 
# 
# 
# High freq. dielectric constant tensor:
#      x y z
#    x 1.776100 0.000000 0.000000 
#    y 0.000000 1.701020 0.000000 
#    z 0.000000 0.000000 1.785270 
# 
# From -- ./inp_files/24999.got.cif
#   From: 2010.03.12/outbox.cif.g09.slc.cpg/sg46_13_cif.got.tgz:24999.got - 2010.04.14 02:56:35.
