data_PCOD8191935
_publ_section_title
;
Structure prediction by ZEFSAII (Michael W. Deem and Ramdas Pophale) SiO2 
 PCOD8191935
Probable space group: I M A 2
;
_chemical_formula_sum "Si O2"
_cell_formula_units_Z 64
_cell_length_a 8.849924
_cell_length_b 23.562817
_cell_length_c 17.394846
_cell_angle_alpha 90.000000
_cell_angle_beta 90.000000
_cell_angle_gamma 90.000000
_cell_volume 3627.332271
_symmetry_space_group_name_H-M "I M A 2"
_symmetry_group_IT_number 46
_symmetry_cell_setting 'orthorhombic'
loop_
_space_group_symop_operation_xyz
x,y,z
-x,-y,z
1/2-x,y,z
1/2+x,-y,z
1/2+x,1/2+y,1/2+z
1/2-x,1/2-y,1/2+z
-x,1/2+y,1/2+z
x,1/2-y,1/2+z
loop_
_atom_site_type_symbol
_atom_site_label
_atom_site_fract_x
_atom_site_fract_y
_atom_site_fract_z
Si Si1 0.078430 0.129115 0.229880
Si Si2 0.571432 0.059253 0.101902
Si Si3 0.075560 0.058348 0.679207
Si Si4 0.925040 0.941470 0.499173
Si Si5 0.078290 0.238637 0.311828
Si Si6 0.570628 0.138895 0.381536
Si Si7 0.072893 0.941678 0.927328
Si Si8 0.928555 0.358684 0.294412
O O1 0.250000 0.106051 0.228906
O O2 0.076331 0.198211 0.235484
O O3 0.992269 0.110131 0.153425
O O4 0.992893 0.105103 0.306207
O O5 0.750000 0.055704 0.110982
O O6 0.500000 0.000000 0.129791
O O7 0.521912 0.072443 0.014317
O O8 0.250000 0.055854 0.702270
O O9 0.051671 0.067848 0.589229
O O10 0.996651 0.110732 0.720495
O O11 0.000000 0.000000 0.707048
O O12 0.750000 0.942236 0.475822
O O13 0.010141 0.890033 0.458358
O O14 0.000000 0.000000 0.471924
O O15 0.250000 0.252295 0.336721
O O16 0.993944 0.203603 0.380013
O O17 0.989106 0.295355 0.294856
O O18 0.750000 0.139409 0.380785
O O19 0.250000 0.950634 0.922790
O O20 0.019511 0.890702 0.872254
O O21 0.000000 0.000000 0.897905
O O22 0.750000 0.357486 0.286536
#
# Coordination Sequence:
#
# PCOD8191935 Si02
#       8
#     8   8   8   8   8   8   8   8
#     4   9  19  35  54  76 106 138 175 217 260 310
#     4  10  19  33  53  77 108 139 173 214 262 312
#     4  10  21  36  55  80 111 141 175 219 267 318
#     4  10  20  35  54  79 110 142 175 217 265 316
#     4   9  20  37  55  76 105 139 178 222 262 309
#     4  10  19  34  56  79 106 139 175 218 264 311
#     4   9  20  35  52  79 109 138 171 214 260 312
#     4  11  21  35  57  80 105 140 181 219 265 318
#
# _framework density 17.643819000000001
#
# number of rings (size 3 to 8) (size 9 to 14) (size 15 to 20)
#    0.750    1.500    0.000    3.375    0.000    4.500 
#    0.000    3.750    0.000    3.000    0.000    0.000 
#    0.000    0.000    0.000    0.000    0.000    0.000 
#
# Total GULP energy -396730.826636 kJ/mol
# GULP energy per Si atom -12397.838332 kJ/mol
# Density = 1.760366 g / cm^3
# Si number density = 17.643819 Si / 1000 Ang^3
#
#
#
# Elastic Constant Matrix: (Units=GPa)
#
#
# Indices 1 2 3 4 5 6 
#
# 1 124.0100 55.1826 47.7116 0.0000 0.0000 0.0000
# 2 55.1826 118.9960 50.7929 0.0000 0.0000 0.0000
# 3 47.7116 50.7929 66.4211 0.0001 0.0000 0.0000
# 4 0.0000 0.0000 0.0001 15.7307 0.0000 0.0000
# 5 0.0000 0.0000 0.0000 0.0000 27.8216 0.0000
# 6 0.0000 0.0000 0.0000 0.0000 0.0000 35.6683
#
#
#
# Elastic Compliance Matrix: (Units=1/GPa)
#
#
# Indices 1 2 3 4 5 6 
#
# 1 0.011713 -0.002732 -0.006324 0.000000 0.000000 0.000000
# 2 -0.002732 0.013113 -0.008065 0.000000 0.000000 0.000000
# 3 -0.006324 -0.008065 0.025766 0.000000 0.000000 0.000000
# 4 0.000000 0.000000 0.000000 0.063570 0.000000 0.000000
# 5 0.000000 0.000000 0.000000 0.000000 0.035943 0.000000
# 6 0.000000 0.000000 0.000000 0.000000 0.000000 0.028036
#
#
# Mechanical properties :
#
#
# Convention : Reuss Voigt Hill
#
# Bulk Modulus (GPa) = 61.16731 68.53348 64.85040
# Shear Modulus (GPa) = 22.95323 26.22679 24.59001
#
# Velocity S-wave (km/s) = 3.61074 3.85964 3.73727
# Velocity P-wave (km/s) = 7.21986 7.66743 7.44701
#
# Compressibility (1/GPa) = 0.01634860
#
# Stress axis : x y z
#
# Youngs Moduli (GPa) = 85.37649 76.25861 38.81101
#
# Poissons Ratio (x) = 0.20835 0.24545
# Poissons Ratio (y) = 0.23326 0.31302
# Poissons Ratio (z) = 0.53994 0.61505
#
# Static dielectric constant tensor:
#      x y z
#    x 3.387750 0.000000 0.000000 
#    y 0.000000 3.150710 0.000000 
#    z 0.000000 0.000000 3.226650 
# 
# 
# High freq. dielectric constant tensor:
#      x y z
#    x 1.701330 0.000000 0.000000 
#    y 0.000000 1.669540 0.000000 
#    z 0.000000 0.000000 1.672110 
# 
# From -- ./inp_files/18683.got.cif
#   From: 2010.03.12/outbox.cif.g09.slc.cpg/sg46_10_cif.got.tgz:18683.got - 2010.04.14 02:56:35.
