data_PCOD8191751
_publ_section_title
;
Structure prediction by ZEFSAII (Michael W. Deem and Ramdas Pophale) SiO2 
 PCOD8191751
Probable space group: I M A 2
;
_chemical_formula_sum "Si O2"
_cell_formula_units_Z 52
_cell_length_a 9.109019
_cell_length_b 15.267542
_cell_length_c 19.714466
_cell_angle_alpha 90.000000
_cell_angle_beta 90.000000
_cell_angle_gamma 90.000000
_cell_volume 2741.736725
_symmetry_space_group_name_H-M "I M A 2"
_symmetry_group_IT_number 46
_symmetry_cell_setting 'orthorhombic'
loop_
_space_group_symop_operation_xyz
x,y,z
-x,-y,z
1/2-x,y,z
1/2+x,-y,z
1/2+x,1/2+y,1/2+z
1/2-x,1/2-y,1/2+z
-x,1/2+y,1/2+z
x,1/2-y,1/2+z
loop_
_atom_site_type_symbol
_atom_site_label
_atom_site_fract_x
_atom_site_fract_y
_atom_site_fract_z
Si Si1 0.585756 0.712355 0.648780
Si Si2 0.000000 0.500000 0.992062
Si Si3 0.405674 0.840852 0.574547
Si Si4 0.583508 0.587326 0.519910
Si Si5 0.574850 0.414465 0.743565
Si Si6 0.915008 0.222958 0.943733
Si Si7 0.915609 0.873684 0.377404
O O1 0.750000 0.721545 0.678058
O O2 0.531192 0.810206 0.627456
O O3 0.583422 0.650208 0.584173
O O4 0.479494 0.673193 0.706303
O O5 0.095624 0.436696 0.943501
O O6 0.087211 0.561907 0.043657
O O7 0.250000 0.835245 0.613392
O O8 0.403664 0.772344 0.514097
O O9 0.500000 0.500000 0.541580
O O10 0.750000 0.566588 0.497321
O O11 0.496843 0.630825 0.456676
O O12 0.500000 0.500000 0.708610
O O13 0.750000 0.422210 0.739998
O O14 0.521545 0.415276 0.821285
O O15 0.750000 0.208297 0.913912
O O16 0.015422 0.279154 0.893188
O O17 0.750000 0.861405 0.349761
#
# Coordination Sequence:
#
# PCOD8191751 Si02
#       7
#     8   4   8   8   8   8   8
#     4  10  21  36  52  74 105 142 182 222 268 320
#     4  10  20  32  56  84 116 144 182 224 274 324
#     4   9  18  32  51  76 106 141 178 220 269 319
#     4  10  19  31  50  75 102 135 175 219 267 316
#     4  12  24  37  54  77 107 144 183 222 266 322
#     4   9  18  32  49  72 104 137 172 215 266 318
#     4  11  21  34  53  78 111 144 178 219 268 325
#
# _framework density 18.966080000000002
#
# number of rings (size 3 to 8) (size 9 to 14) (size 15 to 20)
#    0.000    1.846    0.769    4.154    0.000    8.615 
#    0.000    0.000    0.000    0.000    2.000    0.000 
#    0.000    0.000    0.000    0.000    0.000    0.000 
#
# Total GULP energy -322218.014949 kJ/mol
# GULP energy per Si atom -12393.000575 kJ/mol
# Density = 1.892291 g / cm^3
# Si number density = 18.966080 Si / 1000 Ang^3
#
#
#
# Elastic Constant Matrix: (Units=GPa)
#
#
# Indices 1 2 3 4 5 6 
#
# 1 175.8613 43.7057 31.7263 0.0000 0.0000 0.0000
# 2 43.7057 69.9973 28.3485 0.0000 0.0000 0.0000
# 3 31.7263 28.3485 45.7704 0.0000 0.0000 0.0000
# 4 0.0000 0.0000 0.0000 26.0611 0.0000 0.0000
# 5 0.0000 0.0000 0.0000 0.0000 25.8005 0.0000
# 6 0.0000 0.0000 0.0000 0.0000 0.0000 18.1711
#
#
#
# Elastic Compliance Matrix: (Units=1/GPa)
#
#
# Indices 1 2 3 4 5 6 
#
# 1 0.007001 -0.003212 -0.002864 0.000000 0.000000 0.000000
# 2 -0.003212 0.020543 -0.010497 0.000000 0.000000 0.000000
# 3 -0.002864 -0.010497 0.030335 0.000000 0.000000 0.000000
# 4 0.000000 0.000000 0.000000 0.038371 0.000000 0.000000
# 5 0.000000 0.000000 0.000000 0.000000 0.038759 0.000000
# 6 0.000000 0.000000 0.000000 0.000000 0.000000 0.055033
#
#
# Mechanical properties :
#
#
# Convention : Reuss Voigt Hill
#
# Bulk Modulus (GPa) = 40.43102 55.46556 47.94829
# Shear Modulus (GPa) = 21.60464 26.52976 24.06720
#
# Velocity S-wave (km/s) = 3.37875 3.74411 3.56611
# Velocity P-wave (km/s) = 6.04856 6.92815 6.50324
#
# Compressibility (1/GPa) = 0.02473349
#
# Stress axis : x y z
#
# Youngs Moduli (GPa) = 142.83466 48.67848 32.96537
#
# Poissons Ratio (x) = 0.15634 0.09440
# Poissons Ratio (y) = 0.45873 0.34605
# Poissons Ratio (z) = 0.40904 0.51100
#
# Static dielectric constant tensor:
#      x y z
#    x 3.756200 0.000000 0.000000 
#    y 0.000000 3.593420 0.000000 
#    z 0.000000 0.000000 3.145780 
# 
# 
# High freq. dielectric constant tensor:
#      x y z
#    x 1.754490 0.000000 0.000000 
#    y 0.000000 1.725870 0.000000 
#    z 0.000000 0.000000 1.691620 
# 
# From -- ./inp_files/20981.got.cif
#   From: 2010.03.12/outbox.cif.g09.slc.cpg/sg46_11_cif.got.tgz:20981.got - 2010.04.14 02:56:35.
