data_PCOD8191147
_publ_section_title
;
Structure prediction by ZEFSAII (Michael W. Deem and Ramdas Pophale) SiO2 
 PCOD8191147
Probable space group: I M A 2
;
_chemical_formula_sum "Si O2"
_cell_formula_units_Z 64
_cell_length_a 14.130146
_cell_length_b 13.361458
_cell_length_c 18.573556
_cell_angle_alpha 90.000000
_cell_angle_beta 90.000000
_cell_angle_gamma 90.000000
_cell_volume 3506.675343
_symmetry_space_group_name_H-M "I M A 2"
_symmetry_group_IT_number 46
_symmetry_cell_setting 'orthorhombic'
loop_
_space_group_symop_operation_xyz
x,y,z
-x,-y,z
1/2-x,y,z
1/2+x,-y,z
1/2+x,1/2+y,1/2+z
1/2-x,1/2-y,1/2+z
-x,1/2+y,1/2+z
x,1/2-y,1/2+z
loop_
_atom_site_type_symbol
_atom_site_label
_atom_site_fract_x
_atom_site_fract_y
_atom_site_fract_z
Si Si1 0.506346 0.881204 0.419480
Si Si2 0.641112 0.389311 0.480979
Si Si3 0.147373 0.419515 0.553048
Si Si4 0.467414 0.735663 0.713519
Si Si5 0.002582 0.752864 0.556623
Si Si6 0.860743 0.236670 0.847281
Si Si7 0.894651 0.024161 0.192893
Si Si8 0.641342 0.644522 0.793866
O O1 0.518056 0.842712 0.501393
O O2 0.413741 0.834035 0.380899
O O3 0.599660 0.849237 0.374538
O O4 0.500000 0.000000 0.421517
O O5 0.750000 0.385908 0.502989
O O6 0.603059 0.502399 0.494653
O O7 0.593362 0.309161 0.533001
O O8 0.624840 0.359242 0.398411
O O9 0.250000 0.381662 0.526990
O O10 0.165587 0.481698 0.626775
O O11 0.085238 0.321807 0.560921
O O12 0.478106 0.794324 0.637639
O O13 0.412237 0.799911 0.773794
O O14 0.393727 0.642784 0.704781
O O15 0.573549 0.706999 0.739824
O O16 0.750000 0.262764 0.837264
O O17 0.861793 0.970773 0.266894
O O18 0.000000 0.000000 0.169354
O O19 0.750000 0.684749 0.793131
#
# Coordination Sequence:
#
# PCOD8191147 Si02
#       8
#     8   8   8   8   8   8   8   8
#     4  10  22  37  53  73 101 143 184 222 258 309
#     4   9  18  32  51  75 106 141 172 207 261 321
#     4  11  19  29  50  80 111 140 168 207 268 326
#     4  10  19  30  49  78 106 135 173 216 262 317
#     4  11  20  34  52  74 109 138 174 223 262 315
#     4   9  19  35  54  77 105 137 172 215 268 317
#     4  10  16  27  46  73 106 133 163 204 264 312
#     4  10  19  32  51  76 106 137 169 212 267 321
#
# _framework density 18.250906000000001
#
# number of rings (size 3 to 8) (size 9 to 14) (size 15 to 20)
#    0.000    2.000    3.750    2.625    0.000    3.500 
#    0.000    0.000    0.000    4.500    0.000    0.000 
#    0.000    0.000    0.000    0.000    0.000    0.000 
#
# Total GULP energy -396493.677398 kJ/mol
# GULP energy per Si atom -12390.427419 kJ/mol
# Density = 1.820937 g / cm^3
# Si number density = 18.250906 Si / 1000 Ang^3
#
#
#
# Elastic Constant Matrix: (Units=GPa)
#
#
# Indices 1 2 3 4 5 6 
#
# 1 97.1154 15.8639 47.1281 0.0000 0.0000 0.0000
# 2 15.8639 31.9346 34.0145 0.0000 0.0000 0.0000
# 3 47.1281 34.0145 150.8795 0.0000 0.0000 0.0000
# 4 0.0000 0.0000 0.0000 25.7454 0.0000 0.0000
# 5 0.0000 0.0000 0.0000 0.0000 17.0977 0.0000
# 6 0.0000 0.0000 0.0000 0.0000 0.0000 13.1819
#
#
#
# Elastic Compliance Matrix: (Units=1/GPa)
#
#
# Indices 1 2 3 4 5 6 
#
# 1 0.012306 -0.002657 -0.003245 0.000000 0.000000 0.000000
# 2 -0.002657 0.041783 -0.008590 0.000000 0.000000 0.000000
# 3 -0.003245 -0.008590 0.009578 0.000000 0.000000 0.000000
# 4 0.000000 0.000000 0.000000 0.038842 0.000000 0.000000
# 5 0.000000 0.000000 0.000000 0.000000 0.058488 0.000000
# 6 0.000000 0.000000 0.000000 0.000000 0.000000 0.075862
#
#
# Mechanical properties :
#
#
# Convention : Reuss Voigt Hill
#
# Bulk Modulus (GPa) = 28.83198 52.66027 40.74612
# Shear Modulus (GPa) = 18.02440 23.39984 20.71212
#
# Velocity S-wave (km/s) = 3.14600 3.58455 3.37241
# Velocity P-wave (km/s) = 5.38779 6.78588 6.12685
#
# Compressibility (1/GPa) = 0.03468371
#
# Stress axis : x y z
#
# Youngs Moduli (GPa) = 81.26342 23.93316 104.40806
#
# Poissons Ratio (x) = 0.06359 0.33878
# Poissons Ratio (y) = 0.21591 0.89684
# Poissons Ratio (z) = 0.26368 0.20558
#
# Static dielectric constant tensor:
#      x y z
#    x 3.527630 0.000000 0.000000 
#    y 0.000000 3.095980 0.000000 
#    z 0.000000 0.000000 3.647430 
# 
# 
# High freq. dielectric constant tensor:
#      x y z
#    x 1.716040 0.000000 0.000000 
#    y 0.000000 1.653070 0.000000 
#    z 0.000000 0.000000 1.713150 
# 
# From -- ./inp_files/19711.got.cif
#   From: 2010.03.12/outbox.cif.g09.slc.cpg/sg46_10_cif.got.tgz:19711.got - 2010.04.14 02:56:35.
