data_PCOD8191115
_publ_section_title
;
Structure prediction by ZEFSAII (Michael W. Deem and Ramdas Pophale) SiO2 
 PCOD8191115
Probable space group: I B A 2
;
_chemical_formula_sum "Si O2"
_cell_formula_units_Z 60
_cell_length_a 18.656694
_cell_length_b 13.456397
_cell_length_c 10.869031
_cell_angle_alpha 90.000000
_cell_angle_beta 90.000000
_cell_angle_gamma 90.000000
_cell_volume 2728.690679
_symmetry_space_group_name_H-M "I B A 2"
_symmetry_group_IT_number 45
_symmetry_cell_setting 'orthorhombic'
loop_
_space_group_symop_operation_xyz
x,y,z
-x,-y,z
-x,y,1/2+z
x,-y,1/2+z
1/2+x,1/2+y,1/2+z
1/2-x,1/2-y,1/2+z
1/2-x,1/2+y,z
1/2+x,1/2-y,z
loop_
_atom_site_type_symbol
_atom_site_label
_atom_site_fract_x
_atom_site_fract_y
_atom_site_fract_z
Si Si1 0.500000 0.500000 0.550920
Si Si2 0.376809 0.714573 0.762391
Si Si3 0.896221 0.865136 0.398441
Si Si4 0.294134 0.777087 0.551441
Si Si5 0.306062 0.492754 0.266420
Si Si6 0.283435 0.003596 0.014825
Si Si7 0.971328 0.803118 0.182224
Si Si8 0.361399 0.196643 0.514995
O O1 0.564596 0.452194 0.472913
O O2 0.461496 0.414917 0.630623
O O3 0.307961 0.763388 0.696545
O O4 0.358237 0.600480 0.789309
O O5 0.444743 0.724577 0.669655
O O6 0.394565 0.776456 0.883738
O O7 0.840726 0.804321 0.480307
O O8 0.955008 0.797332 0.329300
O O9 0.854204 0.909380 0.279730
O O10 0.318852 0.887805 0.517274
O O11 0.210319 0.762186 0.528778
O O12 0.252270 0.503357 0.381480
O O13 0.270050 0.488432 0.131534
O O14 0.344880 0.920343 0.026269
O O15 0.921221 0.723520 0.114966
#
# Coordination Sequence:
#
# PCOD8191115 Si02
#       8
#     4   8   8   8   8   8   8   8
#     4  12  24  48  68 112 146 196 240 306 396 456
#     4  12  25  48  74 108 148 191 249 310 383 458
#     4  12  25  41  71 108 146 190 236 305 376 456
#     4  12  26  46  75 108 146 190 252 313 376 455
#     4  12  23  43  74 114 146 192 245 308 383 447
#     4  12  27  44  74 110 150 194 252 313 379 449
#     4  12  27  43  74 104 152 192 241 310 382 457
#     4  12  26  47  73 110 147 197 250 311 380 460
#
# _framework density 21.988568999999998
#
# number of rings (size 3 to 8) (size 9 to 14) (size 15 to 20)
#    0.000    0.000    5.333    5.200    5.600    0.000 
#    0.000    0.667    0.000    0.000    0.000    0.000 
#    0.000    0.000    0.000    0.000    0.000    0.000 
#
# Total GULP energy -371932.168741 kJ/mol
# GULP energy per Si atom -12397.738958 kJ/mol
# Density = 2.193852 g / cm^3
# Si number density = 21.988569 Si / 1000 Ang^3
#
#
#
# Elastic Constant Matrix: (Units=GPa)
#
#
# Indices 1 2 3 4 5 6 
#
# 1 107.1282 52.6157 41.3414 0.0000 0.0000 0.0000
# 2 52.6157 128.9899 17.4465 0.0000 0.0000 0.0000
# 3 41.3414 17.4465 97.9670 0.0000 0.0000 0.0000
# 4 0.0000 0.0000 0.0000 24.9431 0.0000 0.0000
# 5 0.0000 0.0000 0.0000 0.0000 41.2171 0.0000
# 6 0.0000 0.0000 0.0000 0.0000 0.0000 41.4755
#
#
#
# Elastic Compliance Matrix: (Units=1/GPa)
#
#
# Indices 1 2 3 4 5 6 
#
# 1 0.013621 -0.004897 -0.004876 0.000000 0.000000 0.000000
# 2 -0.004897 0.009704 0.000338 0.000000 0.000000 0.000000
# 3 -0.004876 0.000338 0.012205 0.000000 0.000000 0.000000
# 4 0.000000 0.000000 0.000000 0.040091 0.000000 0.000000
# 5 0.000000 0.000000 0.000000 0.000000 0.024262 0.000000
# 6 0.000000 0.000000 0.000000 0.000000 0.000000 0.024111
#
#
# Mechanical properties :
#
#
# Convention : Reuss Voigt Hill
#
# Bulk Modulus (GPa) = 60.01923 61.87691 60.94807
# Shear Modulus (GPa) = 33.68887 36.37258 35.03072
#
# Velocity S-wave (km/s) = 3.91846 4.07155 3.99574
# Velocity P-wave (km/s) = 6.91573 7.09260 7.00472
#
# Compressibility (1/GPa) = 0.01666133
#
# Stress axis : x y z
#
# Youngs Moduli (GPa) = 73.41438 103.04818 81.93399
#
# Poissons Ratio (x) = 0.50460 0.39952
# Poissons Ratio (y) = 0.35949 -0.02771
# Poissons Ratio (z) = 0.35797 -0.03485
#
# Static dielectric constant tensor:
#      x y z
#    x 3.997300 0.000000 0.000000 
#    y 0.000000 4.029200 0.000000 
#    z 0.000000 0.000000 4.129950 
# 
# 
# High freq. dielectric constant tensor:
#      x y z
#    x 1.860620 0.000000 0.000000 
#    y 0.000000 1.853730 0.000000 
#    z 0.000000 0.000000 1.886520 
# 
# From -- ./inp_files/4489.got.cif
#   From: 2010.03.12/outbox.cif.g09.slc.cpg/sg45_3_cif.got.tgz:4489.got - 2010.04.14 02:50:11.
