data_PCOD8191383
_publ_section_title
;
Structure prediction by ZEFSAII (Michael W. Deem and Ramdas Pophale) SiO2 
 PCOD8191383
Probable space group: I M A 2
;
_chemical_formula_sum "Si O2"
_cell_formula_units_Z 60
_cell_length_a 19.372417
_cell_length_b 5.165152
_cell_length_c 29.851588
_cell_angle_alpha 90.000000
_cell_angle_beta 90.000000
_cell_angle_gamma 90.000000
_cell_volume 2986.994028
_symmetry_space_group_name_H-M "I M A 2"
_symmetry_group_IT_number 46
_symmetry_cell_setting 'orthorhombic'
loop_
_space_group_symop_operation_xyz
x,y,z
-x,-y,z
1/2-x,y,z
1/2+x,-y,z
1/2+x,1/2+y,1/2+z
1/2-x,1/2-y,1/2+z
-x,1/2+y,1/2+z
x,1/2-y,1/2+z
loop_
_atom_site_type_symbol
_atom_site_label
_atom_site_fract_x
_atom_site_fract_y
_atom_site_fract_z
Si Si1 0.669921 0.166695 0.342220
Si Si2 0.174206 0.465348 0.988127
Si Si3 0.430411 0.896057 0.420466
Si Si4 0.132087 0.508918 0.536422
Si Si5 0.500000 0.000000 0.987250
Si Si6 0.329988 0.365918 0.188098
Si Si7 0.830086 0.352718 0.633362
Si Si8 0.670692 0.679771 0.286490
O O1 0.750000 0.133635 0.357253
O O2 0.621100 0.229698 0.384536
O O3 0.661098 0.407209 0.309885
O O4 0.640107 0.911299 0.317106
O O5 0.250000 0.484661 0.965541
O O6 0.157843 0.740677 0.009985
O O7 0.179922 0.238965 0.025469
O O8 0.117027 0.400887 0.949190
O O9 0.462296 0.705336 0.456539
O O10 0.500000 0.000000 0.395955
O O11 0.058079 0.396497 0.521080
O O12 0.128746 0.581578 0.588444
O O13 0.250000 0.439235 0.193886
O O14 0.361574 0.595707 0.157226
O O15 0.364741 0.347765 0.237528
O O16 0.341525 0.088761 0.166664
O O17 0.750000 0.314725 0.620483
O O18 0.750000 0.756899 0.279208
#
# Coordination Sequence:
#
# PCOD8191383 Si02
#       8
#     8   8   8   8   4   8   8   8
#     4  10  21  35  58  87 114 145 190 238 283 334
#     4  11  22  37  58  82 115 152 188 245 296 333
#     4  11  23  40  58  82 113 152 198 237 282 349
#     4  11  22  37  57  82 116 152 196 239 282 346
#     4  10  24  42  58  80 112 158 206 232 290 346
#     4   9  17  30  51  80 116 144 174 221 286 346
#     4  10  18  29  50  83 113 144 182 229 279 333
#     4   9  18  34  54  84 117 147 178 227 289 346
#
# _framework density 20.087084000000001
#
# number of rings (size 3 to 8) (size 9 to 14) (size 15 to 20)
#    0.000    1.867    1.333    3.200    1.867    4.267 
#    0.000    2.667    0.000    0.000   10.400    0.000 
#    0.000    0.000    0.000    0.000    0.000    0.000 
#
# Total GULP energy -371720.857146 kJ/mol
# GULP energy per Si atom -12390.695238 kJ/mol
# Density = 2.004137 g / cm^3
# Si number density = 20.087084 Si / 1000 Ang^3
#
#
#
# Elastic Constant Matrix: (Units=GPa)
#
#
# Indices 1 2 3 4 5 6 
#
# 1 90.5041 21.9923 54.6853 0.0000 0.0000 0.0000
# 2 21.9923 93.4644 9.3861 0.0000 0.0000 0.0000
# 3 54.6853 9.3861 91.3285 0.0000 0.0000 0.0000
# 4 0.0000 0.0000 0.0000 -138.9353 0.0000 0.0000
# 5 0.0000 0.0000 0.0000 0.0000 -24.3325 0.0000
# 6 0.0000 0.0000 0.0000 0.0000 0.0000 -11.8143
#
#
#
# Elastic Compliance Matrix: (Units=1/GPa)
#
#
# Indices 1 2 3 4 5 6 
#
# 1 0.018228 -0.003226 -0.010583 0.000000 0.000000 0.000000
# 2 -0.003226 0.011382 0.000762 0.000000 0.000000 0.000000
# 3 -0.010583 0.000762 0.017208 0.000000 0.000000 0.000000
# 4 0.000000 0.000000 0.000000 -0.007198 0.000000 0.000000
# 5 0.000000 0.000000 0.000000 0.000000 -0.041097 0.000000
# 6 0.000000 0.000000 0.000000 0.000000 0.000000 -0.084643
#
#
# Mechanical properties :
#
#
# Convention : Reuss Voigt Hill
#
# Bulk Modulus (GPa) = 48.25429 49.71384 48.98406
# Shear Modulus (GPa) = -94.12704 -22.40085 -58.26395
#
# Velocity S-wave (km/s) = -6.85283 -3.34306 -5.39153
# Velocity P-wave (km/s) = 6.20808 3.14666 3.78410
#
# Compressibility (1/GPa) = 0.02072355
#
# Stress axis : x y z
#
# Youngs Moduli (GPa) = 54.86208 87.85907 58.11320
#
# Poissons Ratio (x) = 0.28345 0.61499
# Poissons Ratio (y) = 0.17700 -0.04428
# Poissons Ratio (z) = 0.58059 -0.06695
#
# Static dielectric constant tensor:
#      x y z
#    x 4.586680 0.000000 0.000000 
#    y 0.000000 4.532750 0.000000 
#    z 0.000000 0.000000 3.746360 
# 
# 
# High freq. dielectric constant tensor:
#      x y z
#    x 1.747540 0.000000 0.000000 
#    y 0.000000 1.791520 0.000000 
#    z 0.000000 0.000000 1.786450 
# 
# From -- ./inp_files/24698.got.cif
#   From: 2010.03.12/outbox.cif.g09.slc.cpg/sg46_13_cif.got.tgz:24698.got - 2010.04.14 02:56:35.
