data_PCOD8191866
_publ_section_title
;
Structure prediction by ZEFSAII (Michael W. Deem and Ramdas Pophale) SiO2 
 PCOD8191866
Probable space group: I M A 2
;
_chemical_formula_sum "Si O2"
_cell_formula_units_Z 64
_cell_length_a 8.975392
_cell_length_b 16.182892
_cell_length_c 22.610127
_cell_angle_alpha 90.000000
_cell_angle_beta 90.000000
_cell_angle_gamma 90.000000
_cell_volume 3284.071191
_symmetry_space_group_name_H-M "I M A 2"
_symmetry_group_IT_number 46
_symmetry_cell_setting 'orthorhombic'
loop_
_space_group_symop_operation_xyz
x,y,z
-x,-y,z
1/2-x,y,z
1/2+x,-y,z
1/2+x,1/2+y,1/2+z
1/2-x,1/2-y,1/2+z
-x,1/2+y,1/2+z
x,1/2-y,1/2+z
loop_
_atom_site_type_symbol
_atom_site_label
_atom_site_fract_x
_atom_site_fract_y
_atom_site_fract_z
Si Si1 0.572628 0.085913 0.805720
Si Si2 0.423625 0.197996 0.129437
Si Si3 0.923284 0.244569 0.518326
Si Si4 0.082125 0.588170 0.845767
Si Si5 0.082888 0.917964 0.214614
Si Si6 0.579475 0.630076 0.185743
Si Si7 0.423671 0.737981 0.386294
Si Si8 0.577729 0.919610 0.555055
O O1 0.750000 0.077810 0.810509
O O2 0.528729 0.098512 0.737139
O O3 0.511679 0.163861 0.844849
O O4 0.500000 0.000000 0.828844
O O5 0.250000 0.194655 0.114699
O O6 0.476385 0.121054 0.166409
O O7 0.463642 0.276482 0.169587
O O8 0.510757 0.194763 0.067667
O O9 0.750000 0.230163 0.530278
O O10 0.952620 0.286196 0.454574
O O11 0.004285 0.157290 0.522865
O O12 0.250000 0.572124 0.868627
O O13 0.086545 0.624098 0.778722
O O14 0.007607 0.668966 0.877518
O O15 0.000000 0.500000 0.856344
O O16 0.250000 0.927820 0.188884
O O17 0.000000 0.000000 0.231044
O O18 0.750000 0.622858 0.207813
O O19 0.554199 0.578709 0.125852
O O20 0.250000 0.745472 0.371718
O O21 0.750000 0.918909 0.538580
O O22 0.500000 0.000000 0.527802
#
# Coordination Sequence:
#
# PCOD8191866 Si02
#       8
#     8   8   8   8   8   8   8   8
#     4  11  22  37  57  81 109 141 181 227 274 325
#     4  10  20  35  54  78 108 138 175 221 268 321
#     4  10  20  36  56  75 100 138 183 224 266 317
#     4   9  18  34  55  82 113 143 177 217 265 323
#     4  10  19  32  53  80 109 140 174 214 266 324
#     4   9  19  34  53  79 109 139 172 214 264 320
#     4   9  20  38  57  77 106 145 185 225 268 319
#     4  10  20  34  52  78 111 142 174 214 262 317
#
# _framework density 19.488005999999999
#
# number of rings (size 3 to 8) (size 9 to 14) (size 15 to 20)
#    0.000    2.250    0.000    3.750    0.000    6.000 
#    0.000    6.875    0.000    1.500    0.000    0.000 
#    0.000    0.000    0.000    0.000    0.000    0.000 
#
# Total GULP energy -396564.556437 kJ/mol
# GULP energy per Si atom -12392.642389 kJ/mol
# Density = 1.944365 g / cm^3
# Si number density = 19.488006 Si / 1000 Ang^3
#
#
#
# Elastic Constant Matrix: (Units=GPa)
#
#
# Indices 1 2 3 4 5 6 
#
# 1 83.3591 28.4268 32.3402 0.0000 0.0000 0.0000
# 2 28.4268 75.0975 36.5574 0.0000 0.0000 0.0000
# 3 32.3402 36.5574 72.2305 0.0000 0.0000 0.0000
# 4 0.0000 0.0000 0.0000 16.8173 0.0000 0.0000
# 5 0.0000 0.0000 0.0000 0.0000 21.6473 0.0000
# 6 0.0000 0.0000 0.0000 0.0000 0.0000 32.3147
#
#
#
# Elastic Compliance Matrix: (Units=1/GPa)
#
#
# Indices 1 2 3 4 5 6 
#
# 1 0.015081 -0.003213 -0.005126 0.000000 0.000000 0.000000
# 2 -0.003213 0.018354 -0.007851 0.000000 0.000000 0.000000
# 3 -0.005126 -0.007851 0.020113 0.000000 0.000000 0.000000
# 4 0.000000 0.000000 0.000000 0.059463 0.000000 0.000000
# 5 0.000000 0.000000 0.000000 0.000000 0.046195 0.000000
# 6 0.000000 0.000000 0.000000 0.000000 0.000000 0.030946
#
#
# Mechanical properties :
#
#
# Convention : Reuss Voigt Hill
#
# Bulk Modulus (GPa) = 47.24086 47.25957 47.25021
# Shear Modulus (GPa) = 21.77824 23.04669 22.41247
#
# Velocity S-wave (km/s) = 3.34656 3.44264 3.39494
# Velocity P-wave (km/s) = 6.26309 6.33290 6.29809
#
# Compressibility (1/GPa) = 0.02116811
#
# Stress axis : x y z
#
# Youngs Moduli (GPa) = 66.30985 54.48387 49.71909
#
# Poissons Ratio (x) = 0.17507 0.25485
# Poissons Ratio (y) = 0.21307 0.39033
# Poissons Ratio (z) = 0.33990 0.42774
#
# Static dielectric constant tensor:
#      x y z
#    x 3.489420 0.000000 0.000000 
#    y 0.000000 3.636090 0.000000 
#    z 0.000000 0.000000 3.466750 
# 
# 
# High freq. dielectric constant tensor:
#      x y z
#    x 1.753110 0.000000 0.000000 
#    y 0.000000 1.753570 0.000000 
#    z 0.000000 0.000000 1.753320 
# 
# From -- ./inp_files/21325.got.cif
#   From: 2010.03.12/outbox.cif.g09.slc.cpg/sg46_11_cif.got.tgz:21325.got - 2010.04.14 02:56:35.
