data_PCOD8191662
_publ_section_title
;
Structure prediction by ZEFSAII (Michael W. Deem and Ramdas Pophale) SiO2 
 PCOD8191662
Probable space group: I M A 2
;
_chemical_formula_sum "Si O2"
_cell_formula_units_Z 64
_cell_length_a 9.123736
_cell_length_b 30.200580
_cell_length_c 14.368164
_cell_angle_alpha 90.000000
_cell_angle_beta 90.000000
_cell_angle_gamma 90.000000
_cell_volume 3959.034354
_symmetry_space_group_name_H-M "I M A 2"
_symmetry_group_IT_number 46
_symmetry_cell_setting 'orthorhombic'
loop_
_space_group_symop_operation_xyz
x,y,z
-x,-y,z
1/2-x,y,z
1/2+x,-y,z
1/2+x,1/2+y,1/2+z
1/2-x,1/2-y,1/2+z
-x,1/2+y,1/2+z
x,1/2-y,1/2+z
loop_
_atom_site_type_symbol
_atom_site_label
_atom_site_fract_x
_atom_site_fract_y
_atom_site_fract_z
Si Si1 0.918907 0.637113 0.015860
Si Si2 0.576190 0.785530 0.645693
Si Si3 0.416706 0.867343 0.171216
Si Si4 0.921184 0.542287 0.970286
Si Si5 0.919326 0.730348 0.351449
Si Si6 0.917514 0.180823 0.359644
Si Si7 0.419015 0.196185 0.047145
Si Si8 0.073554 0.544102 0.772167
O O1 0.750000 0.648846 0.997269
O O2 0.982769 0.669651 0.095821
O O3 0.937320 0.584784 0.039068
O O4 0.006270 0.643318 0.920615
O O5 0.750000 0.785455 0.641729
O O6 0.521395 0.788102 0.752830
O O7 0.515745 0.741304 0.594116
O O8 0.250000 0.871173 0.138880
O O9 0.436043 0.831444 0.252403
O O10 0.506647 0.848607 0.084073
O O11 0.472356 0.915321 0.205109
O O12 0.750000 0.532151 0.950728
O O13 0.000000 0.500000 0.018780
O O14 0.003627 0.551694 0.873350
O O15 0.750000 0.744011 0.342290
O O16 0.942322 0.695629 0.435383
O O17 0.007326 0.773130 0.381945
O O18 0.750000 0.183730 0.389684
O O19 0.250000 0.193391 0.074116
O O20 0.250000 0.540571 0.780584
O O21 0.000000 0.500000 0.728179
#
# Coordination Sequence:
#
# PCOD8191662 Si02
#       8
#     8   8   8   8   8   8   8   8
#     4  10  19  32  48  68  92 126 163 190 228 275
#     4   9  17  30  48  68  92 119 156 200 230 265
#     4  10  21  33  45  66  98 128 155 190 234 277
#     4  10  19  29  46  68  94 124 154 191 231 279
#     4  10  19  33  48  66  93 124 159 200 234 266
#     4  11  20  29  44  67  96 127 156 192 229 271
#     4  10  19  30  49  70  89 122 162 196 229 272
#     4  10  19  32  47  67  95 124 154 190 232 278
#
# _framework density 16.165558999999998
#
# number of rings (size 3 to 8) (size 9 to 14) (size 15 to 20)
#    0.000    2.000    3.750    1.875    0.000    2.500 
#    0.000    0.625    0.000    0.000    0.000    0.875 
#    0.000    4.000    0.000    0.000    0.000    0.000 
#
# Total GULP energy -396624.141595 kJ/mol
# GULP energy per Si atom -12394.504425 kJ/mol
# Density = 1.612877 g / cm^3
# Si number density = 16.165559 Si / 1000 Ang^3
#
#
#
# Elastic Constant Matrix: (Units=GPa)
#
#
# Indices 1 2 3 4 5 6 
#
# 1 58.5096 32.4734 21.4463 -0.0006 -0.0001 -0.0001
# 2 32.4734 106.9179 32.4763 -0.0014 -0.0002 -0.0001
# 3 21.4463 32.4763 67.7426 -0.0022 -0.0007 -0.0003
# 4 -0.0006 -0.0014 -0.0022 25.9750 -0.0002 -0.0001
# 5 -0.0001 -0.0002 -0.0007 -0.0002 14.9813 -0.0002
# 6 -0.0001 -0.0001 -0.0003 -0.0001 -0.0002 25.1958
#
#
#
# Elastic Compliance Matrix: (Units=1/GPa)
#
#
# Indices 1 2 3 4 5 6 
#
# 1 0.021585 -0.005244 -0.004320 0.000000 0.000000 0.000000
# 2 -0.005244 0.012221 -0.004199 0.000000 0.000000 0.000000
# 3 -0.004320 -0.004199 0.018142 0.000001 0.000001 0.000000
# 4 0.000000 0.000000 0.000001 0.038498 0.000001 0.000000
# 5 0.000000 0.000000 0.000001 0.000001 0.066750 0.000001
# 6 0.000000 0.000000 0.000000 0.000000 0.000001 0.039689
#
#
# Mechanical properties :
#
#
# Convention : Reuss Voigt Hill
#
# Bulk Modulus (GPa) = 40.94344 45.10690 43.02517
# Shear Modulus (GPa) = 21.50066 23.01536 22.25801
#
# Velocity S-wave (km/s) = 3.65091 3.77733 3.71466
# Velocity P-wave (km/s) = 6.56923 6.85477 6.71352
#
# Compressibility (1/GPa) = 0.02442394
#
# Stress axis : x y z
#
# Youngs Moduli (GPa) = 46.32877 81.82650 55.12024
#
# Poissons Ratio (x) = 0.42908 0.23809
# Poissons Ratio (y) = 0.24294 0.23143
# Poissons Ratio (z) = 0.20012 0.34357
#
# Static dielectric constant tensor:
#      x y z
#    x 3.001200 0.000000 0.000000 
#    y 0.000000 3.218850 0.000000 
#    z 0.000000 0.000000 2.966290 
# 
# 
# High freq. dielectric constant tensor:
#      x y z
#    x 1.616440 0.000000 0.000000 
#    y 0.000000 1.617710 0.000000 
#    z 0.000000 0.000000 1.590190 
# 
# From -- ./inp_files/14736.got.cif
#   From: 2010.03.12/outbox.cif.g09.slc.cpg/sg46_8_cif.got.tgz:14736.got - 2010.04.14 02:56:35.
