data_PCOD8191901
_publ_section_title
;
Structure prediction by ZEFSAII (Michael W. Deem and Ramdas Pophale) SiO2 
 PCOD8191901
Probable space group: I M A 2
;
_chemical_formula_sum "Si O2"
_cell_formula_units_Z 48
_cell_length_a 13.892109
_cell_length_b 21.816622
_cell_length_c 7.744725
_cell_angle_alpha 90.000000
_cell_angle_beta 90.000000
_cell_angle_gamma 90.000000
_cell_volume 2347.262663
_symmetry_space_group_name_H-M "I M A 2"
_symmetry_group_IT_number 46
_symmetry_cell_setting 'orthorhombic'
loop_
_space_group_symop_operation_xyz
x,y,z
-x,-y,z
1/2-x,y,z
1/2+x,-y,z
1/2+x,1/2+y,1/2+z
1/2-x,1/2-y,1/2+z
-x,1/2+y,1/2+z
x,1/2-y,1/2+z
loop_
_atom_site_type_symbol
_atom_site_label
_atom_site_fract_x
_atom_site_fract_y
_atom_site_fract_z
Si Si1 0.060258 0.140482 0.471270
Si Si2 0.555285 0.224945 0.666632
Si Si3 0.488483 0.071292 0.129845
Si Si4 0.857822 0.884748 0.830376
Si Si5 0.354313 0.253364 0.796688
Si Si6 0.360577 0.835400 0.001808
O O1 0.091547 0.104463 0.644318
O O2 0.142427 0.192179 0.438036
O O3 0.958921 0.176930 0.507600
O O4 0.051829 0.095634 0.311076
O O5 0.451377 0.259940 0.681880
O O6 0.583795 0.184229 0.829625
O O7 0.634686 0.276599 0.629265
O O8 0.500000 0.000000 0.159271
O O9 0.411817 0.078220 0.978025
O O10 0.588522 0.104934 0.082088
O O11 0.750000 0.910869 0.819739
O O12 0.859581 0.813396 0.885753
O O13 0.250000 0.259504 0.698636
O O14 0.250000 0.852092 0.965377
#
# Coordination Sequence:
#
# PCOD8191901 Si02
#       6
#     8   8   8   8   8   8
#     4  11  21  40  63  99 139 165 215 261 340 389
#     4  11  20  40  64  99 137 165 208 282 342 396
#     4  12  26  45  68  90 132 182 228 280 318 380
#     4  10  23  41  66 100 136 170 209 265 340 407
#     4  10  19  32  63 102 134 164 198 253 342 416
#     4  12  23  42  66  96 131 176 223 275 335 398
#
# _framework density 20.449352999999999
#
# number of rings (size 3 to 8) (size 9 to 14) (size 15 to 20)
#    0.000    1.000    6.667    1.000    2.333    3.333 
#    0.000    0.833    0.000    0.000    0.000    0.000 
#    0.000    0.000    0.000    0.000    0.000    0.000 
#
# Total GULP energy -297437.277989 kJ/mol
# GULP energy per Si atom -12393.219916 kJ/mol
# Density = 2.040281 g / cm^3
# Si number density = 20.449353 Si / 1000 Ang^3
#
#
#
# Elastic Constant Matrix: (Units=GPa)
#
#
# Indices 1 2 3 4 5 6 
#
# 1 128.4162 31.9599 45.6730 0.0000 0.0000 0.0000
# 2 31.9599 53.3400 42.9396 0.0004 0.0002 0.0001
# 3 45.6730 42.9396 130.4516 0.0016 0.0001 0.0002
# 4 0.0000 0.0004 0.0016 21.5359 0.0000 0.0000
# 5 0.0000 0.0002 0.0001 0.0000 20.5854 0.0000
# 6 0.0000 0.0001 0.0002 0.0000 0.0000 18.7009
#
#
#
# Elastic Compliance Matrix: (Units=1/GPa)
#
#
# Indices 1 2 3 4 5 6 
#
# 1 0.009513 -0.004107 -0.001979 0.000000 0.000000 0.000000
# 2 -0.004107 0.027279 -0.007541 0.000000 0.000000 0.000000
# 3 -0.001979 -0.007541 0.010841 -0.000001 0.000000 0.000000
# 4 0.000000 0.000000 -0.000001 0.046434 0.000000 0.000000
# 5 0.000000 0.000000 0.000000 0.000000 0.048578 0.000000
# 6 0.000000 0.000000 0.000000 0.000000 0.000000 0.053473
#
#
# Mechanical properties :
#
#
# Convention : Reuss Voigt Hill
#
# Bulk Modulus (GPa) = 49.07038 61.48365 55.27701
# Shear Modulus (GPa) = 21.72343 24.94014 23.33179
#
# Velocity S-wave (km/s) = 3.26284 3.49607 3.38147
# Velocity P-wave (km/s) = 6.18409 6.81383 6.50658
#
# Compressibility (1/GPa) = 0.02037889
#
# Stress axis : x y z
#
# Youngs Moduli (GPa) = 105.11804 36.65770 92.24399
#
# Poissons Ratio (x) = 0.15055 0.18253
# Poissons Ratio (y) = 0.43172 0.69565
# Poissons Ratio (z) = 0.20801 0.27645
#
# Static dielectric constant tensor:
#      x y z
#    x 3.791950 0.000000 0.000000 
#    y 0.000000 3.411600 0.000000 
#    z 0.000000 0.000000 3.757870 
# 
# 
# High freq. dielectric constant tensor:
#      x y z
#    x 1.794310 0.000000 0.000000 
#    y 0.000000 1.760700 0.000000 
#    z 0.000000 0.000000 1.811780 
# 
# From -- ./inp_files/5819.got.cif
#   From: 2010.03.12/outbox.cif.g09.slc.cpg/sg46_3_cif.got.tgz:5819.got - 2010.04.14 02:56:35.
