data_PCOD8191391
_publ_section_title
;
Structure prediction by ZEFSAII (Michael W. Deem and Ramdas Pophale) SiO2 
 PCOD8191391
Probable space group: I M A 2
;
_chemical_formula_sum "Si O2"
_cell_formula_units_Z 64
_cell_length_a 8.806346
_cell_length_b 26.626016
_cell_length_c 18.358404
_cell_angle_alpha 90.000000
_cell_angle_beta 90.000000
_cell_angle_gamma 90.000000
_cell_volume 4304.640192
_symmetry_space_group_name_H-M "I M A 2"
_symmetry_group_IT_number 46
_symmetry_cell_setting 'orthorhombic'
loop_
_space_group_symop_operation_xyz
x,y,z
-x,-y,z
1/2-x,y,z
1/2+x,-y,z
1/2+x,1/2+y,1/2+z
1/2-x,1/2-y,1/2+z
-x,1/2+y,1/2+z
x,1/2-y,1/2+z
loop_
_atom_site_type_symbol
_atom_site_label
_atom_site_fract_x
_atom_site_fract_y
_atom_site_fract_z
Si Si1 0.084590 0.803539 0.400960
Si Si2 0.928063 0.552069 0.281217
Si Si3 0.071840 0.258034 0.113598
Si Si4 0.583484 0.202716 0.991631
Si Si5 0.429043 0.852797 0.852076
Si Si6 0.568123 0.246441 0.767271
Si Si7 0.567852 0.353096 0.039929
Si Si8 0.929314 0.552334 0.114515
O O1 0.250000 0.825766 0.382456
O O2 0.103977 0.752161 0.444360
O O3 0.005353 0.789384 0.324128
O O4 0.004104 0.842384 0.457167
O O5 0.750000 0.546819 0.288996
O O6 0.975644 0.563330 0.197898
O O7 0.000000 0.500000 0.308283
O O8 0.985278 0.596642 0.331773
O O9 0.250000 0.267739 0.112950
O O10 0.016399 0.241497 0.192830
O O11 0.987945 0.309686 0.094040
O O12 0.031856 0.212661 0.058081
O O13 0.750000 0.188007 0.023235
O O14 0.523677 0.160034 0.935717
O O15 0.250000 0.861466 0.846641
O O16 0.478602 0.808578 0.796682
O O17 0.750000 0.250011 0.759094
O O18 0.750000 0.353273 0.041619
O O19 0.501974 0.405838 0.063633
O O20 0.750000 0.551201 0.103718
O O21 0.000000 0.500000 0.088502
#
# Coordination Sequence:
#
# PCOD8191391 Si02
#       8
#     8   8   8   8   8   8   8   8
#     4   7  13  26  43  60  77 102 139 172 201 241
#     4  10  20  31  43  59  83 111 141 175 209 243
#     4  11  20  27  38  61  88 112 140 173 205 244
#     4   8  15  29  44  58  78 107 139 170 204 246
#     4   9  17  29  46  63  80 106 142 176 209 248
#     4   9  16  28  44  60  81 111 141 170 204 247
#     4  10  18  30  46  61  80 110 143 175 210 248
#     4  10  20  32  44  62  85 111 142 175 208 243
#
# _framework density 14.867677
#
# number of rings (size 3 to 8) (size 9 to 14) (size 15 to 20)
#    0.000    2.750    0.000    5.250    0.000    4.500 
#    0.000    5.625    0.000    0.000    0.000    0.000 
#    0.000    1.000    0.000    4.750    0.000    4.125 
#
# Total GULP energy -396526.607205 kJ/mol
# GULP energy per Si atom -12391.456475 kJ/mol
# Density = 1.483384 g / cm^3
# Si number density = 14.867677 Si / 1000 Ang^3
#
#
#
# Elastic Constant Matrix: (Units=GPa)
#
#
# Indices 1 2 3 4 5 6 
#
# 1 58.5199 34.2258 36.7603 0.0000 0.0000 0.0000
# 2 34.2258 93.0805 57.4604 0.0000 0.0000 0.0000
# 3 36.7603 57.4604 101.9880 0.0003 -0.0001 0.0000
# 4 0.0000 0.0000 0.0003 24.5713 0.0000 0.0000
# 5 0.0000 0.0000 -0.0001 0.0000 14.0953 0.0000
# 6 0.0000 0.0000 0.0000 0.0000 0.0000 22.4852
#
#
#
# Elastic Compliance Matrix: (Units=1/GPa)
#
#
# Indices 1 2 3 4 5 6 
#
# 1 0.023662 -0.005268 -0.005561 0.000000 0.000000 0.000000
# 2 -0.005268 0.017645 -0.008043 0.000000 0.000000 0.000000
# 3 -0.005561 -0.008043 0.016341 0.000000 0.000000 0.000000
# 4 0.000000 0.000000 0.000000 0.040698 0.000000 0.000000
# 5 0.000000 0.000000 0.000000 0.000000 0.070946 0.000000
# 6 0.000000 0.000000 0.000000 0.000000 0.000000 0.044474
#
#
# Mechanical properties :
#
#
# Convention : Reuss Voigt Hill
#
# Bulk Modulus (GPa) = 50.23736 56.72016 53.47876
# Shear Modulus (GPa) = 19.36906 20.57313 19.97109
#
# Velocity S-wave (km/s) = 3.61330 3.72391 3.66902
# Velocity P-wave (km/s) = 7.16037 7.53146 7.34826
#
# Compressibility (1/GPa) = 0.01990551
#
# Stress axis : x y z
#
# Youngs Moduli (GPa) = 42.26133 56.67232 61.19681
#
# Poissons Ratio (x) = 0.29854 0.34031
# Poissons Ratio (y) = 0.22263 0.49219
# Poissons Ratio (z) = 0.23501 0.45580
#
# Static dielectric constant tensor:
#      x y z
#    x 2.787250 0.000000 0.000000 
#    y 0.000000 2.785150 0.000000 
#    z 0.000000 0.000000 3.092490 
# 
# 
# High freq. dielectric constant tensor:
#      x y z
#    x 1.564870 0.000000 0.000000 
#    y 0.000000 1.538320 0.000000 
#    z 0.000000 0.000000 1.561270 
# 
# From -- ./inp_files/18649.got.cif
#   From: 2010.03.12/outbox.cif.g09.slc.cpg/sg46_10_cif.got.tgz:18649.got - 2010.04.14 02:56:35.
