data_PCOD8191561
_publ_section_title
;
Structure prediction by ZEFSAII (Michael W. Deem and Ramdas Pophale) SiO2 
 PCOD8191561
Probable space group: I M A 2
;
_chemical_formula_sum "Si O2"
_cell_formula_units_Z 60
_cell_length_a 26.271269
_cell_length_b 20.613619
_cell_length_c 5.290568
_cell_angle_alpha 90.000000
_cell_angle_beta 90.000000
_cell_angle_gamma 90.000000
_cell_volume 2865.085567
_symmetry_space_group_name_H-M "I M A 2"
_symmetry_group_IT_number 46
_symmetry_cell_setting 'orthorhombic'
loop_
_space_group_symop_operation_xyz
x,y,z
-x,-y,z
1/2-x,y,z
1/2+x,-y,z
1/2+x,1/2+y,1/2+z
1/2-x,1/2-y,1/2+z
-x,1/2+y,1/2+z
x,1/2-y,1/2+z
loop_
_atom_site_type_symbol
_atom_site_label
_atom_site_fract_x
_atom_site_fract_y
_atom_site_fract_z
Si Si1 0.380371 0.268786 0.241430
Si Si2 0.863607 0.512248 0.202134
Si Si3 0.250000 0.707039 0.038225
Si Si4 0.556136 0.610884 0.241016
Si Si5 0.476888 0.170999 0.241502
Si Si6 0.910269 0.286558 0.744132
Si Si7 0.192478 0.486406 0.713544
Si Si8 0.838591 0.111248 0.442475
O O1 0.348370 0.249690 0.491061
O O2 0.393489 0.344091 0.243596
O O3 0.432366 0.224766 0.238912
O O4 0.921855 0.537590 0.229339
O O5 0.833147 0.533745 0.450998
O O6 0.863012 0.433920 0.165589
O O7 0.837673 0.545191 0.952347
O O8 0.250000 0.742295 0.767201
O O9 0.300279 0.663156 0.063221
O O10 0.524460 0.623799 0.496626
O O11 0.523542 0.626046 0.991227
O O12 0.529021 0.210126 0.242264
O O13 0.891550 0.259275 0.474753
O O14 0.884587 0.356168 0.787822
O O15 0.250000 0.460727 0.712185
O O16 0.191660 0.564799 0.746638
#
# Coordination Sequence:
#
# PCOD8191561 Si02
#       8
#     8   8   4   8   8   8   8   8
#     4   8  14  25  46  73 104 136 175 227 276 312
#     4  10  22  36  62  85 119 151 201 241 305 353
#     4  12  26  40  64  92 114 152 202 250 308 356
#     4  10  18  34  56  84 114 152 193 248 278 358
#     4  10  19  34  56  81 117 150 196 242 296 337
#     4  12  24  38  59  85 115 158 205 251 308 361
#     4  10  21  39  63  81 113 157 191 240 311 350
#     4  10  25  40  61  82 123 150 197 255 307 357
#
# _framework density 20.941783000000001
#
# number of rings (size 3 to 8) (size 9 to 14) (size 15 to 20)
#    0.800    1.067    0.667    5.200    4.667    0.000 
#    0.000    0.667    0.000    0.000    0.000    0.000 
#    0.000   96.000    0.000    0.000    0.000    0.000 
#
# Total GULP energy -371762.632434 kJ/mol
# GULP energy per Si atom -12392.087748 kJ/mol
# Density = 2.089412 g / cm^3
# Si number density = 20.941783 Si / 1000 Ang^3
#
#
#
# Elastic Constant Matrix: (Units=GPa)
#
#
# Indices 1 2 3 4 5 6 
#
# 1 40.2594 16.5766 10.2029 0.0000 0.0000 0.0000
# 2 16.5766 56.8489 17.0145 0.0000 0.0000 0.0000
# 3 10.2029 17.0145 173.2132 0.0000 0.0000 0.0000
# 4 0.0000 0.0000 0.0000 21.7720 0.0000 0.0000
# 5 0.0000 0.0000 0.0000 0.0000 21.5216 0.0000
# 6 0.0000 0.0000 0.0000 0.0000 0.0000 26.5746
#
#
#
# Elastic Compliance Matrix: (Units=1/GPa)
#
#
# Indices 1 2 3 4 5 6 
#
# 1 0.028359 -0.008005 -0.000884 0.000000 0.000000 0.000000
# 2 -0.008005 0.020383 -0.001531 0.000000 0.000000 0.000000
# 3 -0.000884 -0.001531 0.005976 0.000000 0.000000 0.000000
# 4 0.000000 0.000000 0.000000 0.045930 0.000000 0.000000
# 5 0.000000 0.000000 0.000000 0.000000 0.046465 0.000000
# 6 0.000000 0.000000 0.000000 0.000000 0.000000 0.037630
#
#
# Mechanical properties :
#
#
# Convention : Reuss Voigt Hill
#
# Bulk Modulus (GPa) = 29.51733 39.76772 34.64252
# Shear Modulus (GPa) = 23.05486 29.07548 26.06517
#
# Velocity S-wave (km/s) = 3.32158 3.73016 3.53179
# Velocity P-wave (km/s) = 5.36993 6.13050 5.76277
#
# Compressibility (1/GPa) = 0.03387840
#
# Stress axis : x y z
#
# Youngs Moduli (GPa) = 35.26238 49.06135 167.34531
#
# Poissons Ratio (x) = 0.39271 0.14796
# Poissons Ratio (y) = 0.28226 0.25615
# Poissons Ratio (z) = 0.03118 0.07510
#
# Static dielectric constant tensor:
#      x y z
#    x 3.338960 0.000000 0.000000 
#    y 0.000000 3.542260 0.000000 
#    z 0.000000 0.000000 4.498440 
# 
# 
# High freq. dielectric constant tensor:
#      x y z
#    x 1.775110 0.000000 0.000000 
#    y 0.000000 1.798630 0.000000 
#    z 0.000000 0.000000 1.845520 
# 
# From -- ./inp_files/2398.got.cif
#   From: 2010.03.12/outbox.cif.g09.slc.cpg/sg46_2_cif.got.tgz:2398.got - 2010.04.14 02:56:35.
