data_PCOD8191121
_publ_section_title
;
Structure prediction by ZEFSAII (Michael W. Deem and Ramdas Pophale) SiO2 
 PCOD8191121
Probable space group: I B A 2
;
_chemical_formula_sum "Si O2"
_cell_formula_units_Z 48
_cell_length_a 9.775967
_cell_length_b 18.249273
_cell_length_c 12.195276
_cell_angle_alpha 90.000000
_cell_angle_beta 90.000000
_cell_angle_gamma 90.000000
_cell_volume 2175.689564
_symmetry_space_group_name_H-M "I B A 2"
_symmetry_group_IT_number 45
_symmetry_cell_setting 'orthorhombic'
loop_
_space_group_symop_operation_xyz
x,y,z
-x,-y,z
-x,y,1/2+z
x,-y,1/2+z
1/2+x,1/2+y,1/2+z
1/2-x,1/2-y,1/2+z
1/2-x,1/2+y,z
1/2+x,1/2-y,z
loop_
_atom_site_type_symbol
_atom_site_label
_atom_site_fract_x
_atom_site_fract_y
_atom_site_fract_z
Si Si1 0.643487 0.461105 0.127820
Si Si2 0.193610 0.112860 0.356888
Si Si3 0.623750 0.946589 0.535317
Si Si4 0.921297 0.710005 0.126207
Si Si5 0.925168 0.159052 0.464344
Si Si6 0.172362 0.755322 0.267896
O O1 0.500000 0.500000 0.108122
O O2 0.643508 0.426027 0.247417
O O3 0.767147 0.518359 0.119228
O O4 0.664368 0.396387 0.038119
O O5 0.307773 0.064728 0.416874
O O6 0.252234 0.192614 0.334698
O O7 0.068989 0.120286 0.441225
O O8 0.561095 0.872487 0.585101
O O9 0.500000 0.000000 0.514046
O O10 0.765850 0.718649 0.167441
O O11 0.027111 0.726322 0.223952
O O12 0.950523 0.764799 0.026710
O O13 0.850178 0.175957 0.349279
#
# Coordination Sequence:
#
# PCOD8191121 Si02
#       6
#     8   8   8   8   8   8
#     4  12  28  48  76 109 151 194 250 307 367 450
#     4  12  26  48  73 114 143 196 251 298 376 438
#     4  12  29  49  74 109 156 195 236 311 382 441
#     4  12  27  48  76 110 149 192 250 302 369 436
#     4  12  25  48  78 107 145 194 253 301 363 434
#     4  12  25  45  80 110 143 191 248 311 357 437
#
# _framework density 22.061969999999999
#
# number of rings (size 3 to 8) (size 9 to 14) (size 15 to 20)
#    0.000    0.000    6.667    2.000    4.667    3.333 
#    0.000    0.000    0.000    0.000    0.000    0.000 
#    0.000    0.000    0.000    0.000    0.000    0.000 
#
# Total GULP energy -297803.053596 kJ/mol
# GULP energy per Si atom -12408.460566 kJ/mol
# Density = 2.201176 g / cm^3
# Si number density = 22.061970 Si / 1000 Ang^3
#
#
#
# Elastic Constant Matrix: (Units=GPa)
#
#
# Indices 1 2 3 4 5 6 
#
# 1 96.2256 41.5048 44.7718 -0.0004 -0.0001 0.0000
# 2 41.5048 124.0628 57.7610 -0.0008 -0.0001 0.0000
# 3 44.7718 57.7610 123.3005 -0.0022 -0.0004 0.0001
# 4 -0.0004 -0.0008 -0.0022 10.0664 -0.0007 0.0002
# 5 -0.0001 -0.0001 -0.0004 -0.0007 16.6356 0.0000
# 6 0.0000 0.0000 0.0001 0.0002 0.0000 39.8927
#
#
#
# Elastic Compliance Matrix: (Units=1/GPa)
#
#
# Indices 1 2 3 4 5 6 
#
# 1 0.013223 -0.002799 -0.003490 0.000000 0.000000 0.000000
# 2 -0.002799 0.010901 -0.004090 0.000000 0.000000 0.000000
# 3 -0.003490 -0.004090 0.011294 0.000002 0.000000 0.000000
# 4 0.000000 0.000000 0.000002 0.099340 0.000004 -0.000001
# 5 0.000000 0.000000 0.000000 0.000004 0.060112 0.000000
# 6 0.000000 0.000000 0.000000 -0.000001 0.000000 0.025067
#
#
# Mechanical properties :
#
#
# Convention : Reuss Voigt Hill
#
# Bulk Modulus (GPa) = 68.21695 70.18490 69.20092
# Shear Modulus (GPa) = 20.35962 26.62237 23.49099
#
# Velocity S-wave (km/s) = 3.04112 3.47754 3.26663
# Velocity P-wave (km/s) = 6.58171 6.92864 6.75740
#
# Compressibility (1/GPa) = 0.01465911
#
# Stress axis : x y z
#
# Youngs Moduli (GPa) = 75.62305 91.73313 88.54328
#
# Poissons Ratio (x) = 0.25674 0.30906
# Poissons Ratio (y) = 0.21165 0.36218
# Poissons Ratio (z) = 0.26396 0.37523
#
# Static dielectric constant tensor:
#      x y z
#    x 4.172780 0.000000 0.000000 
#    y 0.000000 4.142750 0.000000 
#    z 0.000000 0.000000 4.063800 
# 
# 
# High freq. dielectric constant tensor:
#      x y z
#    x 1.874410 0.000000 0.000000 
#    y 0.000000 1.879700 0.000000 
#    z 0.000000 0.000000 1.877390 
# 
# From -- ./inp_files/3699.got.cif
#   From: 2010.03.12/outbox.cif.g09.slc.cpg/sg45_2_cif.got.tgz:3699.got - 2010.04.14 02:50:11.
