data_PCOD8191300
_publ_section_title
;
Structure prediction by ZEFSAII (Michael W. Deem and Ramdas Pophale) SiO2 
 PCOD8191300
Probable space group: I M A 2
;
_chemical_formula_sum "Si O2"
_cell_formula_units_Z 64
_cell_length_a 8.924814
_cell_length_b 18.395016
_cell_length_c 26.000854
_cell_angle_alpha 90.000000
_cell_angle_beta 90.000000
_cell_angle_gamma 90.000000
_cell_volume 4268.614707
_symmetry_space_group_name_H-M "I M A 2"
_symmetry_group_IT_number 46
_symmetry_cell_setting 'orthorhombic'
loop_
_space_group_symop_operation_xyz
x,y,z
-x,-y,z
1/2-x,y,z
1/2+x,-y,z
1/2+x,1/2+y,1/2+z
1/2-x,1/2-y,1/2+z
-x,1/2+y,1/2+z
x,1/2-y,1/2+z
loop_
_atom_site_type_symbol
_atom_site_label
_atom_site_fract_x
_atom_site_fract_y
_atom_site_fract_z
Si Si1 0.919127 0.840395 0.074740
Si Si2 0.925842 0.921897 0.968645
Si Si3 0.073762 0.705960 0.416558
Si Si4 0.420550 0.283938 0.006121
Si Si5 0.071853 0.170175 0.359503
Si Si6 0.926836 0.075634 0.275865
Si Si7 0.580215 0.925450 0.456403
Si Si8 0.923766 0.426238 0.657851
O O1 0.750000 0.856715 0.092118
O O2 0.940887 0.754040 0.061815
O O3 0.025829 0.859663 0.122078
O O4 0.960099 0.886312 0.024023
O O5 0.750000 0.928270 0.958324
O O6 0.999817 0.873558 0.923288
O O7 0.000000 0.000000 0.967144
O O8 0.250000 0.698348 0.406476
O O9 0.043430 0.750868 0.468340
O O10 0.996340 0.749692 0.369566
O O11 0.250000 0.265650 0.985725
O O12 0.440557 0.371419 0.005816
O O13 0.250000 0.175793 0.354590
O O14 0.021739 0.115549 0.405321
O O15 0.000391 0.141291 0.306981
O O16 0.750000 0.071760 0.285832
O O17 0.966891 0.091018 0.216508
O O18 0.000000 0.000000 0.294112
O O19 0.750000 0.947167 0.447463
O O20 0.500000 0.000000 0.468540
O O21 0.750000 0.438483 0.651265
O O22 0.000000 0.500000 0.638155
#
# Coordination Sequence:
#
# PCOD8191300 Si02
#       8
#     8   8   8   8   8   8   8   8
#     4   9  17  29  45  60  79 110 145 176 209 249
#     4  10  19  30  43  62  87 114 144 177 211 250
#     4  10  18  28  43  62  83 109 140 174 210 251
#     4   8  16  30  42  56  81 111 140 173 209 247
#     4  10  19  31  45  60  82 113 144 176 210 248
#     4  10  20  32  44  61  84 111 142 177 213 250
#     4   9  17  27  40  59  83 108 136 168 204 242
#     4  10  20  31  43  60  84 110 140 177 213 249
#
# _framework density 14.993155
#
# number of rings (size 3 to 8) (size 9 to 14) (size 15 to 20)
#    0.000    2.500    0.000    4.875    0.000    8.500 
#    0.000    0.000    0.000    0.000    0.000    0.000 
#    0.000    1.000    0.000    5.250    0.000    4.875 
#
# Total GULP energy -396654.706926 kJ/mol
# GULP energy per Si atom -12395.459591 kJ/mol
# Density = 1.495903 g / cm^3
# Si number density = 14.993155 Si / 1000 Ang^3
#
#
#
# Elastic Constant Matrix: (Units=GPa)
#
#
# Indices 1 2 3 4 5 6 
#
# 1 79.3692 42.4936 34.9373 0.0000 0.0000 0.0000
# 2 42.4936 95.6521 40.3927 0.0000 0.0000 0.0000
# 3 34.9373 40.3927 61.9242 0.0000 0.0000 0.0000
# 4 0.0000 0.0000 0.0000 25.0297 0.0000 0.0000
# 5 0.0000 0.0000 0.0000 0.0000 22.5199 0.0000
# 6 0.0000 0.0000 0.0000 0.0000 0.0000 27.6926
#
#
#
# Elastic Compliance Matrix: (Units=1/GPa)
#
#
# Indices 1 2 3 4 5 6 
#
# 1 0.018499 -0.005260 -0.007006 0.000000 0.000000 0.000000
# 2 -0.005260 0.015925 -0.007420 0.000000 0.000000 0.000000
# 3 -0.007006 -0.007420 0.024942 0.000000 0.000000 0.000000
# 4 0.000000 0.000000 0.000000 0.039953 0.000000 0.000000
# 5 0.000000 0.000000 0.000000 0.000000 0.044405 0.000000
# 6 0.000000 0.000000 0.000000 0.000000 0.000000 0.036111
#
#
# Mechanical properties :
#
#
# Convention : Reuss Voigt Hill
#
# Bulk Modulus (GPa) = 50.01609 52.51031 51.26320
# Shear Modulus (GPa) = 22.13650 22.98987 22.56319
#
# Velocity S-wave (km/s) = 3.84662 3.92006 3.88351
# Velocity P-wave (km/s) = 7.29111 7.45574 7.37388
#
# Compressibility (1/GPa) = 0.01999357
#
# Stress axis : x y z
#
# Youngs Moduli (GPa) = 54.05555 62.79618 40.09330
#
# Poissons Ratio (x) = 0.33029 0.28091
# Poissons Ratio (y) = 0.28431 0.29749
# Poissons Ratio (z) = 0.37874 0.46595
#
# Static dielectric constant tensor:
#      x y z
#    x 2.931010 0.000000 0.000000 
#    y 0.000000 2.993940 0.000000 
#    z 0.000000 0.000000 2.718220 
# 
# 
# High freq. dielectric constant tensor:
#      x y z
#    x 1.587180 0.000000 0.000000 
#    y 0.000000 1.565610 0.000000 
#    z 0.000000 0.000000 1.535500 
# 
# From -- ./inp_files/23296.got.cif
#   From: 2010.03.12/outbox.cif.g09.slc.cpg/sg46_12_cif.got.tgz:23296.got - 2010.04.14 02:56:35.
