data_PCOD8191364
_publ_section_title
;
Structure prediction by ZEFSAII (Michael W. Deem and Ramdas Pophale) SiO2 
 PCOD8191364
Probable space group: I M A 2
;
_chemical_formula_sum "Si O2"
_cell_formula_units_Z 56
_cell_length_a 8.621134
_cell_length_b 18.385865
_cell_length_c 20.917125
_cell_angle_alpha 90.000000
_cell_angle_beta 90.000000
_cell_angle_gamma 90.000000
_cell_volume 3315.510855
_symmetry_space_group_name_H-M "I M A 2"
_symmetry_group_IT_number 46
_symmetry_cell_setting 'orthorhombic'
loop_
_space_group_symop_operation_xyz
x,y,z
-x,-y,z
1/2-x,y,z
1/2+x,-y,z
1/2+x,1/2+y,1/2+z
1/2-x,1/2-y,1/2+z
-x,1/2+y,1/2+z
x,1/2-y,1/2+z
loop_
_atom_site_type_symbol
_atom_site_label
_atom_site_fract_x
_atom_site_fract_y
_atom_site_fract_z
Si Si1 0.072336 0.075976 0.711530
Si Si2 0.931884 0.660112 0.335028
Si Si3 0.930331 0.207944 0.275902
Si Si4 0.567045 0.578144 0.713166
Si Si5 0.429894 0.278744 0.153790
Si Si6 0.566605 0.154671 0.088569
Si Si7 0.932649 0.579501 0.465162
O O1 0.250000 0.059663 0.724158
O O2 0.002538 0.108820 0.777652
O O3 0.048609 0.133651 0.652888
O O4 0.000000 0.000000 0.690886
O O5 0.750000 0.671518 0.325089
O O6 0.974145 0.624367 0.401989
O O7 0.010072 0.740139 0.333149
O O8 0.750000 0.191716 0.284754
O O9 0.021156 0.131125 0.272196
O O10 0.962678 0.249530 0.210214
O O11 0.500000 0.500000 0.730351
O O12 0.750000 0.574084 0.704774
O O13 0.493600 0.605858 0.646937
O O14 0.250000 0.259048 0.167007
O O15 0.490234 0.236226 0.090853
O O16 0.750000 0.160982 0.092189
O O17 0.517608 0.118056 0.023131
O O18 0.750000 0.575798 0.478145
O O19 0.000000 0.500000 0.455692
#
# Coordination Sequence:
#
# PCOD8191364 Si02
#       7
#     8   8   8   8   8   8   8
#     4   9  17  28  45  69  95 121 151 189 231 275
#     4   9  19  34  48  65  93 129 162 192 229 274
#     4  10  18  29  47  70  93 120 155 193 235 280
#     4  11  20  32  49  70  97 125 156 194 238 283
#     4   9  17  31  47  65  91 123 157 192 234 281
#     4  11  21  33  48  68  94 125 162 198 236 281
#     4  11  22  35  50  69  96 129 164 198 233 274
#
# _framework density 16.890308000000001
#
# number of rings (size 3 to 8) (size 9 to 14) (size 15 to 20)
#    0.000    2.000    0.000    8.143    0.000    4.000 
#    0.000    0.000    0.000    0.000    0.000    1.000 
#    0.000    4.571    0.000    0.000    0.000    0.000 
#
# Total GULP energy -347064.849257 kJ/mol
# GULP energy per Si atom -12395.173188 kJ/mol
# Density = 1.685186 g / cm^3
# Si number density = 16.890308 Si / 1000 Ang^3
#
#
#
# Elastic Constant Matrix: (Units=GPa)
#
#
# Indices 1 2 3 4 5 6 
#
# 1 93.1682 55.7119 33.1886 0.0000 0.0000 0.0000
# 2 55.7119 149.8720 50.5493 0.0000 0.0000 0.0000
# 3 33.1886 50.5493 56.4712 0.0000 0.0000 0.0000
# 4 0.0000 0.0000 0.0000 30.0346 0.0000 0.0000
# 5 0.0000 0.0000 0.0000 0.0000 19.4888 0.0000
# 6 0.0000 0.0000 0.0000 0.0000 0.0000 32.3952
#
#
#
# Elastic Compliance Matrix: (Units=1/GPa)
#
#
# Indices 1 2 3 4 5 6 
#
# 1 0.014881 -0.003699 -0.005435 0.000000 0.000000 0.000000
# 2 -0.003699 0.010477 -0.007205 0.000000 0.000000 0.000000
# 3 -0.005435 -0.007205 0.027352 0.000000 0.000000 0.000000
# 4 0.000000 0.000000 0.000000 0.033295 0.000000 0.000000
# 5 0.000000 0.000000 0.000000 0.000000 0.051311 0.000000
# 6 0.000000 0.000000 0.000000 0.000000 0.000000 0.030869
#
#
# Mechanical properties :
#
#
# Convention : Reuss Voigt Hill
#
# Bulk Modulus (GPa) = 49.91743 64.26788 57.09265
# Shear Modulus (GPa) = 24.09176 27.05451 25.57314
#
# Velocity S-wave (km/s) = 3.78082 4.00656 3.89533
# Velocity P-wave (km/s) = 6.97693 7.71597 7.35574
#
# Compressibility (1/GPa) = 0.02003308
#
# Stress axis : x y z
#
# Youngs Moduli (GPa) = 67.19993 95.44408 36.56077
#
# Poissons Ratio (x) = 0.35301 0.19871
# Poissons Ratio (y) = 0.24854 0.26342
# Poissons Ratio (z) = 0.36523 0.68767
#
# Static dielectric constant tensor:
#      x y z
#    x 3.242500 0.000000 0.000000 
#    y 0.000000 3.572670 0.000000 
#    z 0.000000 0.000000 2.994590 
# 
# 
# High freq. dielectric constant tensor:
#      x y z
#    x 1.665320 0.000000 0.000000 
#    y 0.000000 1.660400 0.000000 
#    z 0.000000 0.000000 1.604970 
# 
# From -- ./inp_files/21225.got.cif
#   From: 2010.03.12/outbox.cif.g09.slc.cpg/sg46_11_cif.got.tgz:21225.got - 2010.04.14 02:56:35.
