data_PCOD8191062
_publ_section_title
;
Structure prediction by ZEFSAII (Michael W. Deem and Ramdas Pophale) SiO2 
 PCOD8191062
Probable space group: I B A 2
;
_chemical_formula_sum "Si O2"
_cell_formula_units_Z 48
_cell_length_a 8.431863
_cell_length_b 27.536501
_cell_length_c 9.308687
_cell_angle_alpha 90.000000
_cell_angle_beta 90.000000
_cell_angle_gamma 90.000000
_cell_volume 2161.328219
_symmetry_space_group_name_H-M "I B A 2"
_symmetry_group_IT_number 45
_symmetry_cell_setting 'orthorhombic'
loop_
_space_group_symop_operation_xyz
x,y,z
-x,-y,z
-x,y,1/2+z
x,-y,1/2+z
1/2+x,1/2+y,1/2+z
1/2-x,1/2-y,1/2+z
1/2-x,1/2+y,z
1/2+x,1/2-y,z
loop_
_atom_site_type_symbol
_atom_site_label
_atom_site_fract_x
_atom_site_fract_y
_atom_site_fract_z
Si Si1 0.183460 0.687738 0.344270
Si Si2 0.820089 0.707518 0.349080
Si Si3 0.156972 0.451588 0.493551
Si Si4 0.186324 0.145356 0.077612
Si Si5 0.332226 0.045239 0.656544
Si Si6 0.323149 0.644414 0.613755
O O1 0.286357 0.736236 0.325893
O O2 0.258329 0.646096 0.242978
O O3 0.196450 0.666697 0.503556
O O4 0.001016 0.697326 0.307569
O O5 0.780475 0.691508 0.511367
O O6 0.701585 0.673471 0.260032
O O7 0.269941 0.405325 0.503876
O O8 0.131506 0.464199 0.325187
O O9 0.236046 0.496772 0.579510
O O10 0.990979 0.439603 0.571218
O O11 0.999818 0.153072 0.057972
O O12 0.203376 0.087375 0.639025
#
# Coordination Sequence:
#
# PCOD8191062 Si02
#       6
#     8   8   8   8   8   8
#     4  12  26  42  75  94 141 180 228 281 333 407
#     4  12  24  48  65 104 131 184 230 277 341 399
#     4  11  24  44  71 103 138 178 228 277 340 408
#     4  12  26  44  67 102 140 178 225 282 340 402
#     4  11  24  44  71 103 138 178 228 277 340 408
#     4  12  26  44  67 102 140 178 225 282 340 402
#
# _framework density 22.208565
#
# number of rings (size 3 to 8) (size 9 to 14) (size 15 to 20)
#    0.000    0.333    1.667    9.000    4.667    0.667 
#    0.000    1.667    0.000    0.000    0.000    0.000 
#    0.000    0.000    0.000    0.000    0.000    0.000 
#
# Total GULP energy -297712.479926 kJ/mol
# GULP energy per Si atom -12404.686664 kJ/mol
# Density = 2.215802 g / cm^3
# Si number density = 22.208565 Si / 1000 Ang^3
#
#
#
# Elastic Constant Matrix: (Units=GPa)
#
#
# Indices 1 2 3 4 5 6 
#
# 1 85.9403 30.4929 44.4573 0.0031 -0.0042 0.0023
# 2 30.4929 109.5369 38.5547 -0.0082 0.0000 -0.0038
# 3 44.4573 38.5547 113.8188 -0.0361 0.0123 -0.0166
# 4 0.0031 -0.0082 -0.0361 44.0247 0.0008 -0.0050
# 5 -0.0042 0.0000 0.0123 0.0008 29.7709 -0.0015
# 6 0.0023 -0.0038 -0.0166 -0.0050 -0.0015 29.4198
#
#
#
# Elastic Compliance Matrix: (Units=1/GPa)
#
#
# Indices 1 2 3 4 5 6 
#
# 1 0.015127 -0.002420 -0.005089 -0.000006 0.000004 -0.000004
# 2 -0.002420 0.010752 -0.002697 0.000000 0.000001 0.000000
# 3 -0.005089 -0.002697 0.011687 0.000009 -0.000006 0.000007
# 4 -0.000006 0.000000 0.000009 0.022715 -0.000001 0.000004
# 5 0.000004 0.000001 -0.000006 -0.000001 0.033590 0.000002
# 6 -0.000004 0.000000 0.000007 0.000004 0.000002 0.033991
#
#
# Mechanical properties :
#
#
# Convention : Reuss Voigt Hill
#
# Bulk Modulus (GPa) = 58.29209 59.58953 58.94081
# Shear Modulus (GPa) = 32.46930 33.69582 33.08256
#
# Velocity S-wave (km/s) = 3.82778 3.89941 3.86376
# Velocity P-wave (km/s) = 6.77056 6.86760 6.81925
#
# Compressibility (1/GPa) = 0.01715499
#
# Stress axis : x y z
#
# Youngs Moduli (GPa) = 66.10648 93.00353 85.56384
#
# Poissons Ratio (x) = 0.22506 0.43543
# Poissons Ratio (y) = 0.15997 0.23077
# Poissons Ratio (z) = 0.33641 0.25083
#
# Static dielectric constant tensor:
#      x y z
#    x 3.693390 0.000010 0.000000 
#    y 0.000010 4.073490 0.000010 
#    z 0.000000 0.000010 4.145650 
# 
# 
# High freq. dielectric constant tensor:
#      x y z
#    x 1.864270 0.000000 0.000000 
#    y 0.000000 1.883090 0.000000 
#    z 0.000000 0.000000 1.894090 
# 
# From -- ./inp_files/1070.got.cif
#   From: 2010.03.12/outbox.cif.g09.slc.cpg/sg45_1_cif.got.tgz:1070.got - 2010.04.14 02:50:11.
