data_PCOD8191743
_publ_section_title
;
Structure prediction by ZEFSAII (Michael W. Deem and Ramdas Pophale) SiO2 
 PCOD8191743
Probable space group: I M A 2
;
_chemical_formula_sum "Si O2"
_cell_formula_units_Z 64
_cell_length_a 9.037256
_cell_length_b 29.454848
_cell_length_c 13.242163
_cell_angle_alpha 90.000000
_cell_angle_beta 90.000000
_cell_angle_gamma 90.000000
_cell_volume 3524.944635
_symmetry_space_group_name_H-M "I M A 2"
_symmetry_group_IT_number 46
_symmetry_cell_setting 'orthorhombic'
loop_
_space_group_symop_operation_xyz
x,y,z
-x,-y,z
1/2-x,y,z
1/2+x,-y,z
1/2+x,1/2+y,1/2+z
1/2-x,1/2-y,1/2+z
-x,1/2+y,1/2+z
x,1/2-y,1/2+z
loop_
_atom_site_type_symbol
_atom_site_label
_atom_site_fract_x
_atom_site_fract_y
_atom_site_fract_z
Si Si1 0.925329 0.389595 0.233840
Si Si2 0.924440 0.389088 0.828335
Si Si3 0.076280 0.547195 0.645709
Si Si4 0.423201 0.953005 0.917977
Si Si5 0.414226 0.399379 0.033830
Si Si6 0.081803 0.785943 0.342189
Si Si7 0.582281 0.705488 0.242916
Si Si8 0.091920 0.293584 0.024590
O O1 0.750000 0.388947 0.218575
O O2 0.973360 0.416436 0.334943
O O3 0.995107 0.414468 0.134489
O O4 0.979575 0.338483 0.252806
O O5 0.750000 0.392639 0.848043
O O6 0.976157 0.415826 0.728215
O O7 0.967999 0.336401 0.807351
O O8 0.003359 0.410146 0.927676
O O9 0.250000 0.539538 0.654307
O O10 0.032549 0.563325 0.531949
O O11 0.000000 0.500000 0.673183
O O12 0.250000 0.961624 0.912205
O O13 0.500000 0.000000 0.890974
O O14 0.250000 0.422318 0.032380
O O15 0.395604 0.346434 0.047522
O O16 0.250000 0.775458 0.313087
O O17 0.974493 0.746548 0.309056
O O18 0.056296 0.783712 0.462459
O O19 0.750000 0.692217 0.272899
O O20 0.573486 0.729067 0.133156
O O21 0.250000 0.278099 0.974314
#
# Coordination Sequence:
#
# PCOD8191743 Si02
#       8
#     8   8   8   8   8   8   8   8
#     4  10  19  33  53  78 105 135 176 218 262 315
#     4   9  18  33  53  76 104 137 174 216 262 314
#     4   9  18  35  56  78 106 138 174 216 264 315
#     4   9  19  35  56  79 106 139 175 217 264 315
#     4   9  17  30  51  76 101 132 168 209 257 309
#     4  10  19  31  49  74 100 133 172 212 258 307
#     4  10  20  34  51  72 103 138 172 213 259 309
#     4   8  16  31  48  65  91 130 167 203 250 300
#
# _framework density 18.156313000000001
#
# number of rings (size 3 to 8) (size 9 to 14) (size 15 to 20)
#    0.000    2.750    0.000    2.250    0.000    5.500 
#    2.250    0.625    0.000    0.000    0.000    0.000 
#    0.000    0.000    0.000    0.000    0.000    0.000 
#
# Total GULP energy -396452.009074 kJ/mol
# GULP energy per Si atom -12389.125284 kJ/mol
# Density = 1.811499 g / cm^3
# Si number density = 18.156313 Si / 1000 Ang^3
#
#
#
# Elastic Constant Matrix: (Units=GPa)
#
#
# Indices 1 2 3 4 5 6 
#
# 1 69.6005 34.8950 47.8914 0.0002 0.0000 0.0001
# 2 34.8950 71.0371 60.6255 -0.0008 0.0000 0.0001
# 3 47.8914 60.6255 127.9583 -0.0021 -0.0001 0.0002
# 4 0.0002 -0.0008 -0.0021 22.9884 0.0000 0.0001
# 5 0.0000 0.0000 -0.0001 0.0000 26.2658 0.0000
# 6 0.0001 0.0001 0.0002 0.0001 0.0000 23.1665
#
#
#
# Elastic Compliance Matrix: (Units=1/GPa)
#
#
# Indices 1 2 3 4 5 6 
#
# 1 0.020766 -0.005990 -0.004934 -0.000001 0.000000 0.000000
# 2 -0.005990 0.025361 -0.009774 0.000000 0.000000 0.000000
# 3 -0.004934 -0.009774 0.014293 0.000001 0.000000 0.000000
# 4 -0.000001 0.000000 0.000001 0.043500 0.000000 0.000000
# 5 0.000000 0.000000 0.000000 0.000000 0.038072 0.000000
# 6 0.000000 0.000000 0.000000 0.000000 0.000000 0.043166
#
#
# Mechanical properties :
#
#
# Convention : Reuss Voigt Hill
#
# Bulk Modulus (GPa) = 52.56621 61.71331 57.13976
# Shear Modulus (GPa) = 21.46895 22.82975 22.14935
#
# Velocity S-wave (km/s) = 3.44241 3.54983 3.49653
# Velocity P-wave (km/s) = 6.69441 7.13201 6.91667
#
# Compressibility (1/GPa) = 0.01902363
#
# Stress axis : x y z
#
# Youngs Moduli (GPa) = 48.15585 39.43090 69.96597
#
# Poissons Ratio (x) = 0.23617 0.34524
# Poissons Ratio (y) = 0.28843 0.68385
# Poissons Ratio (z) = 0.23762 0.38540
#
# Static dielectric constant tensor:
#      x y z
#    x 3.469070 0.000000 0.000000 
#    y 0.000000 3.098980 0.000000 
#    z 0.000000 0.000000 3.636300 
# 
# 
# High freq. dielectric constant tensor:
#      x y z
#    x 1.710220 0.000000 0.000000 
#    y 0.000000 1.671280 0.000000 
#    z 0.000000 0.000000 1.711320 
# 
# From -- ./inp_files/9773.got.cif
#   From: 2010.03.12/outbox.cif.g09.slc.cpg/sg46_5_cif.got.tgz:9773.got - 2010.04.14 02:56:35.
