data_PCOD8191483
_publ_section_title
;
Structure prediction by ZEFSAII (Michael W. Deem and Ramdas Pophale) SiO2 
 PCOD8191483
Probable space group: I M A 2
;
_chemical_formula_sum "Si O2"
_cell_formula_units_Z 64
_cell_length_a 25.178402
_cell_length_b 15.698367
_cell_length_c 9.001260
_cell_angle_alpha 90.000000
_cell_angle_beta 90.000000
_cell_angle_gamma 90.000000
_cell_volume 3557.836183
_symmetry_space_group_name_H-M "I M A 2"
_symmetry_group_IT_number 46
_symmetry_cell_setting 'orthorhombic'
loop_
_space_group_symop_operation_xyz
x,y,z
-x,-y,z
1/2-x,y,z
1/2+x,-y,z
1/2+x,1/2+y,1/2+z
1/2-x,1/2-y,1/2+z
-x,1/2+y,1/2+z
x,1/2-y,1/2+z
loop_
_atom_site_type_symbol
_atom_site_label
_atom_site_fract_x
_atom_site_fract_y
_atom_site_fract_z
Si Si1 0.688606 0.356538 0.144090
Si Si2 0.064865 0.629895 0.697435
Si Si3 0.383720 0.003824 0.703971
Si Si4 0.051491 0.320311 0.711555
Si Si5 0.949125 0.123340 0.882170
Si Si6 0.071241 0.346173 0.378179
Si Si7 0.442828 0.481028 0.918559
Si Si8 0.135954 0.761176 0.364449
O O1 0.750000 0.355858 0.102713
O O2 0.672385 0.455240 0.180340
O O3 0.679444 0.303630 0.297106
O O4 0.657493 0.316762 0.002331
O O5 0.061615 0.577559 0.542084
O O6 0.069943 0.566673 0.833313
O O7 0.118970 0.683159 0.719829
O O8 0.012400 0.691591 0.699232
O O9 0.386532 0.081868 0.821754
O O10 0.401260 0.041042 0.546266
O O11 0.423775 0.928614 0.749066
O O12 0.079681 0.330782 0.552262
O O13 0.080531 0.241166 0.789460
O O14 0.060742 0.404475 0.804730
O O15 0.919399 0.214015 0.909155
O O16 0.011040 0.125840 0.844999
O O17 0.500000 0.500000 0.991165
#
# Coordination Sequence:
#
# PCOD8191483 Si02
#       8
#     8   8   8   8   8   8   8   8
#     4  11  24  39  57  82 109 146 199 249 288 330
#     4  10  18  32  49  77 109 151 178 219 270 334
#     4  11  22  34  53  74 107 149 187 236 283 335
#     4  10  21  31  51  77 117 145 185 222 264 336
#     4  10  20  31  50  75 112 145 187 218 275 341
#     4  11  20  33  49  78 111 150 185 226 276 341
#     4  10  19  31  49  75 108 144 184 220 271 333
#     4  11  19  35  57  78 108 148 183 232 284 339
#
# _framework density 17.988461000000001
#
# number of rings (size 3 to 8) (size 9 to 14) (size 15 to 20)
#    0.000    1.500    3.750    3.000    0.000    3.000 
#    0.000    0.000    0.000    0.000    0.000    3.500 
#    0.000    0.000    0.000    0.000    0.000    0.000 
#
# Total GULP energy -396492.249285 kJ/mol
# GULP energy per Si atom -12390.382790 kJ/mol
# Density = 1.794752 g / cm^3
# Si number density = 17.988461 Si / 1000 Ang^3
#
#
#
# Elastic Constant Matrix: (Units=GPa)
#
#
# Indices 1 2 3 4 5 6 
#
# 1 54.7526 26.8529 20.5977 0.0000 0.0000 0.0000
# 2 26.8529 80.3092 29.8294 0.0000 0.0000 0.0000
# 3 20.5977 29.8294 97.8632 0.0000 0.0000 0.0000
# 4 0.0000 0.0000 0.0000 98.1265 0.0000 0.0000
# 5 0.0000 0.0000 0.0000 0.0000 19.6119 0.0000
# 6 0.0000 0.0000 0.0000 0.0000 0.0000 18.6448
#
#
#
# Elastic Compliance Matrix: (Units=1/GPa)
#
#
# Indices 1 2 3 4 5 6 
#
# 1 0.022485 -0.006496 -0.002753 0.000000 0.000000 0.000000
# 2 -0.006496 0.015918 -0.003485 0.000000 0.000000 0.000000
# 3 -0.002753 -0.003485 0.011860 0.000000 0.000000 0.000000
# 4 0.000000 0.000000 0.000000 0.010191 0.000000 0.000000
# 5 0.000000 0.000000 0.000000 0.000000 0.050989 0.000000
# 6 0.000000 0.000000 0.000000 0.000000 0.000000 0.053634
#
#
# Mechanical properties :
#
#
# Convention : Reuss Voigt Hill
#
# Bulk Modulus (GPa) = 40.32768 43.05387 41.69078
# Shear Modulus (GPa) = 25.14957 37.65296 31.40126
#
# Velocity S-wave (km/s) = 3.74317 4.58008 4.18261
# Velocity P-wave (km/s) = 6.41475 7.20803 6.82293
#
# Compressibility (1/GPa) = 0.02479686
#
# Stress axis : x y z
#
# Youngs Moduli (GPa) = 44.47329 62.82083 84.31789
#
# Poissons Ratio (x) = 0.40808 0.23209
# Poissons Ratio (y) = 0.28890 0.29383
# Poissons Ratio (z) = 0.12242 0.21892
#
# Static dielectric constant tensor:
#      x y z
#    x 2.888440 0.000000 0.000000 
#    y 0.000000 3.267470 0.000000 
#    z 0.000000 0.000000 3.442380 
# 
# 
# High freq. dielectric constant tensor:
#      x y z
#    x 1.633320 0.000000 0.000000 
#    y 0.000000 1.695090 0.000000 
#    z 0.000000 0.000000 1.718930 
# 
# From -- ./inp_files/7962.got.cif
#   From: 2010.03.12/outbox.cif.g09.slc.cpg/sg46_4_cif.got.tgz:7962.got - 2010.04.14 02:56:35.
