data_PCOD8191988
_publ_section_title
;
Structure prediction by ZEFSAII (Michael W. Deem and Ramdas Pophale) SiO2 
 PCOD8191988
Probable space group: I M A 2
;
_chemical_formula_sum "Si O2"
_cell_formula_units_Z 60
_cell_length_a 9.380985
_cell_length_b 15.715580
_cell_length_c 20.503693
_cell_angle_alpha 90.000000
_cell_angle_beta 90.000000
_cell_angle_gamma 90.000000
_cell_volume 3022.810665
_symmetry_space_group_name_H-M "I M A 2"
_symmetry_group_IT_number 46
_symmetry_cell_setting 'orthorhombic'
loop_
_space_group_symop_operation_xyz
x,y,z
-x,-y,z
1/2-x,y,z
1/2+x,-y,z
1/2+x,1/2+y,1/2+z
1/2-x,1/2-y,1/2+z
-x,1/2+y,1/2+z
x,1/2-y,1/2+z
loop_
_atom_site_type_symbol
_atom_site_label
_atom_site_fract_x
_atom_site_fract_y
_atom_site_fract_z
Si Si1 0.594275 0.107062 0.650320
Si Si2 0.588131 0.239044 0.234915
Si Si3 0.590039 0.836290 0.834497
Si Si4 0.910557 0.921235 0.052983
Si Si5 0.415244 0.235670 0.976551
Si Si6 0.000000 0.500000 0.268294
Si Si7 0.910178 0.577858 0.707312
Si Si8 0.579369 0.917714 0.523994
O O1 0.750000 0.093127 0.617137
O O2 0.575105 0.206215 0.668797
O O3 0.596599 0.054330 0.718093
O O4 0.467702 0.083902 0.600407
O O5 0.750000 0.208047 0.245854
O O6 0.536778 0.293410 0.295669
O O7 0.481323 0.161755 0.233303
O O8 0.750000 0.804233 0.816715
O O9 0.553829 0.809726 0.908140
O O10 0.585774 0.937242 0.817417
O O11 0.750000 0.930730 0.025542
O O12 0.912273 0.923284 0.130032
O O13 0.977409 0.831168 0.029604
O O14 0.000000 0.000000 0.024200
O O15 0.250000 0.248128 0.990042
O O16 0.477422 0.331598 0.987323
O O17 0.750000 0.572163 0.734529
O O18 0.000000 0.500000 0.736217
O O19 0.750000 0.928735 0.520091
O O20 0.500000 0.000000 0.491790
#
# Coordination Sequence:
#
# PCOD8191988 Si02
#       8
#     8   8   8   8   8   4   8   8
#     4  10  20  34  54  84 119 147 181 234 295 355
#     4  10  21  36  54  81 114 145 186 237 286 341
#     4  10  21  38  59  80 112 155 195 232 283 349
#     4   9  18  33  54  82 113 145 185 229 278 340
#     4   9  20  38  57  80 112 154 199 237 281 347
#     4  10  20  32  58  92 118 146 190 238 288 354
#     4  10  19  33  55  82 112 147 187 232 286 340
#     4  11  22  37  59  84 113 149 194 246 297 352
#
# _framework density 19.849077000000001
#
# number of rings (size 3 to 8) (size 9 to 14) (size 15 to 20)
#    0.000    2.133    0.667    2.400    0.933    4.800 
#    0.000    4.000    0.000    1.600    0.000    0.000 
#    0.000    0.000    0.000    0.000    0.000    0.000 
#
# Total GULP energy -371702.875448 kJ/mol
# GULP energy per Si atom -12390.095848 kJ/mol
# Density = 1.980390 g / cm^3
# Si number density = 19.849077 Si / 1000 Ang^3
#
#
#
# Elastic Constant Matrix: (Units=GPa)
#
#
# Indices 1 2 3 4 5 6 
#
# 1 103.8938 41.1210 24.7690 0.0000 0.0000 0.0000
# 2 41.1210 143.0967 38.6634 0.0000 0.0000 0.0000
# 3 24.7690 38.6634 40.5911 0.0000 0.0000 0.0000
# 4 0.0000 0.0000 0.0000 27.5900 0.0000 0.0000
# 5 0.0000 0.0000 0.0000 0.0000 19.8913 0.0000
# 6 0.0000 0.0000 0.0000 0.0000 0.0000 36.0674
#
#
#
# Elastic Compliance Matrix: (Units=1/GPa)
#
#
# Indices 1 2 3 4 5 6 
#
# 1 0.011643 -0.001920 -0.005275 0.000000 0.000000 0.000000
# 2 -0.001920 0.009727 -0.008093 0.000000 0.000000 0.000000
# 3 -0.005275 -0.008093 0.035564 0.000000 0.000000 0.000000
# 4 0.000000 0.000000 0.000000 0.036245 0.000000 0.000000
# 5 0.000000 0.000000 0.000000 0.000000 0.050273 0.000000
# 6 0.000000 0.000000 0.000000 0.000000 0.000000 0.027726
#
#
# Mechanical properties :
#
#
# Convention : Reuss Voigt Hill
#
# Bulk Modulus (GPa) = 37.94231 55.18760 46.56496
# Shear Modulus (GPa) = 23.74839 28.91163 26.33001
#
# Velocity S-wave (km/s) = 3.46272 3.82065 3.64608
# Velocity P-wave (km/s) = 5.92825 6.87947 6.42150
#
# Compressibility (1/GPa) = 0.02635580
#
# Stress axis : x y z
#
# Youngs Moduli (GPa) = 85.88844 102.80873 28.11854
#
# Poissons Ratio (x) = 0.19744 0.14834
# Poissons Ratio (y) = 0.16494 0.22756
# Poissons Ratio (z) = 0.45310 0.83203
#
# Static dielectric constant tensor:
#      x y z
#    x 3.615640 0.000000 0.000000 
#    y 0.000000 4.068370 0.000000 
#    z 0.000000 0.000000 3.308600 
# 
# 
# High freq. dielectric constant tensor:
#      x y z
#    x 1.765600 0.000000 0.000000 
#    y 0.000000 1.792730 0.000000 
#    z 0.000000 0.000000 1.739700 
# 
# From -- ./inp_files/23056.got.cif
#   From: 2010.03.12/outbox.cif.g09.slc.cpg/sg46_12_cif.got.tgz:23056.got - 2010.04.14 02:56:35.
