data_PCOD8191395
_publ_section_title
;
Structure prediction by ZEFSAII (Michael W. Deem and Ramdas Pophale) SiO2 
 PCOD8191395
Probable space group: I M A 2
;
_chemical_formula_sum "Si O2"
_cell_formula_units_Z 56
_cell_length_a 8.492490
_cell_length_b 13.612965
_cell_length_c 29.210252
_cell_angle_alpha 90.000000
_cell_angle_beta 90.000000
_cell_angle_gamma 90.000000
_cell_volume 3376.937912
_symmetry_space_group_name_H-M "I M A 2"
_symmetry_group_IT_number 46
_symmetry_cell_setting 'orthorhombic'
loop_
_space_group_symop_operation_xyz
x,y,z
-x,-y,z
1/2-x,y,z
1/2+x,-y,z
1/2+x,1/2+y,1/2+z
1/2-x,1/2-y,1/2+z
-x,1/2+y,1/2+z
x,1/2-y,1/2+z
loop_
_atom_site_type_symbol
_atom_site_label
_atom_site_fract_x
_atom_site_fract_y
_atom_site_fract_z
Si Si1 0.434278 0.108126 0.070920
Si Si2 0.435641 0.394019 0.935435
Si Si3 0.564432 0.292116 0.483971
Si Si4 0.564462 0.199623 0.347539
Si Si5 0.064198 0.890728 0.164023
Si Si6 0.064426 0.110036 0.257855
Si Si7 0.065853 0.896166 0.893343
O O1 0.250000 0.098935 0.079400
O O2 0.513204 0.158714 0.116049
O O3 0.500000 0.000000 0.059724
O O4 0.470091 0.180818 0.029380
O O5 0.500000 0.500000 0.949384
O O6 0.250000 0.388203 0.942793
O O7 0.521831 0.317765 0.968933
O O8 0.476686 0.373157 0.882411
O O9 0.750000 0.300080 0.492964
O O10 0.507563 0.366808 0.444132
O O11 0.750000 0.184742 0.354696
O O12 0.514615 0.177128 0.296123
O O13 0.513063 0.311844 0.357751
O O14 0.250000 0.888422 0.170832
O O15 0.983316 0.842445 0.208789
O O16 0.000000 0.000000 0.159535
O O17 0.250000 0.109272 0.264228
O O18 0.000000 0.000000 0.261745
O O19 0.250000 0.905229 0.893986
O O20 0.000000 0.000000 0.877037
#
# Coordination Sequence:
#
# PCOD8191395 Si02
#       7
#     8   8   8   8   8   8   8
#     4  11  20  31  47  70  98 129 161 196 235 281
#     4  11  21  34  50  70  95 126 159 197 238 280
#     4  10  20  34  49  70  96 126 161 197 235 281
#     4  10  20  34  48  68  95 126 160 195 233 279
#     4  10  18  30  46  66  93 125 156 192 234 281
#     4  11  20  31  47  69  95 125 157 194 235 282
#     4   9  19  32  48  67  93 123 155 193 232 272
#
# _framework density 16.583069999999999
#
# number of rings (size 3 to 8) (size 9 to 14) (size 15 to 20)
#    0.000    1.714    0.000    9.429    0.000    4.571 
#    0.000    0.000    0.000    0.000    0.000    1.000 
#    0.000    2.286    0.000    0.000    0.000    0.000 
#
# Total GULP energy -347201.197623 kJ/mol
# GULP energy per Si atom -12400.042772 kJ/mol
# Density = 1.654533 g / cm^3
# Si number density = 16.583070 Si / 1000 Ang^3
#
#
#
# Elastic Constant Matrix: (Units=GPa)
#
#
# Indices 1 2 3 4 5 6 
#
# 1 64.7829 11.5803 4.1596 0.0000 0.0000 0.0000
# 2 11.5803 79.2959 36.1030 0.0000 0.0000 0.0000
# 3 4.1596 36.1030 110.7528 0.0000 0.0000 0.0000
# 4 0.0000 0.0000 0.0000 20.4338 0.0000 0.0000
# 5 0.0000 0.0000 0.0000 0.0000 30.2250 0.0000
# 6 0.0000 0.0000 0.0000 0.0000 0.0000 25.3265
#
#
#
# Elastic Compliance Matrix: (Units=1/GPa)
#
#
# Indices 1 2 3 4 5 6 
#
# 1 0.015853 -0.002400 0.000187 0.000000 0.000000 0.000000
# 2 -0.002400 0.015172 -0.004856 0.000000 0.000000 0.000000
# 3 0.000187 -0.004856 0.010605 0.000000 0.000000 0.000000
# 4 0.000000 0.000000 0.000000 0.048938 0.000000 0.000000
# 5 0.000000 0.000000 0.000000 0.000000 0.033085 0.000000
# 6 0.000000 0.000000 0.000000 0.000000 0.000000 0.039484
#
#
# Mechanical properties :
#
#
# Convention : Reuss Voigt Hill
#
# Bulk Modulus (GPa) = 36.37352 39.83524 38.10438
# Shear Modulus (GPa) = 26.81819 28.72965 27.77392
#
# Velocity S-wave (km/s) = 4.02581 4.16681 4.09692
# Velocity P-wave (km/s) = 6.60237 6.87194 6.73850
#
# Compressibility (1/GPa) = 0.02749253
#
# Stress axis : x y z
#
# Youngs Moduli (GPa) = 63.07858 65.90952 94.29566
#
# Poissons Ratio (x) = 0.15821 -0.01764
# Poissons Ratio (y) = 0.15141 0.45787
# Poissons Ratio (z) = -0.01180 0.32004
#
# Static dielectric constant tensor:
#      x y z
#    x 3.225960 0.000000 0.000000 
#    y 0.000000 1.674340 0.000000 
#    z 0.000000 0.000000 3.478850 
# 
# 
# High freq. dielectric constant tensor:
#      x y z
#    x 1.658760 0.000000 0.000000 
#    y 0.000000 1.602840 0.000000 
#    z 0.000000 0.000000 1.641190 
# 
# From -- ./inp_files/25229.got.cif
#   From: 2010.03.12/outbox.cif.g09.slc.cpg/sg46_13_cif.got.tgz:25229.got - 2010.04.14 02:56:35.
