data_PCOD8191594
_publ_section_title
;
Structure prediction by ZEFSAII (Michael W. Deem and Ramdas Pophale) SiO2 
 PCOD8191594
Probable space group: I M A 2
;
_chemical_formula_sum "Si O2"
_cell_formula_units_Z 64
_cell_length_a 18.430003
_cell_length_b 9.816976
_cell_length_c 18.823568
_cell_angle_alpha 90.000000
_cell_angle_beta 90.000000
_cell_angle_gamma 90.000000
_cell_volume 3405.689751
_symmetry_space_group_name_H-M "I M A 2"
_symmetry_group_IT_number 46
_symmetry_cell_setting 'orthorhombic'
loop_
_space_group_symop_operation_xyz
x,y,z
-x,-y,z
1/2-x,y,z
1/2+x,-y,z
1/2+x,1/2+y,1/2+z
1/2-x,1/2-y,1/2+z
-x,1/2+y,1/2+z
x,1/2-y,1/2+z
loop_
_atom_site_type_symbol
_atom_site_label
_atom_site_fract_x
_atom_site_fract_y
_atom_site_fract_z
Si Si1 0.427340 0.758122 0.276860
Si Si2 0.909360 0.769293 0.796103
Si Si3 0.417627 0.834115 0.620290
Si Si4 0.081104 0.976998 0.885321
Si Si5 0.831581 0.894193 0.120628
Si Si6 0.333735 0.636677 0.515921
Si Si7 0.914232 0.637055 0.138004
Si Si8 0.665374 0.992427 0.271017
O O1 0.510667 0.798202 0.291689
O O2 0.402583 0.737956 0.195359
O O3 0.416254 0.614986 0.315307
O O4 0.377515 0.881033 0.306054
O O5 0.899832 0.848257 0.721901
O O6 0.852554 0.648077 0.811632
O O7 0.893170 0.873431 0.860502
O O8 0.380150 0.751351 0.556444
O O9 0.503746 0.843228 0.612213
O O10 0.385429 0.987385 0.616958
O O11 0.132256 0.898074 0.940034
O O12 0.000000 0.000000 0.916182
O O13 0.750000 0.853893 0.139580
O O14 0.871190 0.755691 0.097542
O O15 0.864091 0.967637 0.190557
O O16 0.838164 0.994565 0.055652
O O17 0.250000 0.685494 0.508357
O O18 0.750000 0.027040 0.275349
#
# Coordination Sequence:
#
# PCOD8191594 Si02
#       8
#     8   8   8   8   8   8   8   8
#     4  10  18  35  59  85 113 148 188 245 297 338
#     4   9  18  35  57  85 114 146 188 246 290 339
#     4  10  19  34  59  87 115 145 191 246 295 344
#     4  10  22  39  61  84 116 153 197 239 291 352
#     4   9  19  34  51  80 118 149 185 236 286 343
#     4  11  24  39  55  83 122 158 193 235 291 357
#     4   9  18  33  59  88 110 141 196 244 291 342
#     4  10  19  32  54  85 115 146 191 237 286 344
#
# _framework density 18.792081
#
# number of rings (size 3 to 8) (size 9 to 14) (size 15 to 20)
#    0.000    2.250    2.500    0.375    1.750    1.500 
#    0.000    1.250    2.750    0.000    0.000    0.000 
#    0.000    0.000    0.000    0.000    0.000    0.000 
#
# Total GULP energy -396613.364946 kJ/mol
# GULP energy per Si atom -12394.167655 kJ/mol
# Density = 1.874931 g / cm^3
# Si number density = 18.792081 Si / 1000 Ang^3
#
#
#
# Elastic Constant Matrix: (Units=GPa)
#
#
# Indices 1 2 3 4 5 6 
#
# 1 61.5143 50.0573 25.7354 0.0000 0.0000 0.0000
# 2 50.0573 114.0296 20.7433 0.0000 0.0000 0.0000
# 3 25.7354 20.7433 50.6571 0.0000 0.0000 0.0000
# 4 0.0000 0.0000 0.0000 26.2140 0.0000 0.0000
# 5 0.0000 0.0000 0.0000 0.0000 18.6645 0.0000
# 6 0.0000 0.0000 0.0000 0.0000 0.0000 25.5206
#
#
#
# Elastic Compliance Matrix: (Units=1/GPa)
#
#
# Indices 1 2 3 4 5 6 
#
# 1 0.029725 -0.011131 -0.010543 0.000000 0.000000 0.000000
# 2 -0.011131 0.013644 0.000068 0.000000 0.000000 0.000000
# 3 -0.010543 0.000068 0.025069 0.000000 0.000000 0.000000
# 4 0.000000 0.000000 0.000000 0.038148 0.000000 0.000000
# 5 0.000000 0.000000 0.000000 0.000000 0.053578 0.000000
# 6 0.000000 0.000000 0.000000 0.000000 0.000000 0.039184
#
#
# Mechanical properties :
#
#
# Convention : Reuss Voigt Hill
#
# Bulk Modulus (GPa) = 39.64280 46.58590 43.11435
# Shear Modulus (GPa) = 19.92286 22.72416 21.32351
#
# Velocity S-wave (km/s) = 3.25956 3.48119 3.37220
# Velocity P-wave (km/s) = 5.94202 6.40330 6.17697
#
# Compressibility (1/GPa) = 0.02522526
#
# Stress axis : x y z
#
# Youngs Moduli (GPa) = 33.64156 73.29444 39.88984
#
# Poissons Ratio (x) = 0.81584 0.42057
# Poissons Ratio (y) = 0.37446 -0.00271
# Poissons Ratio (z) = 0.35469 -0.00499
#
# Static dielectric constant tensor:
#      x y z
#    x 3.448590 0.000000 0.000000 
#    y 0.000000 3.551050 0.000000 
#    z 0.000000 0.000000 3.114650 
# 
# 
# High freq. dielectric constant tensor:
#      x y z
#    x 1.722300 0.000000 0.000000 
#    y 0.000000 1.744420 0.000000 
#    z 0.000000 0.000000 1.695700 
# 
# From -- ./inp_files/20260.got.cif
#   From: 2010.03.12/outbox.cif.g09.slc.cpg/sg46_11_cif.got.tgz:20260.got - 2010.04.14 02:56:35.
