data_PCOD8191217
_publ_section_title
;
Structure prediction by ZEFSAII (Michael W. Deem and Ramdas Pophale) SiO2 
 PCOD8191217
Probable space group: I M A 2
;
_chemical_formula_sum "Si O2"
_cell_formula_units_Z 64
_cell_length_a 8.759939
_cell_length_b 23.303406
_cell_length_c 19.082861
_cell_angle_alpha 90.000000
_cell_angle_beta 90.000000
_cell_angle_gamma 90.000000
_cell_volume 3895.506833
_symmetry_space_group_name_H-M "I M A 2"
_symmetry_group_IT_number 46
_symmetry_cell_setting 'orthorhombic'
loop_
_space_group_symop_operation_xyz
x,y,z
-x,-y,z
1/2-x,y,z
1/2+x,-y,z
1/2+x,1/2+y,1/2+z
1/2-x,1/2-y,1/2+z
-x,1/2+y,1/2+z
x,1/2-y,1/2+z
loop_
_atom_site_type_symbol
_atom_site_label
_atom_site_fract_x
_atom_site_fract_y
_atom_site_fract_z
Si Si1 0.070347 0.438460 0.664690
Si Si2 0.070273 0.561168 0.381860
Si Si3 0.071022 0.838780 0.246142
Si Si4 0.571632 0.230551 0.376814
Si Si5 0.430929 0.835833 0.786571
Si Si6 0.570857 0.769191 0.670193
Si Si7 0.428028 0.750955 0.028675
Si Si8 0.072285 0.614024 0.527627
O O1 0.250000 0.443745 0.666649
O O2 0.000000 0.500000 0.679811
O O3 0.016257 0.396594 0.726778
O O4 0.021369 0.414787 0.589572
O O5 0.250000 0.555548 0.385844
O O6 0.022762 0.602672 0.317874
O O7 0.010853 0.586622 0.455413
O O8 0.000000 0.500000 0.365548
O O9 0.250000 0.847169 0.232484
O O10 0.035813 0.824555 0.327920
O O11 0.017454 0.786889 0.197098
O O12 0.750000 0.241464 0.384550
O O13 0.505624 0.287523 0.340026
O O14 0.508695 0.223446 0.455738
O O15 0.250000 0.829957 0.774962
O O16 0.516062 0.825560 0.712715
O O17 0.750000 0.759672 0.678675
O O18 0.526920 0.778608 0.589314
O O19 0.250000 0.737659 0.041305
O O20 0.458938 0.818640 0.025895
O O21 0.250000 0.600631 0.539444
#
# Coordination Sequence:
#
# PCOD8191217 Si02
#       8
#     8   8   8   8   8   8   8   8
#     4  12  24  36  50  70  99 134 174 209 243 287
#     4  10  20  33  50  72  98 132 173 209 246 292
#     4  10  19  34  53  72  96 128 164 204 248 293
#     4   8  15  29  52  74  92 122 165 203 239 290
#     4   9  17  33  51  68  92 129 169 204 243 291
#     4  11  21  31  46  73 102 128 162 204 249 293
#     4  10  17  30  52  74  98 133 167 197 241 295
#     4  10  19  32  50  71 100 136 172 205 238 285
#
# _framework density 16.429183999999999
#
# number of rings (size 3 to 8) (size 9 to 14) (size 15 to 20)
#    0.000    2.000    2.500    3.750    0.000    2.000 
#    0.000    3.125    0.000    0.000    0.000    0.875 
#    0.000    4.000    0.000    0.000    0.000    0.000 
#
# Total GULP energy -396772.509940 kJ/mol
# GULP energy per Si atom -12399.140936 kJ/mol
# Density = 1.639179 g / cm^3
# Si number density = 16.429184 Si / 1000 Ang^3
#
#
#
# Elastic Constant Matrix: (Units=GPa)
#
#
# Indices 1 2 3 4 5 6 
#
# 1 68.7019 40.8091 40.1541 0.0000 0.0000 0.0000
# 2 40.8091 90.4111 61.5979 0.0000 0.0000 0.0000
# 3 40.1541 61.5979 129.2283 0.0001 0.0000 0.0000
# 4 0.0000 0.0000 0.0001 20.8599 0.0000 0.0000
# 5 0.0000 0.0000 0.0000 0.0000 14.3431 0.0000
# 6 0.0000 0.0000 0.0000 0.0000 0.0000 24.9377
#
#
#
# Elastic Compliance Matrix: (Units=1/GPa)
#
#
# Indices 1 2 3 4 5 6 
#
# 1 0.020604 -0.007313 -0.002916 0.000000 0.000000 0.000000
# 2 -0.007313 0.018976 -0.006773 0.000000 0.000000 0.000000
# 3 -0.002916 -0.006773 0.011873 0.000000 0.000000 0.000000
# 4 0.000000 0.000000 0.000000 0.047939 0.000000 0.000000
# 5 0.000000 0.000000 0.000000 0.000000 0.069720 0.000000
# 6 0.000000 0.000000 0.000000 0.000000 0.000000 0.040100
#
#
# Mechanical properties :
#
#
# Convention : Reuss Voigt Hill
#
# Bulk Modulus (GPa) = 57.31194 63.71816 60.51505
# Shear Modulus (GPa) = 20.07773 21.74681 20.91227
#
# Velocity S-wave (km/s) = 3.49961 3.64217 3.57161
# Velocity P-wave (km/s) = 7.16168 7.52030 7.34318
#
# Compressibility (1/GPa) = 0.01744837
#
# Stress axis : x y z
#
# Youngs Moduli (GPa) = 48.53374 52.69852 84.22743
#
# Poissons Ratio (x) = 0.38540 0.24563
# Poissons Ratio (y) = 0.35494 0.57044
# Poissons Ratio (z) = 0.14154 0.35691
#
# Static dielectric constant tensor:
#      x y z
#    x 2.963460 0.000000 0.000000 
#    y 0.000000 2.832700 0.000000 
#    z 0.000000 0.000000 3.395560 
# 
# 
# High freq. dielectric constant tensor:
#      x y z
#    x 1.623100 0.000000 0.000000 
#    y 0.000000 1.605920 0.000000 
#    z 0.000000 0.000000 1.633690 
# 
# From -- ./inp_files/18645.got.cif
#   From: 2010.03.12/outbox.cif.g09.slc.cpg/sg46_10_cif.got.tgz:18645.got - 2010.04.14 02:56:35.
