data_PCOD8191134
_publ_section_title
;
Structure prediction by ZEFSAII (Michael W. Deem and Ramdas Pophale) SiO2 
 PCOD8191134
Probable space group: I M A 2
;
_chemical_formula_sum "Si O2"
_cell_formula_units_Z 48
_cell_length_a 8.898387
_cell_length_b 31.741378
_cell_length_c 9.615087
_cell_angle_alpha 90.000000
_cell_angle_beta 90.000000
_cell_angle_gamma 90.000000
_cell_volume 2715.753106
_symmetry_space_group_name_H-M "I M A 2"
_symmetry_group_IT_number 46
_symmetry_cell_setting 'orthorhombic'
loop_
_space_group_symop_operation_xyz
x,y,z
-x,-y,z
1/2-x,y,z
1/2+x,-y,z
1/2+x,1/2+y,1/2+z
1/2-x,1/2-y,1/2+z
-x,1/2+y,1/2+z
x,1/2-y,1/2+z
loop_
_atom_site_type_symbol
_atom_site_label
_atom_site_fract_x
_atom_site_fract_y
_atom_site_fract_z
Si Si1 0.928625 0.041680 0.689710
Si Si2 0.416575 0.369182 0.871267
Si Si3 0.926426 0.286792 0.881276
Si Si4 0.428165 0.459965 0.887927
Si Si5 0.079704 0.125380 0.702228
Si Si6 0.571288 0.210259 0.697193
O O1 0.750000 0.040832 0.703083
O O2 0.979030 0.041355 0.530203
O O3 0.992746 0.084291 0.760913
O O4 0.000000 0.000000 0.763113
O O5 0.250000 0.355888 0.825406
O O6 0.524867 0.332078 0.818296
O O7 0.457383 0.415461 0.807558
O O8 0.426388 0.374603 0.036283
O O9 0.750000 0.284944 0.874105
O O10 0.992134 0.248857 0.788874
O O11 0.984080 0.281819 0.039222
O O12 0.500000 0.500000 0.803487
O O13 0.250000 0.465629 0.916325
O O14 0.250000 0.124252 0.757291
O O15 0.999089 0.167470 0.758678
O O16 0.750000 0.206193 0.704055
#
# Coordination Sequence:
#
# PCOD8191134 Si02
#       6
#     8   8   8   8   8   8
#     4  10  16  22  33  50  74 104 135 167 201 243
#     4   8  15  25  36  52  76 103 133 165 201 241
#     4   9  17  28  43  60  81 107 138 170 204 243
#     4   9  15  22  32  49  73 102 134 167 201 244
#     4   9  16  26  38  54  76 104 135 168 204 246
#     4   9  17  29  43  61  82 108 138 171 206 245
#
# _framework density 17.674655000000001
#
# number of rings (size 3 to 8) (size 9 to 14) (size 15 to 20)
#    0.000    3.000    0.000    4.500    0.000    5.333 
#    0.000    0.000    0.000    0.000    0.000    0.000 
#    0.000    1.333    0.000    5.667    0.000    6.500 
#
# Total GULP energy -297344.326720 kJ/mol
# GULP energy per Si atom -12389.346947 kJ/mol
# Density = 1.763443 g / cm^3
# Si number density = 17.674655 Si / 1000 Ang^3
#
#
#
# Elastic Constant Matrix: (Units=GPa)
#
#
# Indices 1 2 3 4 5 6 
#
# 1 77.5324 59.7546 15.6426 0.0027 -0.0005 0.0000
# 2 59.7546 206.1472 33.8462 0.0068 0.0008 0.0011
# 3 15.6426 33.8462 18.8948 0.0140 0.0016 0.0023
# 4 0.0027 0.0068 0.0140 16.8248 0.0014 0.0021
# 5 -0.0005 0.0008 0.0016 0.0014 6.2534 0.0021
# 6 0.0000 0.0011 0.0023 0.0021 0.0021 38.1093
#
#
#
# Elastic Compliance Matrix: (Units=1/GPa)
#
#
# Indices 1 2 3 4 5 6 
#
# 1 0.017342 -0.003782 -0.007583 0.000005 0.000004 0.000001
# 2 -0.003782 0.007697 -0.010656 0.000006 0.000001 0.000000
# 3 -0.007583 -0.010656 0.078291 -0.000059 -0.000019 -0.000004
# 4 0.000005 0.000006 -0.000059 0.059436 -0.000014 -0.000003
# 5 0.000004 0.000001 -0.000019 -0.000014 0.159912 -0.000009
# 6 0.000001 0.000000 -0.000004 -0.000003 -0.000009 0.026240
#
#
# Mechanical properties :
#
#
# Convention : Reuss Voigt Hill
#
# Bulk Modulus (GPa) = 16.86683 57.89566 37.38125
# Shear Modulus (GPa) = 12.11468 25.12625 18.62046
#
# Velocity S-wave (km/s) = 2.62091 3.77450 3.24931
# Velocity P-wave (km/s) = 4.32695 7.19883 5.93910
#
# Compressibility (1/GPa) = 0.05928796
#
# Stress axis : x y z
#
# Youngs Moduli (GPa) = 57.66182 129.92533 12.77294
#
# Poissons Ratio (x) = 0.49137 0.09685
# Poissons Ratio (y) = 0.21808 0.13611
# Poissons Ratio (z) = 0.43724 1.38450
#
# Static dielectric constant tensor:
#      x y z
#    x 3.272780 0.000000 0.000000 
#    y 0.000000 4.242340 0.000000 
#    z 0.000000 0.000000 2.604290 
# 
# 
# High freq. dielectric constant tensor:
#      x y z
#    x 1.686940 0.000000 0.000000 
#    y 0.000000 1.718250 0.000000 
#    z 0.000000 0.000000 1.582230 
# 
# From -- ./inp_files/9400.got.cif
#   From: 2010.03.12/outbox.cif.g09.slc.cpg/sg46_5_cif.got.tgz:9400.got - 2010.04.14 02:56:35.
