data_PCOD8191472
_publ_section_title
;
Structure prediction by ZEFSAII (Michael W. Deem and Ramdas Pophale) SiO2 
 PCOD8191472
Probable space group: I M A 2
;
_chemical_formula_sum "Si O2"
_cell_formula_units_Z 48
_cell_length_a 8.772713
_cell_length_b 13.959983
_cell_length_c 18.571131
_cell_angle_alpha 90.000000
_cell_angle_beta 90.000000
_cell_angle_gamma 90.000000
_cell_volume 2274.349295
_symmetry_space_group_name_H-M "I M A 2"
_symmetry_group_IT_number 46
_symmetry_cell_setting 'orthorhombic'
loop_
_space_group_symop_operation_xyz
x,y,z
-x,-y,z
1/2-x,y,z
1/2+x,-y,z
1/2+x,1/2+y,1/2+z
1/2-x,1/2-y,1/2+z
-x,1/2+y,1/2+z
x,1/2-y,1/2+z
loop_
_atom_site_type_symbol
_atom_site_label
_atom_site_fract_x
_atom_site_fract_y
_atom_site_fract_z
Si Si1 0.570089 0.102331 0.219180
Si Si2 0.931938 0.395082 0.012899
Si Si3 0.429781 0.239210 0.100992
Si Si4 0.582577 0.410320 0.515431
Si Si5 0.569840 0.300155 0.864353
Si Si6 0.915766 0.408496 0.348669
O O1 0.750000 0.098081 0.208862
O O2 0.503576 0.187047 0.169613
O O3 0.526170 0.125786 0.301637
O O4 0.500000 0.000000 0.198583
O O5 0.750000 0.398259 0.016818
O O6 0.990056 0.341224 0.940177
O O7 0.000000 0.500000 0.010840
O O8 0.998661 0.343724 0.084803
O O9 0.250000 0.247113 0.111502
O O10 0.475402 0.180493 0.029231
O O11 0.500000 0.500000 0.553766
O O12 0.750000 0.395050 0.551167
O O13 0.604145 0.431088 0.432348
O O14 0.750000 0.283487 0.871541
O O15 0.499483 0.195057 0.843029
O O16 0.750000 0.403784 0.311112
O O17 0.000000 0.500000 0.312395
#
# Coordination Sequence:
#
# PCOD8191472 Si02
#       6
#     8   8   8   8   8   8
#     4  11  23  41  64  90 123 164 204 253 311 371
#     4  11  22  41  65  93 123 158 203 256 310 368
#     4  12  24  39  58  86 120 159 206 251 300 362
#     4  10  18  31  53  81 116 151 190 241 297 353
#     4   9  19  38  63  89 124 163 202 249 309 368
#     4   9  17  32  53  83 117 152 191 239 294 353
#
# _framework density 21.104935999999999
#
# number of rings (size 3 to 8) (size 9 to 14) (size 15 to 20)
#    0.000    1.667    1.667    4.000    0.000    0.667 
#    0.000    5.000    0.000    2.000    0.000    0.000 
#    0.000    0.000    0.000    0.000    0.000    0.000 
#
# Total GULP energy -297400.498300 kJ/mol
# GULP energy per Si atom -12391.687429 kJ/mol
# Density = 2.105690 g / cm^3
# Si number density = 21.104936 Si / 1000 Ang^3
#
#
#
# Elastic Constant Matrix: (Units=GPa)
#
#
# Indices 1 2 3 4 5 6 
#
# 1 116.0489 50.1829 33.2705 0.0000 0.0000 0.0000
# 2 50.1829 157.7086 38.6399 0.0000 0.0000 0.0000
# 3 33.2705 38.6399 77.6144 0.0000 0.0000 0.0000
# 4 0.0000 0.0000 0.0000 20.7564 0.0000 0.0000
# 5 0.0000 0.0000 0.0000 0.0000 16.7332 0.0000
# 6 0.0000 0.0000 0.0000 0.0000 0.0000 37.9329
#
#
#
# Elastic Compliance Matrix: (Units=1/GPa)
#
#
# Indices 1 2 3 4 5 6 
#
# 1 0.010681 -0.002593 -0.003288 0.000000 0.000000 0.000000
# 2 -0.002593 0.007851 -0.002797 0.000000 0.000000 0.000000
# 3 -0.003288 -0.002797 0.015686 0.000000 0.000000 0.000000
# 4 0.000000 0.000000 0.000000 0.048178 0.000000 0.000000
# 5 0.000000 0.000000 0.000000 0.000000 0.059761 0.000000
# 6 0.000000 0.000000 0.000000 0.000000 0.000000 0.026362
#
#
# Mechanical properties :
#
#
# Convention : Reuss Voigt Hill
#
# Bulk Modulus (GPa) = 59.30308 66.17316 62.73812
# Shear Modulus (GPa) = 26.11015 30.36974 28.23994
#
# Velocity S-wave (km/s) = 3.52114 3.79751 3.66194
# Velocity P-wave (km/s) = 6.68516 7.11692 6.90442
#
# Compressibility (1/GPa) = 0.01686253
#
# Stress axis : x y z
#
# Youngs Moduli (GPa) = 93.62463 127.36777 63.75123
#
# Poissons Ratio (x) = 0.33029 0.20958
# Poissons Ratio (y) = 0.24279 0.17832
# Poissons Ratio (z) = 0.30779 0.35626
#
# Static dielectric constant tensor:
#      x y z
#    x 3.961280 0.000000 0.000000 
#    y 0.000000 4.086550 0.000000 
#    z 0.000000 0.000000 3.605800 
# 
# 
# High freq. dielectric constant tensor:
#      x y z
#    x 1.812820 0.000000 0.000000 
#    y 0.000000 1.841120 0.000000 
#    z 0.000000 0.000000 1.803620 
# 
# From -- ./inp_files/20914.got.cif
#   From: 2010.03.12/outbox.cif.g09.slc.cpg/sg46_11_cif.got.tgz:20914.got - 2010.04.14 02:56:35.
