data_PCOD8191514
_publ_section_title
;
Structure prediction by ZEFSAII (Michael W. Deem and Ramdas Pophale) SiO2 
 PCOD8191514
Probable space group: I M A 2
;
_chemical_formula_sum "Si O2"
_cell_formula_units_Z 48
_cell_length_a 8.320043
_cell_length_b 9.460009
_cell_length_c 30.529775
_cell_angle_alpha 90.000000
_cell_angle_beta 90.000000
_cell_angle_gamma 90.000000
_cell_volume 2402.927812
_symmetry_space_group_name_H-M "I M A 2"
_symmetry_group_IT_number 46
_symmetry_cell_setting 'orthorhombic'
loop_
_space_group_symop_operation_xyz
x,y,z
-x,-y,z
1/2-x,y,z
1/2+x,-y,z
1/2+x,1/2+y,1/2+z
1/2-x,1/2-y,1/2+z
-x,1/2+y,1/2+z
x,1/2-y,1/2+z
loop_
_atom_site_type_symbol
_atom_site_label
_atom_site_fract_x
_atom_site_fract_y
_atom_site_fract_z
Si Si1 0.562530 0.343959 0.250000
Si Si2 0.562504 0.657644 0.491603
Si Si3 0.063022 0.341941 0.825041
Si Si4 0.062809 0.658857 0.581183
Si Si5 0.436520 0.350638 0.155824
Si Si6 0.936483 0.155876 0.902209
O O1 0.500000 0.500000 0.261333
O O2 0.750000 0.333688 0.261010
O O3 0.466002 0.230145 0.278204
O O4 0.533075 0.306835 0.199240
O O5 0.500000 0.500000 0.484986
O O6 0.750000 0.662183 0.501704
O O7 0.472726 0.728481 0.533386
O O8 0.520795 0.729085 0.444906
O O9 0.250000 0.339574 0.836768
O O10 0.000000 0.500000 0.822810
O O11 0.965289 0.257405 0.861511
O O12 0.250000 0.667101 0.592289
O O13 0.000000 0.500000 0.579280
O O14 0.962602 0.736040 0.618462
O O15 0.500000 0.500000 0.137712
O O16 0.250000 0.362636 0.167995
O O17 0.750000 0.143032 0.912646
O O18 0.000000 0.000000 0.890407
#
# Coordination Sequence:
#
# PCOD8191514 Si02
#       6
#     8   8   8   8   8   8
#     4  11  22  40  63  88 114 149 191 235 280 334
#     4  10  18  32  54  83 114 149 190 237 282 331
#     4  12  25  42  60  85 117 151 187 233 287 343
#     4  11  21  36  57  85 117 153 192 237 285 337
#     4  11  22  39  60  86 116 151 190 235 284 338
#     4  11  21  37  60  87 115 151 193 237 281 333
#
# _framework density 19.975632000000001
#
# number of rings (size 3 to 8) (size 9 to 14) (size 15 to 20)
#    0.000    1.000    0.000   12.500    0.000    0.667 
#    0.000    4.167    0.000    0.000    0.000    0.000 
#    0.000    0.000    0.000    0.000    0.000    0.000 
#
# Total GULP energy -297675.201306 kJ/mol
# GULP energy per Si atom -12403.133388 kJ/mol
# Density = 1.993017 g / cm^3
# Si number density = 19.975632 Si / 1000 Ang^3
#
#
#
# Elastic Constant Matrix: (Units=GPa)
#
#
# Indices 1 2 3 4 5 6 
#
# 1 112.2163 10.5065 5.2890 0.0000 0.0000 0.0000
# 2 10.5065 83.9389 54.4933 0.0001 0.0000 0.0000
# 3 5.2890 54.4933 112.6417 0.0000 0.0000 0.0000
# 4 0.0000 0.0001 0.0000 -19.0226 0.0000 0.0000
# 5 0.0000 0.0000 0.0000 0.0000 37.9671 0.0000
# 6 0.0000 0.0000 0.0000 0.0000 0.0000 29.3030
#
#
#
# Elastic Compliance Matrix: (Units=1/GPa)
#
#
# Indices 1 2 3 4 5 6 
#
# 1 0.009020 -0.001245 0.000179 0.000000 0.000000 0.000000
# 2 -0.001245 0.017540 -0.008427 0.000000 0.000000 0.000000
# 3 0.000179 -0.008427 0.012946 0.000000 0.000000 0.000000
# 4 0.000000 0.000000 0.000000 -0.052569 0.000000 0.000000
# 5 0.000000 0.000000 0.000000 0.000000 0.026339 0.000000
# 6 0.000000 0.000000 0.000000 0.000000 0.000000 0.034126
#
#
# Mechanical properties :
#
#
# Convention : Reuss Voigt Hill
#
# Bulk Modulus (GPa) = 48.73480 49.93050 49.33265
# Shear Modulus (GPa) = 68.28012 25.55004 46.91508
#
# Velocity S-wave (km/s) = 5.85286 3.58028 4.85151
# Velocity P-wave (km/s) = 8.37405 6.49162 7.49219
#
# Compressibility (1/GPa) = 0.02051922
#
# Stress axis : x y z
#
# Youngs Moduli (GPa) = 110.87083 57.01221 77.24337
#
# Poissons Ratio (x) = 0.07098 -0.01381
# Poissons Ratio (y) = 0.13804 0.65093
# Poissons Ratio (z) = -0.01983 0.48044
#
# Static dielectric constant tensor:
#      x y z
#    x 3.775760 0.000000 0.000000 
#    y 0.000000 3.406940 0.000000 
#    z 0.000000 0.000000 4.000870 
# 
# 
# High freq. dielectric constant tensor:
#      x y z
#    x 1.802650 0.000000 0.000000 
#    y 0.000000 1.746180 0.000000 
#    z 0.000000 0.000000 1.799900 
# 
# From -- ./inp_files/25016.got.cif
#   From: 2010.03.12/outbox.cif.g09.slc.cpg/sg46_13_cif.got.tgz:25016.got - 2010.04.14 02:56:35.
