data_PCOD8191296
_publ_section_title
;
Structure prediction by ZEFSAII (Michael W. Deem and Ramdas Pophale) SiO2 
 PCOD8191296
Probable space group: I M A 2
;
_chemical_formula_sum "Si O2"
_cell_formula_units_Z 64
_cell_length_a 8.678761
_cell_length_b 26.243118
_cell_length_c 18.398537
_cell_angle_alpha 90.000000
_cell_angle_beta 90.000000
_cell_angle_gamma 90.000000
_cell_volume 4190.409372
_symmetry_space_group_name_H-M "I M A 2"
_symmetry_group_IT_number 46
_symmetry_cell_setting 'orthorhombic'
loop_
_space_group_symop_operation_xyz
x,y,z
-x,-y,z
1/2-x,y,z
1/2+x,-y,z
1/2+x,1/2+y,1/2+z
1/2-x,1/2-y,1/2+z
-x,1/2+y,1/2+z
x,1/2-y,1/2+z
loop_
_atom_site_type_symbol
_atom_site_label
_atom_site_fract_x
_atom_site_fract_y
_atom_site_fract_z
Si Si1 0.933198 0.243817 0.762850
Si Si2 0.066909 0.945124 0.755476
Si Si3 0.079512 0.200191 0.978139
Si Si4 0.432384 0.644851 0.014750
Si Si5 0.933420 0.646026 0.339015
Si Si6 0.923279 0.802749 0.386277
Si Si7 0.567247 0.945224 0.601350
Si Si8 0.930269 0.256078 0.099380
O O1 0.750000 0.241599 0.768879
O O2 0.992678 0.252187 0.680526
O O3 0.000847 0.190206 0.788166
O O4 0.995252 0.291700 0.809202
O O5 0.250000 0.947367 0.752019
O O6 0.011132 0.906903 0.817619
O O7 0.002930 0.926423 0.677823
O O8 0.000000 0.000000 0.775763
O O9 0.250000 0.187905 0.006767
O O10 0.021416 0.155582 0.923915
O O11 0.079111 0.250576 0.929984
O O12 0.974692 0.207613 0.049241
O O13 0.250000 0.637408 0.020507
O O14 0.518885 0.593976 0.039098
O O15 0.494397 0.691249 0.065222
O O16 0.479493 0.655474 0.931165
O O17 0.750000 0.644276 0.329438
O O18 0.750000 0.822954 0.373166
O O19 0.750000 0.948854 0.608358
O O20 0.500000 0.000000 0.579741
O O21 0.750000 0.260381 0.100682
#
# Coordination Sequence:
#
# PCOD8191296 Si02
#       8
#     8   8   8   8   8   8   8   8
#     4  10  18  28  42  63  88 116 147 181 217 257
#     4  11  21  33  47  64  86 114 146 182 219 256
#     4   8  16  28  42  59  82 109 140 175 212 251
#     4  10  18  30  46  64  86 115 148 182 218 259
#     4  10  19  31  45  63  85 113 147 182 217 259
#     4   9  17  29  42  60  84 113 146 180 216 257
#     4  11  21  33  47  64  87 115 146 183 219 255
#     4   9  18  28  41  61  86 113 144 177 212 254
#
# _framework density 15.272971
#
# number of rings (size 3 to 8) (size 9 to 14) (size 15 to 20)
#    0.000    2.250    0.000    6.000    0.000    6.000 
#    0.000    0.000    0.000    0.000    0.000    0.000 
#    0.000    1.000    0.000    6.750    0.000    5.000 
#
# Total GULP energy -396735.514498 kJ/mol
# GULP energy per Si atom -12397.984828 kJ/mol
# Density = 1.523821 g / cm^3
# Si number density = 15.272971 Si / 1000 Ang^3
#
#
#
# Elastic Constant Matrix: (Units=GPa)
#
#
# Indices 1 2 3 4 5 6 
#
# 1 88.4935 28.0062 38.7556 0.0000 0.0000 0.0000
# 2 28.0062 68.8674 49.9047 0.0000 0.0000 0.0000
# 3 38.7556 49.9047 105.9046 0.0004 -0.0001 0.0000
# 4 0.0000 0.0000 0.0004 26.4062 0.0000 0.0000
# 5 0.0000 0.0000 -0.0001 0.0000 25.0269 0.0000
# 6 0.0000 0.0000 0.0000 0.0000 0.0000 23.8569
#
#
#
# Elastic Compliance Matrix: (Units=1/GPa)
#
#
# Indices 1 2 3 4 5 6 
#
# 1 0.013847 -0.002975 -0.003665 0.000000 0.000000 0.000000
# 2 -0.002975 0.022689 -0.009603 0.000000 0.000000 0.000000
# 3 -0.003665 -0.009603 0.015309 0.000000 0.000000 0.000000
# 4 0.000000 0.000000 0.000000 0.037870 0.000000 0.000000
# 5 0.000000 0.000000 0.000000 0.000000 0.039957 0.000000
# 6 0.000000 0.000000 0.000000 0.000000 0.000000 0.041917
#
#
# Mechanical properties :
#
#
# Convention : Reuss Voigt Hill
#
# Bulk Modulus (GPa) = 51.65707 55.17763 53.41735
# Shear Modulus (GPa) = 23.74975 24.83127 24.29051
#
# Velocity S-wave (km/s) = 3.94765 4.03653 3.99234
# Velocity P-wave (km/s) = 7.39422 7.61123 7.50351
#
# Compressibility (1/GPa) = 0.01935843
#
# Stress axis : x y z
#
# Youngs Moduli (GPa) = 72.21757 44.07359 65.32116
#
# Poissons Ratio (x) = 0.13112 0.23943
# Poissons Ratio (y) = 0.21485 0.62728
# Poissons Ratio (z) = 0.26471 0.42324
#
# Static dielectric constant tensor:
#      x y z
#    x 3.049970 0.000000 0.000000 
#    y 0.000000 2.786740 0.000000 
#    z 0.000000 0.000000 3.109760 
# 
# 
# High freq. dielectric constant tensor:
#      x y z
#    x 1.601550 0.000000 0.000000 
#    y 0.000000 1.550930 0.000000 
#    z 0.000000 0.000000 1.574750 
# 
# From -- ./inp_files/18681.got.cif
#   From: 2010.03.12/outbox.cif.g09.slc.cpg/sg46_10_cif.got.tgz:18681.got - 2010.04.14 02:56:35.
