data_PCOD8191118
_publ_section_title
;
Structure prediction by ZEFSAII (Michael W. Deem and Ramdas Pophale) SiO2 
 PCOD8191118
Probable space group: I B A 2
;
_chemical_formula_sum "Si O2"
_cell_formula_units_Z 48
_cell_length_a 21.275668
_cell_length_b 8.283099
_cell_length_c 11.697686
_cell_angle_alpha 90.000000
_cell_angle_beta 90.000000
_cell_angle_gamma 90.000000
_cell_volume 2061.465240
_symmetry_space_group_name_H-M "I B A 2"
_symmetry_group_IT_number 45
_symmetry_cell_setting 'orthorhombic'
loop_
_space_group_symop_operation_xyz
x,y,z
-x,-y,z
-x,y,1/2+z
x,-y,1/2+z
1/2+x,1/2+y,1/2+z
1/2-x,1/2-y,1/2+z
1/2-x,1/2+y,z
1/2+x,1/2-y,z
loop_
_atom_site_type_symbol
_atom_site_label
_atom_site_fract_x
_atom_site_fract_y
_atom_site_fract_z
Si Si1 0.686747 0.102808 0.148730
Si Si2 0.079905 0.760331 0.791342
Si Si3 0.618104 0.784937 0.443271
Si Si4 0.000000 0.000000 0.152818
Si Si5 0.105326 0.077466 0.516828
Si Si6 0.500000 0.000000 0.396134
Si Si7 0.314950 0.259095 0.200913
O O1 0.624627 0.156483 0.213423
O O2 0.744645 0.175864 0.221165
O O3 0.690930 0.912017 0.141308
O O4 0.678930 0.159367 0.017098
O O5 0.117399 0.818463 0.903763
O O6 0.021118 0.648457 0.819239
O O7 0.052905 0.916687 0.729339
O O8 0.597098 0.612377 0.491515
O O9 0.561678 0.920072 0.460050
O O10 0.642600 0.758656 0.314035
O O11 0.038063 0.872238 0.073084
O O12 0.158745 0.111918 0.609667
#
# Coordination Sequence:
#
# PCOD8191118 Si02
#       7
#     8   8   8   4   8   4   8
#     4  12  29  49  77 112 151 208 261 327 396 472
#     4  12  26  45  74 111 149 203 250 320 387 472
#     4  12  27  50  82 115 158 209 260 333 393 477
#     4  12  24  46  74 114 152 200 252 312 400 470
#     4  12  26  48  76 112 152 202 250 319 391 464
#     4  12  24  48  74 112 158 196 260 318 398 464
#     4  12  29  51  79 113 156 207 268 327 397 482
#
# _framework density 23.284410000000001
#
# number of rings (size 3 to 8) (size 9 to 14) (size 15 to 20)
#    0.000    0.000    3.333    6.500    4.667    0.667 
#    0.000    0.000    0.000    0.000    0.000    0.000 
#    0.000    0.000    0.000    0.000    0.000    0.000 
#
# Total GULP energy -297483.004019 kJ/mol
# GULP energy per Si atom -12395.125167 kJ/mol
# Density = 2.323141 g / cm^3
# Si number density = 23.284410 Si / 1000 Ang^3
#
#
#
# Elastic Constant Matrix: (Units=GPa)
#
#
# Indices 1 2 3 4 5 6 
#
# 1 99.8927 31.3262 23.0161 0.0000 0.0000 0.0000
# 2 31.3262 114.7400 34.0863 0.0000 0.0000 0.0000
# 3 23.0161 34.0863 109.4214 0.0000 0.0000 0.0000
# 4 0.0000 0.0000 0.0000 -95.8698 0.0000 0.0000
# 5 0.0000 0.0000 0.0000 0.0000 26.9794 0.0000
# 6 0.0000 0.0000 0.0000 0.0000 0.0000 38.4894
#
#
#
# Elastic Compliance Matrix: (Units=1/GPa)
#
#
# Indices 1 2 3 4 5 6 
#
# 1 0.011180 -0.002594 -0.001544 0.000000 0.000000 0.000000
# 2 -0.002594 0.010206 -0.002634 0.000000 0.000000 0.000000
# 3 -0.001544 -0.002634 0.010284 0.000000 0.000000 0.000000
# 4 0.000000 0.000000 0.000000 -0.010431 0.000000 0.000000
# 5 0.000000 0.000000 0.000000 0.000000 0.037065 0.000000
# 6 0.000000 0.000000 0.000000 0.000000 0.000000 0.025981
#
#
# Mechanical properties :
#
#
# Convention : Reuss Voigt Hill
#
# Bulk Modulus (GPa) = 55.16418 55.65679 55.41048
# Shear Modulus (GPa) = 48.13701 9.62816 28.88259
#
# Velocity S-wave (km/s) = 4.55174 2.03568 3.52579
# Velocity P-wave (km/s) = 7.16711 5.42957 6.35797
#
# Compressibility (1/GPa) = 0.01812771
#
# Stress axis : x y z
#
# Youngs Moduli (GPa) = 89.44709 97.98251 97.23740
#
# Poissons Ratio (x) = 0.25414 0.15010
# Poissons Ratio (y) = 0.23200 0.25609
# Poissons Ratio (z) = 0.13807 0.25806
#
# Static dielectric constant tensor:
#      x y z
#    x 5.669440 0.000000 0.000000 
#    y 0.000000 4.367620 0.000000 
#    z 0.000000 0.000000 4.373160 
# 
# 
# High freq. dielectric constant tensor:
#      x y z
#    x 1.925500 0.000000 0.000000 
#    y 0.000000 1.932760 0.000000 
#    z 0.000000 0.000000 1.926460 
# 
# From -- ./inp_files/3296.got.cif
#   From: 2010.03.12/outbox.cif.g09.slc.cpg/sg45_2_cif.got.tgz:3296.got - 2010.04.14 02:50:11.
