data_PCOD8191103
_publ_section_title
;
Structure prediction by ZEFSAII (Michael W. Deem and Ramdas Pophale) SiO2 
 PCOD8191103
Probable space group: I B A 2
;
_chemical_formula_sum "Si O2"
_cell_formula_units_Z 40
_cell_length_a 7.603616
_cell_length_b 22.572118
_cell_length_c 8.802583
_cell_angle_alpha 90.000000
_cell_angle_beta 90.000000
_cell_angle_gamma 90.000000
_cell_volume 1510.784834
_symmetry_space_group_name_H-M "I B A 2"
_symmetry_group_IT_number 45
_symmetry_cell_setting 'orthorhombic'
loop_
_space_group_symop_operation_xyz
x,y,z
-x,-y,z
-x,y,1/2+z
x,-y,1/2+z
1/2+x,1/2+y,1/2+z
1/2-x,1/2-y,1/2+z
1/2-x,1/2+y,z
1/2+x,1/2-y,z
loop_
_atom_site_type_symbol
_atom_site_label
_atom_site_fract_x
_atom_site_fract_y
_atom_site_fract_z
Si Si1 0.517158 0.638648 0.844210
Si Si2 0.668732 0.933349 0.811993
Si Si3 0.238077 0.303041 0.654799
Si Si4 0.049965 0.730119 0.456460
Si Si5 0.188203 0.557535 0.461270
O O1 0.318210 0.616475 0.832812
O O2 0.613798 0.645089 0.675814
O O3 0.521432 0.705339 0.909428
O O4 0.636015 0.596040 0.946244
O O5 0.640602 0.948093 0.636706
O O6 0.478694 0.912565 0.875598
O O7 0.729874 0.992598 0.897279
O O8 0.146951 0.299982 0.818028
O O9 0.328227 0.240422 0.606478
O O10 0.101036 0.315253 0.517153
#
# Coordination Sequence:
#
# PCOD8191103 Si02
#       5
#     8   8   8   8   8
#     4  12  27  46  79 109 151 204 266 317 396 472
#     4  11  26  50  77 118 155 202 254 324 401 484
#     4  12  25  47  72 104 150 200 264 331 385 466
#     4  12  25  47  70 103 151 201 265 329 394 458
#     4  11  26  48  80 112 158 198 253 327 397 477
#
# _framework density 26.476306000000001
#
# number of rings (size 3 to 8) (size 9 to 14) (size 15 to 20)
#    0.000    0.400    4.000    4.200    0.000   12.800 
#    0.000    0.000    0.000    0.000    0.000    0.000 
#    0.000    0.000    0.000    0.000    0.000    0.000 
#
# Total GULP energy -247843.679305 kJ/mol
# GULP energy per Si atom -12392.183965 kJ/mol
# Density = 2.641604 g / cm^3
# Si number density = 26.476306 Si / 1000 Ang^3
#
#
#
# Elastic Constant Matrix: (Units=GPa)
#
#
# Indices 1 2 3 4 5 6 
#
# 1 166.1998 35.9804 61.8047 -0.0003 0.0000 -0.0001
# 2 35.9804 68.7945 27.8071 -0.0001 -0.0007 -0.0002
# 3 61.8047 27.8071 152.4913 -0.0075 0.0030 -0.0044
# 4 -0.0003 -0.0001 -0.0075 23.9304 -0.0001 -0.0004
# 5 0.0000 -0.0007 0.0030 -0.0001 47.0738 0.0000
# 6 -0.0001 -0.0002 -0.0044 -0.0004 0.0000 60.8365
#
#
#
# Elastic Compliance Matrix: (Units=1/GPa)
#
#
# Indices 1 2 3 4 5 6 
#
# 1 0.007601 -0.002947 -0.002543 -0.000001 0.000000 0.000000
# 2 -0.002947 0.016836 -0.001875 -0.000001 0.000000 0.000000
# 3 -0.002543 -0.001875 0.007930 0.000002 -0.000001 0.000001
# 4 -0.000001 -0.000001 0.000002 0.041788 0.000000 0.000000
# 5 0.000000 0.000000 -0.000001 0.000000 0.021243 0.000000
# 6 0.000000 0.000000 0.000001 0.000000 0.000000 0.016438
#
#
# Mechanical properties :
#
#
# Convention : Reuss Voigt Hill
#
# Bulk Modulus (GPa) = 56.70550 70.96333 63.83441
# Shear Modulus (GPa) = 37.75145 43.82770 40.78957
#
# Velocity S-wave (km/s) = 3.78015 4.07302 3.92931
# Velocity P-wave (km/s) = 6.36527 6.99858 6.68942
#
# Compressibility (1/GPa) = 0.01763497
#
# Stress axis : x y z
#
# Youngs Moduli (GPa) = 131.56849 59.39803 126.09615
#
# Poissons Ratio (x) = 0.17506 0.32067
# Poissons Ratio (y) = 0.38777 0.23649
# Poissons Ratio (z) = 0.33459 0.11140
#
# Static dielectric constant tensor:
#      x y z
#    x 5.433030 0.000000 0.000000 
#    y 0.000000 4.621910 0.000000 
#    z 0.000000 0.000000 5.131020 
# 
# 
# High freq. dielectric constant tensor:
#      x y z
#    x 2.090260 0.000000 0.000000 
#    y 0.000000 2.042150 0.000000 
#    z 0.000000 0.000000 2.078840 
# 
# From -- ./inp_files/962.got.cif
#   From: 2010.03.12/outbox.cif.g09.slc.cpg/sg45_1_cif.got.tgz:962.got - 2010.04.14 02:50:11.
