data_PCOD8191929
_publ_section_title
;
Structure prediction by ZEFSAII (Michael W. Deem and Ramdas Pophale) SiO2 
 PCOD8191929
Probable space group: I M A 2
;
_chemical_formula_sum "Si O2"
_cell_formula_units_Z 40
_cell_length_a 20.608546
_cell_length_b 5.255979
_cell_length_c 19.446916
_cell_angle_alpha 90.000000
_cell_angle_beta 90.000000
_cell_angle_gamma 90.000000
_cell_volume 2106.452700
_symmetry_space_group_name_H-M "I M A 2"
_symmetry_group_IT_number 46
_symmetry_cell_setting 'orthorhombic'
loop_
_space_group_symop_operation_xyz
x,y,z
-x,-y,z
1/2-x,y,z
1/2+x,-y,z
1/2+x,1/2+y,1/2+z
1/2-x,1/2-y,1/2+z
-x,1/2+y,1/2+z
x,1/2-y,1/2+z
loop_
_atom_site_type_symbol
_atom_site_label
_atom_site_fract_x
_atom_site_fract_y
_atom_site_fract_z
Si Si1 0.673752 0.974430 0.734900
Si Si2 0.571170 0.048429 0.439467
Si Si3 0.877893 0.539578 0.386181
Si Si4 0.176756 0.686076 0.513313
Si Si5 0.326491 0.974376 0.163025
O O1 0.750000 0.973249 0.722576
O O2 0.643364 0.227886 0.701069
O O3 0.660163 0.971263 0.815369
O O4 0.642849 0.728848 0.696506
O O5 0.587321 0.810325 0.391074
O O6 0.500000 0.000000 0.471993
O O7 0.570955 0.304356 0.392142
O O8 0.625234 0.083563 0.499918
O O9 0.826661 0.510627 0.449316
O O10 0.250000 0.797094 0.519811
O O11 0.156344 0.538010 0.582340
O O12 0.250000 0.978442 0.175057
#
# Coordination Sequence:
#
# PCOD8191929 Si02
#       5
#     8   8   8   8   8
#     4  10  19  33  52  82 119 149 181 231 295 342
#     4  10  22  38  59  84 113 155 191 239 291 342
#     4  10  21  35  59  83 109 150 196 242 275 342
#     4   9  21  35  58  89 117 148 194 245 287 339
#     4   9  19  32  50  78 119 154 179 226 294 347
#
# _framework density 18.989269
#
# number of rings (size 3 to 8) (size 9 to 14) (size 15 to 20)
#    1.200    1.200    0.000    2.400    2.800    1.600 
#    0.000    0.000    0.000    4.800    0.000    0.000 
#    0.000    0.000    0.000    0.000    0.000    0.000 
#
# Total GULP energy -247797.094454 kJ/mol
# GULP energy per Si atom -12389.854723 kJ/mol
# Density = 1.894605 g / cm^3
# Si number density = 18.989269 Si / 1000 Ang^3
#
#
#
# Elastic Constant Matrix: (Units=GPa)
#
#
# Indices 1 2 3 4 5 6 
#
# 1 61.6541 23.6742 16.6546 0.0000 0.0000 0.0000
# 2 23.6742 153.2544 55.0564 0.0000 0.0000 0.0000
# 3 16.6546 55.0564 145.4371 0.0000 0.0000 0.0000
# 4 0.0000 0.0000 0.0000 25.5577 0.0000 0.0000
# 5 0.0000 0.0000 0.0000 0.0000 4.8146 0.0000
# 6 0.0000 0.0000 0.0000 0.0000 0.0000 15.2000
#
#
#
# Elastic Compliance Matrix: (Units=1/GPa)
#
#
# Indices 1 2 3 4 5 6 
#
# 1 0.017401 -0.002283 -0.001129 0.000000 0.000000 0.000000
# 2 -0.002283 0.007852 -0.002711 0.000000 0.000000 0.000000
# 3 -0.001129 -0.002711 0.008031 0.000000 0.000000 0.000000
# 4 0.000000 0.000000 0.000000 0.039127 0.000000 0.000000
# 5 0.000000 0.000000 0.000000 0.000000 0.207700 0.000000
# 6 0.000000 0.000000 0.000000 0.000000 0.000000 0.065789
#
#
# Mechanical properties :
#
#
# Convention : Reuss Voigt Hill
#
# Bulk Modulus (GPa) = 47.52928 61.23511 54.38219
# Shear Modulus (GPa) = 13.69270 26.77849 20.23560
#
# Velocity S-wave (km/s) = 2.68820 3.75932 3.26795
# Velocity P-wave (km/s) = 5.89229 7.15266 6.55285
#
# Compressibility (1/GPa) = 0.02103966
#
# Stress axis : x y z
#
# Youngs Moduli (GPa) = 57.46846 127.36270 124.51292
#
# Poissons Ratio (x) = 0.29072 0.14052
# Poissons Ratio (y) = 0.13118 0.33754
# Poissons Ratio (z) = 0.06486 0.34527
#
# Static dielectric constant tensor:
#      x y z
#    x 3.049880 0.000000 0.000000 
#    y 0.000000 3.734500 0.000000 
#    z 0.000000 0.000000 3.300570 
# 
# 
# High freq. dielectric constant tensor:
#      x y z
#    x 1.689300 0.000000 0.000000 
#    y 0.000000 1.750120 0.000000 
#    z 0.000000 0.000000 1.731990 
# 
# From -- ./inp_files/17241.got.cif
#   From: 2010.03.12/outbox.cif.g09.slc.cpg/sg46_9_cif.got.tgz:17241.got - 2010.04.14 02:56:35.
