data_PCOD8191455
_publ_section_title
;
Structure prediction by ZEFSAII (Michael W. Deem and Ramdas Pophale) SiO2 
 PCOD8191455
Probable space group: I M A 2
;
_chemical_formula_sum "Si O2"
_cell_formula_units_Z 64
_cell_length_a 9.147806
_cell_length_b 18.405786
_cell_length_c 21.081783
_cell_angle_alpha 90.000000
_cell_angle_beta 90.000000
_cell_angle_gamma 90.000000
_cell_volume 3549.593765
_symmetry_space_group_name_H-M "I M A 2"
_symmetry_group_IT_number 46
_symmetry_cell_setting 'orthorhombic'
loop_
_space_group_symop_operation_xyz
x,y,z
-x,-y,z
1/2-x,y,z
1/2+x,-y,z
1/2+x,1/2+y,1/2+z
1/2-x,1/2-y,1/2+z
-x,1/2+y,1/2+z
x,1/2-y,1/2+z
loop_
_atom_site_type_symbol
_atom_site_label
_atom_site_fract_x
_atom_site_fract_y
_atom_site_fract_z
Si Si1 0.917580 0.573716 0.292710
Si Si2 0.591854 0.564468 0.737748
Si Si3 0.577894 0.280099 0.878343
Si Si4 0.923692 0.425663 0.546705
Si Si5 0.414356 0.795844 0.747232
Si Si6 0.421158 0.143111 0.928451
Si Si7 0.085477 0.430196 0.886164
Si Si8 0.914158 0.330976 0.665100
O O1 0.750000 0.561504 0.276336
O O2 0.942924 0.597215 0.364789
O O3 0.000000 0.500000 0.277688
O O4 0.976979 0.636414 0.246261
O O5 0.500000 0.500000 0.705925
O O6 0.750000 0.561295 0.705718
O O7 0.602993 0.555358 0.812198
O O8 0.517512 0.639307 0.719965
O O9 0.750000 0.283453 0.893758
O O10 0.548503 0.259809 0.804913
O O11 0.500623 0.220598 0.923088
O O12 0.506566 0.357040 0.897118
O O13 0.750000 0.437080 0.537537
O O14 0.958606 0.359384 0.595564
O O15 0.000000 0.500000 0.570874
O O16 0.998746 0.404027 0.481331
O O17 0.250000 0.825185 0.757409
O O18 0.427636 0.755639 0.678338
O O19 0.250000 0.154463 0.944113
O O20 0.250000 0.423708 0.915535
O O21 0.000000 0.500000 0.916002
O O22 0.750000 0.357225 0.679788
#
# Coordination Sequence:
#
# PCOD8191455 Si02
#       8
#     8   8   8   8   8   8   8   8
#     4  10  20  33  52  77 103 131 164 207 257 308
#     4  10  19  28  42  63  92 130 169 206 243 290
#     4  10  18  31  52  74 100 133 170 212 262 314
#     4  11  23  37  53  74 103 139 181 219 256 300
#     4   9  18  32  50  72 100 132 165 205 254 307
#     4  10  21  36  54  75 102 134 174 219 261 307
#     4  10  19  29  43  67  99 133 169 208 251 301
#     4  10  20  34  50  70  99 134 172 212 252 301
#
# _framework density 18.030231000000001
#
# number of rings (size 3 to 8) (size 9 to 14) (size 15 to 20)
#    0.000    2.000    1.250    3.000    0.000    6.500 
#    0.000    0.000    0.000    0.000    0.000    0.875 
#    0.000    2.000    0.000    0.000    0.000    0.125 
#
# Total GULP energy -396640.853434 kJ/mol
# GULP energy per Si atom -12395.026670 kJ/mol
# Density = 1.798919 g / cm^3
# Si number density = 18.030231 Si / 1000 Ang^3
#
#
#
# Elastic Constant Matrix: (Units=GPa)
#
#
# Indices 1 2 3 4 5 6 
#
# 1 131.8695 70.2931 30.3046 0.0000 0.0000 0.0000
# 2 70.2931 122.9097 28.8179 0.0000 0.0000 0.0000
# 3 30.3046 28.8179 45.3097 0.0000 0.0000 0.0000
# 4 0.0000 0.0000 0.0000 22.5747 0.0000 0.0000
# 5 0.0000 0.0000 0.0000 0.0000 9.6157 0.0000
# 6 0.0000 0.0000 0.0000 0.0000 0.0000 37.2604
#
#
#
# Elastic Compliance Matrix: (Units=1/GPa)
#
#
# Indices 1 2 3 4 5 6 
#
# 1 0.011532 -0.005626 -0.004135 0.000000 0.000000 0.000000
# 2 -0.005626 0.012307 -0.004064 0.000000 0.000000 0.000000
# 3 -0.004135 -0.004064 0.027421 0.000000 0.000000 0.000000
# 4 0.000000 0.000000 0.000000 0.044297 0.000000 0.000000
# 5 0.000000 0.000000 0.000000 0.000000 0.103997 0.000000
# 6 0.000000 0.000000 0.000000 0.000000 0.000000 0.026838
#
#
# Mechanical properties :
#
#
# Convention : Reuss Voigt Hill
#
# Bulk Modulus (GPa) = 42.35638 62.10222 52.22930
# Shear Modulus (GPa) = 19.09034 25.26840 22.17937
#
# Velocity S-wave (km/s) = 3.25745 3.74765 3.51111
# Velocity P-wave (km/s) = 6.13928 7.29689 6.74298
#
# Compressibility (1/GPa) = 0.02360919
#
# Stress axis : x y z
#
# Youngs Moduli (GPa) = 86.71193 81.25753 36.46845
#
# Poissons Ratio (x) = 0.45715 0.15080
# Poissons Ratio (y) = 0.48784 0.14822
# Poissons Ratio (z) = 0.35856 0.33026
#
# Static dielectric constant tensor:
#      x y z
#    x 3.635540 0.000000 0.000000 
#    y 0.000000 3.365160 0.000000 
#    z 0.000000 0.000000 2.916590 
# 
# 
# High freq. dielectric constant tensor:
#      x y z
#    x 1.718460 0.000000 0.000000 
#    y 0.000000 1.698970 0.000000 
#    z 0.000000 0.000000 1.643680 
# 
# From -- ./inp_files/21290.got.cif
#   From: 2010.03.12/outbox.cif.g09.slc.cpg/sg46_11_cif.got.tgz:21290.got - 2010.04.14 02:56:35.
