data_PCOD8191360
_publ_section_title
;
Structure prediction by ZEFSAII (Michael W. Deem and Ramdas Pophale) SiO2 
 PCOD8191360
Probable space group: I M A 2
;
_chemical_formula_sum "Si O2"
_cell_formula_units_Z 56
_cell_length_a 8.681794
_cell_length_b 18.420783
_cell_length_c 20.782045
_cell_angle_alpha 90.000000
_cell_angle_beta 90.000000
_cell_angle_gamma 90.000000
_cell_volume 3323.577760
_symmetry_space_group_name_H-M "I M A 2"
_symmetry_group_IT_number 46
_symmetry_cell_setting 'orthorhombic'
loop_
_space_group_symop_operation_xyz
x,y,z
-x,-y,z
1/2-x,y,z
1/2+x,-y,z
1/2+x,1/2+y,1/2+z
1/2-x,1/2-y,1/2+z
-x,1/2+y,1/2+z
x,1/2-y,1/2+z
loop_
_atom_site_type_symbol
_atom_site_label
_atom_site_fract_x
_atom_site_fract_y
_atom_site_fract_z
Si Si1 0.081885 0.213428 0.893720
Si Si2 0.928145 0.422710 0.074373
Si Si3 0.432194 0.576353 0.821255
Si Si4 0.420409 0.208287 0.258116
Si Si5 0.572519 0.155815 0.707174
Si Si6 0.565971 0.577583 0.325727
Si Si7 0.065952 0.356564 0.947646
O O1 0.250000 0.196540 0.922597
O O2 0.097027 0.251875 0.825364
O O3 0.000094 0.135776 0.879210
O O4 0.000380 0.272858 0.940383
O O5 0.750000 0.432103 0.055748
O O6 0.951136 0.371082 0.135026
O O7 0.000000 0.500000 0.091097
O O8 0.018675 0.386796 0.015974
O O9 0.500000 0.500000 0.798123
O O10 0.250000 0.572998 0.824866
O O11 0.482653 0.634882 0.767658
O O12 0.496502 0.593251 0.892169
O O13 0.250000 0.189727 0.231023
O O14 0.506500 0.262495 0.209219
O O15 0.750000 0.156725 0.727825
O O16 0.486085 0.100144 0.754454
O O17 0.500000 0.500000 0.345230
O O18 0.750000 0.576634 0.326654
O O19 0.250000 0.356425 0.939695
#
# Coordination Sequence:
#
# PCOD8191360 Si02
#       7
#     8   8   8   8   8   8   8
#     4   7  14  28  45  64  87 116 148 186 229 277
#     4  11  23  35  47  67  95 127 163 198 233 277
#     4  11  20  31  48  71  99 127 157 194 238 283
#     4   9  17  31  49  69  93 121 155 193 236 283
#     4  10  20  33  48  67  93 126 161 195 234 279
#     4  10  18  29  46  69  96 122 152 191 235 282
#     4  10  19  33  50  67  91 125 163 199 238 281
#
# _framework density 16.849312999999999
#
# number of rings (size 3 to 8) (size 9 to 14) (size 15 to 20)
#    0.000    2.286    0.000    6.000    0.000    3.429 
#    0.000    2.143    0.000    0.000    0.000    1.000 
#    0.000    4.571    0.000    0.000    0.000    0.000 
#
# Total GULP energy -347005.916907 kJ/mol
# GULP energy per Si atom -12393.068461 kJ/mol
# Density = 1.681096 g / cm^3
# Si number density = 16.849313 Si / 1000 Ang^3
#
#
#
# Elastic Constant Matrix: (Units=GPa)
#
#
# Indices 1 2 3 4 5 6 
#
# 1 106.7046 54.0982 28.6461 0.0000 0.0000 0.0000
# 2 54.0982 144.5209 42.3450 0.0000 0.0000 0.0000
# 3 28.6461 42.3450 45.7151 0.0000 0.0000 0.0000
# 4 0.0000 0.0000 0.0000 42.4144 0.0000 0.0000
# 5 0.0000 0.0000 0.0000 0.0000 18.9921 0.0000
# 6 0.0000 0.0000 0.0000 0.0000 0.0000 29.7408
#
#
#
# Elastic Compliance Matrix: (Units=1/GPa)
#
#
# Indices 1 2 3 4 5 6 
#
# 1 0.012264 -0.003210 -0.004711 0.000000 0.000000 0.000000
# 2 -0.003210 0.010337 -0.007564 0.000000 0.000000 0.000000
# 3 -0.004711 -0.007564 0.031833 0.000000 0.000000 0.000000
# 4 0.000000 0.000000 0.000000 0.023577 0.000000 0.000000
# 5 0.000000 0.000000 0.000000 0.000000 0.052653 0.000000
# 6 0.000000 0.000000 0.000000 0.000000 0.000000 0.033624
#
#
# Mechanical properties :
#
#
# Convention : Reuss Voigt Hill
#
# Bulk Modulus (GPa) = 42.61881 60.79103 51.70492
# Shear Modulus (GPa) = 24.62085 29.68621 27.15353
#
# Velocity S-wave (km/s) = 3.82676 4.20201 4.01877
# Velocity P-wave (km/s) = 6.69884 7.72658 7.23099
#
# Compressibility (1/GPa) = 0.02346382
#
# Stress axis : x y z
#
# Youngs Moduli (GPa) = 81.53887 96.73713 31.41418
#
# Poissons Ratio (x) = 0.31056 0.14800
# Poissons Ratio (y) = 0.26177 0.23760
# Poissons Ratio (z) = 0.38415 0.73168
#
# Static dielectric constant tensor:
#      x y z
#    x 3.262810 0.000000 0.000000 
#    y 0.000000 3.599100 0.000000 
#    z 0.000000 0.000000 2.862870 
# 
# 
# High freq. dielectric constant tensor:
#      x y z
#    x 1.656500 0.000000 0.000000 
#    y 0.000000 1.661660 0.000000 
#    z 0.000000 0.000000 1.603550 
# 
# From -- ./inp_files/21206.got.cif
#   From: 2010.03.12/outbox.cif.g09.slc.cpg/sg46_11_cif.got.tgz:21206.got - 2010.04.14 02:56:35.
