data_PCOD8191519
_publ_section_title
;
Structure prediction by ZEFSAII (Michael W. Deem and Ramdas Pophale) SiO2 
 PCOD8191519
Probable space group: I M A 2
;
_chemical_formula_sum "Si O2"
_cell_formula_units_Z 64
_cell_length_a 8.852711
_cell_length_b 20.744610
_cell_length_c 19.447561
_cell_angle_alpha 90.000000
_cell_angle_beta 90.000000
_cell_angle_gamma 90.000000
_cell_volume 3571.467510
_symmetry_space_group_name_H-M "I M A 2"
_symmetry_group_IT_number 46
_symmetry_cell_setting 'orthorhombic'
loop_
_space_group_symop_operation_xyz
x,y,z
-x,-y,z
1/2-x,y,z
1/2+x,-y,z
1/2+x,1/2+y,1/2+z
1/2-x,1/2-y,1/2+z
-x,1/2+y,1/2+z
x,1/2-y,1/2+z
loop_
_atom_site_type_symbol
_atom_site_label
_atom_site_fract_x
_atom_site_fract_y
_atom_site_fract_z
Si Si1 0.077611 0.880314 0.827610
Si Si2 0.927735 0.566198 0.199000
Si Si3 0.425448 0.770377 0.331362
Si Si4 0.070942 0.185360 0.197517
Si Si5 0.572137 0.810543 0.618540
Si Si6 0.074538 0.567193 0.620067
Si Si7 0.423176 0.867995 0.979870
Si Si8 0.073623 0.234741 0.472147
O O1 0.250000 0.895113 0.806916
O O2 0.040913 0.804859 0.820024
O O3 0.043913 0.901339 0.906234
O O4 0.969333 0.921157 0.778480
O O5 0.750000 0.560323 0.191841
O O6 0.994309 0.624316 0.152266
O O7 0.000000 0.500000 0.172384
O O8 0.250000 0.786847 0.323718
O O9 0.520179 0.811060 0.276589
O O10 0.479650 0.791103 0.407301
O O11 0.250000 0.180972 0.192701
O O12 0.005193 0.247718 0.157071
O O13 0.001112 0.121987 0.165167
O O14 0.750000 0.809219 0.630042
O O15 0.531426 0.809438 0.537810
O O16 0.250000 0.564550 0.638164
O O17 0.047163 0.580156 0.539185
O O18 0.000000 0.500000 0.640233
O O19 0.250000 0.842315 0.980406
O O20 0.533103 0.807904 0.991926
O O21 0.250000 0.231284 0.454735
#
# Coordination Sequence:
#
# PCOD8191519 Si02
#       8
#     8   8   8   8   8   8   8   8
#     4   9  18  33  51  75 108 145 182 220 262 317
#     4  11  22  37  53  76 108 144 183 225 271 323
#     4  10  20  34  53  83 115 142 177 226 276 328
#     4  11  20  36  59  84 109 143 186 230 278 330
#     4   9  19  34  55  81 109 138 180 228 272 323
#     4  11  23  38  55  79 112 151 188 231 280 330
#     4   9  19  34  51  76 111 145 182 224 269 321
#     4  10  18  32  55  82 108 141 180 225 276 326
#
# _framework density 17.919805
#
# number of rings (size 3 to 8) (size 9 to 14) (size 15 to 20)
#    0.000    2.000    2.500    2.625    0.000    3.000 
#    0.000    3.750    0.000    0.750    0.000    3.500 
#    0.000    0.000    0.000    0.000    0.000    0.000 
#
# Total GULP energy -396861.989611 kJ/mol
# GULP energy per Si atom -12401.937175 kJ/mol
# Density = 1.787902 g / cm^3
# Si number density = 17.919805 Si / 1000 Ang^3
#
#
#
# Elastic Constant Matrix: (Units=GPa)
#
#
# Indices 1 2 3 4 5 6 
#
# 1 75.2547 43.0847 37.6504 0.0000 0.0000 0.0000
# 2 43.0847 120.0368 63.9250 0.0000 0.0000 0.0000
# 3 37.6504 63.9250 102.2787 0.0000 0.0000 0.0000
# 4 0.0000 0.0000 0.0000 17.5974 0.0000 0.0000
# 5 0.0000 0.0000 0.0000 0.0000 28.2583 0.0000
# 6 0.0000 0.0000 0.0000 0.0000 0.0000 27.3099
#
#
#
# Elastic Compliance Matrix: (Units=1/GPa)
#
#
# Indices 1 2 3 4 5 6 
#
# 1 0.017661 -0.004312 -0.003806 0.000000 0.000000 0.000000
# 2 -0.004312 0.013540 -0.006875 0.000000 0.000000 0.000000
# 3 -0.003806 -0.006875 0.015475 0.000000 0.000000 0.000000
# 4 0.000000 0.000000 0.000000 0.056826 0.000000 0.000000
# 5 0.000000 0.000000 0.000000 0.000000 0.035388 0.000000
# 6 0.000000 0.000000 0.000000 0.000000 0.000000 0.036617
#
#
# Mechanical properties :
#
#
# Convention : Reuss Voigt Hill
#
# Bulk Modulus (GPa) = 59.91830 65.21005 62.56418
# Shear Modulus (GPa) = 23.69017 24.82711 24.25864
#
# Velocity S-wave (km/s) = 3.63989 3.72621 3.68330
# Velocity P-wave (km/s) = 7.15364 7.41497 7.28548
#
# Compressibility (1/GPa) = 0.01668939
#
# Stress axis : x y z
#
# Youngs Moduli (GPa) = 56.62100 73.85594 64.61866
#
# Poissons Ratio (x) = 0.31848 0.24596
# Poissons Ratio (y) = 0.24416 0.44426
# Poissons Ratio (z) = 0.21552 0.50777
#
# Static dielectric constant tensor:
#      x y z
#    x 3.262740 0.000000 0.000000 
#    y 0.000000 3.182420 0.000000 
#    z 0.000000 0.000000 3.446110 
# 
# 
# High freq. dielectric constant tensor:
#      x y z
#    x 1.693930 0.000000 0.000000 
#    y 0.000000 1.666260 0.000000 
#    z 0.000000 0.000000 1.698540 
# 
# From -- ./inp_files/18523.got.cif
#   From: 2010.03.12/outbox.cif.g09.slc.cpg/sg46_10_cif.got.tgz:18523.got - 2010.04.14 02:56:35.
