data_PCOD8191776
_publ_section_title
;
Structure prediction by ZEFSAII (Michael W. Deem and Ramdas Pophale) SiO2 
 PCOD8191776
Probable space group: I M A 2
;
_chemical_formula_sum "Si O2"
_cell_formula_units_Z 32
_cell_length_a 13.583535
_cell_length_b 21.401534
_cell_length_c 5.141987
_cell_angle_alpha 90.000000
_cell_angle_beta 90.000000
_cell_angle_gamma 90.000000
_cell_volume 1494.819257
_symmetry_space_group_name_H-M "I M A 2"
_symmetry_group_IT_number 46
_symmetry_cell_setting 'orthorhombic'
loop_
_space_group_symop_operation_xyz
x,y,z
-x,-y,z
1/2-x,y,z
1/2+x,-y,z
1/2+x,1/2+y,1/2+z
1/2-x,1/2-y,1/2+z
-x,1/2+y,1/2+z
x,1/2-y,1/2+z
loop_
_atom_site_type_symbol
_atom_site_label
_atom_site_fract_x
_atom_site_fract_y
_atom_site_fract_z
Si Si1 0.135054 0.282517 0.002680
Si Si2 0.028569 0.570822 0.612951
Si Si3 0.362805 0.409163 0.259323
Si Si4 0.863899 0.049410 0.614896
O O1 0.250000 0.266619 0.994173
O O2 0.086176 0.241972 0.236789
O O3 0.117177 0.356314 0.043207
O O4 0.073136 0.587300 0.896082
O O5 0.000000 0.500000 0.622935
O O6 0.929212 0.606189 0.515480
O O7 0.112483 0.580773 0.391867
O O8 0.250000 0.409085 0.357180
O O9 0.391349 0.475033 0.123087
O O10 0.750000 0.057559 0.546498
#
# Coordination Sequence:
#
# PCOD8191776 Si02
#       4
#     8   8   8   8
#     4   9  18  31  47  69  98 132 170 205 236 284
#     4  10  19  32  47  70  97 127 167 203 237 294
#     4   9  19  34  52  74 105 142 168 198 251 301
#     4  10  20  33  49  69  97 131 166 204 246 291
#
# _framework density 21.407271000000001
#
# number of rings (size 3 to 8) (size 9 to 14) (size 15 to 20)
#    0.000    2.500    0.000    3.000    0.000    7.000 
#    0.000   16.250    0.000    0.000    0.000    0.000 
#    0.000   20.000    0.000    0.000    0.000    0.000 
#
# Total GULP energy -198241.380856 kJ/mol
# GULP energy per Si atom -12390.086304 kJ/mol
# Density = 2.135855 g / cm^3
# Si number density = 21.407271 Si / 1000 Ang^3
#
#
#
# Elastic Constant Matrix: (Units=GPa)
#
#
# Indices 1 2 3 4 5 6 
#
# 1 82.7395 13.1618 30.6604 -0.0005 -0.0001 -0.0002
# 2 13.1618 35.7198 2.3622 -0.0003 -0.0001 -0.0001
# 3 30.6604 2.3622 111.3950 -0.0020 -0.0011 -0.0008
# 4 -0.0005 -0.0003 -0.0020 5.2311 -0.0001 -0.0002
# 5 -0.0001 -0.0001 -0.0011 -0.0001 24.2625 0.0000
# 6 -0.0002 -0.0001 -0.0008 -0.0002 0.0000 10.2467
#
#
#
# Elastic Compliance Matrix: (Units=1/GPa)
#
#
# Indices 1 2 3 4 5 6 
#
# 1 0.014304 -0.005017 -0.003831 0.000000 0.000000 0.000000
# 2 -0.005017 0.029795 0.000749 0.000002 0.000000 0.000000
# 3 -0.003831 0.000749 0.010016 0.000004 0.000000 0.000001
# 4 0.000000 0.000002 0.000004 0.191163 0.000001 0.000003
# 5 0.000000 0.000000 0.000000 0.000001 0.041216 0.000000
# 6 0.000000 0.000000 0.000001 0.000003 0.000000 0.097592
#
#
# Mechanical properties :
#
#
# Convention : Reuss Voigt Hill
#
# Bulk Modulus (GPa) = 26.37356 35.80256 31.08806
# Shear Modulus (GPa) = 12.10885 20.19274 16.15080
#
# Velocity S-wave (km/s) = 2.38090 3.07459 2.74971
# Velocity P-wave (km/s) = 4.46149 5.41895 4.96336
#
# Compressibility (1/GPa) = 0.03791677
#
# Stress axis : x y z
#
# Youngs Moduli (GPa) = 69.91195 33.56284 99.84519
#
# Poissons Ratio (x) = 0.16839 0.38246
# Poissons Ratio (y) = 0.35076 -0.07480
# Poissons Ratio (z) = 0.26780 -0.02514
#
# Static dielectric constant tensor:
#      x y z
#    x 4.848350 0.000000 0.000000 
#    y 0.000000 3.752860 0.000000 
#    z 0.000000 0.000000 4.586790 
# 
# 
# High freq. dielectric constant tensor:
#      x y z
#    x 1.817260 0.000000 0.000000 
#    y 0.000000 1.782240 0.000000 
#    z 0.000000 0.000000 1.857630 
# 
# From -- ./inp_files/1070.got.cif
#   From: 2010.03.12/outbox.cif.g09.slc.cpg/sg46_1_cif.got.tgz:1070.got - 2010.04.14 02:56:35.
