data_PCOD8191650
_publ_section_title
;
Structure prediction by ZEFSAII (Michael W. Deem and Ramdas Pophale) SiO2 
 PCOD8191650
Probable space group: I M A 2
;
_chemical_formula_sum "Si O2"
_cell_formula_units_Z 64
_cell_length_a 8.852593
_cell_length_b 18.323883
_cell_length_c 25.821996
_cell_angle_alpha 90.000000
_cell_angle_beta 90.000000
_cell_angle_gamma 90.000000
_cell_volume 4188.686119
_symmetry_space_group_name_H-M "I M A 2"
_symmetry_group_IT_number 46
_symmetry_cell_setting 'orthorhombic'
loop_
_space_group_symop_operation_xyz
x,y,z
-x,-y,z
1/2-x,y,z
1/2+x,-y,z
1/2+x,1/2+y,1/2+z
1/2-x,1/2-y,1/2+z
-x,1/2+y,1/2+z
x,1/2-y,1/2+z
loop_
_atom_site_type_symbol
_atom_site_label
_atom_site_fract_x
_atom_site_fract_y
_atom_site_fract_z
Si Si1 0.427703 0.576524 0.250000
Si Si2 0.916606 0.210865 0.993720
Si Si3 0.429167 0.577378 0.430124
Si Si4 0.072137 0.421096 0.942771
Si Si5 0.929775 0.834748 0.836882
Si Si6 0.580385 0.296291 0.886780
Si Si7 0.424757 0.333841 0.045842
Si Si8 0.425178 0.575117 0.130409
O O1 0.500000 0.500000 0.267375
O O2 0.250000 0.574697 0.261993
O O3 0.509146 0.641073 0.280965
O O4 0.462125 0.591971 0.189950
O O5 0.750000 0.212330 0.019050
O O6 0.966220 0.128251 0.980087
O O7 0.913302 0.252648 0.939771
O O8 0.031859 0.249974 0.032911
O O9 0.500000 0.500000 0.443676
O O10 0.250000 0.572487 0.420453
O O11 0.505537 0.608763 0.378686
O O12 0.250000 0.426289 0.934913
O O13 0.000000 0.500000 0.940215
O O14 0.003732 0.373021 0.896045
O O15 0.030372 0.385703 0.997995
O O16 0.750000 0.836120 0.838712
O O17 0.987429 0.752204 0.845784
O O18 0.750000 0.310572 0.865892
O O19 0.250000 0.337444 0.058579
O O20 0.513712 0.358161 0.096666
O O21 0.500000 0.500000 0.111787
O O22 0.250000 0.565979 0.120111
#
# Coordination Sequence:
#
# PCOD8191650 Si02
#       8
#     8   8   8   8   8   8   8   8
#     4  10  20  33  46  62  84 112 145 181 217 252
#     4   8  16  29  43  59  82 111 142 174 210 249
#     4  10  19  30  44  63  87 115 145 178 212 252
#     4  10  19  29  42  63  88 116 147 178 213 254
#     4  11  20  30  45  63  85 114 145 178 214 256
#     4   9  17  30  45  61  83 111 142 178 214 252
#     4  10  19  29  44  63  85 113 145 178 213 253
#     4  10  20  32  46  62  84 112 144 181 217 252
#
# _framework density 15.279253000000001
#
# number of rings (size 3 to 8) (size 9 to 14) (size 15 to 20)
#    0.000    2.250    0.000    4.875    0.000    7.500 
#    0.000    0.000    0.000    0.000    0.000    0.000 
#    0.000    1.000    0.000    5.250    0.000    5.000 
#
# Total GULP energy -396805.716680 kJ/mol
# GULP energy per Si atom -12400.178646 kJ/mol
# Density = 1.524448 g / cm^3
# Si number density = 15.279253 Si / 1000 Ang^3
#
#
#
# Elastic Constant Matrix: (Units=GPa)
#
#
# Indices 1 2 3 4 5 6 
#
# 1 106.0635 53.6616 44.4152 0.0000 0.0000 0.0000
# 2 53.6616 102.5081 41.4042 0.0000 0.0000 0.0000
# 3 44.4152 41.4042 59.4784 0.0000 0.0000 0.0000
# 4 0.0000 0.0000 0.0000 22.4630 0.0000 0.0000
# 5 0.0000 0.0000 0.0000 0.0000 22.0332 0.0000
# 6 0.0000 0.0000 0.0000 0.0000 0.0000 29.6908
#
#
#
# Elastic Compliance Matrix: (Units=1/GPa)
#
#
# Indices 1 2 3 4 5 6 
#
# 1 0.015180 -0.004685 -0.008074 0.000000 0.000000 0.000000
# 2 -0.004685 0.015017 -0.006955 0.000000 0.000000 0.000000
# 3 -0.008074 -0.006955 0.027684 0.000000 0.000000 0.000000
# 4 0.000000 0.000000 0.000000 0.044518 0.000000 0.000000
# 5 0.000000 0.000000 0.000000 0.000000 0.045386 0.000000
# 6 0.000000 0.000000 0.000000 0.000000 0.000000 0.033681
#
#
# Mechanical properties :
#
#
# Convention : Reuss Voigt Hill
#
# Bulk Modulus (GPa) = 54.19464 60.77912 57.48688
# Shear Modulus (GPa) = 22.02212 23.40865 22.71538
#
# Velocity S-wave (km/s) = 3.80058 3.91839 3.85993
# Velocity P-wave (km/s) = 7.40308 7.76769 7.58757
#
# Compressibility (1/GPa) = 0.01845201
#
# Stress axis : x y z
#
# Youngs Moduli (GPa) = 65.87698 66.58998 36.12242
#
# Poissons Ratio (x) = 0.31199 0.29165
# Poissons Ratio (y) = 0.30865 0.25124
# Poissons Ratio (z) = 0.53189 0.46314
#
# Static dielectric constant tensor:
#      x y z
#    x 3.106260 0.000000 0.000000 
#    y 0.000000 2.633540 0.000000 
#    z 0.000000 0.000000 2.728080 
# 
# 
# High freq. dielectric constant tensor:
#      x y z
#    x 1.606260 0.000000 0.000000 
#    y 0.000000 1.575840 0.000000 
#    z 0.000000 0.000000 1.548110 
# 
# From -- ./inp_files/23274.got.cif
#   From: 2010.03.12/outbox.cif.g09.slc.cpg/sg46_12_cif.got.tgz:23274.got - 2010.04.14 02:56:35.
