data_PCOD8191879
_publ_section_title
;
Structure prediction by ZEFSAII (Michael W. Deem and Ramdas Pophale) SiO2 
 PCOD8191879
Probable space group: I M A 2
;
_chemical_formula_sum "Si O2"
_cell_formula_units_Z 56
_cell_length_a 8.859588
_cell_length_b 14.023786
_cell_length_c 22.762364
_cell_angle_alpha 90.000000
_cell_angle_beta 90.000000
_cell_angle_gamma 90.000000
_cell_volume 2828.109145
_symmetry_space_group_name_H-M "I M A 2"
_symmetry_group_IT_number 46
_symmetry_cell_setting 'orthorhombic'
loop_
_space_group_symop_operation_xyz
x,y,z
-x,-y,z
1/2-x,y,z
1/2+x,-y,z
1/2+x,1/2+y,1/2+z
1/2-x,1/2-y,1/2+z
-x,1/2+y,1/2+z
x,1/2-y,1/2+z
loop_
_atom_site_type_symbol
_atom_site_label
_atom_site_fract_x
_atom_site_fract_y
_atom_site_fract_z
Si Si1 0.428757 0.095082 0.668010
Si Si2 0.925848 0.800829 0.440467
Si Si3 0.072791 0.396905 0.817158
Si Si4 0.429077 0.789005 0.209086
Si Si5 0.582977 0.140315 0.551782
Si Si6 0.424994 0.092999 0.974606
Si Si7 0.584708 0.357841 0.586396
O O1 0.250000 0.095030 0.674811
O O2 0.495109 0.186062 0.701645
O O3 0.473841 0.091873 0.599215
O O4 0.500000 0.000000 0.697487
O O5 0.750000 0.804150 0.456512
O O6 0.960979 0.839139 0.376263
O O7 0.983855 0.690883 0.444736
O O8 0.011595 0.868676 0.486870
O O9 0.250000 0.406950 0.804714
O O10 0.000000 0.500000 0.822371
O O11 0.994380 0.337838 0.766270
O O12 0.250000 0.774588 0.213764
O O13 0.469089 0.859165 0.154303
O O14 0.750000 0.092481 0.552559
O O15 0.599505 0.249275 0.568209
O O16 0.250000 0.081922 0.965504
O O17 0.500000 0.000000 0.944284
O O18 0.464497 0.091050 0.044318
O O19 0.750000 0.406643 0.579228
#
# Coordination Sequence:
#
# PCOD8191879 Si02
#       7
#     8   8   8   8   8   8   8
#     4  11  21  35  57  86 120 155 190 230 281 340
#     4   9  20  38  57  79 111 150 191 235 283 337
#     4  11  24  42  62  83 108 143 189 239 290 343
#     4  10  21  39  60  84 114 148 190 237 285 339
#     4   9  17  31  53  81 112 146 184 227 277 329
#     4  10  19  32  53  81 112 145 181 222 272 331
#     4   8  16  31  51  76 107 141 177 218 264 319
#
# _framework density 19.801216
#
# number of rings (size 3 to 8) (size 9 to 14) (size 15 to 20)
#    0.000    2.286    0.000    3.857    0.000    6.857 
#    0.000    2.143    0.000    1.714    0.000    0.000 
#    0.000    0.000    0.000    0.000    0.000    0.000 
#
# Total GULP energy -347107.570206 kJ/mol
# GULP energy per Si atom -12396.698936 kJ/mol
# Density = 1.975615 g / cm^3
# Si number density = 19.801216 Si / 1000 Ang^3
#
#
#
# Elastic Constant Matrix: (Units=GPa)
#
#
# Indices 1 2 3 4 5 6 
#
# 1 116.4695 53.6452 49.0976 0.0000 0.0000 0.0000
# 2 53.6452 115.4003 44.2825 0.0000 0.0000 0.0000
# 3 49.0976 44.2825 107.0572 0.0000 0.0000 0.0000
# 4 0.0000 0.0000 0.0000 18.2660 0.0000 0.0000
# 5 0.0000 0.0000 0.0000 0.0000 26.2538 0.0000
# 6 0.0000 0.0000 0.0000 0.0000 0.0000 33.8562
#
#
#
# Elastic Compliance Matrix: (Units=1/GPa)
#
#
# Indices 1 2 3 4 5 6 
#
# 1 0.012120 -0.004162 -0.003837 0.000000 0.000000 0.000000
# 2 -0.004162 0.011730 -0.002943 0.000000 0.000000 0.000000
# 3 -0.003837 -0.002943 0.012318 0.000000 0.000000 0.000000
# 4 0.000000 0.000000 0.000000 0.054747 0.000000 0.000000
# 5 0.000000 0.000000 0.000000 0.000000 0.038090 0.000000
# 6 0.000000 0.000000 0.000000 0.000000 0.000000 0.029537
#
#
# Mechanical properties :
#
#
# Convention : Reuss Voigt Hill
#
# Bulk Modulus (GPa) = 70.00940 70.33084 70.17012
# Shear Modulus (GPa) = 26.99987 28.46864 27.73426
#
# Velocity S-wave (km/s) = 3.69663 3.79584 3.74656
# Velocity P-wave (km/s) = 7.32482 7.40316 7.36409
#
# Compressibility (1/GPa) = 0.01428380
#
# Stress axis : x y z
#
# Youngs Moduli (GPa) = 82.50554 85.25484 81.18305
#
# Poissons Ratio (x) = 0.35482 0.31150
# Poissons Ratio (y) = 0.34338 0.23892
# Poissons Ratio (z) = 0.31658 0.25091
#
# Static dielectric constant tensor:
#      x y z
#    x 3.778660 0.000000 0.000000 
#    y 0.000000 3.803360 0.000000 
#    z 0.000000 0.000000 3.579070 
# 
# 
# High freq. dielectric constant tensor:
#      x y z
#    x 1.780870 0.000000 0.000000 
#    y 0.000000 1.777500 0.000000 
#    z 0.000000 0.000000 1.750150 
# 
# From -- ./inp_files/21117.got.cif
#   From: 2010.03.12/outbox.cif.g09.slc.cpg/sg46_11_cif.got.tgz:21117.got - 2010.04.14 02:56:35.
