data_PCOD8191367
_publ_section_title
;
Structure prediction by ZEFSAII (Michael W. Deem and Ramdas Pophale) SiO2 
 PCOD8191367
Probable space group: I M A 2
;
_chemical_formula_sum "Si O2"
_cell_formula_units_Z 64
_cell_length_a 8.800598
_cell_length_b 14.777773
_cell_length_c 27.556060
_cell_angle_alpha 90.000000
_cell_angle_beta 90.000000
_cell_angle_gamma 90.000000
_cell_volume 3583.754871
_symmetry_space_group_name_H-M "I M A 2"
_symmetry_group_IT_number 46
_symmetry_cell_setting 'orthorhombic'
loop_
_space_group_symop_operation_xyz
x,y,z
-x,-y,z
1/2-x,y,z
1/2+x,-y,z
1/2+x,1/2+y,1/2+z
1/2-x,1/2-y,1/2+z
-x,1/2+y,1/2+z
x,1/2-y,1/2+z
loop_
_atom_site_type_symbol
_atom_site_label
_atom_site_fract_x
_atom_site_fract_y
_atom_site_fract_z
Si Si1 0.573301 0.092211 0.978200
Si Si2 0.569592 0.720953 0.667084
Si Si3 0.926592 0.215840 0.440968
Si Si4 0.070606 0.095181 0.361510
Si Si5 0.571410 0.908218 0.631100
Si Si6 0.930706 0.906009 0.081119
Si Si7 0.929116 0.905889 0.251071
Si Si8 0.070386 0.406459 0.019610
O O1 0.750000 0.073904 0.988131
O O2 0.549308 0.175464 0.941107
O O3 0.500000 0.000000 0.956548
O O4 0.494361 0.119470 0.028532
O O5 0.750000 0.720745 0.667632
O O6 0.510318 0.824267 0.663346
O O7 0.513084 0.668570 0.619361
O O8 0.507834 0.673819 0.716185
O O9 0.750000 0.190382 0.440270
O O10 0.006125 0.176976 0.393177
O O11 0.001561 0.175606 0.489263
O O12 0.250000 0.089081 0.368337
O O13 0.023107 0.116411 0.306138
O O14 0.000000 0.000000 0.378727
O O15 0.750000 0.918018 0.634983
O O16 0.523048 0.891599 0.575400
O O17 0.500000 0.000000 0.652044
O O18 0.750000 0.912479 0.078475
O O19 0.000000 0.000000 0.099455
O O20 0.750000 0.915793 0.246058
O O21 0.000000 0.000000 0.233542
O O22 0.250000 0.408860 0.012188
O O23 0.000000 0.500000 0.999909
#
# Coordination Sequence:
#
# PCOD8191367 Si02
#       8
#     8   8   8   8   8   8   8   8
#     4  10  21  35  50  69  96 129 163 201 240 279
#     4   9  17  30  49  71  96 127 161 194 233 282
#     4  11  22  34  50  72  97 126 161 201 242 285
#     4  10  20  34  53  75  99 127 157 193 239 289
#     4   9  18  32  48  67  94 128 163 199 235 273
#     4  10  18  29  47  71 100 131 160 192 232 280
#     4   9  18  33  52  74  99 126 155 190 234 283
#     4  10  19  31  48  71 100 132 164 198 237 283
#
# _framework density 17.858364000000002
#
# number of rings (size 3 to 8) (size 9 to 14) (size 15 to 20)
#    0.000    2.250    0.000    4.125    0.000    4.000 
#    0.000    2.500    0.000    0.750    0.000    3.500 
#    0.000    0.000    0.000    0.000    0.000    0.000 
#
# Total GULP energy -396786.279374 kJ/mol
# GULP energy per Si atom -12399.571230 kJ/mol
# Density = 1.781772 g / cm^3
# Si number density = 17.858364 Si / 1000 Ang^3
#
#
#
# Elastic Constant Matrix: (Units=GPa)
#
#
# Indices 1 2 3 4 5 6 
#
# 1 69.7031 40.7282 29.6271 0.0000 0.0000 0.0000
# 2 40.7282 151.0946 71.7567 0.0000 0.0000 0.0000
# 3 29.6271 71.7567 83.9720 0.0000 0.0000 0.0000
# 4 0.0000 0.0000 0.0000 29.5948 0.0000 0.0000
# 5 0.0000 0.0000 0.0000 0.0000 16.6983 0.0000
# 6 0.0000 0.0000 0.0000 0.0000 0.0000 28.9248
#
#
#
# Elastic Compliance Matrix: (Units=1/GPa)
#
#
# Indices 1 2 3 4 5 6 
#
# 1 0.017666 -0.003033 -0.003642 0.000000 0.000000 0.000000
# 2 -0.003033 0.011659 -0.008893 0.000000 0.000000 0.000000
# 3 -0.003642 -0.008893 0.020793 0.000000 0.000000 0.000000
# 4 0.000000 0.000000 0.000000 0.033790 0.000000 0.000000
# 5 0.000000 0.000000 0.000000 0.000000 0.059886 0.000000
# 6 0.000000 0.000000 0.000000 0.000000 0.000000 0.034572
#
#
# Mechanical properties :
#
#
# Convention : Reuss Voigt Hill
#
# Bulk Modulus (GPa) = 52.67635 65.44374 59.06005
# Shear Modulus (GPa) = 23.16631 25.88740 24.52686
#
# Velocity S-wave (km/s) = 3.60561 3.81149 3.70998
# Velocity P-wave (km/s) = 6.84797 7.48969 7.17600
#
# Compressibility (1/GPa) = 0.01898385
#
# Stress axis : x y z
#
# Youngs Moduli (GPa) = 56.60459 85.76790 48.09259
#
# Poissons Ratio (x) = 0.26010 0.17514
# Poissons Ratio (y) = 0.17166 0.42770
# Poissons Ratio (z) = 0.20613 0.76276
#
# Static dielectric constant tensor:
#      x y z
#    x 3.271450 0.000000 0.000000 
#    y 0.000000 3.507080 0.000000 
#    z 0.000000 0.000000 3.269570 
# 
# 
# High freq. dielectric constant tensor:
#      x y z
#    x 1.690130 0.000000 0.000000 
#    y 0.000000 1.694970 0.000000 
#    z 0.000000 0.000000 1.668700 
# 
# From -- ./inp_files/25302.got.cif
#   From: 2010.03.12/outbox.cif.g09.slc.cpg/sg46_13_cif.got.tgz:25302.got - 2010.04.14 02:56:35.
