data_PCOD8191671
_publ_section_title
;
Structure prediction by ZEFSAII (Michael W. Deem and Ramdas Pophale) SiO2 
 PCOD8191671
Probable space group: I M A 2
;
_chemical_formula_sum "Si O2"
_cell_formula_units_Z 48
_cell_length_a 19.188413
_cell_length_b 26.931886
_cell_length_c 5.268616
_cell_angle_alpha 90.000000
_cell_angle_beta 90.000000
_cell_angle_gamma 90.000000
_cell_volume 2722.716174
_symmetry_space_group_name_H-M "I M A 2"
_symmetry_group_IT_number 46
_symmetry_cell_setting 'orthorhombic'
loop_
_space_group_symop_operation_xyz
x,y,z
-x,-y,z
1/2-x,y,z
1/2+x,-y,z
1/2+x,1/2+y,1/2+z
1/2-x,1/2-y,1/2+z
-x,1/2+y,1/2+z
x,1/2-y,1/2+z
loop_
_atom_site_type_symbol
_atom_site_label
_atom_site_fract_x
_atom_site_fract_y
_atom_site_fract_z
Si Si1 0.383671 0.189137 0.711350
Si Si2 0.827689 0.014580 0.187980
Si Si3 0.828559 0.703966 0.711416
Si Si4 0.672220 0.951070 0.687925
Si Si5 0.531647 0.896396 0.739148
Si Si6 0.529313 0.055874 0.239570
O O1 0.382358 0.249257 0.706420
O O2 0.344774 0.170095 0.455741
O O3 0.461548 0.164088 0.721201
O O4 0.341337 0.171084 0.961596
O O5 0.750000 0.038127 0.211112
O O6 0.839303 0.974958 0.411552
O O7 0.886787 0.056576 0.218442
O O8 0.837827 0.991186 0.910664
O O9 0.750000 0.724814 0.721265
O O10 0.750000 0.927937 0.705671
O O11 0.613405 0.910049 0.723267
O O12 0.488591 0.919482 0.508549
O O13 0.499989 0.912403 0.006657
O O14 0.500000 0.000000 0.226153
#
# Coordination Sequence:
#
# PCOD8191671 Si02
#       6
#     8   8   8   8   8   8
#     4  10  20  32  48  72  98 125 175 215 241 297
#     4  10  20  34  49  66  88 125 168 203 242 296
#     4  10  19  35  54  70  98 146 174 197 258 314
#     4  10  19  30  44  66  94 122 161 208 247 282
#     4  12  22  33  49  76  96 130 170 218 255 288
#     4  12  21  35  54  67  98 135 168 206 265 313
#
# _framework density 17.629456000000001
#
# number of rings (size 3 to 8) (size 9 to 14) (size 15 to 20)
#    0.000    1.333    3.333    5.000    0.000    2.000 
#    0.000    1.667    0.000    0.000    0.000    0.000 
#    0.000    0.000    0.000   60.000    0.000    0.000 
#
# Total GULP energy -297318.420291 kJ/mol
# GULP energy per Si atom -12388.267512 kJ/mol
# Density = 1.758933 g / cm^3
# Si number density = 17.629456 Si / 1000 Ang^3
#
#
#
# Elastic Constant Matrix: (Units=GPa)
#
#
# Indices 1 2 3 4 5 6 
#
# 1 87.9166 25.2971 2.9524 0.0000 0.0000 0.0000
# 2 25.2971 46.6924 6.5011 0.0000 0.0000 0.0000
# 3 2.9524 6.5011 127.0859 0.0000 0.0000 0.0000
# 4 0.0000 0.0000 0.0000 14.1919 0.0000 0.0000
# 5 0.0000 0.0000 0.0000 0.0000 27.4813 0.0000
# 6 0.0000 0.0000 0.0000 0.0000 0.0000 13.9915
#
#
#
# Elastic Compliance Matrix: (Units=1/GPa)
#
#
# Indices 1 2 3 4 5 6 
#
# 1 0.013476 -0.007309 0.000061 0.000000 0.000000 0.000000
# 2 -0.007309 0.025535 -0.001136 0.000000 0.000000 0.000000
# 3 0.000061 -0.001136 0.007925 0.000000 0.000000 0.000000
# 4 0.000000 0.000000 0.000000 0.070463 0.000000 0.000000
# 5 0.000000 0.000000 0.000000 0.000000 0.036388 0.000000
# 6 0.000000 0.000000 0.000000 0.000000 0.000000 0.071472
#
#
# Mechanical properties :
#
#
# Convention : Reuss Voigt Hill
#
# Bulk Modulus (GPa) = 33.14963 36.79956 34.97460
# Shear Modulus (GPa) = 19.83462 26.26255 23.04859
#
# Velocity S-wave (km/s) = 3.35787 3.86385 3.61971
# Velocity P-wave (km/s) = 5.82049 6.38944 6.11159
#
# Compressibility (1/GPa) = 0.03016625
#
# Stress axis : x y z
#
# Youngs Moduli (GPa) = 74.20844 39.16186 126.17640
#
# Poissons Ratio (x) = 0.28625 -0.00768
# Poissons Ratio (y) = 0.54241 0.14339
# Poissons Ratio (z) = -0.00452 0.04451
#
# Static dielectric constant tensor:
#      x y z
#    x 3.400760 0.000000 0.000000 
#    y 0.000000 2.914280 0.000000 
#    z 0.000000 0.000000 4.156110 
# 
# 
# High freq. dielectric constant tensor:
#      x y z
#    x 1.654450 0.000000 0.000000 
#    y 0.000000 1.635140 0.000000 
#    z 0.000000 0.000000 1.727550 
# 
# From -- ./inp_files/1751.got.cif
#   From: 2010.03.12/outbox.cif.g09.slc.cpg/sg46_1_cif.got.tgz:1751.got - 2010.04.14 02:56:35.
