data_PCOD8191985
_publ_section_title
;
Structure prediction by ZEFSAII (Michael W. Deem and Ramdas Pophale) SiO2 
 PCOD8191985
Probable space group: I M A 2
;
_chemical_formula_sum "Si O2"
_cell_formula_units_Z 48
_cell_length_a 8.812333
_cell_length_b 23.044054
_cell_length_c 11.834668
_cell_angle_alpha 90.000000
_cell_angle_beta 90.000000
_cell_angle_gamma 90.000000
_cell_volume 2403.288251
_symmetry_space_group_name_H-M "I M A 2"
_symmetry_group_IT_number 46
_symmetry_cell_setting 'orthorhombic'
loop_
_space_group_symop_operation_xyz
x,y,z
-x,-y,z
1/2-x,y,z
1/2+x,-y,z
1/2+x,1/2+y,1/2+z
1/2-x,1/2-y,1/2+z
-x,1/2+y,1/2+z
x,1/2-y,1/2+z
loop_
_atom_site_type_symbol
_atom_site_label
_atom_site_fract_x
_atom_site_fract_y
_atom_site_fract_z
Si Si1 0.929782 0.563790 0.627230
Si Si2 0.071644 0.856822 0.309019
Si Si3 0.418924 0.557627 0.224888
Si Si4 0.428293 0.365445 0.408397
Si Si5 0.418089 0.843799 0.555857
Si Si6 0.072208 0.726798 0.261607
O O1 0.750000 0.556315 0.629249
O O2 0.981511 0.609100 0.529466
O O3 0.000000 0.500000 0.607845
O O4 0.986177 0.591650 0.744480
O O5 0.250000 0.871992 0.311106
O O6 0.999830 0.850795 0.435072
O O7 0.039799 0.794714 0.252007
O O8 0.500000 0.500000 0.186633
O O9 0.250000 0.547144 0.274647
O O10 0.522836 0.587289 0.317843
O O11 0.408594 0.593248 0.110119
O O12 0.250000 0.356639 0.406314
O O13 0.502421 0.303207 0.374603
O O14 0.250000 0.818679 0.529626
O O15 0.499178 0.800604 0.646216
O O16 0.250000 0.711362 0.266298
#
# Coordination Sequence:
#
# PCOD8191985 Si02
#       6
#     8   8   8   8   8   8
#     4  11  25  42  59  84 119 158 202 246 294 350
#     4  10  21  37  61  86 115 154 193 238 289 349
#     4  10  19  33  55  81 113 146 187 236 284 340
#     4  10  21  37  58  85 117 151 191 240 291 344
#     4   8  17  34  52  81 115 144 185 231 280 340
#     4   9  19  35  60  89 117 149 190 239 290 347
#
# _framework density 19.972636000000001
#
# number of rings (size 3 to 8) (size 9 to 14) (size 15 to 20)
#    0.000    2.333    0.000    3.000    2.333    5.333 
#    0.000    5.833    0.000    0.000    0.000    0.000 
#    0.000    0.000    0.000    0.000    0.000    0.000 
#
# Total GULP energy -297460.262169 kJ/mol
# GULP energy per Si atom -12394.177590 kJ/mol
# Density = 1.992718 g / cm^3
# Si number density = 19.972636 Si / 1000 Ang^3
#
#
#
# Elastic Constant Matrix: (Units=GPa)
#
#
# Indices 1 2 3 4 5 6 
#
# 1 45.6664 27.8424 22.5249 0.0011 -0.0001 0.0000
# 2 27.8424 78.8720 21.9309 0.0023 0.0000 0.0000
# 3 22.5249 21.9309 114.1609 -0.0133 0.0009 -0.0006
# 4 0.0011 0.0023 -0.0133 118.8130 0.0004 -0.0006
# 5 -0.0001 0.0000 0.0009 0.0004 25.1302 -0.0001
# 6 0.0000 0.0000 -0.0006 -0.0006 -0.0001 28.2847
#
#
#
# Elastic Compliance Matrix: (Units=1/GPa)
#
#
# Indices 1 2 3 4 5 6 
#
# 1 0.029572 -0.009314 -0.004046 -0.000001 0.000000 0.000000
# 2 -0.009314 0.016328 -0.001299 0.000000 0.000000 0.000000
# 3 -0.004046 -0.001299 0.009807 0.000001 0.000000 0.000000
# 4 -0.000001 0.000000 0.000001 0.008417 0.000000 0.000000
# 5 0.000000 0.000000 0.000000 0.000000 0.039793 0.000000
# 6 0.000000 0.000000 0.000000 0.000000 0.000000 0.035355
#
#
# Mechanical properties :
#
#
# Convention : Reuss Voigt Hill
#
# Bulk Modulus (GPa) = 37.89310 42.58840 40.24075
# Shear Modulus (GPa) = 28.18713 45.53897 36.86305
#
# Velocity S-wave (km/s) = 3.76079 4.78019 4.30080
# Velocity P-wave (km/s) = 6.15400 7.19976 6.69732
#
# Compressibility (1/GPa) = 0.02639003
#
# Stress axis : x y z
#
# Youngs Moduli (GPa) = 33.81546 61.24464 101.96473
#
# Poissons Ratio (x) = 0.57045 0.41250
# Poissons Ratio (y) = 0.31497 0.13244
# Poissons Ratio (z) = 0.13680 0.07955
#
# Static dielectric constant tensor:
#      x y z
#    x 3.457620 0.000000 0.000000 
#    y 0.000000 3.501060 0.000000 
#    z 0.000000 0.000000 3.800800 
# 
# 
# High freq. dielectric constant tensor:
#      x y z
#    x 1.756420 0.000000 0.000000 
#    y 0.000000 1.782810 0.000000 
#    z 0.000000 0.000000 1.782600 
# 
# From -- ./inp_files/9295.got.cif
#   From: 2010.03.12/outbox.cif.g09.slc.cpg/sg46_5_cif.got.tgz:9295.got - 2010.04.14 02:56:35.
