data_PCOD8191826
_publ_section_title
;
Structure prediction by ZEFSAII (Michael W. Deem and Ramdas Pophale) SiO2 
 PCOD8191826
Probable space group: I M A 2
;
_chemical_formula_sum "Si O2"
_cell_formula_units_Z 56
_cell_length_a 8.987248
_cell_length_b 23.763675
_cell_length_c 13.690075
_cell_angle_alpha 90.000000
_cell_angle_beta 90.000000
_cell_angle_gamma 90.000000
_cell_volume 2923.789874
_symmetry_space_group_name_H-M "I M A 2"
_symmetry_group_IT_number 46
_symmetry_cell_setting 'orthorhombic'
loop_
_space_group_symop_operation_xyz
x,y,z
-x,-y,z
1/2-x,y,z
1/2+x,-y,z
1/2+x,1/2+y,1/2+z
1/2-x,1/2-y,1/2+z
-x,1/2+y,1/2+z
x,1/2-y,1/2+z
loop_
_atom_site_type_symbol
_atom_site_label
_atom_site_fract_x
_atom_site_fract_y
_atom_site_fract_z
Si Si1 0.576555 0.556992 0.362160
Si Si2 0.923374 0.228101 0.358614
Si Si3 0.077226 0.169761 0.185961
Si Si4 0.074126 0.330335 0.463424
Si Si5 0.574691 0.941894 0.637729
Si Si6 0.424115 0.056257 0.293745
Si Si7 0.575213 0.115170 0.469219
O O1 0.500000 0.500000 0.398971
O O2 0.750000 0.547401 0.375478
O O3 0.518948 0.608547 0.427757
O O4 0.536132 0.570575 0.250073
O O5 0.750000 0.239242 0.348486
O O6 0.959459 0.178277 0.434348
O O7 0.984795 0.212861 0.251809
O O8 0.000218 0.284134 0.395557
O O9 0.250000 0.184241 0.199373
O O10 0.024116 0.178045 0.075035
O O11 0.045284 0.105422 0.215850
O O12 0.250000 0.325213 0.451478
O O13 0.750000 0.944621 0.618504
O O14 0.500751 0.891887 0.574945
O O15 0.500000 0.000000 0.603762
O O16 0.250000 0.046448 0.310973
O O17 0.500387 0.070676 0.396469
O O18 0.500000 0.000000 0.251243
O O19 0.750000 0.103073 0.474538
#
# Coordination Sequence:
#
# PCOD8191826 Si02
#       7
#     8   8   8   8   8   8   8
#     4   9  20  37  56  80 109 140 176 219 264 315
#     4  10  22  38  56  81 111 141 178 225 272 319
#     4   9  20  38  58  79 107 144 182 221 264 318
#     4  10  21  39  61  83 108 141 181 220 265 321
#     4  10  19  32  51  76 107 142 179 219 266 317
#     4  10  19  32  51  77 108 142 180 220 267 318
#     4  10  20  34  51  74 106 142 180 222 267 316
#
# _framework density 19.153222
#
# number of rings (size 3 to 8) (size 9 to 14) (size 15 to 20)
#    0.000    2.286    0.000    2.143    0.000    5.714 
#    0.000    4.286    0.000    0.000    0.000    0.000 
#    0.000    0.000    0.000    0.000    0.000    0.000 
#
# Total GULP energy -347310.635850 kJ/mol
# GULP energy per Si atom -12403.951280 kJ/mol
# Density = 1.910963 g / cm^3
# Si number density = 19.153222 Si / 1000 Ang^3
#
#
#
# Elastic Constant Matrix: (Units=GPa)
#
#
# Indices 1 2 3 4 5 6 
#
# 1 80.0664 58.8531 51.6532 0.0000 0.0000 0.0000
# 2 58.8531 135.5351 76.3570 -0.0001 0.0001 0.0000
# 3 51.6532 76.3570 117.5207 0.0000 0.0000 0.0000
# 4 0.0000 -0.0001 0.0000 24.1970 0.0000 0.0000
# 5 0.0000 0.0001 0.0000 0.0000 20.8781 0.0000
# 6 0.0000 0.0000 0.0000 0.0000 0.0000 34.0189
#
#
#
# Elastic Compliance Matrix: (Units=1/GPa)
#
#
# Indices 1 2 3 4 5 6 
#
# 1 0.020033 -0.005897 -0.004974 0.000000 0.000000 0.000000
# 2 -0.005897 0.013374 -0.006098 0.000000 0.000000 0.000000
# 3 -0.004974 -0.006098 0.014657 0.000000 0.000000 0.000000
# 4 0.000000 0.000000 0.000000 0.041327 0.000000 0.000000
# 5 0.000000 0.000000 0.000000 0.000000 0.047897 0.000000
# 6 0.000000 0.000000 0.000000 0.000000 0.000000 0.029395
#
#
# Mechanical properties :
#
#
# Convention : Reuss Voigt Hill
#
# Bulk Modulus (GPa) = 70.78341 78.53877 74.66109
# Shear Modulus (GPa) = 24.35117 25.56939 24.96028
#
# Velocity S-wave (km/s) = 3.56952 3.65772 3.61389
# Velocity P-wave (km/s) = 7.35019 7.67679 7.51526
#
# Compressibility (1/GPa) = 0.01412760
#
# Stress axis : x y z
#
# Youngs Moduli (GPa) = 49.91853 74.77180 68.22665
#
# Poissons Ratio (x) = 0.44091 0.33933
# Poissons Ratio (y) = 0.29436 0.41603
# Poissons Ratio (z) = 0.24827 0.45594
#
# Static dielectric constant tensor:
#      x y z
#    x 3.490720 0.000000 0.000000 
#    y 0.000000 3.482960 0.000000 
#    z 0.000000 0.000000 3.514140 
# 
# 
# High freq. dielectric constant tensor:
#      x y z
#    x 1.748390 0.000000 0.000000 
#    y 0.000000 1.743690 0.000000 
#    z 0.000000 0.000000 1.742780 
# 
# From -- ./inp_files/14163.got.cif
#   From: 2010.03.12/outbox.cif.g09.slc.cpg/sg46_8_cif.got.tgz:14163.got - 2010.04.14 02:56:35.
