data_PCOD8191584
_publ_section_title
;
Structure prediction by ZEFSAII (Michael W. Deem and Ramdas Pophale) SiO2 
 PCOD8191584
Probable space group: I M A 2
;
_chemical_formula_sum "Si O2"
_cell_formula_units_Z 64
_cell_length_a 18.373833
_cell_length_b 11.285948
_cell_length_c 16.284697
_cell_angle_alpha 90.000000
_cell_angle_beta 90.000000
_cell_angle_gamma 90.000000
_cell_volume 3376.894494
_symmetry_space_group_name_H-M "I M A 2"
_symmetry_group_IT_number 46
_symmetry_cell_setting 'orthorhombic'
loop_
_space_group_symop_operation_xyz
x,y,z
-x,-y,z
1/2-x,y,z
1/2+x,-y,z
1/2+x,1/2+y,1/2+z
1/2-x,1/2-y,1/2+z
-x,1/2+y,1/2+z
x,1/2-y,1/2+z
loop_
_atom_site_type_symbol
_atom_site_label
_atom_site_fract_x
_atom_site_fract_y
_atom_site_fract_z
Si Si1 0.834022 0.992306 0.670190
Si Si2 0.832907 0.922605 0.004913
Si Si3 0.834521 0.067875 0.849014
Si Si4 0.664676 0.328367 0.806921
Si Si5 0.931429 0.325853 0.072422
Si Si6 0.421327 0.516012 0.921741
Si Si7 0.832050 0.368933 0.620721
Si Si8 0.403530 0.318959 0.053534
O O1 0.750000 0.028860 0.652880
O O2 0.850544 0.866854 0.626030
O O3 0.847510 0.986795 0.768130
O O4 0.889072 0.090499 0.635979
O O5 0.750000 0.883976 0.984853
O O6 0.881847 0.809125 0.021407
O O7 0.835339 0.996871 0.089249
O O8 0.866465 0.998305 0.928269
O O9 0.750000 0.086782 0.866543
O O10 0.868352 0.200612 0.835776
O O11 0.750000 0.325154 0.817979
O O12 0.636943 0.443996 0.855041
O O13 0.642298 0.355095 0.713882
O O14 0.889978 0.201924 0.066396
O O15 0.016573 0.315061 0.095241
O O16 0.929560 0.374039 0.981655
O O17 0.500000 0.500000 0.878573
O O18 0.396273 0.401842 0.973198
O O19 0.750000 0.318385 0.608997
#
# Coordination Sequence:
#
# PCOD8191584 Si02
#       8
#     8   8   8   8   8   8   8   8
#     4  10  18  34  61  87 110 146 191 238 286 334
#     4  10  21  38  56  81 116 153 190 231 278 338
#     4   9  18  34  59  87 112 138 186 245 286 328
#     4  10  19  35  58  88 111 135 188 246 290 332
#     4  10  19  36  60  82 112 144 188 238 281 328
#     4   9  20  37  55  77 113 149 184 229 275 333
#     4  10  20  36  59  83 112 142 183 242 291 333
#     4  10  22  38  55  80 120 155 190 221 274 352
#
# _framework density 18.952325999999999
#
# number of rings (size 3 to 8) (size 9 to 14) (size 15 to 20)
#    0.000    2.250    1.250    2.625    0.000    4.500 
#    4.500    1.250    2.750    0.000    0.000    0.000 
#    0.000    0.000    0.000    0.000    0.000    0.000 
#
# Total GULP energy -396607.940875 kJ/mol
# GULP energy per Si atom -12393.998152 kJ/mol
# Density = 1.890919 g / cm^3
# Si number density = 18.952326 Si / 1000 Ang^3
#
#
#
# Elastic Constant Matrix: (Units=GPa)
#
#
# Indices 1 2 3 4 5 6 
#
# 1 74.4950 45.7173 35.9534 0.0000 0.0000 0.0000
# 2 45.7173 116.1308 59.4687 0.0000 0.0000 0.0000
# 3 35.9534 59.4687 87.6664 0.0000 0.0000 0.0000
# 4 0.0000 0.0000 0.0000 25.6263 0.0000 0.0000
# 5 0.0000 0.0000 0.0000 0.0000 18.3531 0.0000
# 6 0.0000 0.0000 0.0000 0.0000 0.0000 -19.7355
#
#
#
# Elastic Compliance Matrix: (Units=1/GPa)
#
#
# Indices 1 2 3 4 5 6 
#
# 1 0.018605 -0.005236 -0.004079 0.000000 0.000000 0.000000
# 2 -0.005236 0.014668 -0.007803 0.000000 0.000000 0.000000
# 3 -0.004079 -0.007803 0.018373 0.000000 0.000000 0.000000
# 4 0.000000 0.000000 0.000000 0.039022 0.000000 0.000000
# 5 0.000000 0.000000 0.000000 0.000000 0.054487 0.000000
# 6 0.000000 0.000000 0.000000 0.000000 0.000000 -0.050670
#
#
# Mechanical properties :
#
#
# Convention : Reuss Voigt Hill
#
# Bulk Modulus (GPa) = 57.43320 62.28565 59.85942
# Shear Modulus (GPa) = 37.16851 13.99231 25.58041
#
# Velocity S-wave (km/s) = 4.43330 2.72010 3.67784
# Velocity P-wave (km/s) = 7.52166 6.54224 7.04898
#
# Compressibility (1/GPa) = 0.01741153
#
# Stress axis : x y z
#
# Youngs Moduli (GPa) = 53.74787 68.17681 54.42904
#
# Poissons Ratio (x) = 0.35696 0.22200
# Poissons Ratio (y) = 0.28141 0.42469
# Poissons Ratio (z) = 0.21922 0.53196
#
# Static dielectric constant tensor:
#      x y z
#    x 3.571100 0.000000 0.000000 
#    y 0.000000 3.520290 0.000000 
#    z 0.000000 0.000000 3.509270 
# 
# 
# High freq. dielectric constant tensor:
#      x y z
#    x 1.722660 0.000000 0.000000 
#    y 0.000000 1.728930 0.000000 
#    z 0.000000 0.000000 1.733090 
# 
# From -- ./inp_files/16784.got.cif
#   From: 2010.03.12/outbox.cif.g09.slc.cpg/sg46_9_cif.got.tgz:16784.got - 2010.04.14 02:56:35.
