data_PCOD8191760
_publ_section_title
;
Structure prediction by ZEFSAII (Michael W. Deem and Ramdas Pophale) SiO2 
 PCOD8191760
Probable space group: I M A 2
;
_chemical_formula_sum "Si O2"
_cell_formula_units_Z 64
_cell_length_a 9.224752
_cell_length_b 15.927274
_cell_length_c 22.050762
_cell_angle_alpha 90.000000
_cell_angle_beta 90.000000
_cell_angle_gamma 90.000000
_cell_volume 3239.811574
_symmetry_space_group_name_H-M "I M A 2"
_symmetry_group_IT_number 46
_symmetry_cell_setting 'orthorhombic'
loop_
_space_group_symop_operation_xyz
x,y,z
-x,-y,z
1/2-x,y,z
1/2+x,-y,z
1/2+x,1/2+y,1/2+z
1/2-x,1/2-y,1/2+z
-x,1/2+y,1/2+z
x,1/2-y,1/2+z
loop_
_atom_site_type_symbol
_atom_site_label
_atom_site_fract_x
_atom_site_fract_y
_atom_site_fract_z
Si Si1 0.409745 0.801052 0.930550
Si Si2 0.412770 0.421272 0.354010
Si Si3 0.409545 0.611060 0.892801
Si Si4 0.415954 0.239948 0.042811
Si Si5 0.922634 0.414375 0.753719
Si Si6 0.082505 0.424273 0.006976
Si Si7 0.413270 0.081656 0.710276
Si Si8 0.080609 0.268393 0.680585
O O1 0.250000 0.843043 0.933296
O O2 0.510743 0.839651 0.879406
O O3 0.395065 0.707451 0.908635
O O4 0.481888 0.811022 0.996934
O O5 0.500000 0.500000 0.380192
O O6 0.250000 0.426222 0.378663
O O7 0.417068 0.418222 0.282244
O O8 0.250000 0.569781 0.902854
O O9 0.461512 0.597400 0.824171
O O10 0.530545 0.573244 0.936907
O O11 0.250000 0.228319 0.021689
O O12 0.440114 0.206118 0.110403
O O13 0.457141 0.338393 0.040770
O O14 0.750000 0.419426 0.742235
O O15 0.000000 0.500000 0.730350
O O16 0.986308 0.333529 0.719068
O O17 0.250000 0.443988 0.008940
O O18 0.000000 0.500000 0.041775
O O19 0.250000 0.072533 0.685142
O O20 0.476372 0.172228 0.689217
O O21 0.500000 0.000000 0.685421
O O22 0.250000 0.273757 0.699895
#
# Coordination Sequence:
#
# PCOD8191760 Si02
#       8
#     8   8   8   8   8   8   8   8
#     4  10  19  33  54  79 106 135 171 216 265 316
#     4  10  19  32  51  77 108 138 171 212 262 318
#     4   9  19  34  53  79 109 139 171 211 262 321
#     4   9  20  37  54  73 101 139 180 219 260 311
#     4  11  23  38  57  82 110 142 182 227 276 327
#     4  10  19  31  50  77 108 140 173 211 258 312
#     4   9  19  34  55  84 115 147 181 219 266 322
#     4  10  21  39  59  79 108 146 187 229 271 317
#
# _framework density 19.754235000000001
#
# number of rings (size 3 to 8) (size 9 to 14) (size 15 to 20)
#    0.000    2.250    0.000    2.625    0.000    5.000 
#    0.000    0.625    0.000    3.000    0.000    0.000 
#    0.000    0.000    0.000    0.000    0.000    0.000 
#
# Total GULP energy -396686.015691 kJ/mol
# GULP energy per Si atom -12396.437990 kJ/mol
# Density = 1.970927 g / cm^3
# Si number density = 19.754235 Si / 1000 Ang^3
#
#
#
# Elastic Constant Matrix: (Units=GPa)
#
#
# Indices 1 2 3 4 5 6 
#
# 1 107.8662 34.7724 27.1008 0.0000 0.0000 0.0000
# 2 34.7724 70.5740 21.6366 0.0000 0.0000 0.0000
# 3 27.1008 21.6366 44.9655 0.0000 0.0000 0.0000
# 4 0.0000 0.0000 0.0000 7.9373 0.0000 0.0000
# 5 0.0000 0.0000 0.0000 0.0000 -145.7501 0.0000
# 6 0.0000 0.0000 0.0000 0.0000 0.0000 37.0016
#
#
#
# Elastic Compliance Matrix: (Units=1/GPa)
#
#
# Indices 1 2 3 4 5 6 
#
# 1 0.011950 -0.004317 -0.005125 0.000000 0.000000 0.000000
# 2 -0.004317 0.018181 -0.006147 0.000000 0.000000 0.000000
# 3 -0.005125 -0.006147 0.028286 0.000000 0.000000 0.000000
# 4 0.000000 0.000000 0.000000 0.125988 0.000000 0.000000
# 5 0.000000 0.000000 0.000000 0.000000 -0.006861 0.000000
# 6 0.000000 0.000000 0.000000 0.000000 0.000000 0.027026
#
#
# Mechanical properties :
#
#
# Convention : Reuss Voigt Hill
#
# Bulk Modulus (GPa) = 36.71103 43.38058 40.04581
# Shear Modulus (GPa) = 20.42269 -10.83583 4.79343
#
# Velocity S-wave (km/s) = 3.21882 -2.34462 1.55942
# Velocity P-wave (km/s) = 5.69549 3.83121 4.85370
#
# Compressibility (1/GPa) = 0.02723977
#
# Stress axis : x y z
#
# Youngs Moduli (GPa) = 83.68245 55.00318 35.35331
#
# Poissons Ratio (x) = 0.23742 0.18119
# Poissons Ratio (y) = 0.36122 0.21730
# Poissons Ratio (z) = 0.42889 0.33809
#
# Static dielectric constant tensor:
#      x y z
#    x 3.847880 0.000000 0.000000 
#    y 0.000000 3.649220 0.000000 
#    z 0.000000 0.000000 3.422910 
# 
# 
# High freq. dielectric constant tensor:
#      x y z
#    x 1.774960 0.000000 0.000000 
#    y 0.000000 1.767860 0.000000 
#    z 0.000000 0.000000 1.757920 
# 
# From -- ./inp_files/23144.got.cif
#   From: 2010.03.12/outbox.cif.g09.slc.cpg/sg46_12_cif.got.tgz:23144.got - 2010.04.14 02:56:35.
