data_PCOD8191927
_publ_section_title
;
Structure prediction by ZEFSAII (Michael W. Deem and Ramdas Pophale) SiO2 
 PCOD8191927
Probable space group: I M A 2
;
_chemical_formula_sum "Si O2"
_cell_formula_units_Z 64
_cell_length_a 8.850341
_cell_length_b 20.640424
_cell_length_c 19.357263
_cell_angle_alpha 90.000000
_cell_angle_beta 90.000000
_cell_angle_gamma 90.000000
_cell_volume 3536.083969
_symmetry_space_group_name_H-M "I M A 2"
_symmetry_group_IT_number 46
_symmetry_cell_setting 'orthorhombic'
loop_
_space_group_symop_operation_xyz
x,y,z
-x,-y,z
1/2-x,y,z
1/2+x,-y,z
1/2+x,1/2+y,1/2+z
1/2-x,1/2-y,1/2+z
-x,1/2+y,1/2+z
x,1/2-y,1/2+z
loop_
_atom_site_type_symbol
_atom_site_label
_atom_site_fract_x
_atom_site_fract_y
_atom_site_fract_z
Si Si1 0.928309 0.566471 0.991930
Si Si2 0.424321 0.815029 0.565361
Si Si3 0.572418 0.693109 0.492866
Si Si4 0.576182 0.116911 0.357625
Si Si5 0.422955 0.755711 0.708293
Si Si6 0.073987 0.377749 0.716065
Si Si7 0.426185 0.066019 0.071355
Si Si8 0.421765 0.730630 0.360702
O O1 0.750000 0.561205 0.994345
O O2 0.000000 0.500000 0.019691
O O3 0.979954 0.578291 0.913550
O O4 0.980492 0.623437 0.042401
O O5 0.250000 0.825569 0.544554
O O6 0.481188 0.750887 0.527861
O O7 0.444702 0.807990 0.647843
O O8 0.750000 0.703632 0.504799
O O9 0.514261 0.626079 0.525800
O O10 0.533990 0.692183 0.411344
O O11 0.750000 0.096554 0.364989
O O12 0.519562 0.096976 0.281646
O O13 0.551998 0.192858 0.369948
O O14 0.250000 0.729643 0.711135
O O15 0.531734 0.695278 0.694548
O O16 0.461753 0.789140 0.781817
O O17 0.250000 0.379634 0.734196
O O18 0.032932 0.423330 0.651626
O O19 0.250000 0.059341 0.060172
O O20 0.500000 0.000000 0.044414
O O21 0.250000 0.711983 0.379007
#
# Coordination Sequence:
#
# PCOD8191927 Si02
#       8
#     8   8   8   8   8   8   8   8
#     4  12  25  40  58  81 112 150 188 232 281 334
#     4  11  21  36  59  85 111 146 186 230 280 335
#     4  11  21  35  55  83 112 143 184 233 280 331
#     4  10  20  35  54  80 113 148 189 228 268 331
#     4   9  19  34  55  82 112 144 183 227 276 330
#     4  10  19  33  52  78 112 149 188 230 275 327
#     4  10  23  38  53  77 110 147 189 232 277 331
#     4   9  18  33  54  82 112 143 181 225 273 329
#
# _framework density 18.099117
#
# number of rings (size 3 to 8) (size 9 to 14) (size 15 to 20)
#    0.000    1.750    2.500    3.375    0.000    5.000 
#    0.000    1.250    0.000    0.750    0.000    1.750 
#    0.000    0.000    0.000    0.000    0.000    0.000 
#
# Total GULP energy -396896.118275 kJ/mol
# GULP energy per Si atom -12403.003696 kJ/mol
# Density = 1.805792 g / cm^3
# Si number density = 18.099117 Si / 1000 Ang^3
#
#
#
# Elastic Constant Matrix: (Units=GPa)
#
#
# Indices 1 2 3 4 5 6 
#
# 1 96.8611 44.9599 43.9360 0.0000 0.0000 0.0000
# 2 44.9599 105.7258 52.8591 0.0000 0.0000 0.0000
# 3 43.9360 52.8591 96.3759 0.0000 0.0000 0.0000
# 4 0.0000 0.0000 0.0000 20.3994 0.0000 0.0000
# 5 0.0000 0.0000 0.0000 0.0000 26.9343 0.0000
# 6 0.0000 0.0000 0.0000 0.0000 0.0000 29.6110
#
#
#
# Elastic Compliance Matrix: (Units=1/GPa)
#
#
# Indices 1 2 3 4 5 6 
#
# 1 0.014053 -0.003821 -0.004311 0.000000 0.000000 0.000000
# 2 -0.003821 0.014071 -0.005976 0.000000 0.000000 0.000000
# 3 -0.004311 -0.005976 0.015619 0.000000 0.000000 0.000000
# 4 0.000000 0.000000 0.000000 0.049021 0.000000 0.000000
# 5 0.000000 0.000000 0.000000 0.000000 0.037127 0.000000
# 6 0.000000 0.000000 0.000000 0.000000 0.000000 0.033771
#
#
# Mechanical properties :
#
#
# Convention : Reuss Voigt Hill
#
# Bulk Modulus (GPa) = 64.39982 64.71920 64.55951
# Shear Modulus (GPa) = 25.37394 25.86946 25.62170
#
# Velocity S-wave (km/s) = 3.74832 3.78474 3.76657
# Velocity P-wave (km/s) = 7.37510 7.41180 7.39348
#
# Compressibility (1/GPa) = 0.01552799
#
# Stress axis : x y z
#
# Youngs Moduli (GPa) = 71.15940 71.06944 64.02572
#
# Poissons Ratio (x) = 0.27154 0.27601
# Poissons Ratio (y) = 0.27188 0.38259
# Poissons Ratio (z) = 0.30676 0.42468
#
# Static dielectric constant tensor:
#      x y z
#    x 3.367690 0.000000 0.000000 
#    y 0.000000 3.214490 0.000000 
#    z 0.000000 0.000000 3.577650 
# 
# 
# High freq. dielectric constant tensor:
#      x y z
#    x 1.709360 0.000000 0.000000 
#    y 0.000000 1.673370 0.000000 
#    z 0.000000 0.000000 1.706820 
# 
# From -- ./inp_files/21331.got.cif
#   From: 2010.03.12/outbox.cif.g09.slc.cpg/sg46_11_cif.got.tgz:21331.got - 2010.04.14 02:56:35.
