data_PCOD8191974
_publ_section_title
;
Structure prediction by ZEFSAII (Michael W. Deem and Ramdas Pophale) SiO2 
 PCOD8191974
Probable space group: I M A 2
;
_chemical_formula_sum "Si O2"
_cell_formula_units_Z 52
_cell_length_a 12.548142
_cell_length_b 28.533311
_cell_length_c 7.940374
_cell_angle_alpha 90.000000
_cell_angle_beta 90.000000
_cell_angle_gamma 90.000000
_cell_volume 2842.971810
_symmetry_space_group_name_H-M "I M A 2"
_symmetry_group_IT_number 46
_symmetry_cell_setting 'orthorhombic'
loop_
_space_group_symop_operation_xyz
x,y,z
-x,-y,z
1/2-x,y,z
1/2+x,-y,z
1/2+x,1/2+y,1/2+z
1/2-x,1/2-y,1/2+z
-x,1/2+y,1/2+z
x,1/2-y,1/2+z
loop_
_atom_site_type_symbol
_atom_site_label
_atom_site_fract_x
_atom_site_fract_y
_atom_site_fract_z
Si Si1 0.500000 0.500000 0.081000
Si Si2 0.130089 0.604091 0.561132
Si Si3 0.996639 0.906799 0.738822
Si Si4 0.130291 0.793816 0.156388
Si Si5 0.124625 0.187198 0.737011
Si Si6 0.125100 0.923479 0.430262
Si Si7 0.509312 0.732870 0.942627
O O1 0.446973 0.458071 0.193304
O O2 0.593409 0.477848 0.964429
O O3 0.250000 0.584213 0.544156
O O4 0.129361 0.660148 0.541594
O O5 0.082853 0.590517 0.744797
O O6 0.061423 0.583410 0.409846
O O7 0.909223 0.866674 0.768502
O O8 0.072293 0.891771 0.579808
O O9 0.250000 0.784443 0.225572
O O10 0.042843 0.800735 0.303357
O O11 0.092715 0.749385 0.049445
O O12 0.250000 0.190694 0.761160
O O13 0.069398 0.221555 0.870493
O O14 0.093346 0.202711 0.548677
O O15 0.250000 0.915138 0.440223
#
# Coordination Sequence:
#
# PCOD8191974 Si02
#       7
#     4   8   8   8   8   8   8
#     4   8  22  36  58  86 114 148 188 248 282 358
#     4  10  19  33  59  85 114 150 187 230 293 358
#     4  10  20  39  57  88 111 151 194 249 290 348
#     4  10  19  33  54  85 115 147 184 232 290 352
#     4  11  22  38  59  80 114 161 202 246 292 342
#     4   9  19  37  58  84 116 150 183 233 300 356
#     4  10  21  36  54  82 119 152 194 243 287 352
#
# _framework density 18.290718999999999
#
# number of rings (size 3 to 8) (size 9 to 14) (size 15 to 20)
#    0.923    1.231    1.538    2.308    0.000    1.231 
#    0.000    1.538    0.000    0.923    0.000    0.000 
#    0.000    0.000    0.000    0.000    0.000    0.000 
#
# Total GULP energy -322170.490294 kJ/mol
# GULP energy per Si atom -12391.172704 kJ/mol
# Density = 1.824909 g / cm^3
# Si number density = 18.290719 Si / 1000 Ang^3
#
#
#
# Elastic Constant Matrix: (Units=GPa)
#
#
# Indices 1 2 3 4 5 6 
#
# 1 86.1683 22.7833 30.2853 -0.0031 0.0015 -0.0006
# 2 22.7833 74.5621 12.2842 -0.0037 0.0019 0.0002
# 3 30.2853 12.2842 100.8923 -0.0033 0.0034 0.0004
# 4 -0.0031 -0.0037 -0.0033 24.9344 0.0041 0.0008
# 5 0.0015 0.0019 0.0034 0.0041 21.8384 -0.0002
# 6 -0.0006 0.0002 0.0004 0.0008 -0.0002 23.9129
#
#
#
# Elastic Compliance Matrix: (Units=1/GPa)
#
#
# Indices 1 2 3 4 5 6 
#
# 1 0.013872 -0.003625 -0.003723 0.000001 0.000000 0.000000
# 2 -0.003625 0.014634 -0.000693 0.000002 -0.000001 0.000000
# 3 -0.003723 -0.000693 0.011113 0.000001 -0.000001 0.000000
# 4 0.000001 0.000002 0.000001 0.040105 -0.000008 -0.000001
# 5 0.000000 -0.000001 -0.000001 -0.000008 0.045791 0.000000
# 6 0.000000 0.000000 0.000000 -0.000001 0.000000 0.041818
#
#
# Mechanical properties :
#
#
# Convention : Reuss Voigt Hill
#
# Bulk Modulus (GPa) = 42.48787 43.59202 43.03995
# Shear Modulus (GPa) = 26.14212 27.22182 26.68197
#
# Velocity S-wave (km/s) = 3.78465 3.86202 3.82353
# Velocity P-wave (km/s) = 6.50982 6.61600 6.56313
#
# Compressibility (1/GPa) = 0.02353613
#
# Stress axis : x y z
#
# Youngs Moduli (GPa) = 72.08675 68.33546 89.98115
#
# Poissons Ratio (x) = 0.24775 0.33497
# Poissons Ratio (y) = 0.26135 0.06240
# Poissons Ratio (z) = 0.26835 0.04739
#
# Static dielectric constant tensor:
#      x y z
#    x 3.132790 0.000010 0.000000 
#    y 0.000010 3.201530 0.000000 
#    z 0.000000 0.000000 3.483770 
# 
# 
# High freq. dielectric constant tensor:
#      x y z
#    x 1.689420 0.000000 0.000000 
#    y 0.000000 1.698980 0.000000 
#    z 0.000000 0.000000 1.715320 
# 
# From -- ./inp_files/4946.got.cif
#   From: 2010.03.12/outbox.cif.g09.slc.cpg/sg46_3_cif.got.tgz:4946.got - 2010.04.14 02:56:35.
