data_PCOD8191972
_publ_section_title
;
Structure prediction by ZEFSAII (Michael W. Deem and Ramdas Pophale) SiO2 
 PCOD8191972
Probable space group: I M A 2
;
_chemical_formula_sum "Si O2"
_cell_formula_units_Z 64
_cell_length_a 9.117249
_cell_length_b 28.421477
_cell_length_c 12.244121
_cell_angle_alpha 90.000000
_cell_angle_beta 90.000000
_cell_angle_gamma 90.000000
_cell_volume 3172.766214
_symmetry_space_group_name_H-M "I M A 2"
_symmetry_group_IT_number 46
_symmetry_cell_setting 'orthorhombic'
loop_
_space_group_symop_operation_xyz
x,y,z
-x,-y,z
1/2-x,y,z
1/2+x,-y,z
1/2+x,1/2+y,1/2+z
1/2-x,1/2-y,1/2+z
-x,1/2+y,1/2+z
x,1/2-y,1/2+z
loop_
_atom_site_type_symbol
_atom_site_label
_atom_site_fract_x
_atom_site_fract_y
_atom_site_fract_z
Si Si1 0.085183 0.842885 0.877900
Si Si2 0.579301 0.647390 0.733733
Si Si3 0.585643 0.819612 0.473522
Si Si4 0.927403 0.048451 0.175215
Si Si5 0.913258 0.129310 0.646395
Si Si6 0.411416 0.041877 0.719985
Si Si7 0.416092 0.431907 0.458524
Si Si8 0.415349 0.286420 0.530338
O O1 0.250000 0.856956 0.913690
O O2 0.079819 0.834162 0.747542
O O3 0.970972 0.880766 0.923559
O O4 0.031675 0.795318 0.933848
O O5 0.750000 0.633842 0.725085
O O6 0.546540 0.676359 0.845150
O O7 0.488964 0.597762 0.726920
O O8 0.535563 0.684922 0.639085
O O9 0.750000 0.839527 0.491038
O O10 0.464012 0.850537 0.532263
O O11 0.576596 0.769747 0.535417
O O12 0.750000 0.046725 0.187217
O O13 0.000000 0.000000 0.226853
O O14 0.973441 0.047164 0.047979
O O15 0.750000 0.109174 0.631561
O O16 0.022451 0.089586 0.681180
O O17 0.250000 0.038922 0.672539
O O18 0.415438 0.035884 0.851066
O O19 0.500000 0.000000 0.664592
O O20 0.250000 0.427772 0.506294
O O21 0.250000 0.301488 0.498674
#
# Coordination Sequence:
#
# PCOD8191972 Si02
#       8
#     8   8   8   8   8   8   8   8
#     4  10  20  34  55  86 121 157 197 243 296 354
#     4  10  22  42  63  91 129 162 207 264 311 367
#     4  10  23  41  64  91 120 162 208 255 308 369
#     4  12  24  38  60  89 123 166 211 257 315 376
#     4  10  22  39  58  84 121 159 199 251 300 355
#     4  10  20  34  56  85 118 158 202 250 304 364
#     4  10  19  33  54  84 122 160 196 244 302 361
#     4  10  21  37  63  92 121 158 199 247 307 368
#
# _framework density 20.171672999999998
#
# number of rings (size 3 to 8) (size 9 to 14) (size 15 to 20)
#    0.000    1.750    1.250    3.000    1.750    5.000 
#    0.000    0.625    0.000    3.000    0.000    0.000 
#    0.000    0.000    0.000    0.000    0.000    0.000 
#
# Total GULP energy -396439.651934 kJ/mol
# GULP energy per Si atom -12388.739123 kJ/mol
# Density = 2.012576 g / cm^3
# Si number density = 20.171673 Si / 1000 Ang^3
#
#
#
# Elastic Constant Matrix: (Units=GPa)
#
#
# Indices 1 2 3 4 5 6 
#
# 1 140.7023 46.2424 45.8243 -0.0008 -0.0002 -0.0001
# 2 46.2424 79.0645 40.5898 -0.0006 -0.0001 0.0000
# 3 45.8243 40.5898 86.7734 -0.0047 -0.0011 -0.0007
# 4 -0.0008 -0.0006 -0.0047 10.5020 -0.0003 -0.0003
# 5 -0.0002 -0.0001 -0.0011 -0.0003 31.0726 -0.0005
# 6 -0.0001 0.0000 -0.0007 -0.0003 -0.0005 30.8161
#
#
#
# Elastic Compliance Matrix: (Units=1/GPa)
#
#
# Indices 1 2 3 4 5 6 
#
# 1 0.009411 -0.003886 -0.003152 -0.000001 0.000000 0.000000
# 2 -0.003886 0.018250 -0.006484 -0.000002 0.000000 0.000000
# 3 -0.003152 -0.006484 0.016222 0.000007 0.000001 0.000000
# 4 -0.000001 -0.000002 0.000007 0.095220 0.000001 0.000001
# 5 0.000000 0.000000 0.000001 0.000001 0.032183 0.000000
# 6 0.000000 0.000000 0.000000 0.000001 0.000000 0.032451
#
#
# Mechanical properties :
#
#
# Convention : Reuss Voigt Hill
#
# Bulk Modulus (GPa) = 59.39078 63.53924 61.46501
# Shear Modulus (GPa) = 21.15115 26.07037 23.61076
#
# Velocity S-wave (km/s) = 3.24166 3.59893 3.42496
# Velocity P-wave (km/s) = 6.59679 6.98837 6.79541
#
# Compressibility (1/GPa) = 0.01683763
#
# Stress axis : x y z
#
# Youngs Moduli (GPa) = 106.25944 54.79556 61.64431
#
# Poissons Ratio (x) = 0.21293 0.19431
# Poissons Ratio (y) = 0.41292 0.39973
# Poissons Ratio (z) = 0.33494 0.35532
#
# Static dielectric constant tensor:
#      x y z
#    x 3.855200 0.000000 0.000000 
#    y 0.000000 3.325680 0.000000 
#    z 0.000000 0.000000 3.623030 
# 
# 
# High freq. dielectric constant tensor:
#      x y z
#    x 1.796860 0.000000 0.000000 
#    y 0.000000 1.782350 0.000000 
#    z 0.000000 0.000000 1.765450 
# 
# From -- ./inp_files/9664.got.cif
#   From: 2010.03.12/outbox.cif.g09.slc.cpg/sg46_5_cif.got.tgz:9664.got - 2010.04.14 02:56:35.
