data_PCOD8191719
_publ_section_title
;
Structure prediction by ZEFSAII (Michael W. Deem and Ramdas Pophale) SiO2 
 PCOD8191719
Probable space group: I M A 2
;
_chemical_formula_sum "Si O2"
_cell_formula_units_Z 56
_cell_length_a 9.135682
_cell_length_b 19.176937
_cell_length_c 16.924926
_cell_angle_alpha 90.000000
_cell_angle_beta 90.000000
_cell_angle_gamma 90.000000
_cell_volume 2965.152225
_symmetry_space_group_name_H-M "I M A 2"
_symmetry_group_IT_number 46
_symmetry_cell_setting 'orthorhombic'
loop_
_space_group_symop_operation_xyz
x,y,z
-x,-y,z
1/2-x,y,z
1/2+x,-y,z
1/2+x,1/2+y,1/2+z
1/2-x,1/2-y,1/2+z
-x,1/2+y,1/2+z
x,1/2-y,1/2+z
loop_
_atom_site_type_symbol
_atom_site_label
_atom_site_fract_x
_atom_site_fract_y
_atom_site_fract_z
Si Si1 0.919789 0.682144 0.018040
Si Si2 0.089974 0.562677 0.947108
Si Si3 0.579633 0.802139 0.908634
Si Si4 0.416620 0.786533 0.282594
Si Si5 0.412780 0.659328 0.175870
Si Si6 0.924257 0.074617 0.831058
Si Si7 0.591459 0.437978 0.763848
O O1 0.750000 0.663334 0.012980
O O2 0.974546 0.659419 0.104188
O O3 0.944586 0.763927 0.994070
O O4 0.005972 0.635606 0.954648
O O5 0.250000 0.567369 0.987426
O O6 0.108284 0.544935 0.855781
O O7 0.000000 0.500000 0.989133
O O8 0.750000 0.819694 0.894844
O O9 0.527743 0.745589 0.845059
O O10 0.486466 0.873355 0.899153
O O11 0.250000 0.795379 0.318042
O O12 0.409253 0.737814 0.206748
O O13 0.479635 0.861257 0.253809
O O14 0.250000 0.637958 0.146972
O O15 0.464159 0.606289 0.245068
O O16 0.750000 0.068637 0.842236
O O17 0.000000 0.000000 0.840651
O O18 0.500000 0.500000 0.722465
O O19 0.750000 0.438504 0.722436
#
# Coordination Sequence:
#
# PCOD8191719 Si02
#       7
#     8   8   8   8   8   8   8
#     4  11  22  34  50  76 109 142 179 218 261 314
#     4  10  19  31  48  70 101 136 168 204 248 296
#     4  10  20  33  53  79 105 137 177 222 267 314
#     4   9  17  33  52  73  99 131 172 216 258 310
#     4   9  20  35  53  75 103 139 177 215 265 321
#     4  10  21  38  60  84 109 140 180 226 275 327
#     4   9  17  28  46  71  98 127 160 201 245 294
#
# _framework density 18.886046
#
# number of rings (size 3 to 8) (size 9 to 14) (size 15 to 20)
#    0.000    2.286    1.429    2.571    0.000    6.286 
#    0.000    1.429    0.000    0.857    0.000    4.000 
#    0.000    0.000    0.000    0.000    0.000    0.000 
#
# Total GULP energy -346975.879916 kJ/mol
# GULP energy per Si atom -12391.995711 kJ/mol
# Density = 1.884306 g / cm^3
# Si number density = 18.886046 Si / 1000 Ang^3
#
#
#
# Elastic Constant Matrix: (Units=GPa)
#
#
# Indices 1 2 3 4 5 6 
#
# 1 117.8311 55.5837 22.9279 0.0000 0.0000 0.0000
# 2 55.5837 149.8772 9.0773 0.0000 0.0000 0.0000
# 3 22.9279 9.0773 27.7882 0.0000 0.0000 0.0000
# 4 0.0000 0.0000 0.0000 15.9836 0.0000 0.0000
# 5 0.0000 0.0000 0.0000 0.0000 19.6391 0.0000
# 6 0.0000 0.0000 0.0000 0.0000 0.0000 35.0100
#
#
#
# Elastic Compliance Matrix: (Units=1/GPa)
#
#
# Indices 1 2 3 4 5 6 
#
# 1 0.012024 -0.003936 -0.008635 0.000000 0.000000 0.000000
# 2 -0.003936 0.008095 0.000603 0.000000 0.000000 0.000000
# 3 -0.008635 0.000603 0.042914 0.000000 0.000000 0.000000
# 4 0.000000 0.000000 0.000000 0.062564 0.000000 0.000000
# 5 0.000000 0.000000 0.000000 0.000000 0.050919 0.000000
# 6 0.000000 0.000000 0.000000 0.000000 0.000000 0.028563
#
#
# Mechanical properties :
#
#
# Convention : Reuss Voigt Hill
#
# Bulk Modulus (GPa) = 25.57706 52.29716 38.93711
# Shear Modulus (GPa) = 20.65711 27.98706 24.32208
#
# Velocity S-wave (km/s) = 3.31082 3.85371 3.59253
# Velocity P-wave (km/s) = 5.30920 6.89583 6.15386
#
# Compressibility (1/GPa) = 0.03909753
#
# Stress axis : x y z
#
# Youngs Moduli (GPa) = 83.16893 123.52753 23.30236
#
# Poissons Ratio (x) = 0.48622 0.20121
# Poissons Ratio (y) = 0.32737 -0.01406
# Poissons Ratio (z) = 0.71816 -0.07452
#
# Static dielectric constant tensor:
#      x y z
#    x 3.731980 0.000000 0.000000 
#    y 0.000000 3.643770 0.000000 
#    z 0.000000 0.000000 3.030410 
# 
# 
# High freq. dielectric constant tensor:
#      x y z
#    x 1.742760 0.000000 0.000000 
#    y 0.000000 1.742670 0.000000 
#    z 0.000000 0.000000 1.680730 
# 
# From -- ./inp_files/18451.got.cif
#   From: 2010.03.12/outbox.cif.g09.slc.cpg/sg46_10_cif.got.tgz:18451.got - 2010.04.14 02:56:35.
