data_PCOD8191701
_publ_section_title
;
Structure prediction by ZEFSAII (Michael W. Deem and Ramdas Pophale) SiO2 
 PCOD8191701
Probable space group: I M A 2
;
_chemical_formula_sum "Si O2"
_cell_formula_units_Z 48
_cell_length_a 7.319521
_cell_length_b 25.544967
_cell_length_c 16.484532
_cell_angle_alpha 90.000000
_cell_angle_beta 90.000000
_cell_angle_gamma 90.000000
_cell_volume 3082.227061
_symmetry_space_group_name_H-M "I M A 2"
_symmetry_group_IT_number 46
_symmetry_cell_setting 'orthorhombic'
loop_
_space_group_symop_operation_xyz
x,y,z
-x,-y,z
1/2-x,y,z
1/2+x,-y,z
1/2+x,1/2+y,1/2+z
1/2-x,1/2-y,1/2+z
-x,1/2+y,1/2+z
x,1/2-y,1/2+z
loop_
_atom_site_type_symbol
_atom_site_label
_atom_site_fract_x
_atom_site_fract_y
_atom_site_fract_z
Si Si1 0.250000 0.263435 0.239411
Si Si2 0.037149 0.941531 0.780984
Si Si3 0.955296 0.150142 0.491360
Si Si4 0.541300 0.249406 0.104571
Si Si5 0.961857 0.057593 0.598648
Si Si6 0.250000 0.202055 0.999651
Si Si7 0.250000 0.365978 0.349758
Si Si8 0.250000 0.196386 0.389347
O O1 0.435835 0.261758 0.187743
O O2 0.250000 0.316049 0.291459
O O3 0.250000 0.211500 0.295271
O O4 0.250000 0.927570 0.785634
O O5 0.955772 0.937714 0.689307
O O6 0.931222 0.900064 0.836008
O O7 0.000000 0.000000 0.813971
O O8 0.750000 0.138244 0.461949
O O9 0.959971 0.197767 0.553564
O O10 0.045959 0.100422 0.537705
O O11 0.071250 0.162278 0.410951
O O12 0.750000 0.231248 0.121987
O O13 0.432242 0.204001 0.055763
O O14 0.750000 0.069583 0.605775
O O15 0.000000 0.000000 0.562847
O O16 0.250000 0.150298 0.944539
O O17 0.250000 0.251714 0.942032
#
# Coordination Sequence:
#
# PCOD8191701 Si02
#       8
#     4   8   8   8   8   4   4   4
#     4  10  20  30  44  74  90 116 160 192 234 280
#     4  10  19  31  43  63  92 130 166 194 227 262
#     4   9  17  29  43  61  85 123 153 181 222 262
#     4   9  17  32  50  64  92 120 153 195 231 278
#     4   9  18  27  39  61  86 117 163 195 210 250
#     4   8  18  32  44  70  88 120 160 190 230 274
#     4  11  20  30  48  66 100 128 158 199 228 283
#     4   9  18  30  44  60  92 120 148 187 230 273
#
# _framework density 15.573156000000001
#
# number of rings (size 3 to 8) (size 9 to 14) (size 15 to 20)
#    0.000    2.667    0.833    1.500    2.333    3.333 
#    0.000    3.333    0.000    0.000    0.000    0.000 
#    0.000    5.333    0.000    0.000    0.000    0.000 
#
# Total GULP energy -297511.998943 kJ/mol
# GULP energy per Si atom -12396.333289 kJ/mol
# Density = 1.553771 g / cm^3
# Si number density = 15.573156 Si / 1000 Ang^3
#
#
#
# Elastic Constant Matrix: (Units=GPa)
#
#
# Indices 1 2 3 4 5 6 
#
# 1 112.7194 35.2893 37.2044 0.0000 0.0000 0.0000
# 2 35.2893 81.7311 36.8624 0.0000 0.0000 0.0000
# 3 37.2044 36.8624 53.9533 -0.0001 0.0000 0.0000
# 4 0.0000 0.0000 -0.0001 28.2759 0.0000 0.0000
# 5 0.0000 0.0000 0.0000 0.0000 15.8872 0.0000
# 6 0.0000 0.0000 0.0000 0.0000 0.0000 16.9310
#
#
#
# Elastic Compliance Matrix: (Units=1/GPa)
#
#
# Indices 1 2 3 4 5 6 
#
# 1 0.011718 -0.002045 -0.006683 0.000000 0.000000 0.000000
# 2 -0.002045 0.018042 -0.010916 0.000000 0.000000 0.000000
# 3 -0.006683 -0.010916 0.030601 0.000000 0.000000 0.000000
# 4 0.000000 0.000000 0.000000 0.035366 0.000000 0.000000
# 5 0.000000 0.000000 0.000000 0.000000 0.062944 0.000000
# 6 0.000000 0.000000 0.000000 0.000000 0.000000 0.059063
#
#
# Mechanical properties :
#
#
# Convention : Reuss Voigt Hill
#
# Bulk Modulus (GPa) = 47.45656 51.90177 49.67917
# Shear Modulus (GPa) = 18.93612 21.48867 20.21240
#
# Velocity S-wave (km/s) = 3.49082 3.71867 3.60655
# Velocity P-wave (km/s) = 6.84012 7.19986 7.02230
#
# Compressibility (1/GPa) = 0.02107190
#
# Stress axis : x y z
#
# Youngs Moduli (GPa) = 85.34166 55.42676 32.67871
#
# Poissons Ratio (x) = 0.11337 0.21838
# Poissons Ratio (y) = 0.17455 0.35673
# Poissons Ratio (z) = 0.57031 0.60505
#
# Static dielectric constant tensor:
#      x y z
#    x 3.156180 0.000000 0.000000 
#    y 0.000000 2.966920 0.000000 
#    z 0.000000 0.000000 2.878460 
# 
# 
# High freq. dielectric constant tensor:
#      x y z
#    x 1.612560 0.000000 0.000000 
#    y 0.000000 1.578370 0.000000 
#    z 0.000000 0.000000 1.560220 
# 
# From -- ./inp_files/14054.got.cif
#   From: 2010.03.12/outbox.cif.g09.slc.cpg/sg46_8_cif.got.tgz:14054.got - 2010.04.14 02:56:35.
