data_PCOD8191685
_publ_section_title
;
Structure prediction by ZEFSAII (Michael W. Deem and Ramdas Pophale) SiO2 
 PCOD8191685
Probable space group: I M A 2
;
_chemical_formula_sum "Si O2"
_cell_formula_units_Z 64
_cell_length_a 8.970579
_cell_length_b 14.641474
_cell_length_c 27.362504
_cell_angle_alpha 90.000000
_cell_angle_beta 90.000000
_cell_angle_gamma 90.000000
_cell_volume 3593.859660
_symmetry_space_group_name_H-M "I M A 2"
_symmetry_group_IT_number 46
_symmetry_cell_setting 'orthorhombic'
loop_
_space_group_symop_operation_xyz
x,y,z
-x,-y,z
1/2-x,y,z
1/2+x,-y,z
1/2+x,1/2+y,1/2+z
1/2-x,1/2-y,1/2+z
-x,1/2+y,1/2+z
x,1/2-y,1/2+z
loop_
_atom_site_type_symbol
_atom_site_label
_atom_site_fract_x
_atom_site_fract_y
_atom_site_fract_z
Si Si1 0.421964 0.719092 0.518320
Si Si2 0.424170 0.269079 0.786688
Si Si3 0.425024 0.592120 0.974849
Si Si4 0.926128 0.906815 0.372377
Si Si5 0.426062 0.906394 0.820640
Si Si6 0.423722 0.908776 0.931337
Si Si7 0.075630 0.407416 0.704775
Si Si8 0.924845 0.906329 0.093254
O O1 0.250000 0.698374 0.530158
O O2 0.451945 0.827274 0.513915
O O3 0.468244 0.674125 0.466661
O O4 0.520737 0.679494 0.561857
O O5 0.250000 0.245954 0.784738
O O6 0.464285 0.327422 0.834475
O O7 0.515726 0.175435 0.786941
O O8 0.476558 0.323717 0.738535
O O9 0.500000 0.500000 0.996010
O O10 0.250000 0.576332 0.965616
O O11 0.501554 0.620019 0.924004
O O12 0.750000 0.921261 0.378421
O O13 0.000000 0.000000 0.352687
O O14 0.250000 0.914785 0.815503
O O15 0.477825 0.886302 0.876419
O O16 0.500000 0.000000 0.801977
O O17 0.250000 0.927970 0.931395
O O18 0.500000 0.000000 0.951732
O O19 0.250000 0.423252 0.710460
O O20 0.029507 0.385735 0.649109
O O21 0.000000 0.500000 0.723453
O O22 0.750000 0.918141 0.086847
O O23 0.000000 0.000000 0.074682
#
# Coordination Sequence:
#
# PCOD8191685 Si02
#       8
#     8   8   8   8   8   8   8   8
#     4  10  20  33  50  72  98 129 165 204 244 289
#     4  10  20  33  50  73 100 130 166 205 244 288
#     4  10  20  34  50  69  98 133 167 205 245 287
#     4  10  19  30  47  72 102 134 166 202 242 287
#     4  10  20  34  51  71  98 132 168 205 244 287
#     4   9  18  31  46  68  98 129 160 195 237 284
#     4   9  19  35  53  75 103 131 159 196 242 291
#     4  10  20  34  53  76 102 130 159 196 243 293
#
# _framework density 17.808152
#
# number of rings (size 3 to 8) (size 9 to 14) (size 15 to 20)
#    0.000    2.250    0.000    3.750    0.000    6.000 
#    0.000    0.000    0.000    0.750    0.000    1.750 
#    0.000    0.000    0.000    0.000    0.000    0.000 
#
# Total GULP energy -396866.368995 kJ/mol
# GULP energy per Si atom -12402.074031 kJ/mol
# Density = 1.776762 g / cm^3
# Si number density = 17.808152 Si / 1000 Ang^3
#
#
#
# Elastic Constant Matrix: (Units=GPa)
#
#
# Indices 1 2 3 4 5 6 
#
# 1 74.0783 55.9114 38.0155 0.0000 0.0000 0.0000
# 2 55.9114 138.7602 61.4450 0.0000 0.0000 0.0000
# 3 38.0155 61.4450 72.9349 0.0000 0.0000 0.0000
# 4 0.0000 0.0000 0.0000 27.0477 0.0000 0.0000
# 5 0.0000 0.0000 0.0000 0.0000 22.2129 0.0000
# 6 0.0000 0.0000 0.0000 0.0000 0.0000 33.9961
#
#
#
# Elastic Compliance Matrix: (Units=1/GPa)
#
#
# Indices 1 2 3 4 5 6 
#
# 1 0.020962 -0.005755 -0.006077 0.000000 0.000000 0.000000
# 2 -0.005755 0.013075 -0.008015 0.000000 0.000000 0.000000
# 3 -0.006077 -0.008015 0.023631 0.000000 0.000000 0.000000
# 4 0.000000 0.000000 0.000000 0.036972 0.000000 0.000000
# 5 0.000000 0.000000 0.000000 0.000000 0.045019 0.000000
# 6 0.000000 0.000000 0.000000 0.000000 0.000000 0.029415
#
#
# Mechanical properties :
#
#
# Convention : Reuss Voigt Hill
#
# Bulk Modulus (GPa) = 55.64165 66.27969 60.96067
# Shear Modulus (GPa) = 23.28179 25.34477 24.31328
#
# Velocity S-wave (km/s) = 3.61968 3.77664 3.69899
# Velocity P-wave (km/s) = 6.98443 7.50446 7.24911
#
# Compressibility (1/GPa) = 0.01797215
#
# Stress axis : x y z
#
# Youngs Moduli (GPa) = 47.70607 76.48195 42.31682
#
# Poissons Ratio (x) = 0.44016 0.25717
# Poissons Ratio (y) = 0.27455 0.33919
# Poissons Ratio (z) = 0.28992 0.61304
#
# Static dielectric constant tensor:
#      x y z
#    x 3.287040 0.000000 0.000000 
#    y 0.000000 3.353130 0.000000 
#    z 0.000000 0.000000 3.222090 
# 
# 
# High freq. dielectric constant tensor:
#      x y z
#    x 1.694910 0.000000 0.000000 
#    y 0.000000 1.689380 0.000000 
#    z 0.000000 0.000000 1.666270 
# 
# From -- ./inp_files/23214.got.cif
#   From: 2010.03.12/outbox.cif.g09.slc.cpg/sg46_12_cif.got.tgz:23214.got - 2010.04.14 02:56:35.
