data_PCOD8191894
_publ_section_title
;
Structure prediction by ZEFSAII (Michael W. Deem and Ramdas Pophale) SiO2 
 PCOD8191894
Probable space group: I M A 2
;
_chemical_formula_sum "Si O2"
_cell_formula_units_Z 64
_cell_length_a 18.797221
_cell_length_b 17.011150
_cell_length_c 10.455306
_cell_angle_alpha 90.000000
_cell_angle_beta 90.000000
_cell_angle_gamma 90.000000
_cell_volume 3343.213175
_symmetry_space_group_name_H-M "I M A 2"
_symmetry_group_IT_number 46
_symmetry_cell_setting 'orthorhombic'
loop_
_space_group_symop_operation_xyz
x,y,z
-x,-y,z
1/2-x,y,z
1/2+x,-y,z
1/2+x,1/2+y,1/2+z
1/2-x,1/2-y,1/2+z
-x,1/2+y,1/2+z
x,1/2-y,1/2+z
loop_
_atom_site_type_symbol
_atom_site_label
_atom_site_fract_x
_atom_site_fract_y
_atom_site_fract_z
Si Si1 0.529977 0.085423 0.318010
Si Si2 0.668410 0.973318 0.700805
Si Si3 0.428571 0.667001 0.570294
Si Si4 0.459906 0.281941 0.967257
Si Si5 0.422790 0.171115 0.740766
Si Si6 0.670732 0.288370 0.160770
Si Si7 0.828010 0.429711 0.962852
Si Si8 0.425963 0.608180 0.312100
O O1 0.525837 0.135871 0.188834
O O2 0.481690 0.130359 0.422040
O O3 0.612180 0.074702 0.355795
O O4 0.500000 0.000000 0.292031
O O5 0.750000 0.988363 0.747011
O O6 0.645807 0.885631 0.740700
O O7 0.663274 0.991114 0.548738
O O8 0.611318 0.030272 0.764433
O O9 0.467597 0.737083 0.495685
O O10 0.352681 0.702171 0.612790
O O11 0.422350 0.598150 0.465793
O O12 0.418193 0.286968 0.101732
O O13 0.416239 0.234717 0.856447
O O14 0.494527 0.118743 0.755603
O O15 0.750000 0.281167 0.215892
O O16 0.618239 0.313654 0.274712
O O17 0.665928 0.353276 0.051064
O O18 0.750000 0.431261 0.896592
#
# Coordination Sequence:
#
# PCOD8191894 Si02
#       8
#     8   8   8   8   8   8   8   8
#     4  12  23  36  58  87 120 156 196 243 298 347
#     4  10  21  39  60  86 112 154 207 250 289 347
#     4  11  21  36  53  84 124 155 188 243 294 356
#     4  11  20  39  59  90 120 151 201 245 294 353
#     4  11  21  36  65  87 117 154 195 250 299 351
#     4  10  19  32  54  83 114 153 191 229 287 360
#     4   9  19  36  57  82 116 150 192 238 289 357
#     4  10  20  36  58  83 120 151 198 236 299 351
#
# _framework density 19.143260000000001
#
# number of rings (size 3 to 8) (size 9 to 14) (size 15 to 20)
#    0.000    1.500    3.750    3.750    0.000    3.500 
#    0.000    0.625    0.000    0.750    0.000    0.000 
#    0.000    0.000    0.000    0.000    0.000    0.000 
#
# Total GULP energy -396640.780008 kJ/mol
# GULP energy per Si atom -12395.024375 kJ/mol
# Density = 1.909969 g / cm^3
# Si number density = 19.143260 Si / 1000 Ang^3
#
#
#
# Elastic Constant Matrix: (Units=GPa)
#
#
# Indices 1 2 3 4 5 6 
#
# 1 43.9351 28.9952 20.7518 0.0000 0.0000 0.0000
# 2 28.9952 80.4318 27.6539 0.0000 0.0000 0.0000
# 3 20.7518 27.6539 99.5747 0.0000 0.0000 0.0000
# 4 0.0000 0.0000 0.0000 17.9889 0.0000 0.0000
# 5 0.0000 0.0000 0.0000 0.0000 16.9766 0.0000
# 6 0.0000 0.0000 0.0000 0.0000 0.0000 27.6328
#
#
#
# Elastic Compliance Matrix: (Units=1/GPa)
#
#
# Indices 1 2 3 4 5 6 
#
# 1 0.031064 -0.009920 -0.003719 0.000000 0.000000 0.000000
# 2 -0.009920 0.016913 -0.002630 0.000000 0.000000 0.000000
# 3 -0.003719 -0.002630 0.011548 0.000000 0.000000 0.000000
# 4 0.000000 0.000000 0.000000 0.055590 0.000000 0.000000
# 5 0.000000 0.000000 0.000000 0.000000 0.058905 0.000000
# 6 0.000000 0.000000 0.000000 0.000000 0.000000 0.036189
#
#
# Mechanical properties :
#
#
# Convention : Reuss Voigt Hill
#
# Bulk Modulus (GPa) = 37.05326 42.08261 39.56794
# Shear Modulus (GPa) = 19.86164 22.28904 21.07534
#
# Velocity S-wave (km/s) = 3.22456 3.41593 3.32162
# Velocity P-wave (km/s) = 5.76728 6.13097 5.95190
#
# Compressibility (1/GPa) = 0.02698818
#
# Stress axis : x y z
#
# Youngs Moduli (GPa) = 32.19164 59.12587 86.59431
#
# Poissons Ratio (x) = 0.58651 0.32204
# Poissons Ratio (y) = 0.31933 0.22772
# Poissons Ratio (z) = 0.11972 0.15549
#
# Static dielectric constant tensor:
#      x y z
#    x 3.357900 0.000000 0.000000 
#    y 0.000000 3.464340 0.000000 
#    z 0.000000 0.000000 3.625460 
# 
# 
# High freq. dielectric constant tensor:
#      x y z
#    x 1.723980 0.000000 0.000000 
#    y 0.000000 1.732960 0.000000 
#    z 0.000000 0.000000 1.740420 
# 
# From -- ./inp_files/7564.got.cif
#   From: 2010.03.12/outbox.cif.g09.slc.cpg/sg46_4_cif.got.tgz:7564.got - 2010.04.14 02:56:35.
