data_PCOD8191648
_publ_section_title
;
Structure prediction by ZEFSAII (Michael W. Deem and Ramdas Pophale) SiO2 
 PCOD8191648
Probable space group: I M A 2
;
_chemical_formula_sum "Si O2"
_cell_formula_units_Z 64
_cell_length_a 9.222885
_cell_length_b 20.010737
_cell_length_c 22.462350
_cell_angle_alpha 90.000000
_cell_angle_beta 90.000000
_cell_angle_gamma 90.000000
_cell_volume 4145.577777
_symmetry_space_group_name_H-M "I M A 2"
_symmetry_group_IT_number 46
_symmetry_cell_setting 'orthorhombic'
loop_
_space_group_symop_operation_xyz
x,y,z
-x,-y,z
1/2-x,y,z
1/2+x,-y,z
1/2+x,1/2+y,1/2+z
1/2-x,1/2-y,1/2+z
-x,1/2+y,1/2+z
x,1/2-y,1/2+z
loop_
_atom_site_type_symbol
_atom_site_label
_atom_site_fract_x
_atom_site_fract_y
_atom_site_fract_z
Si Si1 0.080786 0.566869 0.201710
Si Si2 0.919987 0.762573 0.890519
Si Si3 0.913322 0.725782 0.712082
Si Si4 0.589739 0.643070 0.292619
Si Si5 0.918150 0.340091 0.807002
Si Si6 0.584308 0.066889 0.409126
Si Si7 0.419999 0.694144 0.984767
Si Si8 0.418057 0.693140 0.122418
O O1 0.250000 0.552437 0.205973
O O2 0.041614 0.622702 0.152904
O O3 0.000000 0.500000 0.181405
O O4 0.025910 0.590493 0.267080
O O5 0.750000 0.742793 0.889308
O O6 0.940711 0.837005 0.861889
O O7 0.016170 0.712631 0.852312
O O8 0.986415 0.755987 0.957074
O O9 0.750000 0.702857 0.697893
O O10 0.917168 0.788121 0.756384
O O11 0.997300 0.663983 0.743945
O O12 0.991719 0.746037 0.650878
O O13 0.750000 0.611110 0.286198
O O14 0.750000 0.322952 0.795906
O O15 0.936425 0.411805 0.839613
O O16 0.750000 0.051332 0.423014
O O17 0.530512 0.125189 0.453567
O O18 0.500000 0.000000 0.423590
O O19 0.250000 0.707960 0.974356
O O20 0.459843 0.688425 0.053724
O O21 0.250000 0.709231 0.132529
#
# Coordination Sequence:
#
# PCOD8191648 Si02
#       8
#     8   8   8   8   8   8   8   8
#     4  10  19  29  42  59  81 111 145 177 209 244
#     4   9  16  26  42  63  82 102 132 172 215 251
#     4   9  16  26  42  63  82 101 131 173 216 252
#     4   8  15  27  41  58  80 102 129 168 211 253
#     4   9  16  27  42  59  80 106 135 168 210 257
#     4   9  18  29  41  58  81 111 145 178 208 242
#     4   9  18  31  43  58  83 114 147 177 206 246
#     4   9  18  31  44  58  81 115 148 175 206 247
#
# _framework density 15.438138
#
# number of rings (size 3 to 8) (size 9 to 14) (size 15 to 20)
#    0.000    3.000    0.000    3.000    0.000    7.500 
#    0.000    0.000    0.000    0.000    0.000    0.000 
#    0.000    1.000    0.000    5.500    0.000    4.500 
#
# Total GULP energy -396559.827980 kJ/mol
# GULP energy per Si atom -12392.494624 kJ/mol
# Density = 1.540300 g / cm^3
# Si number density = 15.438138 Si / 1000 Ang^3
#
#
#
# Elastic Constant Matrix: (Units=GPa)
#
#
# Indices 1 2 3 4 5 6 
#
# 1 82.0490 22.7074 52.8568 0.0000 0.0000 0.0000
# 2 22.7074 20.9177 44.4058 0.0000 0.0000 0.0000
# 3 52.8568 44.4058 104.7831 0.0000 0.0000 0.0000
# 4 0.0000 0.0000 0.0000 15.9159 0.0000 0.0000
# 5 0.0000 0.0000 0.0000 0.0000 22.4648 0.0000
# 6 0.0000 0.0000 0.0000 0.0000 0.0000 24.1791
#
#
#
# Elastic Compliance Matrix: (Units=1/GPa)
#
#
# Indices 1 2 3 4 5 6 
#
# 1 0.018070 -0.002646 -0.007994 0.000000 0.000000 0.000000
# 2 -0.002646 0.476783 -0.200720 0.000000 0.000000 0.000000
# 3 -0.007994 -0.200720 0.098638 0.000000 0.000000 0.000000
# 4 0.000000 0.000000 0.000000 0.062830 0.000000 0.000000
# 5 0.000000 0.000000 0.000000 0.000000 0.044514 0.000000
# 6 0.000000 0.000000 0.000000 0.000000 0.000000 0.041358
#
#
# Mechanical properties :
#
#
# Convention : Reuss Voigt Hill
#
# Bulk Modulus (GPa) = 5.85576 49.74331 27.79954
# Shear Modulus (GPa) = 4.09220 18.36395 11.22807
#
# Velocity S-wave (km/s) = 1.62987 3.45268 2.69977
# Velocity P-wave (km/s) = 2.70984 6.94159 5.26920
#
# Compressibility (1/GPa) = 0.17077195
#
# Stress axis : x y z
#
# Youngs Moduli (GPa) = 55.34090 2.09739 10.13804
#
# Poissons Ratio (x) = 0.00555 0.08104
# Poissons Ratio (y) = 0.14643 2.03490
# Poissons Ratio (z) = 0.44239 0.42099
#
# Static dielectric constant tensor:
#      x y z
#    x 3.098810 0.000000 0.000000 
#    y 0.000000 2.754100 0.000000 
#    z 0.000000 0.000000 3.138540 
# 
# 
# High freq. dielectric constant tensor:
#      x y z
#    x 1.605460 0.000000 0.000000 
#    y 0.000000 1.547080 0.000000 
#    z 0.000000 0.000000 1.577320 
# 
# From -- ./inp_files/21423.got.cif
#   From: 2010.03.12/outbox.cif.g09.slc.cpg/sg46_11_cif.got.tgz:21423.got - 2010.04.14 02:56:35.
