data_PCOD8191400
_publ_section_title
;
Structure prediction by ZEFSAII (Michael W. Deem and Ramdas Pophale) SiO2 
 PCOD8191400
Probable space group: I M A 2
;
_chemical_formula_sum "Si O2"
_cell_formula_units_Z 48
_cell_length_a 8.509215
_cell_length_b 17.435363
_cell_length_c 18.384637
_cell_angle_alpha 90.000000
_cell_angle_beta 90.000000
_cell_angle_gamma 90.000000
_cell_volume 2727.567770
_symmetry_space_group_name_H-M "I M A 2"
_symmetry_group_IT_number 46
_symmetry_cell_setting 'orthorhombic'
loop_
_space_group_symop_operation_xyz
x,y,z
-x,-y,z
1/2-x,y,z
1/2+x,-y,z
1/2+x,1/2+y,1/2+z
1/2-x,1/2-y,1/2+z
-x,1/2+y,1/2+z
x,1/2-y,1/2+z
loop_
_atom_site_type_symbol
_atom_site_label
_atom_site_fract_x
_atom_site_fract_y
_atom_site_fract_z
Si Si1 0.932236 0.817356 0.488200
Si Si2 0.063833 0.713571 0.376054
Si Si3 0.564571 0.917758 0.979121
Si Si4 0.567061 0.212713 0.713863
Si Si5 0.435917 0.917464 0.605396
Si Si6 0.433137 0.688064 0.586084
O O1 0.750000 0.830412 0.472870
O O2 0.017655 0.795127 0.412490
O O3 0.003156 0.893845 0.525010
O O4 0.959105 0.746813 0.542157
O O5 0.250000 0.703029 0.377879
O O6 0.992786 0.715033 0.294159
O O7 0.984766 0.642625 0.417520
O O8 0.750000 0.920530 0.986676
O O9 0.500000 0.000000 0.955277
O O10 0.488517 0.895537 0.058293
O O11 0.750000 0.198259 0.723511
O O12 0.498786 0.142407 0.665818
O O13 0.537488 0.294115 0.671644
O O14 0.250000 0.917803 0.603554
O O15 0.500000 0.000000 0.627426
O O16 0.250000 0.701852 0.566597
#
# Coordination Sequence:
#
# PCOD8191400 Si02
#       6
#     8   8   8   8   8   8
#     4  10  18  30  47  70  95 126 164 200 233 278
#     4  10  18  32  51  73  99 129 159 196 238 283
#     4  11  21  33  48  71  98 129 163 199 239 285
#     4   8  17  31  50  73  99 127 158 192 238 288
#     4  10  19  33  50  72  98 128 161 199 241 286
#     4   9  16  31  51  71  93 123 160 200 237 280
#
# _framework density 17.598096000000002
#
# number of rings (size 3 to 8) (size 9 to 14) (size 15 to 20)
#    0.000    2.333    0.000    7.500    0.000    0.667 
#    0.000   11.667    0.000    1.000    0.000    4.667 
#    0.000    0.000    0.000    0.000    0.000    0.000 
#
# Total GULP energy -297415.317486 kJ/mol
# GULP energy per Si atom -12392.304895 kJ/mol
# Density = 1.755804 g / cm^3
# Si number density = 17.598096 Si / 1000 Ang^3
#
#
#
# Elastic Constant Matrix: (Units=GPa)
#
#
# Indices 1 2 3 4 5 6 
#
# 1 80.2217 20.9234 34.9636 0.0000 0.0000 0.0000
# 2 20.9234 41.1633 59.9890 0.0000 0.0000 0.0000
# 3 34.9636 59.9890 141.1966 0.0000 0.0000 0.0000
# 4 0.0000 0.0000 0.0000 19.0033 0.0000 0.0000
# 5 0.0000 0.0000 0.0000 0.0000 14.3599 0.0000
# 6 0.0000 0.0000 0.0000 0.0000 0.0000 29.1774
#
#
#
# Elastic Compliance Matrix: (Units=1/GPa)
#
#
# Indices 1 2 3 4 5 6 
#
# 1 0.014448 -0.005593 -0.001201 0.000000 0.000000 0.000000
# 2 -0.005593 0.065956 -0.026637 0.000000 0.000000 0.000000
# 3 -0.001201 -0.026637 0.018697 0.000000 0.000000 0.000000
# 4 0.000000 0.000000 0.000000 0.052623 0.000000 0.000000
# 5 0.000000 0.000000 0.000000 0.000000 0.069638 0.000000
# 6 0.000000 0.000000 0.000000 0.000000 0.000000 0.034273
#
#
# Mechanical properties :
#
#
# Convention : Reuss Voigt Hill
#
# Bulk Modulus (GPa) = 31.01987 54.92596 42.97291
# Shear Modulus (GPa) = 15.00406 22.28849 18.64628
#
# Velocity S-wave (km/s) = 2.92309 3.56269 3.25862
# Velocity P-wave (km/s) = 5.39052 6.94282 6.21532
#
# Compressibility (1/GPa) = 0.03223740
#
# Stress axis : x y z
#
# Youngs Moduli (GPa) = 69.21451 15.16169 53.48498
#
# Poissons Ratio (x) = 0.08480 0.06425
# Poissons Ratio (y) = 0.38713 1.42468
# Poissons Ratio (z) = 0.08315 0.40386
#
# Static dielectric constant tensor:
#      x y z
#    x 3.187470 0.000000 0.000000 
#    y 0.000000 3.253950 0.000000 
#    z 0.000000 0.000000 3.680940 
# 
# 
# High freq. dielectric constant tensor:
#      x y z
#    x 1.682710 0.000000 0.000000 
#    y 0.000000 1.657070 0.000000 
#    z 0.000000 0.000000 1.670950 
# 
# From -- ./inp_files/18268.got.cif
#   From: 2010.03.12/outbox.cif.g09.slc.cpg/sg46_10_cif.got.tgz:18268.got - 2010.04.14 02:56:35.
