data_PCOD8191629
_publ_section_title
;
Structure prediction by ZEFSAII (Michael W. Deem and Ramdas Pophale) SiO2 
 PCOD8191629
Probable space group: I M A 2
;
_chemical_formula_sum "Si O2"
_cell_formula_units_Z 52
_cell_length_a 15.576075
_cell_length_b 11.017872
_cell_length_c 14.312341
_cell_angle_alpha 90.000000
_cell_angle_beta 90.000000
_cell_angle_gamma 90.000000
_cell_volume 2456.215272
_symmetry_space_group_name_H-M "I M A 2"
_symmetry_group_IT_number 46
_symmetry_cell_setting 'orthorhombic'
loop_
_space_group_symop_operation_xyz
x,y,z
-x,-y,z
1/2-x,y,z
1/2+x,-y,z
1/2+x,1/2+y,1/2+z
1/2-x,1/2-y,1/2+z
-x,1/2+y,1/2+z
x,1/2-y,1/2+z
loop_
_atom_site_type_symbol
_atom_site_label
_atom_site_fract_x
_atom_site_fract_y
_atom_site_fract_z
Si Si1 0.250000 0.620883 0.564060
Si Si2 0.591363 0.640287 0.340408
Si Si3 0.404020 0.881707 0.767984
Si Si4 0.152191 0.247627 0.666123
Si Si5 0.094194 0.444150 0.537030
Si Si6 0.750000 0.298999 0.773951
Si Si7 0.250000 0.613720 0.972025
Si Si8 0.406688 0.501315 0.075073
O O1 0.164550 0.550397 0.532498
O O2 0.250000 0.630941 0.676261
O O3 0.250000 0.751119 0.514230
O O4 0.625930 0.506835 0.314347
O O5 0.492087 0.660340 0.314989
O O6 0.644261 0.738224 0.279158
O O7 0.607242 0.651823 0.451265
O O8 0.334037 0.781099 0.786531
O O9 0.414764 0.899033 0.657223
O O10 0.250000 0.264168 0.635880
O O11 0.101632 0.366773 0.631726
O O12 0.113544 0.128542 0.619025
O O13 0.000000 0.500000 0.529520
O O14 0.750000 0.392224 0.859968
O O15 0.334066 0.541209 0.003584
O O16 0.500000 0.500000 0.024292
#
# Coordination Sequence:
#
# PCOD8191629 Si02
#       8
#     4   8   8   8   8   4   4   8
#     4  12  28  47  68 103 149 187 236 293 354 420
#     4  10  22  41  71  97 130 178 243 282 334 410
#     4  10  18  40  64 104 128 173 227 293 331 401
#     4  11  24  43  68 100 139 184 229 292 347 410
#     4  12  27  48  68 104 143 189 235 285 353 426
#     4  12  26  40  69 101 150 172 229 280 371 417
#     4  12  26  43  71 104 137 191 229 297 351 425
#     4  11  21  41  71  98 137 177 236 290 344 406
#
# _framework density 21.170784000000001
#
# number of rings (size 3 to 8) (size 9 to 14) (size 15 to 20)
#    0.000    0.923    7.692    0.923    8.615    0.000 
#    2.769    0.769    0.000    0.000    0.000    0.000 
#    0.000    0.000    0.000    0.000    0.000    0.000 
#
# Total GULP energy -322403.283230 kJ/mol
# GULP energy per Si atom -12400.126278 kJ/mol
# Density = 2.112260 g / cm^3
# Si number density = 21.170784 Si / 1000 Ang^3
#
#
#
# Elastic Constant Matrix: (Units=GPa)
#
#
# Indices 1 2 3 4 5 6 
#
# 1 138.6324 34.6037 41.1598 0.0000 0.0000 0.0000
# 2 34.6037 49.4907 13.3305 0.0000 0.0000 0.0000
# 3 41.1598 13.3305 96.8766 0.0000 0.0000 0.0000
# 4 0.0000 0.0000 0.0000 33.9158 0.0000 0.0000
# 5 0.0000 0.0000 0.0000 0.0000 15.5620 0.0000
# 6 0.0000 0.0000 0.0000 0.0000 0.0000 -4.1563
#
#
#
# Elastic Compliance Matrix: (Units=1/GPa)
#
#
# Indices 1 2 3 4 5 6 
#
# 1 0.009655 -0.005863 -0.003295 0.000000 0.000000 0.000000
# 2 -0.005863 0.024544 -0.000886 0.000000 0.000000 0.000000
# 3 -0.003295 -0.000886 0.011844 0.000000 0.000000 0.000000
# 4 0.000000 0.000000 0.000000 0.029485 0.000000 0.000000
# 5 0.000000 0.000000 0.000000 0.000000 0.064259 0.000000
# 6 0.000000 0.000000 0.000000 0.000000 0.000000 -0.240601
#
#
# Mechanical properties :
#
#
# Convention : Reuss Voigt Hill
#
# Bulk Modulus (GPa) = 38.52970 51.46530 44.99750
# Shear Modulus (GPa) = -69.37476 22.12469 -23.62504
#
# Velocity S-wave (km/s) = -5.73064 3.23624 -3.34417
# Velocity P-wave (km/s) = 5.05450 6.19086 2.52772
#
# Compressibility (1/GPa) = 0.02595401
#
# Stress axis : x y z
#
# Youngs Moduli (GPa) = 103.57077 40.74304 84.42756
#
# Poissons Ratio (x) = 0.23889 0.27822
# Poissons Ratio (y) = 0.60726 0.07482
# Poissons Ratio (z) = 0.34131 0.03611
#
# Static dielectric constant tensor:
#      x y z
#    x 3.964070 0.000000 0.000000 
#    y 0.000000 3.616990 0.000000 
#    z 0.000000 0.000000 4.035270 
# 
# 
# High freq. dielectric constant tensor:
#      x y z
#    x 1.845320 0.000000 0.000000 
#    y 0.000000 1.806750 0.000000 
#    z 0.000000 0.000000 1.825750 
# 
# From -- ./inp_files/15997.got.cif
#   From: 2010.03.12/outbox.cif.g09.slc.cpg/sg46_8_cif.got.tgz:15997.got - 2010.04.14 02:56:35.
