data_PCOD8191846
_publ_section_title
;
Structure prediction by ZEFSAII (Michael W. Deem and Ramdas Pophale) SiO2 
 PCOD8191846
Probable space group: I M A 2
;
_chemical_formula_sum "Si O2"
_cell_formula_units_Z 48
_cell_length_a 15.980611
_cell_length_b 20.114108
_cell_length_c 8.458119
_cell_angle_alpha 90.000000
_cell_angle_beta 90.000000
_cell_angle_gamma 90.000000
_cell_volume 2718.741702
_symmetry_space_group_name_H-M "I M A 2"
_symmetry_group_IT_number 46
_symmetry_cell_setting 'orthorhombic'
loop_
_space_group_symop_operation_xyz
x,y,z
-x,-y,z
1/2-x,y,z
1/2+x,-y,z
1/2+x,1/2+y,1/2+z
1/2-x,1/2-y,1/2+z
-x,1/2+y,1/2+z
x,1/2-y,1/2+z
loop_
_atom_site_type_symbol
_atom_site_label
_atom_site_fract_x
_atom_site_fract_y
_atom_site_fract_z
Si Si1 0.842446 0.344225 0.665410
Si Si2 0.841544 0.725918 0.309998
Si Si3 0.994231 0.326448 0.252276
Si Si4 0.156995 0.347856 0.627227
Si Si5 0.506015 0.078167 0.028735
Si Si6 0.096990 0.724997 0.962287
O O1 0.750000 0.376120 0.640788
O O2 0.915204 0.398332 0.634649
O O3 0.847007 0.319288 0.846239
O O4 0.848486 0.281384 0.548127
O O5 0.750000 0.705419 0.245904
O O6 0.850445 0.709152 0.494271
O O7 0.854913 0.805625 0.288179
O O8 0.907976 0.681620 0.211511
O O9 0.979366 0.393747 0.351616
O O10 0.974662 0.261793 0.361369
O O11 0.940877 0.325743 0.092144
O O12 0.250000 0.382332 0.621531
O O13 0.081807 0.399792 0.607433
O O14 0.500000 0.000000 0.017455
#
# Coordination Sequence:
#
# PCOD8191846 Si02
#       6
#     8   8   8   8   8   8
#     4  10  19  32  52  77 102 128 161 207 256 303
#     4   9  15  24  42  70  94 114 145 189 243 290
#     4   9  16  29  48  70  99 128 158 201 251 299
#     4   9  17  29  48  71  95 119 149 194 243 289
#     4  10  21  34  47  68  98 138 176 198 229 283
#     4   9  17  30  51  76  98 121 154 205 265 308
#
# _framework density 17.655225000000002
#
# number of rings (size 3 to 8) (size 9 to 14) (size 15 to 20)
#    0.000    2.667    0.000    4.500    0.000    0.667 
#    0.000    1.667    0.000    0.000    0.000    9.333 
#    0.000    0.000    0.000    0.000    0.000    0.000 
#
# Total GULP energy -297383.105444 kJ/mol
# GULP energy per Si atom -12390.962727 kJ/mol
# Density = 1.761504 g / cm^3
# Si number density = 17.655225 Si / 1000 Ang^3
#
#
#
# Elastic Constant Matrix: (Units=GPa)
#
#
# Indices 1 2 3 4 5 6 
#
# 1 136.4280 49.4781 36.6327 0.0000 0.0000 0.0000
# 2 49.4781 95.6304 31.9454 0.0000 0.0000 0.0000
# 3 36.6327 31.9454 69.6021 0.0000 0.0000 0.0000
# 4 0.0000 0.0000 0.0000 15.8265 0.0000 0.0000
# 5 0.0000 0.0000 0.0000 0.0000 18.0646 0.0000
# 6 0.0000 0.0000 0.0000 0.0000 0.0000 14.0830
#
#
#
# Elastic Compliance Matrix: (Units=1/GPa)
#
#
# Indices 1 2 3 4 5 6 
#
# 1 0.009618 -0.003880 -0.003281 0.000000 0.000000 0.000000
# 2 -0.003880 0.013916 -0.004345 0.000000 0.000000 0.000000
# 3 -0.003281 -0.004345 0.018089 0.000000 0.000000 0.000000
# 4 0.000000 0.000000 0.000000 0.063185 0.000000 0.000000
# 5 0.000000 0.000000 0.000000 0.000000 0.055357 0.000000
# 6 0.000000 0.000000 0.000000 0.000000 0.000000 0.071008
#
#
# Mechanical properties :
#
#
# Convention : Reuss Voigt Hill
#
# Bulk Modulus (GPa) = 53.73457 59.75255 56.74356
# Shear Modulus (GPa) = 19.20210 21.83510 20.51860
#
# Velocity S-wave (km/s) = 3.30148 3.52056 3.41278
# Velocity P-wave (km/s) = 6.71078 7.10235 6.90934
#
# Compressibility (1/GPa) = 0.01860999
#
# Stress axis : x y z
#
# Youngs Moduli (GPa) = 103.96983 71.86032 55.28372
#
# Poissons Ratio (x) = 0.27883 0.18140
# Poissons Ratio (y) = 0.40343 0.24020
# Poissons Ratio (z) = 0.34115 0.31222
#
# Static dielectric constant tensor:
#      x y z
#    x 3.520740 0.000000 0.000000 
#    y 0.000000 2.793970 0.000000 
#    z 0.000000 0.000000 3.317020 
# 
# 
# High freq. dielectric constant tensor:
#      x y z
#    x 1.703060 0.000000 0.000000 
#    y 0.000000 1.623800 0.000000 
#    z 0.000000 0.000000 1.678260 
# 
# From -- ./inp_files/5798.got.cif
#   From: 2010.03.12/outbox.cif.g09.slc.cpg/sg46_3_cif.got.tgz:5798.got - 2010.04.14 02:56:35.
