data_PCOD8191325
_publ_section_title
;
Structure prediction by ZEFSAII (Michael W. Deem and Ramdas Pophale) SiO2 
 PCOD8191325
Probable space group: I M A 2
;
_chemical_formula_sum "Si O2"
_cell_formula_units_Z 64
_cell_length_a 14.104511
_cell_length_b 13.616147
_cell_length_c 18.474071
_cell_angle_alpha 90.000000
_cell_angle_beta 90.000000
_cell_angle_gamma 90.000000
_cell_volume 3547.928619
_symmetry_space_group_name_H-M "I M A 2"
_symmetry_group_IT_number 46
_symmetry_cell_setting 'orthorhombic'
loop_
_space_group_symop_operation_xyz
x,y,z
-x,-y,z
1/2-x,y,z
1/2+x,-y,z
1/2+x,1/2+y,1/2+z
1/2-x,1/2-y,1/2+z
-x,1/2+y,1/2+z
x,1/2-y,1/2+z
loop_
_atom_site_type_symbol
_atom_site_label
_atom_site_fract_x
_atom_site_fract_y
_atom_site_fract_z
Si Si1 0.357999 0.354770 0.204260
Si Si2 0.640654 0.112487 0.027568
Si Si3 0.359026 0.420008 0.454655
Si Si4 0.356466 0.970702 0.807053
Si Si5 0.524200 0.278026 0.290798
Si Si6 0.860982 0.255866 0.657873
Si Si7 0.995744 0.615988 0.081362
Si Si8 0.003217 0.750948 0.950588
O O1 0.250000 0.315635 0.203130
O O2 0.363105 0.465968 0.233884
O O3 0.419958 0.283542 0.255475
O O4 0.400490 0.352064 0.123471
O O5 0.750000 0.115690 0.007336
O O6 0.620728 0.146524 0.109826
O O7 0.596579 0.188999 0.971503
O O8 0.604366 0.001597 0.012862
O O9 0.250000 0.394674 0.466973
O O10 0.379393 0.458656 0.374199
O O11 0.413595 0.319506 0.466935
O O12 0.250000 0.926305 0.814835
O O13 0.435379 0.887157 0.804153
O O14 0.596397 0.221174 0.237193
O O15 0.513574 0.220143 0.366486
O O16 0.750000 0.230275 0.663314
O O17 0.913230 0.161237 0.623196
O O18 0.000000 0.500000 0.078421
O O19 0.991634 0.654039 0.998997
#
# Coordination Sequence:
#
# PCOD8191325 Si02
#       8
#     8   8   8   8   8   8   8   8
#     4  10  20  33  51  75 104 137 171 213 268 321
#     4   9  18  32  50  75 110 142 170 207 260 322
#     4  10  19  31  50  79 111 140 170 209 267 325
#     4  10  18  28  48  78 108 137 160 203 271 323
#     4  11  19  29  50  78 108 133 172 218 260 318
#     4   9  19  35  54  78 106 138 172 212 267 323
#     4  10  22  38  53  72 102 143 184 223 262 307
#     4  11  21  32  53  77 105 140 176 221 264 317
#
# _framework density 18.038694
#
# number of rings (size 3 to 8) (size 9 to 14) (size 15 to 20)
#    0.000    2.000    2.500    2.625    0.000    2.500 
#    0.000    0.000    0.000    4.500    0.000    0.000 
#    0.000    0.000    0.000    0.000    0.000    0.000 
#
# Total GULP energy -396746.634088 kJ/mol
# GULP energy per Si atom -12398.332315 kJ/mol
# Density = 1.799764 g / cm^3
# Si number density = 18.038694 Si / 1000 Ang^3
#
#
#
# Elastic Constant Matrix: (Units=GPa)
#
#
# Indices 1 2 3 4 5 6 
#
# 1 108.0947 23.5345 48.4838 0.0000 0.0000 0.0000
# 2 23.5345 39.7918 42.4737 0.0000 0.0000 0.0000
# 3 48.4838 42.4737 139.9535 0.0000 0.0000 0.0000
# 4 0.0000 0.0000 0.0000 25.1705 0.0000 0.0000
# 5 0.0000 0.0000 0.0000 0.0000 23.9337 0.0000
# 6 0.0000 0.0000 0.0000 0.0000 0.0000 17.7919
#
#
#
# Elastic Compliance Matrix: (Units=1/GPa)
#
#
# Indices 1 2 3 4 5 6 
#
# 1 0.011311 -0.003709 -0.002793 0.000000 0.000000 0.000000
# 2 -0.003709 0.038388 -0.010365 0.000000 0.000000 0.000000
# 3 -0.002793 -0.010365 0.011259 0.000000 0.000000 0.000000
# 4 0.000000 0.000000 0.000000 0.039729 0.000000 0.000000
# 5 0.000000 0.000000 0.000000 0.000000 0.041782 0.000000
# 6 0.000000 0.000000 0.000000 0.000000 0.000000 0.056205
#
#
# Mechanical properties :
#
#
# Convention : Reuss Voigt Hill
#
# Bulk Modulus (GPa) = 36.73250 57.42489 47.07869
# Shear Modulus (GPa) = 20.70533 24.93576 22.82055
#
# Velocity S-wave (km/s) = 3.39164 3.72203 3.56067
# Velocity P-wave (km/s) = 5.97871 7.09752 6.56200
#
# Compressibility (1/GPa) = 0.02722385
#
# Stress axis : x y z
#
# Youngs Moduli (GPa) = 88.40656 26.04957 88.82131
#
# Poissons Ratio (x) = 0.09661 0.24808
# Poissons Ratio (y) = 0.32788 0.92067
# Poissons Ratio (z) = 0.24692 0.27002
#
# Static dielectric constant tensor:
#      x y z
#    x 3.506430 0.000000 0.000000 
#    y 0.000000 2.968900 0.000000 
#    z 0.000000 0.000000 3.577500 
# 
# 
# High freq. dielectric constant tensor:
#      x y z
#    x 1.715350 0.000000 0.000000 
#    y 0.000000 1.647520 0.000000 
#    z 0.000000 0.000000 1.701300 
# 
# From -- ./inp_files/19654.got.cif
#   From: 2010.03.12/outbox.cif.g09.slc.cpg/sg46_10_cif.got.tgz:19654.got - 2010.04.14 02:56:35.
