data_PCOD8191466
_publ_section_title
;
Structure prediction by ZEFSAII (Michael W. Deem and Ramdas Pophale) SiO2 
 PCOD8191466
Probable space group: I M A 2
;
_chemical_formula_sum "Si O2"
_cell_formula_units_Z 48
_cell_length_a 9.106707
_cell_length_b 13.795519
_cell_length_c 18.008442
_cell_angle_alpha 90.000000
_cell_angle_beta 90.000000
_cell_angle_gamma 90.000000
_cell_volume 2262.432073
_symmetry_space_group_name_H-M "I M A 2"
_symmetry_group_IT_number 46
_symmetry_cell_setting 'orthorhombic'
loop_
_space_group_symop_operation_xyz
x,y,z
-x,-y,z
1/2-x,y,z
1/2+x,-y,z
1/2+x,1/2+y,1/2+z
1/2-x,1/2-y,1/2+z
-x,1/2+y,1/2+z
x,1/2-y,1/2+z
loop_
_atom_site_type_symbol
_atom_site_label
_atom_site_fract_x
_atom_site_fract_y
_atom_site_fract_z
Si Si1 0.577182 0.902196 0.876890
Si Si2 0.921813 0.305176 0.507841
Si Si3 0.590277 0.411324 0.997920
Si Si4 0.078813 0.601025 0.665969
Si Si5 0.088036 0.912252 0.669836
Si Si6 0.422524 0.255921 0.246928
O O1 0.750000 0.920328 0.881440
O O2 0.539034 0.811261 0.823374
O O3 0.500000 0.000000 0.847396
O O4 0.515095 0.878663 0.958179
O O5 0.750000 0.312903 0.487769
O O6 0.980670 0.195825 0.490530
O O7 0.945690 0.332463 0.593485
O O8 0.500000 0.500000 0.960363
O O9 0.750000 0.411938 0.959459
O O10 0.609956 0.434973 0.084099
O O11 0.250000 0.584821 0.682655
O O12 0.000000 0.500000 0.651551
O O13 0.003529 0.652154 0.738238
O O14 0.250000 0.900627 0.706905
O O15 0.989613 0.817565 0.679415
O O16 0.000000 0.000000 0.709039
O O17 0.250000 0.241923 0.236217
#
# Coordination Sequence:
#
# PCOD8191466 Si02
#       6
#     8   8   8   8   8   8
#     4  11  25  42  62  91 124 162 206 250 304 368
#     4  10  21  40  63  90 125 163 205 252 305 364
#     4   9  18  33  53  84 119 152 193 241 293 352
#     4  11  23  41  64  92 123 158 205 257 309 369
#     4  10  18  31  52  82 117 151 191 240 295 352
#     4  11  23  39  59  87 120 158 204 250 302 363
#
# _framework density 21.216106
#
# number of rings (size 3 to 8) (size 9 to 14) (size 15 to 20)
#    0.000    1.667    1.667    3.000    0.000    8.000 
#    0.000    0.833    0.000    2.000    0.000    0.000 
#    0.000    0.000    0.000    0.000    0.000    0.000 
#
# Total GULP energy -297478.733364 kJ/mol
# GULP energy per Si atom -12394.947224 kJ/mol
# Density = 2.116782 g / cm^3
# Si number density = 21.216106 Si / 1000 Ang^3
#
#
#
# Elastic Constant Matrix: (Units=GPa)
#
#
# Indices 1 2 3 4 5 6 
#
# 1 129.9564 60.2120 39.2385 0.0000 0.0000 0.0000
# 2 60.2120 124.5266 19.2428 0.0000 0.0000 0.0000
# 3 39.2385 19.2428 52.9987 0.0000 0.0000 0.0000
# 4 0.0000 0.0000 0.0000 17.4962 0.0000 0.0000
# 5 0.0000 0.0000 0.0000 0.0000 16.7856 0.0000
# 6 0.0000 0.0000 0.0000 0.0000 0.0000 42.9240
#
#
#
# Elastic Compliance Matrix: (Units=1/GPa)
#
#
# Indices 1 2 3 4 5 6 
#
# 1 0.012058 -0.004716 -0.007215 0.000000 0.000000 0.000000
# 2 -0.004716 0.010352 -0.000267 0.000000 0.000000 0.000000
# 3 -0.007215 -0.000267 0.024308 0.000000 0.000000 0.000000
# 4 0.000000 0.000000 0.000000 0.057155 0.000000 0.000000
# 5 0.000000 0.000000 0.000000 0.000000 0.059575 0.000000
# 6 0.000000 0.000000 0.000000 0.000000 0.000000 0.023297
#
#
# Mechanical properties :
#
#
# Convention : Reuss Voigt Hill
#
# Bulk Modulus (GPa) = 44.80080 60.54092 52.67086
# Shear Modulus (GPa) = 22.87474 28.02707 25.45090
#
# Velocity S-wave (km/s) = 3.28712 3.63854 3.46729
# Velocity P-wave (km/s) = 5.96399 6.80068 6.39603
#
# Compressibility (1/GPa) = 0.02232103
#
# Stress axis : x y z
#
# Youngs Moduli (GPa) = 82.93033 96.60144 41.13955
#
# Poissons Ratio (x) = 0.45553 0.29684
# Poissons Ratio (y) = 0.39106 0.01100
# Poissons Ratio (z) = 0.59838 0.02582
#
# Static dielectric constant tensor:
#      x y z
#    x 4.174260 0.000000 0.000000 
#    y 0.000000 4.076850 0.000000 
#    z 0.000000 0.000000 3.429080 
# 
# 
# High freq. dielectric constant tensor:
#      x y z
#    x 1.836810 0.000000 0.000000 
#    y 0.000000 1.841840 0.000000 
#    z 0.000000 0.000000 1.797180 
# 
# From -- ./inp_files/18170.got.cif
#   From: 2010.03.12/outbox.cif.g09.slc.cpg/sg46_10_cif.got.tgz:18170.got - 2010.04.14 02:56:35.
