data_PCOD8191609
_publ_section_title
;
Structure prediction by ZEFSAII (Michael W. Deem and Ramdas Pophale) SiO2 
 PCOD8191609
Probable space group: I M A 2
;
_chemical_formula_sum "Si O2"
_cell_formula_units_Z 64
_cell_length_a 9.145495
_cell_length_b 29.940588
_cell_length_c 12.662374
_cell_angle_alpha 90.000000
_cell_angle_beta 90.000000
_cell_angle_gamma 90.000000
_cell_volume 3467.230215
_symmetry_space_group_name_H-M "I M A 2"
_symmetry_group_IT_number 46
_symmetry_cell_setting 'orthorhombic'
loop_
_space_group_symop_operation_xyz
x,y,z
-x,-y,z
1/2-x,y,z
1/2+x,-y,z
1/2+x,1/2+y,1/2+z
1/2-x,1/2-y,1/2+z
-x,1/2+y,1/2+z
x,1/2-y,1/2+z
loop_
_atom_site_type_symbol
_atom_site_label
_atom_site_fract_x
_atom_site_fract_y
_atom_site_fract_z
Si Si1 0.576971 0.375381 0.420780
Si Si2 0.922400 0.377217 0.963657
Si Si3 0.578086 0.454037 0.810603
Si Si4 0.578236 0.045908 0.069545
Si Si5 0.576943 0.350960 0.190842
Si Si6 0.087631 0.781699 0.394597
Si Si7 0.411486 0.707438 0.555250
Si Si8 0.421820 0.258727 0.214521
O O1 0.750000 0.377103 0.422250
O O2 0.515552 0.417219 0.487839
O O3 0.523266 0.375866 0.298399
O O4 0.523059 0.329760 0.476097
O O5 0.750000 0.376787 0.951399
O O6 0.986364 0.417550 0.893007
O O7 0.980238 0.330492 0.916307
O O8 0.963274 0.381488 0.088442
O O9 0.500000 0.500000 0.838953
O O10 0.750000 0.460895 0.826241
O O11 0.542576 0.439205 0.690098
O O12 0.750000 0.038769 0.054905
O O13 0.500000 0.000000 0.040666
O O14 0.750000 0.341115 0.196208
O O15 0.495204 0.304316 0.176248
O O16 0.250000 0.784049 0.340410
O O17 0.104957 0.755988 0.503954
O O18 0.971184 0.751849 0.332547
O O19 0.250000 0.691880 0.595489
O O20 0.522915 0.714791 0.651164
O O21 0.250000 0.263873 0.204508
#
# Coordination Sequence:
#
# PCOD8191609 Si02
#       8
#     8   8   8   8   8   8   8   8
#     4   9  18  32  56  82 100 130 178 229 261 297
#     4   9  18  32  56  82 100 130 178 229 261 297
#     4   9  18  34  55  79 105 132 166 210 265 317
#     4   9  18  34  55  79 105 132 166 210 265 317
#     4  10  18  36  57  75 101 137 185 222 258 307
#     4  10  19  34  56  77  99 136 186 224 255 301
#     4  10  19  34  56  77  99 136 186 224 255 301
#     4  12  24  34  46  73 114 149 173 212 271 321
#
# _framework density 18.458538000000001
#
# number of rings (size 3 to 8) (size 9 to 14) (size 15 to 20)
#    0.000    2.250    2.500    1.125    1.750    0.500 
#    0.000    3.125    0.000    0.000    0.000    0.000 
#    0.000    0.000    0.000    0.000    0.000    0.000 
#
# Total GULP energy -396592.458423 kJ/mol
# GULP energy per Si atom -12393.514326 kJ/mol
# Density = 1.841653 g / cm^3
# Si number density = 18.458538 Si / 1000 Ang^3
#
#
#
# Elastic Constant Matrix: (Units=GPa)
#
#
# Indices 1 2 3 4 5 6 
#
# 1 49.3702 26.6108 33.1482 -0.0001 0.0005 0.0001
# 2 26.6108 120.4489 63.2685 -0.0006 0.0006 0.0000
# 3 33.1482 63.2685 112.5001 -0.0011 0.0010 0.0001
# 4 -0.0001 -0.0006 -0.0011 36.3066 0.0005 -0.0001
# 5 0.0005 0.0006 0.0010 0.0005 10.8450 -0.0001
# 6 0.0001 0.0000 0.0001 -0.0001 -0.0001 21.8645
#
#
#
# Elastic Compliance Matrix: (Units=1/GPa)
#
#
# Indices 1 2 3 4 5 6 
#
# 1 0.025737 -0.002417 -0.006224 0.000000 0.000000 0.000000
# 2 -0.002417 0.012010 -0.006042 0.000000 0.000000 0.000000
# 3 -0.006224 -0.006042 0.014121 0.000000 -0.000001 0.000000
# 4 0.000000 0.000000 0.000000 0.027543 -0.000001 0.000000
# 5 0.000000 0.000000 -0.000001 -0.000001 0.092208 0.000001
# 6 0.000000 0.000000 0.000000 0.000000 0.000001 0.045736
#
#
# Mechanical properties :
#
#
# Convention : Reuss Voigt Hill
#
# Bulk Modulus (GPa) = 44.44138 58.70824 51.57481
# Shear Modulus (GPa) = 19.66784 24.42265 22.04525
#
# Velocity S-wave (km/s) = 3.26776 3.64140 3.45963
# Velocity P-wave (km/s) = 6.19405 7.03948 6.63025
#
# Compressibility (1/GPa) = 0.02250155
#
# Stress axis : x y z
#
# Youngs Moduli (GPa) = 38.85479 83.26415 70.81679
#
# Poissons Ratio (x) = 0.20121 0.44079
# Poissons Ratio (y) = 0.09390 0.42789
# Poissons Ratio (z) = 0.24185 0.50310
#
# Static dielectric constant tensor:
#      x y z
#    x 3.010800 0.000000 0.000000 
#    y 0.000000 3.424570 0.000000 
#    z 0.000000 0.000000 3.640050 
# 
# 
# High freq. dielectric constant tensor:
#      x y z
#    x 1.673380 0.000000 0.000000 
#    y 0.000000 1.703190 0.000000 
#    z 0.000000 0.000000 1.725200 
# 
# From -- ./inp_files/9789.got.cif
#   From: 2010.03.12/outbox.cif.g09.slc.cpg/sg46_5_cif.got.tgz:9789.got - 2010.04.14 02:56:35.
