data_PCOD8191589
_publ_section_title
;
Structure prediction by ZEFSAII (Michael W. Deem and Ramdas Pophale) SiO2 
 PCOD8191589
Probable space group: I M A 2
;
_chemical_formula_sum "Si O2"
_cell_formula_units_Z 28
_cell_length_a 5.328706
_cell_length_b 8.625592
_cell_length_c 28.250082
_cell_angle_alpha 90.000000
_cell_angle_beta 90.000000
_cell_angle_gamma 90.000000
_cell_volume 1298.465408
_symmetry_space_group_name_H-M "I M A 2"
_symmetry_group_IT_number 46
_symmetry_cell_setting 'orthorhombic'
loop_
_space_group_symop_operation_xyz
x,y,z
-x,-y,z
1/2-x,y,z
1/2+x,-y,z
1/2+x,1/2+y,1/2+z
1/2-x,1/2-y,1/2+z
-x,1/2+y,1/2+z
x,1/2-y,1/2+z
loop_
_atom_site_type_symbol
_atom_site_label
_atom_site_fract_x
_atom_site_fract_y
_atom_site_fract_z
Si Si1 0.750000 0.594663 0.596441
Si Si2 0.750000 0.931714 0.563184
Si Si3 0.750000 0.595955 0.705879
Si Si4 0.250000 0.185356 0.789796
Si Si5 0.750000 0.439121 0.957614
Si Si6 0.250000 0.651024 0.327992
Si Si7 0.250000 0.912581 0.938080
O O1 0.500000 0.500000 0.583582
O O2 0.750000 0.746993 0.564569
O O3 0.750000 0.644919 0.651206
O O4 0.500000 0.000000 0.588582
O O5 0.750000 0.983234 0.508934
O O6 0.500000 0.500000 0.718408
O O7 0.750000 0.754704 0.735944
O O8 0.499439 0.249886 0.816670
O O9 0.250000 0.998483 0.793059
O O10 0.500000 0.500000 0.930312
O O11 0.750000 0.255025 0.961898
O O12 0.250000 0.595488 0.381615
O O13 0.500000 0.000000 0.955820
#
# Coordination Sequence:
#
# PCOD8191589 Si02
#       7
#     4   4   4   4   4   4   4
#     4  10  21  40  65  92 121 168 208 249 301 377
#     4  10  21  42  63  89 131 153 198 258 315 370
#     4  10  21  37  56  84 126 155 199 245 297 358
#     4  10  18  35  54  82 114 153 192 250 283 339
#     4  10  23  43  61  89 129 156 193 266 317 368
#     4  10  19  35  58  78 115 150 204 242 282 350
#     4  12  21  40  67  88 120 165 212 258 301 368
#
# _framework density 21.563917
#
# number of rings (size 3 to 8) (size 9 to 14) (size 15 to 20)
#    0.000    1.714    2.857    2.571    0.000    0.000 
#    5.143   21.429    0.000    0.000    0.000    0.000 
#    0.000    0.000    0.000    0.000    0.000    0.000 
#
# Total GULP energy -173525.050943 kJ/mol
# GULP energy per Si atom -12394.646496 kJ/mol
# Density = 2.151484 g / cm^3
# Si number density = 21.563917 Si / 1000 Ang^3
#
#
#
# Elastic Constant Matrix: (Units=GPa)
#
#
# Indices 1 2 3 4 5 6 
#
# 1 255.8348 56.2684 18.1781 0.0000 0.0000 0.0000
# 2 56.2684 127.9739 49.3970 0.0000 0.0000 0.0000
# 3 18.1781 49.3970 53.7601 0.0000 0.0000 0.0000
# 4 0.0000 0.0000 0.0000 40.9578 0.0000 0.0000
# 5 0.0000 0.0000 0.0000 0.0000 2.6990 0.0000
# 6 0.0000 0.0000 0.0000 0.0000 0.0000 34.4142
#
#
#
# Elastic Compliance Matrix: (Units=1/GPa)
#
#
# Indices 1 2 3 4 5 6 
#
# 1 0.004334 -0.002076 0.000442 0.000000 0.000000 0.000000
# 2 -0.002076 0.013103 -0.011338 0.000000 0.000000 0.000000
# 3 0.000442 -0.011338 0.028869 0.000000 0.000000 0.000000
# 4 0.000000 0.000000 0.000000 0.024415 0.000000 0.000000
# 5 0.000000 0.000000 0.000000 0.000000 0.370512 0.000000
# 6 0.000000 0.000000 0.000000 0.000000 0.000000 0.029058
#
#
# Mechanical properties :
#
#
# Convention : Reuss Voigt Hill
#
# Bulk Modulus (GPa) = 49.10873 76.13952 62.62413
# Shear Modulus (GPa) = 9.93991 36.52921 23.23456
#
# Velocity S-wave (km/s) = 2.14931 4.12028 3.28605
# Velocity P-wave (km/s) = 5.38353 7.61716 6.59558
#
# Compressibility (1/GPa) = 0.02036298
#
# Stress axis : x y z
#
# Youngs Moduli (GPa) = 230.73291 76.31637 34.63899
#
# Poissons Ratio (x) = 0.15846 -0.01532
# Poissons Ratio (y) = 0.47908 0.39273
# Poissons Ratio (z) = -0.10207 0.86526
#
# Static dielectric constant tensor:
#      x y z
#    x 8.228270 0.000000 0.000000 
#    y 0.000000 3.604660 0.000000 
#    z 0.000000 0.000000 3.478850 
# 
# 
# High freq. dielectric constant tensor:
#      x y z
#    x 1.895130 0.000000 0.000000 
#    y 0.000000 1.823750 0.000000 
#    z 0.000000 0.000000 1.810780 
# 
# From -- ./inp_files/23962.got.cif
#   From: 2010.03.12/outbox.cif.g09.slc.cpg/sg46_12_cif.got.tgz:23962.got - 2010.04.14 02:56:35.
