data_PCOD8191262
_publ_section_title
;
Structure prediction by ZEFSAII (Michael W. Deem and Ramdas Pophale) SiO2 
 PCOD8191262
Probable space group: I M A 2
;
_chemical_formula_sum "Si O2"
_cell_formula_units_Z 64
_cell_length_a 8.949234
_cell_length_b 26.453506
_cell_length_c 18.689284
_cell_angle_alpha 90.000000
_cell_angle_beta 90.000000
_cell_angle_gamma 90.000000
_cell_volume 4424.475215
_symmetry_space_group_name_H-M "I M A 2"
_symmetry_group_IT_number 46
_symmetry_cell_setting 'orthorhombic'
loop_
_space_group_symop_operation_xyz
x,y,z
-x,-y,z
1/2-x,y,z
1/2+x,-y,z
1/2+x,1/2+y,1/2+z
1/2-x,1/2-y,1/2+z
-x,1/2+y,1/2+z
x,1/2-y,1/2+z
loop_
_atom_site_type_symbol
_atom_site_label
_atom_site_fract_x
_atom_site_fract_y
_atom_site_fract_z
Si Si1 0.927516 0.753079 0.838050
Si Si2 0.573370 0.448046 0.338934
Si Si3 0.913515 0.696586 0.126987
Si Si4 0.429503 0.254446 0.498066
Si Si5 0.426013 0.653457 0.576403
Si Si6 0.584658 0.803226 0.204794
Si Si7 0.924532 0.051079 0.002214
Si Si8 0.070650 0.145481 0.763667
O O1 0.750000 0.752882 0.834660
O O2 0.985652 0.742058 0.918134
O O3 0.983721 0.708523 0.784124
O O4 0.983464 0.808599 0.814451
O O5 0.500000 0.500000 0.312597
O O6 0.750000 0.451070 0.329459
O O7 0.525972 0.437055 0.420800
O O8 0.508330 0.404883 0.288691
O O9 0.750000 0.674843 0.109775
O O10 0.899616 0.749552 0.167217
O O11 0.989380 0.657012 0.182101
O O12 0.992103 0.709275 0.050462
O O13 0.250000 0.257974 0.503024
O O14 0.493980 0.308038 0.522674
O O15 0.250000 0.661914 0.570583
O O16 0.477030 0.660475 0.658852
O O17 0.473904 0.597416 0.552258
O O18 0.750000 0.828216 0.209780
O O19 0.750000 0.041778 0.005737
O O20 0.000000 0.000000 0.031123
O O21 0.250000 0.139976 0.765087
#
# Coordination Sequence:
#
# PCOD8191262 Si02
#       8
#     8   8   8   8   8   8   8   8
#     4   8  14  24  41  61  79 101 134 166 189 218
#     4  10  19  30  41  55  74  98 127 161 194 226
#     4   7  12  22  36  53  75 100 127 155 184 217
#     4   9  15  25  41  59  78 105 135 161 188 224
#     4  10  18  27  38  56  80 104 129 161 196 229
#     4   8  14  26  40  55  75 102 133 161 186 223
#     4   9  19  31  41  54  75  99 127 161 194 225
#     4   9  15  25  39  55  76 103 130 158 189 222
#
# _framework density 14.464993
#
# number of rings (size 3 to 8) (size 9 to 14) (size 15 to 20)
#    0.000    3.250    0.000    3.750    0.000    1.500 
#    0.000    6.250    0.000    0.000    0.000    0.000 
#    0.000    1.000    0.000    4.250    0.000    2.750 
#
# Total GULP energy -396419.203095 kJ/mol
# GULP energy per Si atom -12388.100097 kJ/mol
# Density = 1.443207 g / cm^3
# Si number density = 14.464993 Si / 1000 Ang^3
#
#
#
# Elastic Constant Matrix: (Units=GPa)
#
#
# Indices 1 2 3 4 5 6 
#
# 1 34.1532 28.2926 26.5257 0.0000 0.0000 0.0000
# 2 28.2926 88.9307 64.7157 0.0000 0.0000 0.0000
# 3 26.5257 64.7157 130.4286 -0.0005 0.0000 0.0000
# 4 0.0000 0.0000 -0.0005 24.3503 0.0000 0.0000
# 5 0.0000 0.0000 0.0000 0.0000 14.7667 0.0000
# 6 0.0000 0.0000 0.0000 0.0000 0.0000 19.9689
#
#
#
# Elastic Compliance Matrix: (Units=1/GPa)
#
#
# Indices 1 2 3 4 5 6 
#
# 1 0.040438 -0.010769 -0.002881 0.000000 0.000000 0.000000
# 2 -0.010769 0.020467 -0.007965 0.000000 0.000000 0.000000
# 3 -0.002881 -0.007965 0.012205 0.000000 0.000000 0.000000
# 4 0.000000 0.000000 0.000000 0.041067 0.000000 0.000000
# 5 0.000000 0.000000 0.000000 0.000000 0.067720 0.000000
# 6 0.000000 0.000000 0.000000 0.000000 0.000000 0.050078
#
#
# Mechanical properties :
#
#
# Convention : Reuss Voigt Hill
#
# Bulk Modulus (GPa) = 33.46633 54.73115 44.09874
# Shear Modulus (GPa) = 17.53371 20.74908 19.14139
#
# Velocity S-wave (km/s) = 3.48537 3.79150 3.64165
# Velocity P-wave (km/s) = 6.27562 7.55556 6.94513
#
# Compressibility (1/GPa) = 0.02988078
#
# Stress axis : x y z
#
# Youngs Moduli (GPa) = 24.72913 48.85911 81.93308
#
# Poissons Ratio (x) = 0.52615 0.23604
# Poissons Ratio (y) = 0.26630 0.65261
# Poissons Ratio (z) = 0.07124 0.38917
#
# Static dielectric constant tensor:
#      x y z
#    x 2.624000 0.000000 0.000000 
#    y 0.000000 2.655880 0.000000 
#    z 0.000000 0.000000 3.301940 
# 
# 
# High freq. dielectric constant tensor:
#      x y z
#    x 1.534040 0.000000 0.000000 
#    y 0.000000 1.519590 0.000000 
#    z 0.000000 0.000000 1.550860 
# 
# From -- ./inp_files/18677.got.cif
#   From: 2010.03.12/outbox.cif.g09.slc.cpg/sg46_10_cif.got.tgz:18677.got - 2010.04.14 02:56:35.
