data_PCOD8191684
_publ_section_title
;
Structure prediction by ZEFSAII (Michael W. Deem and Ramdas Pophale) SiO2 
 PCOD8191684
Probable space group: I M A 2
;
_chemical_formula_sum "Si O2"
_cell_formula_units_Z 56
_cell_length_a 8.741905
_cell_length_b 18.316588
_cell_length_c 20.433120
_cell_angle_alpha 90.000000
_cell_angle_beta 90.000000
_cell_angle_gamma 90.000000
_cell_volume 3271.789430
_symmetry_space_group_name_H-M "I M A 2"
_symmetry_group_IT_number 46
_symmetry_cell_setting 'orthorhombic'
loop_
_space_group_symop_operation_xyz
x,y,z
-x,-y,z
1/2-x,y,z
1/2+x,-y,z
1/2+x,1/2+y,1/2+z
1/2-x,1/2-y,1/2+z
-x,1/2+y,1/2+z
x,1/2-y,1/2+z
loop_
_atom_site_type_symbol
_atom_site_label
_atom_site_fract_x
_atom_site_fract_y
_atom_site_fract_z
Si Si1 0.569139 0.847810 0.021020
Si Si2 0.427716 0.421516 0.133879
Si Si3 0.419221 0.717530 0.716094
Si Si4 0.431482 0.576904 0.646014
Si Si5 0.425961 0.151603 0.772583
Si Si6 0.430265 0.579897 0.395458
Si Si7 0.420393 0.710752 0.074869
O O1 0.750000 0.854138 0.024067
O O2 0.500183 0.900103 0.076422
O O3 0.520010 0.763565 0.028971
O O4 0.508598 0.873017 0.951391
O O5 0.500000 0.500000 0.124989
O O6 0.250000 0.426038 0.119119
O O7 0.460094 0.392956 0.206770
O O8 0.501255 0.368285 0.079705
O O9 0.250000 0.718012 0.748145
O O10 0.476449 0.634593 0.703387
O O11 0.534752 0.762522 0.762250
O O12 0.411166 0.754620 0.645913
O O13 0.500000 0.500000 0.668323
O O14 0.250000 0.572646 0.637707
O O15 0.250000 0.144865 0.794319
O O16 0.536464 0.118469 0.826729
O O17 0.500000 0.500000 0.394945
O O18 0.250000 0.575142 0.407127
O O19 0.250000 0.702543 0.045264
#
# Coordination Sequence:
#
# PCOD8191684 Si02
#       7
#     8   8   8   8   8   8   8
#     4  11  21  34  50  69  96 128 163 199 238 284
#     4  10  19  30  47  72 100 129 160 198 243 287
#     4   8  16  30  47  67  93 125 158 194 236 283
#     4  10  19  31  48  72 100 128 160 197 241 286
#     4  10  20  33  49  70  96 127 163 199 237 282
#     4  12  24  37  51  69  96 129 165 200 236 278
#     4   9  17  31  49  69  94 124 159 197 239 286
#
# _framework density 17.116015999999998
#
# number of rings (size 3 to 8) (size 9 to 14) (size 15 to 20)
#    0.000    2.000    0.000    6.000    0.000    6.857 
#    0.000    0.000    0.000    0.000    0.000    1.000 
#    0.000    2.286    0.000    0.000    0.000    0.000 
#
# Total GULP energy -347200.489450 kJ/mol
# GULP energy per Si atom -12400.017480 kJ/mol
# Density = 1.707706 g / cm^3
# Si number density = 17.116016 Si / 1000 Ang^3
#
#
#
# Elastic Constant Matrix: (Units=GPa)
#
#
# Indices 1 2 3 4 5 6 
#
# 1 115.3380 62.7966 33.4170 0.0000 0.0000 0.0000
# 2 62.7966 151.6966 38.9561 0.0000 0.0000 0.0000
# 3 33.4170 38.9561 40.3285 0.0000 0.0000 0.0000
# 4 0.0000 0.0000 0.0000 25.0629 0.0000 0.0000
# 5 0.0000 0.0000 0.0000 0.0000 24.1940 0.0000
# 6 0.0000 0.0000 0.0000 0.0000 0.0000 36.1826
#
#
#
# Elastic Compliance Matrix: (Units=1/GPa)
#
#
# Indices 1 2 3 4 5 6 
#
# 1 0.012581 -0.003366 -0.007174 0.000000 0.000000 0.000000
# 2 -0.003366 0.009667 -0.006549 0.000000 0.000000 0.000000
# 3 -0.007174 -0.006549 0.037067 0.000000 0.000000 0.000000
# 4 0.000000 0.000000 0.000000 0.039900 0.000000 0.000000
# 5 0.000000 0.000000 0.000000 0.000000 0.041333 0.000000
# 6 0.000000 0.000000 0.000000 0.000000 0.000000 0.027638
#
#
# Mechanical properties :
#
#
# Convention : Reuss Voigt Hill
#
# Bulk Modulus (GPa) = 39.78073 64.18916 51.98494
# Shear Modulus (GPa) = 23.72567 28.56747 26.14657
#
# Velocity S-wave (km/s) = 3.72717 4.08983 3.91270
# Velocity P-wave (km/s) = 6.46642 7.73861 7.13094
#
# Compressibility (1/GPa) = 0.02513780
#
# Stress axis : x y z
#
# Youngs Moduli (GPa) = 79.48358 103.44113 26.97819
#
# Poissons Ratio (x) = 0.34817 0.19353
# Poissons Ratio (y) = 0.26754 0.17669
# Poissons Ratio (z) = 0.57019 0.67746
#
# Static dielectric constant tensor:
#      x y z
#    x 3.391030 0.000000 0.000000 
#    y 0.000000 3.498920 0.000000 
#    z 0.000000 0.000000 2.989120 
# 
# 
# High freq. dielectric constant tensor:
#      x y z
#    x 1.679510 0.000000 0.000000 
#    y 0.000000 1.667860 0.000000 
#    z 0.000000 0.000000 1.615400 
# 
# From -- ./inp_files/21231.got.cif
#   From: 2010.03.12/outbox.cif.g09.slc.cpg/sg46_11_cif.got.tgz:21231.got - 2010.04.14 02:56:35.
