data_PCOD8191267
_publ_section_title
;
Structure prediction by ZEFSAII (Michael W. Deem and Ramdas Pophale) SiO2 
 PCOD8191267
Probable space group: I M A 2
;
_chemical_formula_sum "Si O2"
_cell_formula_units_Z 64
_cell_length_a 8.886573
_cell_length_b 18.500459
_cell_length_c 26.762279
_cell_angle_alpha 90.000000
_cell_angle_beta 90.000000
_cell_angle_gamma 90.000000
_cell_volume 4399.870662
_symmetry_space_group_name_H-M "I M A 2"
_symmetry_group_IT_number 46
_symmetry_cell_setting 'orthorhombic'
loop_
_space_group_symop_operation_xyz
x,y,z
-x,-y,z
1/2-x,y,z
1/2+x,-y,z
1/2+x,1/2+y,1/2+z
1/2-x,1/2-y,1/2+z
-x,1/2+y,1/2+z
x,1/2-y,1/2+z
loop_
_atom_site_type_symbol
_atom_site_label
_atom_site_fract_x
_atom_site_fract_y
_atom_site_fract_z
Si Si1 0.573485 0.794391 0.053410
Si Si2 0.926927 0.424589 0.909360
Si Si3 0.924532 0.158246 0.204095
Si Si4 0.928470 0.424278 0.797662
Si Si5 0.922942 0.284824 0.141499
Si Si6 0.429070 0.578072 0.604272
Si Si7 0.921337 0.074626 0.593301
Si Si8 0.572138 0.329172 0.000496
O O1 0.750000 0.807044 0.046671
O O2 0.539365 0.747236 0.102221
O O3 0.490792 0.871701 0.059121
O O4 0.509189 0.748519 0.006390
O O5 0.750000 0.436422 0.912379
O O6 0.979024 0.401373 0.853551
O O7 0.978039 0.361887 0.947284
O O8 0.000000 0.500000 0.925603
O O9 0.750000 0.141923 0.208061
O O10 0.993829 0.133733 0.257351
O O11 0.955092 0.244381 0.194394
O O12 0.985794 0.111566 0.157209
O O13 0.750000 0.431904 0.795559
O O14 0.000000 0.500000 0.782391
O O15 0.750000 0.266401 0.124592
O O16 0.943453 0.371735 0.141526
O O17 0.500000 0.500000 0.597647
O O18 0.250000 0.573594 0.600993
O O19 0.750000 0.054407 0.584612
O O20 0.981961 0.114887 0.543663
O O21 0.000000 0.000000 0.605332
O O22 0.750000 0.316661 0.004237
#
# Coordination Sequence:
#
# PCOD8191267 Si02
#       8
#     8   8   8   8   8   8   8   8
#     4  10  18  27  40  58  76  98 129 164 196 230
#     4   9  17  27  40  57  79 104 132 165 199 230
#     4   8  14  25  41  56  75 104 135 162 192 227
#     4   9  16  26  39  57  78 102 131 164 195 226
#     4   8  15  28  40  52  74 104 130 157 194 234
#     4  10  18  28  41  58  81 108 134 162 193 230
#     4   9  16  24  36  52  72  97 126 155 188 227
#     4   9  17  29  40  52  74 105 132 157 192 232
#
# _framework density 14.545882000000001
#
# number of rings (size 3 to 8) (size 9 to 14) (size 15 to 20)
#    0.000    3.000    0.000    3.750    0.000    2.500 
#    0.000    2.500    0.000    0.000    0.000    0.000 
#    0.000    1.000    0.000    4.000    0.000    2.125 
#
# Total GULP energy -396447.784584 kJ/mol
# GULP energy per Si atom -12388.993268 kJ/mol
# Density = 1.451277 g / cm^3
# Si number density = 14.545882 Si / 1000 Ang^3
#
#
#
# Elastic Constant Matrix: (Units=GPa)
#
#
# Indices 1 2 3 4 5 6 
#
# 1 43.6076 32.8603 20.6142 0.0000 0.0000 0.0000
# 2 32.8603 115.8642 60.0238 0.0000 0.0000 0.0000
# 3 20.6142 60.0238 87.5949 0.0000 0.0000 0.0000
# 4 0.0000 0.0000 0.0000 27.5593 0.0000 0.0000
# 5 0.0000 0.0000 0.0000 0.0000 11.0329 0.0000
# 6 0.0000 0.0000 0.0000 0.0000 0.0000 24.7721
#
#
#
# Elastic Compliance Matrix: (Units=1/GPa)
#
#
# Indices 1 2 3 4 5 6 
#
# 1 0.029360 -0.007360 -0.001866 0.000000 0.000000 0.000000
# 2 -0.007360 0.015226 -0.008701 0.000000 0.000000 0.000000
# 3 -0.001866 -0.008701 0.017818 0.000000 0.000000 0.000000
# 4 0.000000 0.000000 0.000000 0.036285 0.000000 0.000000
# 5 0.000000 0.000000 0.000000 0.000000 0.090638 0.000000
# 6 0.000000 0.000000 0.000000 0.000000 0.000000 0.040368
#
#
# Mechanical properties :
#
#
# Convention : Reuss Voigt Hill
#
# Bulk Modulus (GPa) = 37.66636 52.67372 45.17004
# Shear Modulus (GPa) = 18.22158 21.57742 19.89950
#
# Velocity S-wave (km/s) = 3.54319 3.85568 3.70273
# Velocity P-wave (km/s) = 6.53376 7.49082 7.02860
#
# Compressibility (1/GPa) = 0.02654889
#
# Stress axis : x y z
#
# Youngs Moduli (GPa) = 34.05984 65.67716 56.12337
#
# Poissons Ratio (x) = 0.48339 0.10473
# Poissons Ratio (y) = 0.25069 0.48835
# Poissons Ratio (z) = 0.06356 0.57148
#
# Static dielectric constant tensor:
#      x y z
#    x 2.704960 0.000000 0.000000 
#    y 0.000000 2.955590 0.000000 
#    z 0.000000 0.000000 2.935760 
# 
# 
# High freq. dielectric constant tensor:
#      x y z
#    x 1.548600 0.000000 0.000000 
#    y 0.000000 1.547600 0.000000 
#    z 0.000000 0.000000 1.524240 
# 
# From -- ./inp_files/24393.got.cif
#   From: 2010.03.12/outbox.cif.g09.slc.cpg/sg46_13_cif.got.tgz:24393.got - 2010.04.14 02:56:35.
