data_PCOD8191216
_publ_section_title
;
Structure prediction by ZEFSAII (Michael W. Deem and Ramdas Pophale) SiO2 
 PCOD8191216
Probable space group: I M A 2
;
_chemical_formula_sum "Si O2"
_cell_formula_units_Z 64
_cell_length_a 22.140492
_cell_length_b 15.387167
_cell_length_c 9.318797
_cell_angle_alpha 90.000000
_cell_angle_beta 90.000000
_cell_angle_gamma 90.000000
_cell_volume 3174.722617
_symmetry_space_group_name_H-M "I M A 2"
_symmetry_group_IT_number 46
_symmetry_cell_setting 'orthorhombic'
loop_
_space_group_symop_operation_xyz
x,y,z
-x,-y,z
1/2-x,y,z
1/2+x,-y,z
1/2+x,1/2+y,1/2+z
1/2-x,1/2-y,1/2+z
-x,1/2+y,1/2+z
x,1/2-y,1/2+z
loop_
_atom_site_type_symbol
_atom_site_label
_atom_site_fract_x
_atom_site_fract_y
_atom_site_fract_z
Si Si1 0.820824 0.519599 0.500000
Si Si2 0.318777 0.790325 0.219903
Si Si3 0.378256 0.355092 0.855448
Si Si4 0.121631 0.190984 0.034688
Si Si5 0.866532 0.149142 0.916675
Si Si6 0.869513 0.463812 0.797589
Si Si7 0.982559 0.202842 0.037832
Si Si8 0.482318 0.641198 0.847835
O O1 0.750000 0.517837 0.539844
O O2 0.840675 0.616261 0.450339
O O3 0.836484 0.445306 0.382231
O O4 0.864204 0.493384 0.632186
O O5 0.250000 0.763089 0.234595
O O6 0.357973 0.710535 0.279527
O O7 0.329896 0.876953 0.317902
O O8 0.334595 0.806851 0.054773
O O9 0.359571 0.286446 0.977143
O O10 0.361457 0.311755 0.702559
O O11 0.346148 0.449427 0.883387
O O12 0.447956 0.384331 0.852211
O O13 0.051067 0.175926 0.001246
O O14 0.937821 0.138241 0.951573
O O15 0.939020 0.442766 0.841248
O O16 0.967854 0.300973 0.987575
O O17 0.968880 0.199240 0.206544
#
# Coordination Sequence:
#
# PCOD8191216 Si02
#       8
#     8   8   8   8   8   8   8   8
#     4  10  20  35  53  77 105 141 183 223 263 316
#     4  11  21  33  50  76 108 140 171 210 255 315
#     4   9  19  33  55  76 102 139 170 223 271 316
#     4   9  20  35  55  77 106 133 178 226 272 314
#     4  11  19  34  53  76 105 138 174 212 261 316
#     4  10  17  31  52  77 102 134 179 212 255 316
#     4  10  17  31  52  81 108 139 173 214 267 319
#     4  10  17  30  51  79 111 136 174 211 263 322
#
# _framework density 20.159241999999999
#
# number of rings (size 3 to 8) (size 9 to 14) (size 15 to 20)
#    0.000    2.000    3.750    2.625    0.000    0.500 
#    0.000    4.375    0.000    0.000    0.000    0.000 
#    0.000    0.000    0.000    0.000    0.000    0.000 
#
# Total GULP energy -396480.080839 kJ/mol
# GULP energy per Si atom -12390.002526 kJ/mol
# Density = 2.011336 g / cm^3
# Si number density = 20.159242 Si / 1000 Ang^3
#
#
#
# Elastic Constant Matrix: (Units=GPa)
#
#
# Indices 1 2 3 4 5 6 
#
# 1 36.1495 8.5348 -1.8634 0.0000 0.0000 0.0000
# 2 8.5348 128.9588 27.9703 0.0000 0.0000 0.0000
# 3 -1.8634 27.9703 37.9034 0.0000 0.0000 0.0000
# 4 0.0000 0.0000 0.0000 27.8095 0.0000 0.0000
# 5 0.0000 0.0000 0.0000 0.0000 13.4312 0.0000
# 6 0.0000 0.0000 0.0000 0.0000 0.0000 26.8859
#
#
#
# Elastic Compliance Matrix: (Units=1/GPa)
#
#
# Indices 1 2 3 4 5 6 
#
# 1 0.028448 -0.002603 0.003319 0.000000 0.000000 0.000000
# 2 -0.002603 0.009470 -0.007116 0.000000 0.000000 0.000000
# 3 0.003319 -0.007116 0.031797 0.000000 0.000000 0.000000
# 4 0.000000 0.000000 0.000000 0.035959 0.000000 0.000000
# 5 0.000000 0.000000 0.000000 0.000000 0.074454 0.000000
# 6 0.000000 0.000000 0.000000 0.000000 0.000000 0.037194
#
#
# Mechanical properties :
#
#
# Convention : Reuss Voigt Hill
#
# Bulk Modulus (GPa) = 17.56962 30.25501 23.91232
# Shear Modulus (GPa) = 20.07268 24.84997 22.46133
#
# Velocity S-wave (km/s) = 3.15890 3.51477 3.34158
# Velocity P-wave (km/s) = 4.69460 5.61356 5.17452
#
# Compressibility (1/GPa) = 0.05691642
#
# Stress axis : x y z
#
# Youngs Moduli (GPa) = 35.15125 105.59491 31.44910
#
# Poissons Ratio (x) = 0.27483 -0.10439
# Poissons Ratio (y) = 0.09149 0.22380
# Poissons Ratio (z) = -0.11667 0.75145
#
# Static dielectric constant tensor:
#      x y z
#    x 3.704470 0.000000 0.000000 
#    y 0.000000 3.987720 0.000000 
#    z 0.000000 0.000000 3.323630 
# 
# 
# High freq. dielectric constant tensor:
#      x y z
#    x 1.781480 0.000000 0.000000 
#    y 0.000000 1.792450 0.000000 
#    z 0.000000 0.000000 1.740050 
# 
# From -- ./inp_files/12839.got.cif
#   From: 2010.03.12/outbox.cif.g09.slc.cpg/sg46_7_cif.got.tgz:12839.got - 2010.04.14 02:56:35.
