data_PCOD8191842
_publ_section_title
;
Structure prediction by ZEFSAII (Michael W. Deem and Ramdas Pophale) SiO2 
 PCOD8191842
Probable space group: I M A 2
;
_chemical_formula_sum "Si O2"
_cell_formula_units_Z 64
_cell_length_a 9.320903
_cell_length_b 27.380232
_cell_length_c 14.465474
_cell_angle_alpha 90.000000
_cell_angle_beta 90.000000
_cell_angle_gamma 90.000000
_cell_volume 3691.711727
_symmetry_space_group_name_H-M "I M A 2"
_symmetry_group_IT_number 46
_symmetry_cell_setting 'orthorhombic'
loop_
_space_group_symop_operation_xyz
x,y,z
-x,-y,z
1/2-x,y,z
1/2+x,-y,z
1/2+x,1/2+y,1/2+z
1/2-x,1/2-y,1/2+z
-x,1/2+y,1/2+z
x,1/2-y,1/2+z
loop_
_atom_site_type_symbol
_atom_site_label
_atom_site_fract_x
_atom_site_fract_y
_atom_site_fract_z
Si Si1 0.085499 0.281954 0.545510
Si Si2 0.917780 0.217640 0.225901
Si Si3 0.916614 0.643281 0.844958
Si Si4 0.412833 0.330631 0.046956
Si Si5 0.417311 0.361357 0.399019
Si Si6 0.082627 0.452045 0.735172
Si Si7 0.416911 0.047574 0.023352
Si Si8 0.582772 0.331514 0.225458
O O1 0.250000 0.292578 0.573930
O O2 0.058235 0.225728 0.521416
O O3 0.043726 0.312419 0.455000
O O4 0.986923 0.299796 0.629724
O O5 0.750000 0.206401 0.222767
O O6 0.950087 0.274598 0.241941
O O7 0.989373 0.188245 0.309094
O O8 0.750000 0.654292 0.823035
O O9 0.968077 0.593340 0.797314
O O10 0.942022 0.637991 0.954833
O O11 0.250000 0.337428 0.081962
O O12 0.518406 0.348715 0.127343
O O13 0.250000 0.363077 0.373503
O O14 0.464290 0.407317 0.460456
O O15 0.508344 0.362754 0.305524
O O16 0.250000 0.462255 0.747725
O O17 0.042930 0.439856 0.629175
O O18 0.000000 0.500000 0.769905
O O19 0.250000 0.036431 0.013650
O O20 0.500000 0.000000 0.988097
O O21 0.750000 0.343284 0.224934
#
# Coordination Sequence:
#
# PCOD8191842 Si02
#       8
#     8   8   8   8   8   8   8   8
#     4   9  17  30  48  70  97 128 163 202 240 282
#     4  10  20  31  45  70 103 134 162 196 241 290
#     4  10  19  32  52  74  96 127 167 205 239 282
#     4   9  18  32  50  70  93 127 168 205 240 280
#     4  10  19  32  52  74  95 125 166 205 240 284
#     4   9  18  33  52  75 102 127 153 190 238 290
#     4   9  18  32  50  73 100 127 154 190 238 289
#     4  10  21  34  47  68 100 133 163 201 246 287
#
# _framework density 17.336130000000001
#
# number of rings (size 3 to 8) (size 9 to 14) (size 15 to 20)
#    0.000    2.500    0.000    2.250    0.000    6.500 
#    0.000    5.000    0.000    0.750    0.000    1.750 
#    0.000    0.000    0.000    0.000    0.000    0.000 
#
# Total GULP energy -396904.201249 kJ/mol
# GULP energy per Si atom -12403.256289 kJ/mol
# Density = 1.729667 g / cm^3
# Si number density = 17.336130 Si / 1000 Ang^3
#
#
#
# Elastic Constant Matrix: (Units=GPa)
#
#
# Indices 1 2 3 4 5 6 
#
# 1 69.0277 38.2820 53.8770 -0.0001 0.0000 0.0000
# 2 38.2820 73.1210 54.3372 0.0001 0.0000 0.0000
# 3 53.8770 54.3372 114.4301 0.0007 0.0000 0.0000
# 4 -0.0001 0.0001 0.0007 25.6432 0.0000 0.0000
# 5 0.0000 0.0000 0.0000 0.0000 19.9936 0.0000
# 6 0.0000 0.0000 0.0000 0.0000 0.0000 26.4682
#
#
#
# Elastic Compliance Matrix: (Units=1/GPa)
#
#
# Indices 1 2 3 4 5 6 
#
# 1 0.024843 -0.006667 -0.008531 0.000000 0.000000 0.000000
# 2 -0.006667 0.022922 -0.007746 0.000000 0.000000 0.000000
# 3 -0.008531 -0.007746 0.016434 0.000000 0.000000 0.000000
# 4 0.000000 0.000000 0.000000 0.038997 0.000000 0.000000
# 5 0.000000 0.000000 0.000000 0.000000 0.050016 0.000000
# 6 0.000000 0.000000 0.000000 0.000000 0.000000 0.037781
#
#
# Mechanical properties :
#
#
# Convention : Reuss Voigt Hill
#
# Bulk Modulus (GPa) = 54.60985 61.06347 57.83666
# Shear Modulus (GPa) = 20.57752 21.75984 21.16868
#
# Velocity S-wave (km/s) = 3.44898 3.54669 3.49818
# Velocity P-wave (km/s) = 6.88692 7.21607 7.05341
#
# Compressibility (1/GPa) = 0.01831171
#
# Stress axis : x y z
#
# Youngs Moduli (GPa) = 40.25305 43.62569 60.85081
#
# Poissons Ratio (x) = 0.29085 0.51912
# Poissons Ratio (y) = 0.26836 0.47133
# Poissons Ratio (z) = 0.34340 0.33791
#
# Static dielectric constant tensor:
#      x y z
#    x 3.187290 0.000000 0.000000 
#    y 0.000000 3.086600 0.000000 
#    z 0.000000 0.000000 3.188480 
# 
# 
# High freq. dielectric constant tensor:
#      x y z
#    x 1.667700 0.000000 0.000000 
#    y 0.000000 1.646760 0.000000 
#    z 0.000000 0.000000 1.667360 
# 
# From -- ./inp_files/14497.got.cif
#   From: 2010.03.12/outbox.cif.g09.slc.cpg/sg46_8_cif.got.tgz:14497.got - 2010.04.14 02:56:35.
