data_PCOD8191297
_publ_section_title
;
Structure prediction by ZEFSAII (Michael W. Deem and Ramdas Pophale) SiO2 
 PCOD8191297
Probable space group: I M A 2
;
_chemical_formula_sum "Si O2"
_cell_formula_units_Z 64
_cell_length_a 8.675269
_cell_length_b 18.420741
_cell_length_c 26.349762
_cell_angle_alpha 90.000000
_cell_angle_beta 90.000000
_cell_angle_gamma 90.000000
_cell_volume 4210.820643
_symmetry_space_group_name_H-M "I M A 2"
_symmetry_group_IT_number 46
_symmetry_cell_setting 'orthorhombic'
loop_
_space_group_symop_operation_xyz
x,y,z
-x,-y,z
1/2-x,y,z
1/2+x,-y,z
1/2+x,1/2+y,1/2+z
1/2-x,1/2-y,1/2+z
-x,1/2+y,1/2+z
x,1/2-y,1/2+z
loop_
_atom_site_type_symbol
_atom_site_label
_atom_site_fract_x
_atom_site_fract_y
_atom_site_fract_z
Si Si1 0.566816 0.578876 0.939110
Si Si2 0.933598 0.922235 0.626700
Si Si3 0.080044 0.288655 0.186766
Si Si4 0.069709 0.660489 0.733679
Si Si5 0.932564 0.339828 0.031886
Si Si6 0.067065 0.579113 0.634283
Si Si7 0.433897 0.578075 0.831946
Si Si8 0.922978 0.706647 0.580772
O O1 0.500000 0.500000 0.952805
O O2 0.750000 0.574275 0.939067
O O3 0.506458 0.605501 0.884449
O O4 0.508349 0.637410 0.979093
O O5 0.750000 0.923532 0.619123
O O6 0.980064 0.869801 0.674040
O O7 0.009109 0.894891 0.574839
O O8 0.000000 0.000000 0.641160
O O9 0.250000 0.291739 0.210792
O O10 0.082839 0.247638 0.133715
O O11 0.974259 0.245196 0.226508
O O12 0.250000 0.653599 0.731952
O O13 0.003024 0.610898 0.687880
O O14 0.009143 0.632621 0.787845
O O15 0.750000 0.344949 0.028451
O O16 0.982693 0.256761 0.041663
O O17 0.250000 0.576368 0.633337
O O18 0.000000 0.500000 0.625625
O O19 0.008740 0.629859 0.588141
O O20 0.500000 0.500000 0.817157
O O21 0.250000 0.574043 0.836903
O O22 0.750000 0.693594 0.560062
#
# Coordination Sequence:
#
# PCOD8191297 Si02
#       8
#     8   8   8   8   8   8   8   8
#     4  11  21  33  46  62  84 112 144 180 216 252
#     4  10  19  30  43  63  87 114 145 178 212 252
#     4   8  16  28  42  59  82 109 140 174 210 249
#     4   9  18  29  43  61  84 113 146 178 213 253
#     4  11  20  31  46  63  84 113 144 177 214 256
#     4  10  18  28  42  63  88 117 148 179 214 254
#     4  10  19  31  44  62  85 111 143 180 215 250
#     4   9  17  30  44  61  84 111 142 178 213 252
#
# _framework density 15.198937000000001
#
# number of rings (size 3 to 8) (size 9 to 14) (size 15 to 20)
#    0.000    2.250    0.000    6.000    0.000    5.000 
#    0.000    0.000    0.000    0.000    0.000    0.000 
#    0.000    1.000    0.000    7.000    0.000    6.125 
#
# Total GULP energy -396719.179557 kJ/mol
# GULP energy per Si atom -12397.474361 kJ/mol
# Density = 1.516434 g / cm^3
# Si number density = 15.198937 Si / 1000 Ang^3
#
#
#
# Elastic Constant Matrix: (Units=GPa)
#
#
# Indices 1 2 3 4 5 6 
#
# 1 91.2553 38.1910 37.0522 0.0000 0.0000 0.0000
# 2 38.1910 115.8494 58.1734 0.0000 0.0000 0.0000
# 3 37.0522 58.1734 85.8456 0.0000 0.0000 0.0000
# 4 0.0000 0.0000 0.0000 26.2914 0.0000 0.0000
# 5 0.0000 0.0000 0.0000 0.0000 21.3363 0.0000
# 6 0.0000 0.0000 0.0000 0.0000 0.0000 28.2045
#
#
#
# Elastic Compliance Matrix: (Units=1/GPa)
#
#
# Indices 1 2 3 4 5 6 
#
# 1 0.013694 -0.002344 -0.004322 0.000000 0.000000 0.000000
# 2 -0.002344 0.013485 -0.008127 0.000000 0.000000 0.000000
# 3 -0.004322 -0.008127 0.019021 0.000000 0.000000 0.000000
# 4 0.000000 0.000000 0.000000 0.038035 0.000000 0.000000
# 5 0.000000 0.000000 0.000000 0.000000 0.046868 0.000000
# 6 0.000000 0.000000 0.000000 0.000000 0.000000 0.035455
#
#
# Mechanical properties :
#
#
# Convention : Reuss Voigt Hill
#
# Bulk Modulus (GPa) = 60.18591 62.19818 61.19205
# Shear Modulus (GPa) = 24.79120 25.80200 25.29660
#
# Velocity S-wave (km/s) = 4.04309 4.12469 4.08409
# Velocity P-wave (km/s) = 7.84093 7.98095 7.91125
#
# Compressibility (1/GPa) = 0.01661518
#
# Stress axis : x y z
#
# Youngs Moduli (GPa) = 73.02361 74.15406 52.57240
#
# Poissons Ratio (x) = 0.17382 0.22723
# Poissons Ratio (y) = 0.17117 0.42724
# Poissons Ratio (z) = 0.31562 0.60263
#
# Static dielectric constant tensor:
#      x y z
#    x 3.061070 0.000000 0.000000 
#    y 0.000000 3.065450 0.000000 
#    z 0.000000 0.000000 2.851370 
# 
# 
# High freq. dielectric constant tensor:
#      x y z
#    x 1.598690 0.000000 0.000000 
#    y 0.000000 1.572930 0.000000 
#    z 0.000000 0.000000 1.548170 
# 
# From -- ./inp_files/23298.got.cif
#   From: 2010.03.12/outbox.cif.g09.slc.cpg/sg46_12_cif.got.tgz:23298.got - 2010.04.14 02:56:35.
