data_PCOD8191509
_publ_section_title
;
Structure prediction by ZEFSAII (Michael W. Deem and Ramdas Pophale) SiO2 
 PCOD8191509
Probable space group: I M A 2
;
_chemical_formula_sum "Si O2"
_cell_formula_units_Z 64
_cell_length_a 8.749865
_cell_length_b 13.709858
_cell_length_c 28.667399
_cell_angle_alpha 90.000000
_cell_angle_beta 90.000000
_cell_angle_gamma 90.000000
_cell_volume 3438.924175
_symmetry_space_group_name_H-M "I M A 2"
_symmetry_group_IT_number 46
_symmetry_cell_setting 'orthorhombic'
loop_
_space_group_symop_operation_xyz
x,y,z
-x,-y,z
1/2-x,y,z
1/2+x,-y,z
1/2+x,1/2+y,1/2+z
1/2-x,1/2-y,1/2+z
-x,1/2+y,1/2+z
x,1/2-y,1/2+z
loop_
_atom_site_type_symbol
_atom_site_label
_atom_site_fract_x
_atom_site_fract_y
_atom_site_fract_z
Si Si1 0.068762 0.894210 0.706950
Si Si2 0.070280 0.778228 0.362994
Si Si3 0.072031 0.395265 0.414442
Si Si4 0.071392 0.221927 0.006528
Si Si5 0.075938 0.285390 0.669249
Si Si6 0.076838 0.250580 0.270049
Si Si7 0.068986 0.605312 0.952995
Si Si8 0.930495 0.395957 0.588340
O O1 0.250000 0.898968 0.704847
O O2 0.004284 0.821754 0.666291
O O3 0.013255 0.851306 0.757255
O O4 0.000000 0.000000 0.698230
O O5 0.250000 0.773327 0.359163
O O6 0.018815 0.856997 0.401683
O O7 0.006943 0.672409 0.376146
O O8 0.001234 0.806971 0.312774
O O9 0.250000 0.399382 0.403511
O O10 0.038525 0.356109 0.466126
O O11 0.000000 0.500000 0.409683
O O12 0.250000 0.234924 0.016257
O O13 0.000422 0.325533 0.992641
O O14 0.988438 0.186050 0.052924
O O15 0.250000 0.278120 0.650790
O O16 0.072867 0.318703 0.723894
O O17 0.983211 0.365008 0.639941
O O18 0.250000 0.277912 0.283477
O O19 0.250000 0.603272 0.958219
O O20 0.000000 0.500000 0.961013
O O21 0.750000 0.404608 0.586178
O O22 0.000000 0.500000 0.574639
#
# Coordination Sequence:
#
# PCOD8191509 Si02
#       8
#     8   8   8   8   8   8   8   8
#     4  10  18  32  54  80 110 147 188 230 280 335
#     4  10  20  34  54  80 112 148 189 237 282 334
#     4  10  20  33  51  77 111 148 186 228 279 335
#     4  10  21  38  60  85 115 149 185 233 285 338
#     4   9  20  38  57  81 113 149 190 238 287 339
#     4   9  19  34  54  78 110 147 187 234 282 331
#     4  10  21  38  60  86 115 151 192 233 283 340
#     4  12  24  39  62  89 117 151 189 232 282 341
#
# _framework density 18.610472999999999
#
# number of rings (size 3 to 8) (size 9 to 14) (size 15 to 20)
#    0.750    1.250    0.000    4.500    0.000    4.500 
#    0.000    3.750    0.000    1.500    0.000    0.000 
#    0.000    0.000    0.000    0.000    0.000    0.000 
#
# Total GULP energy -396738.428121 kJ/mol
# GULP energy per Si atom -12398.075879 kJ/mol
# Density = 1.856811 g / cm^3
# Si number density = 18.610473 Si / 1000 Ang^3
#
#
#
# Elastic Constant Matrix: (Units=GPa)
#
#
# Indices 1 2 3 4 5 6 
#
# 1 134.6223 51.4168 46.7991 0.0000 0.0000 0.0000
# 2 51.4168 110.8657 47.3384 0.0000 0.0000 0.0000
# 3 46.7991 47.3384 91.4155 0.0000 0.0000 0.0000
# 4 0.0000 0.0000 0.0000 20.7811 0.0000 0.0000
# 5 0.0000 0.0000 0.0000 0.0000 32.0286 0.0000
# 6 0.0000 0.0000 0.0000 0.0000 0.0000 31.4575
#
#
#
# Elastic Compliance Matrix: (Units=1/GPa)
#
#
# Indices 1 2 3 4 5 6 
#
# 1 0.009794 -0.003083 -0.003417 0.000000 0.000000 0.000000
# 2 -0.003083 0.012551 -0.004921 0.000000 0.000000 0.000000
# 3 -0.003417 -0.004921 0.015237 0.000000 0.000000 0.000000
# 4 0.000000 0.000000 0.000000 0.048121 0.000000 0.000000
# 5 0.000000 0.000000 0.000000 0.000000 0.031222 0.000000
# 6 0.000000 0.000000 0.000000 0.000000 0.000000 0.031789
#
#
# Mechanical properties :
#
#
# Convention : Reuss Voigt Hill
#
# Bulk Modulus (GPa) = 67.84801 69.77914 68.81357
# Shear Modulus (GPa) = 28.33364 29.61004 28.97184
#
# Velocity S-wave (km/s) = 3.90610 3.99311 3.94985
# Velocity P-wave (km/s) = 7.54185 7.67046 7.60643
#
# Compressibility (1/GPa) = 0.01473883
#
# Stress axis : x y z
#
# Youngs Moduli (GPa) = 102.10733 79.67523 65.63042
#
# Poissons Ratio (x) = 0.24563 0.22428
# Poissons Ratio (y) = 0.31479 0.32297
# Poissons Ratio (z) = 0.34893 0.39209
#
# Static dielectric constant tensor:
#      x y z
#    x 3.544180 0.000000 0.000000 
#    y 0.000000 3.243670 0.000000 
#    z 0.000000 0.000000 3.409210 
# 
# 
# High freq. dielectric constant tensor:
#      x y z
#    x 1.743230 0.000000 0.000000 
#    y 0.000000 1.703980 0.000000 
#    z 0.000000 0.000000 1.714220 
# 
# From -- ./inp_files/25210.got.cif
#   From: 2010.03.12/outbox.cif.g09.slc.cpg/sg46_13_cif.got.tgz:25210.got - 2010.04.14 02:56:35.
