data_PCOD8191131
_publ_section_title
;
Structure prediction by ZEFSAII (Michael W. Deem and Ramdas Pophale) SiO2 
 PCOD8191131
Probable space group: I B A 2
;
_chemical_formula_sum "Si O2"
_cell_formula_units_Z 24
_cell_length_a 4.797460
_cell_length_b 19.274699
_cell_length_c 9.590247
_cell_angle_alpha 90.000000
_cell_angle_beta 90.000000
_cell_angle_gamma 90.000000
_cell_volume 886.806280
_symmetry_space_group_name_H-M "I B A 2"
_symmetry_group_IT_number 45
_symmetry_cell_setting 'orthorhombic'
loop_
_space_group_symop_operation_xyz
x,y,z
-x,-y,z
-x,y,1/2+z
x,-y,1/2+z
1/2+x,1/2+y,1/2+z
1/2-x,1/2-y,1/2+z
1/2-x,1/2+y,z
1/2+x,1/2-y,z
loop_
_atom_site_type_symbol
_atom_site_label
_atom_site_fract_x
_atom_site_fract_y
_atom_site_fract_z
Si Si1 0.500000 0.500000 0.108650
Si Si2 0.096419 0.887634 0.917711
Si Si3 0.500000 0.000000 0.801570
Si Si4 0.063947 0.797612 0.173266
O O1 0.250569 0.472187 0.204690
O O2 0.609912 0.438311 0.006593
O O3 0.927785 0.861857 0.781860
O O4 0.375933 0.933387 0.886797
O O5 0.154314 0.822532 0.019006
O O6 0.254879 0.731163 0.199907
#
# Coordination Sequence:
#
# PCOD8191131 Si02
#       4
#     4   8   4   8
#     4  12  28  50  82 128 166 224 278 376 434 520
#     4  12  28  55  85 125 172 224 294 355 443 515
#     4  12  28  50  86 126 170 222 282 374 440 516
#     4  12  30  52  85 121 172 232 288 352 424 528
#
# _framework density 27.063407000000002
#
# number of rings (size 3 to 8) (size 9 to 14) (size 15 to 20)
#    0.000    0.000    3.333    4.000    4.667    8.000 
#    0.000    0.000    0.000    0.000    0.000    0.000 
#    0.000    0.000    0.000    0.000    0.000    0.000 
#
# Total GULP energy -148697.987700 kJ/mol
# GULP energy per Si atom -12391.498975 kJ/mol
# Density = 2.700181 g / cm^3
# Si number density = 27.063407 Si / 1000 Ang^3
#
#
#
# Elastic Constant Matrix: (Units=GPa)
#
#
# Indices 1 2 3 4 5 6 
#
# 1 103.9462 56.9328 59.6583 0.0000 0.0000 0.0000
# 2 56.9328 146.0552 70.3930 0.0000 0.0001 0.0000
# 3 59.6583 70.3930 185.7934 -0.0004 0.0003 -0.0001
# 4 0.0000 0.0000 -0.0004 15.5850 0.0001 0.0000
# 5 0.0000 0.0001 0.0003 0.0001 24.9167 0.0000
# 6 0.0000 0.0000 -0.0001 0.0000 0.0000 67.0701
#
#
#
# Elastic Compliance Matrix: (Units=1/GPa)
#
#
# Indices 1 2 3 4 5 6 
#
# 1 0.013348 -0.003838 -0.002832 0.000000 0.000000 0.000000
# 2 -0.003838 0.009480 -0.002359 0.000000 0.000000 0.000000
# 3 -0.002832 -0.002359 0.007185 0.000000 0.000000 0.000000
# 4 0.000000 0.000000 0.000000 0.064164 0.000000 0.000000
# 5 0.000000 0.000000 0.000000 0.000000 0.040134 0.000000
# 6 0.000000 0.000000 0.000000 0.000000 0.000000 0.014910
#
#
# Mechanical properties :
#
#
# Convention : Reuss Voigt Hill
#
# Bulk Modulus (GPa) = 83.64900 89.97368 86.81134
# Shear Modulus (GPa) = 29.19458 38.10173 33.64816
#
# Velocity S-wave (km/s) = 3.28799 3.75623 3.52988
# Velocity P-wave (km/s) = 6.73722 7.22011 6.98284
#
# Compressibility (1/GPa) = 0.01195472
#
# Stress axis : x y z
#
# Youngs Moduli (GPa) = 74.91835 105.48556 139.16929
#
# Poissons Ratio (x) = 0.40488 0.39410
# Poissons Ratio (y) = 0.28755 0.32834
# Poissons Ratio (z) = 0.21215 0.24887
#
# Static dielectric constant tensor:
#      x y z
#    x 2.568730 0.000000 0.000000 
#    y 0.000000 4.953200 0.000000 
#    z 0.000000 0.000000 5.275190 
# 
# 
# High freq. dielectric constant tensor:
#      x y z
#    x 2.064950 0.000000 0.000000 
#    y 0.000000 2.111670 0.000000 
#    z 0.000000 0.000000 2.112170 
# 
# From -- ./inp_files/742.got.cif
#   From: 2010.03.12/outbox.cif.g09.slc.cpg/sg45_1_cif.got.tgz:742.got - 2010.04.14 02:50:11.
