data_PCOD8191497
_publ_section_title
;
Structure prediction by ZEFSAII (Michael W. Deem and Ramdas Pophale) SiO2 
 PCOD8191497
Probable space group: I M A 2
;
_chemical_formula_sum "Si O2"
_cell_formula_units_Z 64
_cell_length_a 8.804773
_cell_length_b 19.709041
_cell_length_c 20.678479
_cell_angle_alpha 90.000000
_cell_angle_beta 90.000000
_cell_angle_gamma 90.000000
_cell_volume 3588.411566
_symmetry_space_group_name_H-M "I M A 2"
_symmetry_group_IT_number 46
_symmetry_cell_setting 'orthorhombic'
loop_
_space_group_symop_operation_xyz
x,y,z
-x,-y,z
1/2-x,y,z
1/2+x,-y,z
1/2+x,1/2+y,1/2+z
1/2-x,1/2-y,1/2+z
-x,1/2+y,1/2+z
x,1/2-y,1/2+z
loop_
_atom_site_type_symbol
_atom_site_label
_atom_site_fract_x
_atom_site_fract_y
_atom_site_fract_z
Si Si1 0.071878 0.930699 0.964650
Si Si2 0.570246 0.068634 0.213945
Si Si3 0.570361 0.788533 0.400163
Si Si4 0.428904 0.929980 0.816557
Si Si5 0.575098 0.801849 0.162144
Si Si6 0.925377 0.699629 0.516916
Si Si7 0.570614 0.704834 0.277212
Si Si8 0.569652 0.568592 0.854422
O O1 0.250000 0.937489 0.970735
O O2 0.020556 0.917641 0.890745
O O3 0.000000 0.000000 0.991177
O O4 0.015735 0.869923 0.009272
O O5 0.750000 0.061208 0.220338
O O6 0.528241 0.131614 0.168649
O O7 0.496258 0.080996 0.283562
O O8 0.500000 0.000000 0.183274
O O9 0.750000 0.786076 0.396410
O O10 0.509926 0.755866 0.466925
O O11 0.506260 0.746780 0.338740
O O12 0.518248 0.867087 0.397625
O O13 0.250000 0.934385 0.808944
O O14 0.492224 0.868380 0.773900
O O15 0.500000 0.000000 0.790525
O O16 0.750000 0.822055 0.175338
O O17 0.552865 0.772887 0.089694
O O18 0.522827 0.744140 0.212139
O O19 0.750000 0.684663 0.501330
O O20 0.750000 0.694456 0.281823
O O21 0.500000 0.500000 0.885399
O O22 0.750000 0.561588 0.849680
#
# Coordination Sequence:
#
# PCOD8191497 Si02
#       8
#     8   8   8   8   8   8   8   8
#     4  10  20  33  50  74 105 138 172 210 252 300
#     4  11  21  33  51  74 104 139 176 211 253 303
#     4   9  17  31  54  77 101 133 171 211 253 300
#     4  10  20  33  52  80 107 135 171 214 259 306
#     4  10  21  36  53  75 104 137 174 212 256 306
#     4  10  20  35  54  75 100 137 176 210 251 304
#     4  10  18  33  55  77 103 135 171 214 258 301
#     4  10  18  32  52  78 107 134 169 212 258 303
#
# _framework density 17.835190000000001
#
# number of rings (size 3 to 8) (size 9 to 14) (size 15 to 20)
#    0.000    2.000    2.500    3.000    0.000    2.500 
#    0.000    1.250    0.000    0.750    0.000    1.750 
#    0.000    0.000    0.000    0.000    0.000    0.000 
#
# Total GULP energy -396834.252151 kJ/mol
# GULP energy per Si atom -12401.070380 kJ/mol
# Density = 1.779460 g / cm^3
# Si number density = 17.835190 Si / 1000 Ang^3
#
#
#
# Elastic Constant Matrix: (Units=GPa)
#
#
# Indices 1 2 3 4 5 6 
#
# 1 68.6250 41.4412 28.3928 0.0000 0.0000 0.0000
# 2 41.4412 150.4343 67.4042 0.0000 0.0000 0.0000
# 3 28.3928 67.4042 98.9727 0.0000 0.0000 0.0000
# 4 0.0000 0.0000 0.0000 24.2964 0.0000 0.0000
# 5 0.0000 0.0000 0.0000 0.0000 15.2334 0.0000
# 6 0.0000 0.0000 0.0000 0.0000 0.0000 31.2163
#
#
#
# Elastic Compliance Matrix: (Units=1/GPa)
#
#
# Indices 1 2 3 4 5 6 
#
# 1 0.017919 -0.003789 -0.002560 0.000000 0.000000 0.000000
# 2 -0.003789 0.010368 -0.005974 0.000000 0.000000 0.000000
# 3 -0.002560 -0.005974 0.014907 0.000000 0.000000 0.000000
# 4 0.000000 0.000000 0.000000 0.041158 0.000000 0.000000
# 5 0.000000 0.000000 0.000000 0.000000 0.065645 0.000000
# 6 0.000000 0.000000 0.000000 0.000000 0.000000 0.032035
#
#
# Mechanical properties :
#
#
# Convention : Reuss Voigt Hill
#
# Bulk Modulus (GPa) = 53.91531 65.83427 59.87479
# Shear Modulus (GPa) = 23.48948 26.20213 24.84580
#
# Velocity S-wave (km/s) = 3.63303 3.83708 3.73644
# Velocity P-wave (km/s) = 6.92054 7.52486 7.22902
#
# Compressibility (1/GPa) = 0.01854761
#
# Stress axis : x y z
#
# Youngs Moduli (GPa) = 55.80539 96.45046 67.08415
#
# Poissons Ratio (x) = 0.36549 0.17173
# Poissons Ratio (y) = 0.21147 0.40076
# Poissons Ratio (z) = 0.14286 0.57619
#
# Static dielectric constant tensor:
#      x y z
#    x 3.165380 0.000000 0.000000 
#    y 0.000000 3.462100 0.000000 
#    z 0.000000 0.000000 3.188000 
# 
# 
# High freq. dielectric constant tensor:
#      x y z
#    x 1.682820 0.000000 0.000000 
#    y 0.000000 1.695410 0.000000 
#    z 0.000000 0.000000 1.662220 
# 
# From -- ./inp_files/21429.got.cif
#   From: 2010.03.12/outbox.cif.g09.slc.cpg/sg46_11_cif.got.tgz:21429.got - 2010.04.14 02:56:35.
