data_PCOD8191580
_publ_section_title
;
Structure prediction by ZEFSAII (Michael W. Deem and Ramdas Pophale) SiO2 
 PCOD8191580
Probable space group: I M A 2
;
_chemical_formula_sum "Si O2"
_cell_formula_units_Z 40
_cell_length_a 8.679860
_cell_length_b 28.720089
_cell_length_c 7.810901
_cell_angle_alpha 90.000000
_cell_angle_beta 90.000000
_cell_angle_gamma 90.000000
_cell_volume 1947.151014
_symmetry_space_group_name_H-M "I M A 2"
_symmetry_group_IT_number 46
_symmetry_cell_setting 'orthorhombic'
loop_
_space_group_symop_operation_xyz
x,y,z
-x,-y,z
1/2-x,y,z
1/2+x,-y,z
1/2+x,1/2+y,1/2+z
1/2-x,1/2-y,1/2+z
-x,1/2+y,1/2+z
x,1/2-y,1/2+z
loop_
_atom_site_type_symbol
_atom_site_label
_atom_site_fract_x
_atom_site_fract_y
_atom_site_fract_z
Si Si1 0.930424 0.800622 0.281690
Si Si2 0.430860 0.608680 0.283027
Si Si3 0.568550 0.799245 0.674203
Si Si4 0.433090 0.103403 0.135438
Si Si5 0.567989 0.949438 0.474767
O O1 0.750000 0.797409 0.251141
O O2 0.968930 0.809987 0.478294
O O3 0.000833 0.751564 0.219610
O O4 0.994654 0.844278 0.174750
O O5 0.250000 0.602831 0.264116
O O6 0.480553 0.662769 0.287800
O O7 0.486449 0.585649 0.461670
O O8 0.511908 0.584008 0.124680
O O9 0.750000 0.802360 0.716191
O O10 0.250000 0.102412 0.113167
O O11 0.485677 0.070042 0.290571
O O12 0.750000 0.951576 0.484831
O O13 0.500000 0.000000 0.504212
#
# Coordination Sequence:
#
# PCOD8191580 Si02
#       5
#     8   8   8   8   8
#     4   9  17  32  60  91 120 161 214 266 311 371
#     4  12  25  40  61  92 132 173 210 256 315 377
#     4  10  18  34  59  89 123 164 216 264 311 369
#     4  10  21  41  67  93 123 165 214 264 316 374
#     4  11  24  45  72  97 125 162 210 266 322 376
#
# _framework density 20.542833999999999
#
# number of rings (size 3 to 8) (size 9 to 14) (size 15 to 20)
#    0.000    1.600    2.000    3.600    0.000    5.600 
#    0.000    6.000    0.000    0.000    0.000    0.000 
#    0.000    0.000    0.000    0.000    0.000    0.000 
#
# Total GULP energy -248034.235561 kJ/mol
# GULP energy per Si atom -12401.711778 kJ/mol
# Density = 2.049608 g / cm^3
# Si number density = 20.542834 Si / 1000 Ang^3
#
#
#
# Elastic Constant Matrix: (Units=GPa)
#
#
# Indices 1 2 3 4 5 6 
#
# 1 58.0886 24.0190 36.3934 0.0032 0.0000 -0.0005
# 2 24.0190 85.7785 30.1906 0.0117 0.0037 -0.0018
# 3 36.3934 30.1906 92.4471 0.0071 0.0005 -0.0058
# 4 0.0032 0.0117 0.0071 28.7343 0.0007 -0.0024
# 5 0.0000 0.0037 0.0005 0.0007 15.6736 0.0035
# 6 -0.0005 -0.0018 -0.0058 -0.0024 0.0035 23.3026
#
#
#
# Elastic Compliance Matrix: (Units=1/GPa)
#
#
# Indices 1 2 3 4 5 6 
#
# 1 0.023911 -0.003822 -0.008165 0.000001 0.000001 -0.000002
# 2 -0.003822 0.013783 -0.002997 -0.000004 -0.000003 0.000000
# 3 -0.008165 -0.002997 0.015010 -0.000002 0.000000 0.000003
# 4 0.000001 -0.000004 -0.000002 0.034802 -0.000001 0.000004
# 5 0.000001 -0.000003 0.000000 -0.000001 0.063801 -0.000010
# 6 -0.000002 0.000000 0.000003 0.000004 -0.000010 0.042914
#
#
# Mechanical properties :
#
#
# Convention : Reuss Voigt Hill
#
# Bulk Modulus (GPa) = 43.98087 46.39116 45.18601
# Shear Modulus (GPa) = 21.57357 23.25618 22.41488
#
# Velocity S-wave (km/s) = 3.24416 3.36829 3.30681
# Velocity P-wave (km/s) = 5.95723 6.14482 6.05175
#
# Compressibility (1/GPa) = 0.02273716
#
# Stress axis : x y z
#
# Youngs Moduli (GPa) = 41.82234 72.55465 66.62300
#
# Poissons Ratio (x) = 0.27727 0.54397
# Poissons Ratio (y) = 0.15983 0.19964
# Poissons Ratio (z) = 0.34147 0.21742
#
# Static dielectric constant tensor:
#      x y z
#    x 3.346610 0.000000 0.000000 
#    y 0.000000 3.898670 -0.000010 
#    z 0.000000 -0.000010 3.879580 
# 
# 
# High freq. dielectric constant tensor:
#      x y z
#    x 1.767130 0.000000 0.000000 
#    y 0.000000 1.807830 0.000000 
#    z 0.000000 0.000000 1.820520 
# 
# From -- ./inp_files/3663.got.cif
#   From: 2010.03.12/outbox.cif.g09.slc.cpg/sg46_2_cif.got.tgz:3663.got - 2010.04.14 02:56:35.
