data_PCOD8191794
_publ_section_title
;
Structure prediction by ZEFSAII (Michael W. Deem and Ramdas Pophale) SiO2 
 PCOD8191794
Probable space group: I M A 2
;
_chemical_formula_sum "Si O2"
_cell_formula_units_Z 48
_cell_length_a 8.681220
_cell_length_b 13.721328
_cell_length_c 23.732003
_cell_angle_alpha 90.000000
_cell_angle_beta 90.000000
_cell_angle_gamma 90.000000
_cell_volume 2826.905578
_symmetry_space_group_name_H-M "I M A 2"
_symmetry_group_IT_number 46
_symmetry_cell_setting 'orthorhombic'
loop_
_space_group_symop_operation_xyz
x,y,z
-x,-y,z
1/2-x,y,z
1/2+x,-y,z
1/2+x,1/2+y,1/2+z
1/2-x,1/2-y,1/2+z
-x,1/2+y,1/2+z
x,1/2-y,1/2+z
loop_
_atom_site_type_symbol
_atom_site_label
_atom_site_fract_x
_atom_site_fract_y
_atom_site_fract_z
Si Si1 0.932806 0.714867 0.603800
Si Si2 0.930380 0.897249 0.883436
Si Si3 0.429202 0.102016 0.212863
Si Si4 0.067803 0.894375 0.001377
Si Si5 0.931925 0.104675 0.665044
Si Si6 0.929115 0.796583 0.769299
O O1 0.750000 0.718306 0.597759
O O2 0.985750 0.637041 0.651285
O O3 0.008861 0.685317 0.545177
O O4 0.993335 0.820795 0.620830
O O5 0.750000 0.910361 0.895448
O O6 0.963606 0.819699 0.834282
O O7 0.000000 0.000000 0.864006
O O8 0.012580 0.859451 0.939866
O O9 0.250000 0.085445 0.211501
O O10 0.475601 0.184137 0.258646
O O11 0.500000 0.000000 0.231107
O O12 0.250000 0.901088 0.003217
O O13 0.000000 0.000000 0.016415
O O14 0.750000 0.104014 0.657530
O O15 0.973117 0.132809 0.729243
O O16 0.000000 0.000000 0.650241
O O17 0.750000 0.813458 0.753897
#
# Coordination Sequence:
#
# PCOD8191794 Si02
#       6
#     8   8   8   8   8   8
#     4  10  20  35  52  72 100 131 165 205 247 292
#     4  10  19  32  50  71  97 129 164 203 249 296
#     4   9  18  31  48  71  98 127 159 197 240 287
#     4  11  21  33  50  74 102 131 165 203 248 299
#     4  11  21  33  51  75 102 132 165 201 246 297
#     4   9  19  34  50  71 100 132 166 205 248 293
#
# _framework density 16.979697000000002
#
# number of rings (size 3 to 8) (size 9 to 14) (size 15 to 20)
#    0.000    2.000    0.000    7.000    0.000    7.333 
#    0.000    0.000    0.000    1.000    0.000    4.667 
#    0.000    0.000    0.000    0.000    0.000    0.000 
#
# Total GULP energy -297641.352565 kJ/mol
# GULP energy per Si atom -12401.723024 kJ/mol
# Density = 1.694105 g / cm^3
# Si number density = 16.979697 Si / 1000 Ang^3
#
#
#
# Elastic Constant Matrix: (Units=GPa)
#
#
# Indices 1 2 3 4 5 6 
#
# 1 106.5127 47.6194 52.7248 0.0000 0.0000 0.0000
# 2 47.6194 124.0504 71.5557 0.0000 0.0000 0.0000
# 3 52.7248 71.5557 120.3629 0.0000 0.0000 0.0000
# 4 0.0000 0.0000 0.0000 25.9997 0.0000 0.0000
# 5 0.0000 0.0000 0.0000 0.0000 26.8515 0.0000
# 6 0.0000 0.0000 0.0000 0.0000 0.0000 30.8039
#
#
#
# Elastic Compliance Matrix: (Units=1/GPa)
#
#
# Indices 1 2 3 4 5 6 
#
# 1 0.012474 -0.002491 -0.003984 0.000000 0.000000 0.000000
# 2 -0.002491 0.012766 -0.006498 0.000000 0.000000 0.000000
# 3 -0.003984 -0.006498 0.013916 0.000000 0.000000 0.000000
# 4 0.000000 0.000000 0.000000 0.038462 0.000000 0.000000
# 5 0.000000 0.000000 0.000000 0.000000 0.037242 0.000000
# 6 0.000000 0.000000 0.000000 0.000000 0.000000 0.032463
#
#
# Mechanical properties :
#
#
# Convention : Reuss Voigt Hill
#
# Bulk Modulus (GPa) = 75.69256 77.19176 76.44216
# Shear Modulus (GPa) = 28.14183 28.66609 28.40396
#
# Velocity S-wave (km/s) = 4.07551 4.11330 4.09445
# Velocity P-wave (km/s) = 8.17444 8.25342 8.21402
#
# Compressibility (1/GPa) = 0.01321134
#
# Stress axis : x y z
#
# Youngs Moduli (GPa) = 80.16733 78.33539 71.85792
#
# Poissons Ratio (x) = 0.19510 0.28625
# Poissons Ratio (y) = 0.19966 0.46695
# Poissons Ratio (z) = 0.31935 0.50904
#
# Static dielectric constant tensor:
#      x y z
#    x 3.267720 0.000000 0.000000 
#    y 0.000000 3.180670 0.000000 
#    z 0.000000 0.000000 3.173800 
# 
# 
# High freq. dielectric constant tensor:
#      x y z
#    x 1.668550 0.000000 0.000000 
#    y 0.000000 1.645700 0.000000 
#    z 0.000000 0.000000 1.646510 
# 
# From -- ./inp_files/22906.got.cif
#   From: 2010.03.12/outbox.cif.g09.slc.cpg/sg46_12_cif.got.tgz:22906.got - 2010.04.14 02:56:35.
