data_PCOD8191095
_publ_section_title
;
Structure prediction by ZEFSAII (Michael W. Deem and Ramdas Pophale) SiO2 
 PCOD8191095
Probable space group: I B A 2
;
_chemical_formula_sum "Si O2"
_cell_formula_units_Z 60
_cell_length_a 24.726514
_cell_length_b 9.259278
_cell_length_c 11.784739
_cell_angle_alpha 90.000000
_cell_angle_beta 90.000000
_cell_angle_gamma 90.000000
_cell_volume 2698.112071
_symmetry_space_group_name_H-M "I B A 2"
_symmetry_group_IT_number 45
_symmetry_cell_setting 'orthorhombic'
loop_
_space_group_symop_operation_xyz
x,y,z
-x,-y,z
-x,y,1/2+z
x,-y,1/2+z
1/2+x,1/2+y,1/2+z
1/2-x,1/2-y,1/2+z
1/2-x,1/2+y,z
1/2+x,1/2-y,z
loop_
_atom_site_type_symbol
_atom_site_label
_atom_site_fract_x
_atom_site_fract_y
_atom_site_fract_z
Si Si1 0.097661 0.601559 0.704940
Si Si2 0.596216 0.268367 0.442637
Si Si3 0.000000 0.000000 0.196486
Si Si4 0.013654 0.269644 0.053098
Si Si5 0.848360 0.324491 0.300303
Si Si6 0.421852 0.593937 0.882606
Si Si7 0.193137 0.619541 0.536175
Si Si8 0.705145 0.195431 0.576675
O O1 0.093296 0.705329 0.815088
O O2 0.042465 0.604350 0.628252
O O3 0.108380 0.434410 0.740650
O O4 0.144874 0.663854 0.622479
O O5 0.548557 0.194049 0.518952
O O6 0.586670 0.442287 0.448586
O O7 0.653688 0.234428 0.498439
O O8 0.951031 0.061199 0.266846
O O9 0.023573 0.125529 0.121982
O O10 0.045085 0.225964 0.939251
O O11 0.866586 0.169803 0.348789
O O12 0.825248 0.410322 0.407293
O O13 0.805090 0.269612 0.208414
O O14 0.240369 0.734954 0.532991
O O15 0.218913 0.472123 0.576708
#
# Coordination Sequence:
#
# PCOD8191095 Si02
#       8
#     8   8   4   8   8   8   8   8
#     4  11  25  49  73 103 154 194 242 311 378 448
#     4  12  24  44  74 110 147 190 250 306 366 457
#     4  12  20  40  62 104 148 182 238 290 340 434
#     4  12  22  42  73 104 145 195 244 299 371 441
#     4  11  26  48  72 107 148 186 246 305 369 453
#     4  12  23  40  70 104 142 191 239 299 353 433
#     4  11  26  49  74 104 147 190 246 310 370 449
#     4  11  28  46  74 107 142 189 246 304 376 442
#
# _framework density 22.237772
#
# number of rings (size 3 to 8) (size 9 to 14) (size 15 to 20)
#    0.000    0.533    6.667    0.800    3.733    1.067 
#    0.000   14.667    0.000    0.000    0.000    0.000 
#    0.000    0.000    0.000    0.000    0.000    0.000 
#
# Total GULP energy -371772.819458 kJ/mol
# GULP energy per Si atom -12392.427315 kJ/mol
# Density = 2.218716 g / cm^3
# Si number density = 22.237772 Si / 1000 Ang^3
#
#
#
# Elastic Constant Matrix: (Units=GPa)
#
#
# Indices 1 2 3 4 5 6 
#
# 1 113.2147 25.5510 45.8959 0.0000 0.0000 0.0000
# 2 25.5510 50.2887 3.9852 0.0000 0.0000 0.0000
# 3 45.8959 3.9852 117.1285 0.0000 0.0000 0.0000
# 4 0.0000 0.0000 0.0000 44.1630 0.0000 0.0000
# 5 0.0000 0.0000 0.0000 0.0000 35.4426 0.0000
# 6 0.0000 0.0000 0.0000 0.0000 0.0000 33.0381
#
#
#
# Elastic Compliance Matrix: (Units=1/GPa)
#
#
# Indices 1 2 3 4 5 6 
#
# 1 0.011939 -0.005711 -0.004484 0.000000 0.000000 0.000000
# 2 -0.005711 0.022671 0.001466 0.000000 0.000000 0.000000
# 3 -0.004484 0.001466 0.010245 0.000000 0.000000 0.000000
# 4 0.000000 0.000000 0.000000 0.022643 0.000000 0.000000
# 5 0.000000 0.000000 0.000000 0.000000 0.028215 0.000000
# 6 0.000000 0.000000 0.000000 0.000000 0.000000 0.030268
#
#
# Mechanical properties :
#
#
# Convention : Reuss Voigt Hill
#
# Bulk Modulus (GPa) = 36.49940 47.94400 42.22170
# Shear Modulus (GPa) = 32.77171 36.20873 34.49022
#
# Velocity S-wave (km/s) = 3.84304 4.03954 3.94251
# Velocity P-wave (km/s) = 6.01172 6.58511 6.30494
#
# Compressibility (1/GPa) = 0.02739771
#
# Stress axis : x y z
#
# Youngs Moduli (GPa) = 83.75604 44.11000 97.61065
#
# Poissons Ratio (x) = 0.25191 0.43769
# Poissons Ratio (y) = 0.47832 -0.14314
# Poissons Ratio (z) = 0.37557 -0.06468
#
# Static dielectric constant tensor:
#      x y z
#    x 3.851670 0.000000 0.000000 
#    y 0.000000 4.033920 0.000000 
#    z 0.000000 0.000000 4.463380 
# 
# 
# High freq. dielectric constant tensor:
#      x y z
#    x 1.862760 0.000000 0.000000 
#    y 0.000000 1.877310 0.000000 
#    z 0.000000 0.000000 1.899120 
# 
# From -- ./inp_files/4896.got.cif
#   From: 2010.03.12/outbox.cif.g09.slc.cpg/sg45_3_cif.got.tgz:4896.got - 2010.04.14 02:50:11.
