data_PCOD8191459
_publ_section_title
;
Structure prediction by ZEFSAII (Michael W. Deem and Ramdas Pophale) SiO2 
 PCOD8191459
Probable space group: I M A 2
;
_chemical_formula_sum "Si O2"
_cell_formula_units_Z 48
_cell_length_a 8.945486
_cell_length_b 31.167699
_cell_length_c 9.271151
_cell_angle_alpha 90.000000
_cell_angle_beta 90.000000
_cell_angle_gamma 90.000000
_cell_volume 2584.891604
_symmetry_space_group_name_H-M "I M A 2"
_symmetry_group_IT_number 46
_symmetry_cell_setting 'orthorhombic'
loop_
_space_group_symop_operation_xyz
x,y,z
-x,-y,z
1/2-x,y,z
1/2+x,-y,z
1/2+x,1/2+y,1/2+z
1/2-x,1/2-y,1/2+z
-x,1/2+y,1/2+z
x,1/2-y,1/2+z
loop_
_atom_site_type_symbol
_atom_site_label
_atom_site_fract_x
_atom_site_fract_y
_atom_site_fract_z
Si Si1 0.428222 0.708043 0.321330
Si Si2 0.072080 0.629381 0.835885
Si Si3 0.586568 0.959731 0.659405
Si Si4 0.073692 0.790622 0.149529
Si Si5 0.082684 0.458390 0.817418
Si Si6 0.570950 0.865952 0.641647
O O1 0.250000 0.702002 0.308213
O O2 0.488143 0.749980 0.238237
O O3 0.482581 0.712190 0.485848
O O4 0.511692 0.667184 0.257641
O O5 0.250000 0.626483 0.852589
O O6 0.020087 0.665107 0.721136
O O7 0.009839 0.584204 0.777919
O O8 0.002342 0.643772 0.987524
O O9 0.750000 0.962728 0.727595
O O10 0.592524 0.963810 0.487943
O O11 0.517203 0.913151 0.696704
O O12 0.500000 0.000000 0.728150
O O13 0.250000 0.788230 0.154821
O O14 0.250000 0.455020 0.752516
O O15 0.000000 0.500000 0.750274
O O16 0.750000 0.864595 0.625031
#
# Coordination Sequence:
#
# PCOD8191459 Si02
#       6
#     8   8   8   8   8   8
#     4  10  19  35  56  76  98 130 169 210 254 308
#     4  10  18  31  52  77 104 137 172 212 257 303
#     4   8  15  26  42  65  96 127 160 200 242 285
#     4   9  19  34  55  79 101 127 168 213 255 307
#     4   9  16  27  44  71 104 137 172 213 254 298
#     4  10  20  33  48  74 107 136 168 210 254 303
#
# _framework density 18.569444000000001
#
# number of rings (size 3 to 8) (size 9 to 14) (size 15 to 20)
#    0.000    2.667    0.000    3.500    0.000    7.333 
#    0.000    5.833    0.000    1.000    0.000    2.333 
#    0.000    0.000    0.000    0.000    0.000    0.000 
#
# Total GULP energy -297508.855733 kJ/mol
# GULP energy per Si atom -12396.202322 kJ/mol
# Density = 1.852718 g / cm^3
# Si number density = 18.569444 Si / 1000 Ang^3
#
#
#
# Elastic Constant Matrix: (Units=GPa)
#
#
# Indices 1 2 3 4 5 6 
#
# 1 79.8573 54.8610 33.9330 0.0040 -0.0003 0.0007
# 2 54.8610 181.6742 78.7446 0.0092 -0.0002 0.0020
# 3 33.9330 78.7446 95.8000 0.0297 0.0006 0.0061
# 4 0.0040 0.0092 0.0297 24.0494 0.0007 0.0058
# 5 -0.0003 -0.0002 0.0006 0.0007 11.8286 0.0040
# 6 0.0007 0.0020 0.0061 0.0058 0.0040 30.4992
#
#
#
# Elastic Compliance Matrix: (Units=1/GPa)
#
#
# Indices 1 2 3 4 5 6 
#
# 1 0.016229 -0.003742 -0.002672 0.000002 0.000001 0.000000
# 2 -0.003742 0.009414 -0.006412 0.000005 0.000000 0.000001
# 3 -0.002672 -0.006412 0.016656 -0.000018 -0.000001 -0.000003
# 4 0.000002 0.000005 -0.000018 0.041581 -0.000002 -0.000008
# 5 0.000001 0.000000 -0.000001 -0.000002 0.084541 -0.000011
# 6 0.000000 0.000001 -0.000003 -0.000008 -0.000011 0.032788
#
#
# Mechanical properties :
#
#
# Convention : Reuss Voigt Hill
#
# Bulk Modulus (GPa) = 60.08010 76.93430 68.50720
# Shear Modulus (GPa) = 21.51374 25.92831 23.72103
#
# Velocity S-wave (km/s) = 3.40745 3.74075 3.57798
# Velocity P-wave (km/s) = 6.92138 7.75746 7.35131
#
# Compressibility (1/GPa) = 0.01664445
#
# Stress axis : x y z
#
# Youngs Moduli (GPa) = 61.61875 106.22694 60.03995
#
# Poissons Ratio (x) = 0.39755 0.16044
# Poissons Ratio (y) = 0.23061 0.38499
# Poissons Ratio (z) = 0.16466 0.68115
#
# Static dielectric constant tensor:
#      x y z
#    x 3.384740 0.000000 0.000000 
#    y 0.000000 3.742790 -0.000010 
#    z 0.000000 -0.000010 3.145220 
# 
# 
# High freq. dielectric constant tensor:
#      x y z
#    x 1.709510 0.000000 0.000000 
#    y 0.000000 1.742710 0.000000 
#    z 0.000000 0.000000 1.677740 
# 
# From -- ./inp_files/3949.got.cif
#   From: 2010.03.12/outbox.cif.g09.slc.cpg/sg46_2_cif.got.tgz:3949.got - 2010.04.14 02:56:35.
