data_PCOD8191545
_publ_section_title
;
Structure prediction by ZEFSAII (Michael W. Deem and Ramdas Pophale) SiO2 
 PCOD8191545
Probable space group: I M A 2
;
_chemical_formula_sum "Si O2"
_cell_formula_units_Z 64
_cell_length_a 8.945730
_cell_length_b 20.776626
_cell_length_c 19.672252
_cell_angle_alpha 90.000000
_cell_angle_beta 90.000000
_cell_angle_gamma 90.000000
_cell_volume 3656.325803
_symmetry_space_group_name_H-M "I M A 2"
_symmetry_group_IT_number 46
_symmetry_cell_setting 'orthorhombic'
loop_
_space_group_symop_operation_xyz
x,y,z
-x,-y,z
1/2-x,y,z
1/2+x,-y,z
1/2+x,1/2+y,1/2+z
1/2-x,1/2-y,1/2+z
-x,1/2+y,1/2+z
x,1/2-y,1/2+z
loop_
_atom_site_type_symbol
_atom_site_label
_atom_site_fract_x
_atom_site_fract_y
_atom_site_fract_z
Si Si1 0.573595 0.435138 0.283380
Si Si2 0.074110 0.807804 0.707662
Si Si3 0.573013 0.117862 0.070511
Si Si4 0.074700 0.737684 0.064749
Si Si5 0.926653 0.689367 0.784408
Si Si6 0.572944 0.229770 0.416165
Si Si7 0.573400 0.564784 0.699736
Si Si8 0.426241 0.875952 0.919833
O O1 0.500000 0.500000 0.255218
O O2 0.750000 0.443562 0.281568
O O3 0.521950 0.376536 0.235600
O O4 0.512598 0.421657 0.359870
O O5 0.250000 0.796792 0.718906
O O6 0.030802 0.807917 0.627657
O O7 0.991602 0.751023 0.746365
O O8 0.750000 0.111294 0.083656
O O9 0.512952 0.190822 0.079648
O O10 0.484892 0.073374 0.122861
O O11 0.527992 0.096449 0.993677
O O12 0.250000 0.747055 0.056993
O O13 0.020222 0.708387 0.992464
O O14 0.750000 0.695221 0.786003
O O15 0.978271 0.624691 0.745985
O O16 0.989203 0.685676 0.861158
O O17 0.750000 0.222155 0.405451
O O18 0.517305 0.303307 0.407093
O O19 0.500000 0.500000 0.730171
O O20 0.750000 0.556931 0.698844
O O21 0.250000 0.871902 0.915033
#
# Coordination Sequence:
#
# PCOD8191545 Si02
#       8
#     8   8   8   8   8   8   8   8
#     4  10  20  33  49  71 103 138 172 207 245 293
#     4  10  18  33  57  78  99 134 175 213 254 302
#     4   9  16  30  53  76 102 133 168 209 252 301
#     4   8  15  28  53  83 102 126 169 213 251 302
#     4  11  22  34  51  79 108 132 167 216 263 306
#     4   9  16  31  54  78 103 131 169 210 253 307
#     4  11  24  38  51  72 104 138 175 215 258 310
#     4   8  15  29  49  75 103 133 171 209 243 294
#
# _framework density 17.503910999999999
#
# number of rings (size 3 to 8) (size 9 to 14) (size 15 to 20)
#    0.000    2.500    2.500    2.250    0.000    2.500 
#    0.000    5.000    0.000    0.750    0.000    3.500 
#    0.000    0.000    0.000    0.000    0.000    0.000 
#
# Total GULP energy -396649.656757 kJ/mol
# GULP energy per Si atom -12395.301774 kJ/mol
# Density = 1.746407 g / cm^3
# Si number density = 17.503911 Si / 1000 Ang^3
#
#
#
# Elastic Constant Matrix: (Units=GPa)
#
#
# Indices 1 2 3 4 5 6 
#
# 1 39.8259 36.8253 32.9846 0.0000 0.0000 0.0000
# 2 36.8253 118.0576 68.0531 0.0000 0.0000 0.0000
# 3 32.9846 68.0531 127.1800 0.0000 0.0000 0.0000
# 4 0.0000 0.0000 0.0000 24.8882 0.0000 0.0000
# 5 0.0000 0.0000 0.0000 0.0000 11.7620 0.0000
# 6 0.0000 0.0000 0.0000 0.0000 0.0000 23.5690
#
#
#
# Elastic Compliance Matrix: (Units=1/GPa)
#
#
# Indices 1 2 3 4 5 6 
#
# 1 0.037359 -0.008774 -0.004994 0.000000 0.000000 0.000000
# 2 -0.008774 0.014309 -0.005381 0.000000 0.000000 0.000000
# 3 -0.004994 -0.005381 0.012037 0.000000 0.000000 0.000000
# 4 0.000000 0.000000 0.000000 0.040180 0.000000 0.000000
# 5 0.000000 0.000000 0.000000 0.000000 0.085019 0.000000
# 6 0.000000 0.000000 0.000000 0.000000 0.000000 0.042429
#
#
# Mechanical properties :
#
#
# Convention : Reuss Voigt Hill
#
# Bulk Modulus (GPa) = 39.36012 62.30995 50.83503
# Shear Modulus (GPa) = 17.97906 21.85720 19.91813
#
# Velocity S-wave (km/s) = 3.20839 3.53753 3.37697
# Velocity P-wave (km/s) = 6.02165 7.23606 6.65661
#
# Compressibility (1/GPa) = 0.02540643
#
# Stress axis : x y z
#
# Youngs Moduli (GPa) = 26.76748 69.88438 83.07382
#
# Poissons Ratio (x) = 0.61320 0.41487
# Poissons Ratio (y) = 0.23487 0.44703
# Poissons Ratio (z) = 0.13368 0.37606
#
# Static dielectric constant tensor:
#      x y z
#    x 2.932140 0.000000 0.000000 
#    y 0.000000 3.154360 0.000000 
#    z 0.000000 0.000000 3.693950 
# 
# 
# High freq. dielectric constant tensor:
#      x y z
#    x 1.648860 0.000000 0.000000 
#    y 0.000000 1.653170 0.000000 
#    z 0.000000 0.000000 1.686220 
# 
# From -- ./inp_files/21466.got.cif
#   From: 2010.03.12/outbox.cif.g09.slc.cpg/sg46_11_cif.got.tgz:21466.got - 2010.04.14 02:56:35.
