data_PCOD8191941
_publ_section_title
;
Structure prediction by ZEFSAII (Michael W. Deem and Ramdas Pophale) SiO2 
 PCOD8191941
Probable space group: I M A 2
;
_chemical_formula_sum "Si O2"
_cell_formula_units_Z 64
_cell_length_a 8.823257
_cell_length_b 20.675642
_cell_length_c 19.453774
_cell_angle_alpha 90.000000
_cell_angle_beta 90.000000
_cell_angle_gamma 90.000000
_cell_volume 3548.883961
_symmetry_space_group_name_H-M "I M A 2"
_symmetry_group_IT_number 46
_symmetry_cell_setting 'orthorhombic'
loop_
_space_group_symop_operation_xyz
x,y,z
-x,-y,z
1/2-x,y,z
1/2+x,-y,z
1/2+x,1/2+y,1/2+z
1/2-x,1/2-y,1/2+z
-x,1/2+y,1/2+z
x,1/2-y,1/2+z
loop_
_atom_site_type_symbol
_atom_site_label
_atom_site_fract_x
_atom_site_fract_y
_atom_site_fract_z
Si Si1 0.071304 0.121649 0.986620
Si Si2 0.425158 0.740708 0.979331
Si Si3 0.576342 0.183945 0.624594
Si Si4 0.929769 0.727772 0.841226
Si Si5 0.571234 0.187935 0.205694
Si Si6 0.928654 0.566672 0.196445
Si Si7 0.071221 0.565612 0.616659
Si Si8 0.571827 0.873778 0.834594
O O1 0.250000 0.118279 0.999524
O O2 0.028109 0.097853 0.909335
O O3 0.018516 0.195018 0.996674
O O4 0.986666 0.074746 0.038964
O O5 0.250000 0.759546 0.967716
O O6 0.493402 0.704604 0.912490
O O7 0.442645 0.692414 0.043133
O O8 0.750000 0.169093 0.644015
O O9 0.520792 0.248410 0.663960
O O10 0.472471 0.123945 0.645100
O O11 0.750000 0.722862 0.848846
O O12 0.989241 0.800633 0.827276
O O13 0.986795 0.683660 0.778690
O O14 0.750000 0.186790 0.217747
O O15 0.517333 0.125549 0.162992
O O16 0.750000 0.558876 0.196778
O O17 0.994757 0.582661 0.272941
O O18 0.000000 0.500000 0.170279
O O19 0.250000 0.559321 0.615502
O O20 0.000000 0.500000 0.647269
O O21 0.750000 0.870086 0.825900
#
# Coordination Sequence:
#
# PCOD8191941 Si02
#       8
#     8   8   8   8   8   8   8   8
#     4  10  19  33  53  79 112 148 187 229 271 321
#     4  10  19  34  55  82 114 146 181 225 277 329
#     4  10  20  36  57  82 109 142 185 230 276 326
#     4  10  19  33  54  84 113 140 182 228 275 327
#     4  10  20  36  57  81 110 143 184 230 280 330
#     4  11  22  37  54  77 110 147 186 228 277 326
#     4  11  23  39  55  79 112 149 190 231 280 335
#     4   8  17  32  49  74 108 143 180 221 261 316
#
# _framework density 18.033839
#
# number of rings (size 3 to 8) (size 9 to 14) (size 15 to 20)
#    0.000    2.000    2.500    2.625    0.000    2.500 
#    0.000    3.125    0.000    0.750    0.000    3.500 
#    0.000    0.000    0.000    0.000    0.000    0.000 
#
# Total GULP energy -396828.704349 kJ/mol
# GULP energy per Si atom -12400.897011 kJ/mol
# Density = 1.799279 g / cm^3
# Si number density = 18.033839 Si / 1000 Ang^3
#
#
#
# Elastic Constant Matrix: (Units=GPa)
#
#
# Indices 1 2 3 4 5 6 
#
# 1 60.9997 36.8421 39.6224 0.0000 0.0000 0.0000
# 2 36.8421 103.7500 49.8960 0.0000 0.0000 0.0000
# 3 39.6224 49.8960 111.7592 0.0000 0.0000 0.0000
# 4 0.0000 0.0000 0.0000 20.5802 0.0000 0.0000
# 5 0.0000 0.0000 0.0000 0.0000 30.3786 0.0000
# 6 0.0000 0.0000 0.0000 0.0000 0.0000 27.6462
#
#
#
# Elastic Compliance Matrix: (Units=1/GPa)
#
#
# Indices 1 2 3 4 5 6 
#
# 1 0.023557 -0.005538 -0.005879 0.000000 0.000000 0.000000
# 2 -0.005538 0.013576 -0.004098 0.000000 0.000000 0.000000
# 3 -0.005879 -0.004098 0.012862 0.000000 0.000000 0.000000
# 4 0.000000 0.000000 0.000000 0.048590 0.000000 0.000000
# 5 0.000000 0.000000 0.000000 0.000000 0.032918 0.000000
# 6 0.000000 0.000000 0.000000 0.000000 0.000000 0.036171
#
#
# Mechanical properties :
#
#
# Convention : Reuss Voigt Hill
#
# Bulk Modulus (GPa) = 52.72900 58.80332 55.76616
# Shear Modulus (GPa) = 24.38721 25.73089 25.05905
#
# Velocity S-wave (km/s) = 3.68136 3.78141 3.73172
# Velocity P-wave (km/s) = 6.88275 7.19329 7.03973
#
# Compressibility (1/GPa) = 0.01896490
#
# Stress axis : x y z
#
# Youngs Moduli (GPa) = 42.45001 73.66103 77.75006
#
# Poissons Ratio (x) = 0.40791 0.45713
# Poissons Ratio (y) = 0.23507 0.31860
# Poissons Ratio (z) = 0.24958 0.30184
#
# Static dielectric constant tensor:
#      x y z
#    x 3.259870 0.000000 0.000000 
#    y 0.000000 3.146920 0.000000 
#    z 0.000000 0.000000 3.509250 
# 
# 
# High freq. dielectric constant tensor:
#      x y z
#    x 1.698830 0.000000 0.000000 
#    y 0.000000 1.670300 0.000000 
#    z 0.000000 0.000000 1.702700 
# 
# From -- ./inp_files/18526.got.cif
#   From: 2010.03.12/outbox.cif.g09.slc.cpg/sg46_10_cif.got.tgz:18526.got - 2010.04.14 02:56:35.
