data_PCOD8191652
_publ_section_title
;
Structure prediction by ZEFSAII (Michael W. Deem and Ramdas Pophale) SiO2 
 PCOD8191652
Probable space group: I M A 2
;
_chemical_formula_sum "Si O2"
_cell_formula_units_Z 64
_cell_length_a 8.806205
_cell_length_b 26.191531
_cell_length_c 18.249142
_cell_angle_alpha 90.000000
_cell_angle_beta 90.000000
_cell_angle_gamma 90.000000
_cell_volume 4209.127944
_symmetry_space_group_name_H-M "I M A 2"
_symmetry_group_IT_number 46
_symmetry_cell_setting 'orthorhombic'
loop_
_space_group_symop_operation_xyz
x,y,z
-x,-y,z
1/2-x,y,z
1/2+x,-y,z
1/2+x,1/2+y,1/2+z
1/2-x,1/2-y,1/2+z
-x,1/2+y,1/2+z
x,1/2-y,1/2+z
loop_
_atom_site_type_symbol
_atom_site_label
_atom_site_fract_x
_atom_site_fract_y
_atom_site_fract_z
Si Si1 0.572369 0.249823 0.723840
Si Si2 0.417472 0.195498 0.013479
Si Si3 0.070816 0.257069 0.879093
Si Si4 0.930002 0.553515 0.885636
Si Si5 0.427405 0.447384 0.717956
Si Si6 0.430262 0.649424 0.961928
Si Si7 0.079758 0.197734 0.595428
Si Si8 0.424941 0.646173 0.640032
O O1 0.750000 0.242768 0.738238
O O2 0.479780 0.243045 0.798048
O O3 0.514741 0.205172 0.670049
O O4 0.535797 0.305314 0.690393
O O5 0.250000 0.170249 0.014247
O O6 0.411166 0.249322 0.053539
O O7 0.533070 0.158018 0.055260
O O8 0.470314 0.208101 0.930408
O O9 0.250000 0.268643 0.882449
O O10 0.983702 0.307347 0.905394
O O11 0.750000 0.553435 0.896863
O O12 0.975594 0.564438 0.801378
O O13 0.000000 0.500000 0.911115
O O14 0.006841 0.595668 0.935657
O O15 0.500000 0.500000 0.689961
O O16 0.250000 0.454024 0.710800
O O17 0.478784 0.401427 0.666759
O O18 0.250000 0.649018 0.963737
O O19 0.493036 0.657596 0.043923
O O20 0.250000 0.177941 0.612994
O O21 0.250000 0.631553 0.644305
#
# Coordination Sequence:
#
# PCOD8191652 Si02
#       8
#     8   8   8   8   8   8   8   8
#     4  10  19  29  43  65  90 116 146 181 218 259
#     4   8  16  29  43  59  81 110 144 178 213 252
#     4  10  19  30  44  63  87 117 150 182 217 260
#     4  10  20  33  47  64  86 114 147 183 221 259
#     4  10  20  32  46  62  84 112 144 181 217 253
#     4  11  20  30  45  64  87 116 149 184 220 260
#     4   9  17  30  45  61  84 114 146 180 216 258
#     4  10  19  29  43  62  85 113 145 177 214 257
#
# _framework density 15.20505
#
# number of rings (size 3 to 8) (size 9 to 14) (size 15 to 20)
#    0.000    2.250    0.000    4.875    0.000    8.500 
#    0.000    0.000    0.000    0.000    0.000    0.000 
#    0.000    1.000    0.000    5.500    0.000    5.875 
#
# Total GULP energy -396799.938913 kJ/mol
# GULP energy per Si atom -12399.998091 kJ/mol
# Density = 1.517044 g / cm^3
# Si number density = 15.205050 Si / 1000 Ang^3
#
#
#
# Elastic Constant Matrix: (Units=GPa)
#
#
# Indices 1 2 3 4 5 6 
#
# 1 83.6908 39.9369 33.0224 -0.0002 0.0000 0.0000
# 2 39.9369 76.4593 46.2104 -0.0001 0.0000 0.0000
# 3 33.0224 46.2104 86.7136 -0.0010 -0.0002 0.0001
# 4 -0.0002 -0.0001 -0.0010 21.1653 0.0000 0.0000
# 5 0.0000 0.0000 -0.0002 0.0000 26.6471 -0.0001
# 6 0.0000 0.0000 0.0001 0.0000 -0.0001 25.3940
#
#
#
# Elastic Compliance Matrix: (Units=1/GPa)
#
#
# Indices 1 2 3 4 5 6 
#
# 1 0.016263 -0.007009 -0.002458 0.000000 0.000000 0.000000
# 2 -0.007009 0.022313 -0.009222 0.000000 0.000000 0.000000
# 3 -0.002458 -0.009222 0.017383 0.000001 0.000000 0.000000
# 4 0.000000 0.000000 0.000001 0.047247 0.000000 0.000000
# 5 0.000000 0.000000 0.000000 0.000000 0.037527 0.000000
# 6 0.000000 0.000000 0.000000 0.000000 0.000000 0.039379
#
#
# Mechanical properties :
#
#
# Convention : Reuss Voigt Hill
#
# Bulk Modulus (GPa) = 53.81769 53.91146 53.86458
# Shear Modulus (GPa) = 22.35280 23.15422 22.75351
#
# Velocity S-wave (km/s) = 3.83834 3.90654 3.87259
# Velocity P-wave (km/s) = 7.42396 7.47538 7.44972
#
# Compressibility (1/GPa) = 0.01858125
#
# Stress axis : x y z
#
# Youngs Moduli (GPa) = 61.48758 44.81620 57.52853
#
# Poissons Ratio (x) = 0.31412 0.14142
# Poissons Ratio (y) = 0.43098 0.53051
# Poissons Ratio (z) = 0.15115 0.41328
#
# Static dielectric constant tensor:
#      x y z
#    x 3.076170 0.000000 0.000000 
#    y 0.000000 2.710630 0.000000 
#    z 0.000000 0.000000 3.055130 
# 
# 
# High freq. dielectric constant tensor:
#      x y z
#    x 1.602450 0.000000 0.000000 
#    y 0.000000 1.547300 0.000000 
#    z 0.000000 0.000000 1.572660 
# 
# From -- ./inp_files/18621.got.cif
#   From: 2010.03.12/outbox.cif.g09.slc.cpg/sg46_10_cif.got.tgz:18621.got - 2010.04.14 02:56:35.
