data_PCOD8191052
_publ_section_title
;
Structure prediction by ZEFSAII (Michael W. Deem and Ramdas Pophale) SiO2 
 PCOD8191052
Probable space group: I B A 2
;
_chemical_formula_sum "Si O2"
_cell_formula_units_Z 40
_cell_length_a 8.481728
_cell_length_b 13.756231
_cell_length_c 14.314203
_cell_angle_alpha 90.000000
_cell_angle_beta 90.000000
_cell_angle_gamma 90.000000
_cell_volume 1670.132676
_symmetry_space_group_name_H-M "I B A 2"
_symmetry_group_IT_number 45
_symmetry_cell_setting 'orthorhombic'
loop_
_space_group_symop_operation_xyz
x,y,z
-x,-y,z
-x,y,1/2+z
x,-y,1/2+z
1/2+x,1/2+y,1/2+z
1/2-x,1/2-y,1/2+z
1/2-x,1/2+y,z
1/2+x,1/2-y,z
loop_
_atom_site_type_symbol
_atom_site_label
_atom_site_fract_x
_atom_site_fract_y
_atom_site_fract_z
Si Si1 0.129964 0.303804 0.876950
Si Si2 0.539547 0.605362 0.157275
Si Si3 0.770937 0.276221 0.177703
Si Si4 0.811443 0.354202 0.976470
Si Si5 0.857857 0.952936 0.459088
O O1 0.125297 0.313062 0.765100
O O2 0.167754 0.197479 0.919993
O O3 0.281833 0.365425 0.905274
O O4 0.968924 0.345372 0.916058
O O5 0.500000 0.500000 0.205115
O O6 0.407807 0.686066 0.184709
O O7 0.707588 0.657071 0.183650
O O8 0.544268 0.590398 0.046719
O O9 0.844433 0.311699 0.079619
O O10 0.773735 0.468097 0.988234
O O11 0.000000 0.000000 0.396776
#
# Coordination Sequence:
#
# PCOD8191052 Si02
#       5
#     8   8   8   8   8
#     4  12  27  44  74 110 146 203 259 321 388 478
#     4  11  24  47  75 110 146 205 251 318 395 460
#     4  12  25  47  77 107 152 204 260 324 393 468
#     4  12  24  47  70 106 156 196 256 322 390 467
#     4  11  23  47  72 105 147 202 247 318 397 456
#
# _framework density 23.950192999999999
#
# number of rings (size 3 to 8) (size 9 to 14) (size 15 to 20)
#    0.000    0.400    6.000    4.200    0.000    2.400 
#    0.000    5.000    0.000    0.000    0.000    0.000 
#    0.000    0.000    0.000    0.000    0.000    0.000 
#
# Total GULP energy -247781.059324 kJ/mol
# GULP energy per Si atom -12389.052966 kJ/mol
# Density = 2.389568 g / cm^3
# Si number density = 23.950193 Si / 1000 Ang^3
#
#
#
# Elastic Constant Matrix: (Units=GPa)
#
#
# Indices 1 2 3 4 5 6 
#
# 1 86.5321 26.1356 17.9924 0.0000 0.0000 0.0000
# 2 26.1356 128.9342 5.5737 0.0000 0.0000 0.0000
# 3 17.9924 5.5737 127.1826 0.0000 0.0000 0.0000
# 4 0.0000 0.0000 0.0000 14.5113 0.0000 0.0000
# 5 0.0000 0.0000 0.0000 0.0000 26.1543 0.0000
# 6 0.0000 0.0000 0.0000 0.0000 0.0000 63.2904
#
#
#
# Elastic Compliance Matrix: (Units=1/GPa)
#
#
# Indices 1 2 3 4 5 6 
#
# 1 0.012659 -0.002493 -0.001682 0.000000 0.000000 0.000000
# 2 -0.002493 0.008262 -0.000009 0.000000 0.000000 0.000000
# 3 -0.001682 -0.000009 0.008101 0.000000 0.000000 0.000000
# 4 0.000000 0.000000 0.000000 0.068912 0.000000 0.000000
# 5 0.000000 0.000000 0.000000 0.000000 0.038235 0.000000
# 6 0.000000 0.000000 0.000000 0.000000 0.000000 0.015800
#
#
# Mechanical properties :
#
#
# Convention : Reuss Voigt Hill
#
# Bulk Modulus (GPa) = 48.41853 49.11692 48.76773
# Shear Modulus (GPa) = 29.90048 40.32102 35.11075
#
# Velocity S-wave (km/s) = 3.53717 4.10754 3.83298
# Velocity P-wave (km/s) = 6.07802 6.56112 6.32419
#
# Compressibility (1/GPa) = 0.02065325
#
# Stress axis : x y z
#
# Youngs Moduli (GPa) = 78.99429 121.04015 123.44128
#
# Poissons Ratio (x) = 0.30180 0.20758
# Poissons Ratio (y) = 0.19696 0.00115
# Poissons Ratio (z) = 0.13284 0.00113
#
# Static dielectric constant tensor:
#      x y z
#    x 4.403870 0.000000 0.000000 
#    y 0.000000 4.825310 0.000000 
#    z 0.000000 0.000000 4.306920 
# 
# 
# High freq. dielectric constant tensor:
#      x y z
#    x 1.949250 0.000000 0.000000 
#    y 0.000000 1.959440 0.000000 
#    z 0.000000 0.000000 1.943920 
# 
# From -- ./inp_files/5469.got.cif
#   From: 2010.03.12/outbox.cif.g09.slc.cpg/sg45_3_cif.got.tgz:5469.got - 2010.04.14 02:50:11.
