data_PCOD8191422
_publ_section_title
;
Structure prediction by ZEFSAII (Michael W. Deem and Ramdas Pophale) SiO2 
 PCOD8191422
Probable space group: I M A 2
;
_chemical_formula_sum "Si O2"
_cell_formula_units_Z 40
_cell_length_a 8.954182
_cell_length_b 20.915013
_cell_length_c 12.438515
_cell_angle_alpha 90.000000
_cell_angle_beta 90.000000
_cell_angle_gamma 90.000000
_cell_volume 2329.445696
_symmetry_space_group_name_H-M "I M A 2"
_symmetry_group_IT_number 46
_symmetry_cell_setting 'orthorhombic'
loop_
_space_group_symop_operation_xyz
x,y,z
-x,-y,z
1/2-x,y,z
1/2+x,-y,z
1/2+x,1/2+y,1/2+z
1/2-x,1/2-y,1/2+z
-x,1/2+y,1/2+z
x,1/2-y,1/2+z
loop_
_atom_site_type_symbol
_atom_site_label
_atom_site_fract_x
_atom_site_fract_y
_atom_site_fract_z
Si Si1 0.423063 0.800944 0.271870
Si Si2 0.424425 0.432627 0.163220
Si Si3 0.420480 0.173715 0.832097
Si Si4 0.577534 0.707200 0.565465
Si Si5 0.574349 0.161560 0.506319
O O1 0.250000 0.803102 0.244360
O O2 0.469789 0.727492 0.287917
O O3 0.512117 0.829887 0.169538
O O4 0.460115 0.841565 0.378652
O O5 0.500000 0.500000 0.184024
O O6 0.250000 0.441472 0.140413
O O7 0.454900 0.391906 0.271010
O O8 0.497984 0.399802 0.059331
O O9 0.250000 0.196154 0.811821
O O10 0.448329 0.163769 0.959754
O O11 0.750000 0.722649 0.584107
O O12 0.493707 0.774568 0.556409
O O13 0.750000 0.161293 0.529230
#
# Coordination Sequence:
#
# PCOD8191422 Si02
#       5
#     8   8   8   8   8
#     4  10  19  30  49  76 106 134 164 209 260 304
#     4  11  22  36  54  75 102 138 174 213 255 303
#     4   9  19  33  49  72 101 134 172 208 251 304
#     4  10  18  30  50  75 104 134 166 209 258 309
#     4  10  20  33  49  74 104 134 172 213 255 303
#
# _framework density 17.171468000000001
#
# number of rings (size 3 to 8) (size 9 to 14) (size 15 to 20)
#    0.000    2.000    2.000    2.400    0.000    4.000 
#    0.000    0.000    0.000    1.200    0.000    5.600 
#    0.000    0.000    0.000    0.000    0.000    0.000 
#
# Total GULP energy -247997.612218 kJ/mol
# GULP energy per Si atom -12399.880611 kJ/mol
# Density = 1.713239 g / cm^3
# Si number density = 17.171468 Si / 1000 Ang^3
#
#
#
# Elastic Constant Matrix: (Units=GPa)
#
#
# Indices 1 2 3 4 5 6 
#
# 1 102.7705 41.3123 67.7457 -0.0001 0.0000 0.0000
# 2 41.3123 78.3712 48.1658 0.0002 0.0000 0.0000
# 3 67.7457 48.1658 150.6830 0.0002 0.0000 0.0000
# 4 -0.0001 0.0002 0.0002 22.0068 0.0000 0.0000
# 5 0.0000 0.0000 0.0000 0.0000 32.3765 0.0000
# 6 0.0000 0.0000 0.0000 0.0000 0.0000 24.1689
#
#
#
# Elastic Compliance Matrix: (Units=1/GPa)
#
#
# Indices 1 2 3 4 5 6 
#
# 1 0.015111 -0.004717 -0.005286 0.000000 0.000000 0.000000
# 2 -0.004717 0.017352 -0.003426 0.000000 0.000000 0.000000
# 3 -0.005286 -0.003426 0.010108 0.000000 0.000000 0.000000
# 4 0.000000 0.000000 0.000000 0.045441 0.000000 0.000000
# 5 0.000000 0.000000 0.000000 0.000000 0.030887 0.000000
# 6 0.000000 0.000000 0.000000 0.000000 0.000000 0.041375
#
#
# Mechanical properties :
#
#
# Convention : Reuss Voigt Hill
#
# Bulk Modulus (GPa) = 63.64008 71.80803 67.72406
# Shear Modulus (GPa) = 25.99176 27.35049 26.67113
#
# Velocity S-wave (km/s) = 3.89480 3.99530 3.94537
# Velocity P-wave (km/s) = 7.57416 7.94936 7.76403
#
# Compressibility (1/GPa) = 0.01571337
#
# Stress axis : x y z
#
# Youngs Moduli (GPa) = 66.17669 57.63131 98.93093
#
# Poissons Ratio (x) = 0.27184 0.52295
# Poissons Ratio (y) = 0.31215 0.33892
# Poissons Ratio (z) = 0.34981 0.19743
#
# Static dielectric constant tensor:
#      x y z
#    x 3.356660 0.000000 0.000000 
#    y 0.000000 2.765630 0.000000 
#    z 0.000000 0.000000 3.667620 
# 
# 
# High freq. dielectric constant tensor:
#      x y z
#    x 1.680840 0.000000 0.000000 
#    y 0.000000 1.606470 0.000000 
#    z 0.000000 0.000000 1.684360 
# 
# From -- ./inp_files/9037.got.cif
#   From: 2010.03.12/outbox.cif.g09.slc.cpg/sg46_5_cif.got.tgz:9037.got - 2010.04.14 02:56:35.
