data_PCOD8191704
_publ_section_title
;
Structure prediction by ZEFSAII (Michael W. Deem and Ramdas Pophale) SiO2 
 PCOD8191704
Probable space group: I M A 2
;
_chemical_formula_sum "Si O2"
_cell_formula_units_Z 56
_cell_length_a 9.039146
_cell_length_b 22.352873
_cell_length_c 17.617577
_cell_angle_alpha 90.000000
_cell_angle_beta 90.000000
_cell_angle_gamma 90.000000
_cell_volume 3559.646982
_symmetry_space_group_name_H-M "I M A 2"
_symmetry_group_IT_number 46
_symmetry_cell_setting 'orthorhombic'
loop_
_space_group_symop_operation_xyz
x,y,z
-x,-y,z
1/2-x,y,z
1/2+x,-y,z
1/2+x,1/2+y,1/2+z
1/2-x,1/2-y,1/2+z
-x,1/2+y,1/2+z
x,1/2-y,1/2+z
loop_
_atom_site_type_symbol
_atom_site_label
_atom_site_fract_x
_atom_site_fract_y
_atom_site_fract_z
Si Si1 0.578315 0.806692 0.072220
Si Si2 0.922443 0.183754 0.601466
Si Si3 0.424951 0.145968 0.460548
Si Si4 0.418242 0.278402 0.409518
Si Si5 0.422660 0.652786 0.706373
Si Si6 0.424202 0.936710 0.340009
Si Si7 0.420818 0.781796 0.761989
O O1 0.750000 0.791324 0.089390
O O2 0.472327 0.751238 0.088139
O O3 0.517314 0.858538 0.128544
O O4 0.560796 0.822066 0.982635
O O5 0.750000 0.176991 0.581313
O O6 0.950838 0.172465 0.691700
O O7 0.017309 0.139662 0.547723
O O8 0.250000 0.136134 0.459142
O O9 0.472653 0.211265 0.429958
O O10 0.504694 0.095493 0.412118
O O11 0.250000 0.274833 0.384299
O O12 0.503736 0.306275 0.338262
O O13 0.250000 0.655809 0.685786
O O14 0.458969 0.599610 0.763660
O O15 0.479055 0.714831 0.743784
O O16 0.250000 0.943552 0.354047
O O17 0.500000 0.000000 0.329275
O O18 0.250000 0.777407 0.780550
#
# Coordination Sequence:
#
# PCOD8191704 Si02
#       7
#     8   8   8   8   8   8   8
#     4   9  17  27  40  61  85 113 148 182 218 264
#     4   9  17  28  41  60  85 115 148 181 218 263
#     4  10  19  31  45  63  85 115 151 186 227 267
#     4   9  17  26  39  62  89 115 145 178 215 260
#     4   9  18  31  44  60  83 114 149 184 224 265
#     4  11  22  35  49  66  88 116 154 194 230 268
#     4   9  16  26  41  62  86 115 149 178 214 261
#
# _framework density 15.731897
#
# number of rings (size 3 to 8) (size 9 to 14) (size 15 to 20)
#    0.000    2.571    1.429    3.429    0.000    6.857 
#    0.000    0.000    0.000    0.000    0.000    0.000 
#    0.000    1.143    0.000   10.286    0.000    7.714 
#
# Total GULP energy -346990.048604 kJ/mol
# GULP energy per Si atom -12392.501736 kJ/mol
# Density = 1.569609 g / cm^3
# Si number density = 15.731897 Si / 1000 Ang^3
#
#
#
# Elastic Constant Matrix: (Units=GPa)
#
#
# Indices 1 2 3 4 5 6 
#
# 1 71.4356 27.5449 63.4263 0.0000 0.0000 0.0000
# 2 27.5449 45.7953 40.1048 0.0000 0.0000 0.0000
# 3 63.4263 40.1048 139.6227 0.0000 0.0000 0.0000
# 4 0.0000 0.0000 0.0000 15.1437 0.0000 0.0000
# 5 0.0000 0.0000 0.0000 0.0000 33.1259 0.0000
# 6 0.0000 0.0000 0.0000 0.0000 0.0000 18.4838
#
#
#
# Elastic Compliance Matrix: (Units=1/GPa)
#
#
# Indices 1 2 3 4 5 6 
#
# 1 0.024947 -0.006788 -0.009383 0.000000 0.000000 0.000000
# 2 -0.006788 0.031022 -0.005827 0.000000 0.000000 0.000000
# 3 -0.009383 -0.005827 0.013098 0.000000 0.000000 0.000000
# 4 0.000000 0.000000 0.000000 0.066034 0.000000 0.000000
# 5 0.000000 0.000000 0.000000 0.000000 0.030188 0.000000
# 6 0.000000 0.000000 0.000000 0.000000 0.000000 0.054101
#
#
# Mechanical properties :
#
#
# Convention : Reuss Voigt Hill
#
# Bulk Modulus (GPa) = 39.88620 57.66726 48.77673
# Shear Modulus (GPa) = 18.39967 21.73585 20.06776
#
# Velocity S-wave (km/s) = 3.42362 3.72108 3.57544
# Velocity P-wave (km/s) = 6.40601 7.42952 6.93667
#
# Compressibility (1/GPa) = 0.02507133
#
# Stress axis : x y z
#
# Youngs Moduli (GPa) = 40.08521 32.23492 76.34620
#
# Poissons Ratio (x) = 0.21881 0.71634
# Poissons Ratio (y) = 0.27210 0.44488
# Poissons Ratio (z) = 0.37611 0.18784
#
# Static dielectric constant tensor:
#      x y z
#    x 3.056760 0.000000 0.000000 
#    y 0.000000 2.534510 0.000000 
#    z 0.000000 0.000000 3.444780 
# 
# 
# High freq. dielectric constant tensor:
#      x y z
#    x 1.617530 0.000000 0.000000 
#    y 0.000000 1.527230 0.000000 
#    z 0.000000 0.000000 1.621050 
# 
# From -- ./inp_files/18435.got.cif
#   From: 2010.03.12/outbox.cif.g09.slc.cpg/sg46_10_cif.got.tgz:18435.got - 2010.04.14 02:56:35.
