data_PCOD8191835
_publ_section_title
;
Structure prediction by ZEFSAII (Michael W. Deem and Ramdas Pophale) SiO2 
 PCOD8191835
Probable space group: I M A 2
;
_chemical_formula_sum "Si O2"
_cell_formula_units_Z 64
_cell_length_a 8.850704
_cell_length_b 14.196287
_cell_length_c 23.825147
_cell_angle_alpha 90.000000
_cell_angle_beta 90.000000
_cell_angle_gamma 90.000000
_cell_volume 2993.561441
_symmetry_space_group_name_H-M "I M A 2"
_symmetry_group_IT_number 46
_symmetry_cell_setting 'orthorhombic'
loop_
_space_group_symop_operation_xyz
x,y,z
-x,-y,z
1/2-x,y,z
1/2+x,-y,z
1/2+x,1/2+y,1/2+z
1/2-x,1/2-y,1/2+z
-x,1/2+y,1/2+z
x,1/2-y,1/2+z
loop_
_atom_site_type_symbol
_atom_site_label
_atom_site_fract_x
_atom_site_fract_y
_atom_site_fract_z
Si Si1 0.425753 0.803415 0.441860
Si Si2 0.430059 0.901327 0.214047
Si Si3 0.419768 0.246164 0.641031
Si Si4 0.584919 0.922406 0.719387
Si Si5 0.416960 0.592039 0.444486
Si Si6 0.573338 0.673850 0.827616
Si Si7 0.425581 0.898887 0.558373
Si Si8 0.416905 0.863476 0.820891
O O1 0.250000 0.789981 0.425553
O O2 0.488833 0.696803 0.456112
O O3 0.508155 0.853887 0.389127
O O4 0.449106 0.873361 0.493373
O O5 0.250000 0.904402 0.215684
O O6 0.481303 0.832642 0.163336
O O7 0.490391 0.877677 0.276249
O O8 0.500000 0.000000 0.195858
O O9 0.250000 0.277550 0.622367
O O10 0.404848 0.180217 0.694737
O O11 0.498745 0.187266 0.591889
O O12 0.750000 0.957554 0.736981
O O13 0.466357 0.928826 0.770476
O O14 0.500000 0.000000 0.678286
O O15 0.500000 0.500000 0.471064
O O16 0.250000 0.589838 0.470985
O O17 0.413789 0.576541 0.377672
O O18 0.750000 0.649456 0.824499
O O19 0.546071 0.784485 0.822610
O O20 0.250000 0.904922 0.574755
O O21 0.500000 0.000000 0.570038
O O22 0.250000 0.819351 0.809910
#
# Coordination Sequence:
#
# PCOD8191835 Si02
#       8
#     8   8   8   8   8   8   8   8
#     4   9  21  41  62  88 126 172 218 268 326 388
#     4  12  25  43  68  96 131 171 214 263 322 385
#     4  11  24  43  65  92 127 163 209 262 318 384
#     4  11  22  33  51  80 117 157 202 251 305 371
#     4   9  18  32  51  79 115 157 202 248 304 365
#     4  11  21  36  60  92 129 168 213 262 320 382
#     4  11  24  44  70  96 126 166 215 271 331 389
#     4  10  19  32  51  77 116 162 204 250 305 367
#
# _framework density 21.379218000000002
#
# number of rings (size 3 to 8) (size 9 to 14) (size 15 to 20)
#    0.000    1.500    1.250    5.250    0.000    7.500 
#    0.000    1.875    0.000    1.500    0.000    0.000 
#    0.000    0.000    0.000    0.000    0.000    0.000 
#
# Total GULP energy -396459.379701 kJ/mol
# GULP energy per Si atom -12389.355616 kJ/mol
# Density = 2.133056 g / cm^3
# Si number density = 21.379218 Si / 1000 Ang^3
#
#
#
# Elastic Constant Matrix: (Units=GPa)
#
#
# Indices 1 2 3 4 5 6 
#
# 1 161.3746 52.8711 52.0728 0.0000 0.0000 0.0000
# 2 52.8711 107.1774 35.1752 0.0000 0.0000 0.0000
# 3 52.0728 35.1752 81.7948 0.0000 0.0000 0.0000
# 4 0.0000 0.0000 0.0000 14.1896 0.0000 0.0000
# 5 0.0000 0.0000 0.0000 0.0000 21.2629 0.0000
# 6 0.0000 0.0000 0.0000 0.0000 0.0000 36.1623
#
#
#
# Elastic Compliance Matrix: (Units=1/GPa)
#
#
# Indices 1 2 3 4 5 6 
#
# 1 0.008465 -0.002803 -0.004184 0.000000 0.000000 0.000000
# 2 -0.002803 0.011792 -0.003287 0.000000 0.000000 0.000000
# 3 -0.004184 -0.003287 0.016303 0.000000 0.000000 0.000000
# 4 0.000000 0.000000 0.000000 0.070474 0.000000 0.000000
# 5 0.000000 0.000000 0.000000 0.000000 0.047030 0.000000
# 6 0.000000 0.000000 0.000000 0.000000 0.000000 0.027653
#
#
# Mechanical properties :
#
#
# Convention : Reuss Voigt Hill
#
# Bulk Modulus (GPa) = 62.44917 70.06500 66.25708
# Shear Modulus (GPa) = 24.08471 28.33814 26.21143
#
# Velocity S-wave (km/s) = 3.36005 3.64469 3.50526
# Velocity P-wave (km/s) = 6.65784 7.11023 6.88775
#
# Compressibility (1/GPa) = 0.01601302
#
# Stress axis : x y z
#
# Youngs Moduli (GPa) = 118.13251 84.80638 61.33991
#
# Poissons Ratio (x) = 0.23769 0.25663
# Poissons Ratio (y) = 0.33110 0.20160
# Poissons Ratio (z) = 0.49424 0.27872
#
# Static dielectric constant tensor:
#      x y z
#    x 4.018110 0.000000 0.000000 
#    y 0.000000 3.866490 0.000000 
#    z 0.000000 0.000000 3.736610 
# 
# 
# High freq. dielectric constant tensor:
#      x y z
#    x 1.845930 0.000000 0.000000 
#    y 0.000000 1.842670 0.000000 
#    z 0.000000 0.000000 1.820100 
# 
# From -- ./inp_files/23188.got.cif
#   From: 2010.03.12/outbox.cif.g09.slc.cpg/sg46_12_cif.got.tgz:23188.got - 2010.04.14 02:56:35.
