data_PCOD8191431
_publ_section_title
;
Structure prediction by ZEFSAII (Michael W. Deem and Ramdas Pophale) SiO2 
 PCOD8191431
Probable space group: I M A 2
;
_chemical_formula_sum "Si O2"
_cell_formula_units_Z 64
_cell_length_a 19.286882
_cell_length_b 9.904228
_cell_length_c 18.971301
_cell_angle_alpha 90.000000
_cell_angle_beta 90.000000
_cell_angle_gamma 90.000000
_cell_volume 3623.929727
_symmetry_space_group_name_H-M "I M A 2"
_symmetry_group_IT_number 46
_symmetry_cell_setting 'orthorhombic'
loop_
_space_group_symop_operation_xyz
x,y,z
-x,-y,z
1/2-x,y,z
1/2+x,-y,z
1/2+x,1/2+y,1/2+z
1/2-x,1/2-y,1/2+z
-x,1/2+y,1/2+z
x,1/2-y,1/2+z
loop_
_atom_site_type_symbol
_atom_site_label
_atom_site_fract_x
_atom_site_fract_y
_atom_site_fract_z
Si Si1 0.405457 0.898212 0.500000
Si Si2 0.076469 0.055120 0.975242
Si Si3 0.669707 0.345971 0.557382
Si Si4 0.941551 0.824869 0.548928
Si Si5 0.941428 0.384389 0.845820
Si Si6 0.034069 0.135222 0.827527
Si Si7 0.097710 0.583783 0.697732
Si Si8 0.445449 0.293669 0.693600
O O1 0.345142 0.805234 0.530936
O O2 0.480478 0.840417 0.520894
O O3 0.398578 0.913666 0.415906
O O4 0.394461 0.047668 0.529837
O O5 0.084130 0.086922 0.891579
O O6 0.092065 0.191898 0.016394
O O7 0.000000 0.000000 0.992589
O O8 0.130383 0.946120 0.004100
O O9 0.750000 0.378983 0.551081
O O10 0.648614 0.352470 0.639965
O O11 0.936780 0.815428 0.632768
O O12 0.886346 0.385281 0.780495
O O13 0.000000 0.500000 0.831236
O O14 0.975761 0.237247 0.857377
O O15 0.073782 0.215480 0.765839
O O16 0.000000 0.000000 0.794938
O O17 0.103638 0.423116 0.684725
O O18 0.022727 0.649542 0.688331
#
# Coordination Sequence:
#
# PCOD8191431 Si02
#       8
#     8   8   8   8   8   8   8   8
#     4  11  21  33  54  89 121 151 185 247 303 362
#     4  11  18  36  59  87 116 150 199 254 291 344
#     4  12  25  41  59  83 121 168 208 241 294 364
#     4  11  19  29  58  88 116 140 189 248 302 340
#     4  11  17  32  55  91 118 145 186 245 309 352
#     4  10  19  27  47  85 124 141 174 242 305 349
#     4  10  19  33  56  81 118 152 192 239 293 355
#     4  10  18  30  52  89 116 143 186 250 300 339
#
# _framework density 17.660387
#
# number of rings (size 3 to 8) (size 9 to 14) (size 15 to 20)
#    0.000    1.250    8.750    0.750    1.750    0.000 
#    0.000    1.250    0.000    0.750    0.000    0.000 
#    0.000    0.000    0.000    0.000    0.000    0.000 
#
# Total GULP energy -396622.996194 kJ/mol
# GULP energy per Si atom -12394.468631 kJ/mol
# Density = 1.762019 g / cm^3
# Si number density = 17.660387 Si / 1000 Ang^3
#
#
#
# Elastic Constant Matrix: (Units=GPa)
#
#
# Indices 1 2 3 4 5 6 
#
# 1 59.4133 25.1722 34.4942 0.0000 0.0000 0.0000
# 2 25.1722 122.5504 49.8740 0.0000 0.0000 0.0000
# 3 34.4942 49.8740 166.9166 0.0000 0.0000 0.0000
# 4 0.0000 0.0000 0.0000 28.6748 0.0000 0.0000
# 5 0.0000 0.0000 0.0000 0.0000 6.2857 0.0000
# 6 0.0000 0.0000 0.0000 0.0000 0.0000 13.7039
#
#
#
# Elastic Compliance Matrix: (Units=1/GPa)
#
#
# Indices 1 2 3 4 5 6 
#
# 1 0.019908 -0.002749 -0.003293 0.000000 0.000000 0.000000
# 2 -0.002749 0.009669 -0.002321 0.000000 0.000000 0.000000
# 3 -0.003293 -0.002321 0.007365 0.000000 0.000000 0.000000
# 4 0.000000 0.000000 0.000000 0.034874 0.000000 0.000000
# 5 0.000000 0.000000 0.000000 0.000000 0.159090 0.000000
# 6 0.000000 0.000000 0.000000 0.000000 0.000000 0.072972
#
#
# Mechanical properties :
#
#
# Convention : Reuss Voigt Hill
#
# Bulk Modulus (GPa) = 49.46496 63.10681 56.28588
# Shear Modulus (GPa) = 15.27454 25.68886 20.48170
#
# Velocity S-wave (km/s) = 2.94412 3.81806 3.40921
# Velocity P-wave (km/s) = 6.29499 7.43290 6.88748
#
# Compressibility (1/GPa) = 0.02021633
#
# Stress axis : x y z
#
# Youngs Moduli (GPa) = 50.23208 103.42171 135.77826
#
# Poissons Ratio (x) = 0.28432 0.44706
# Poissons Ratio (y) = 0.13809 0.31514
# Poissons Ratio (z) = 0.16539 0.24004
#
# Static dielectric constant tensor:
#      x y z
#    x 2.591430 0.000000 0.000000 
#    y 0.000000 3.621410 0.000000 
#    z 0.000000 0.000000 3.659590 
# 
# 
# High freq. dielectric constant tensor:
#      x y z
#    x 1.592870 0.000000 0.000000 
#    y 0.000000 1.706180 0.000000 
#    z 0.000000 0.000000 1.708460 
# 
# From -- ./inp_files/22480.got.cif
#   From: 2010.03.12/outbox.cif.g09.slc.cpg/sg46_12_cif.got.tgz:22480.got - 2010.04.14 02:56:35.
