data_PCOD8191781
_publ_section_title
;
Structure prediction by ZEFSAII (Michael W. Deem and Ramdas Pophale) SiO2 
 PCOD8191781
Probable space group: I M A 2
;
_chemical_formula_sum "Si O2"
_cell_formula_units_Z 48
_cell_length_a 8.791143
_cell_length_b 23.963929
_cell_length_c 13.738424
_cell_angle_alpha 90.000000
_cell_angle_beta 90.000000
_cell_angle_gamma 90.000000
_cell_volume 2894.278272
_symmetry_space_group_name_H-M "I M A 2"
_symmetry_group_IT_number 46
_symmetry_cell_setting 'orthorhombic'
loop_
_space_group_symop_operation_xyz
x,y,z
-x,-y,z
1/2-x,y,z
1/2+x,-y,z
1/2+x,1/2+y,1/2+z
1/2-x,1/2-y,1/2+z
-x,1/2+y,1/2+z
x,1/2-y,1/2+z
loop_
_atom_site_type_symbol
_atom_site_label
_atom_site_fract_x
_atom_site_fract_y
_atom_site_fract_z
Si Si1 0.570325 0.665372 0.001100
Si Si2 0.070702 0.779106 0.679303
Si Si3 0.570535 0.441907 0.907208
Si Si4 0.571577 0.230612 0.898515
Si Si5 0.928408 0.333671 0.583702
Si Si6 0.070924 0.557254 0.683214
O O1 0.750000 0.661512 0.997002
O O2 0.517129 0.677223 0.111510
O O3 0.499773 0.606768 0.971346
O O4 0.515519 0.713228 0.927091
O O5 0.250000 0.786040 0.660402
O O6 0.025938 0.789914 0.791207
O O7 0.015478 0.716765 0.652240
O O8 0.500000 0.500000 0.943987
O O9 0.750000 0.443359 0.922230
O O10 0.525653 0.431728 0.794901
O O11 0.750000 0.244932 0.905051
O O12 0.527748 0.180326 0.972013
O O13 0.750000 0.339828 0.596540
O O14 0.000646 0.392065 0.619287
O O15 0.250000 0.552451 0.670730
O O16 0.000000 0.500000 0.643831
#
# Coordination Sequence:
#
# PCOD8191781 Si02
#       6
#     8   8   8   8   8   8
#     4  11  21  31  46  71 101 128 154 191 240 291
#     4   9  17  31  50  69  90 121 160 199 238 281
#     4  10  19  32  49  69  94 125 160 196 236 282
#     4   9  17  31  51  71  92 124 164 200 234 277
#     4   8  14  26  45  68  91 116 150 190 232 277
#     4   9  17  29  46  68  94 122 152 188 229 276
#
# _framework density 16.584444999999999
#
# number of rings (size 3 to 8) (size 9 to 14) (size 15 to 20)
#    0.000    2.667    0.000    4.000    0.000    4.000 
#    0.000    3.333    0.000    1.000    0.000    2.333 
#    0.000    0.000    0.000    0.000    0.000    0.000 
#
# Total GULP energy -297554.575127 kJ/mol
# GULP energy per Si atom -12398.107297 kJ/mol
# Density = 1.654670 g / cm^3
# Si number density = 16.584445 Si / 1000 Ang^3
#
#
#
# Elastic Constant Matrix: (Units=GPa)
#
#
# Indices 1 2 3 4 5 6 
#
# 1 59.6536 44.9994 36.5014 0.0000 0.0000 0.0000
# 2 44.9994 155.2393 76.8939 -0.0001 0.0000 0.0000
# 3 36.5014 76.8939 120.9592 -0.0005 0.0000 0.0000
# 4 0.0000 -0.0001 -0.0005 26.5185 0.0000 0.0000
# 5 0.0000 0.0000 0.0000 0.0000 16.3952 0.0000
# 6 0.0000 0.0000 0.0000 0.0000 0.0000 27.3330
#
#
#
# Elastic Compliance Matrix: (Units=1/GPa)
#
#
# Indices 1 2 3 4 5 6 
#
# 1 0.022639 -0.004639 -0.003882 0.000000 0.000000 0.000000
# 2 -0.004639 0.010353 -0.005181 0.000000 0.000000 0.000000
# 3 -0.003882 -0.005181 0.012733 0.000000 0.000000 0.000000
# 4 0.000000 0.000000 0.000000 0.037710 0.000000 0.000000
# 5 0.000000 0.000000 0.000000 0.000000 0.060993 0.000000
# 6 0.000000 0.000000 0.000000 0.000000 0.000000 0.036586
#
#
# Mechanical properties :
#
#
# Convention : Reuss Voigt Hill
#
# Bulk Modulus (GPa) = 54.59074 72.51572 63.55323
# Shear Modulus (GPa) = 23.30729 25.87982 24.59355
#
# Velocity S-wave (km/s) = 3.75289 3.95459 3.85506
# Velocity P-wave (km/s) = 7.19495 8.04187 7.63017
#
# Compressibility (1/GPa) = 0.01831812
#
# Stress axis : x y z
#
# Youngs Moduli (GPa) = 44.17224 96.59104 78.53820
#
# Poissons Ratio (x) = 0.44811 0.30492
# Poissons Ratio (y) = 0.20493 0.40694
# Poissons Ratio (z) = 0.17150 0.50048
#
# Static dielectric constant tensor:
#      x y z
#    x 2.953950 0.000000 0.000000 
#    y 0.000000 3.272860 0.000000 
#    z 0.000000 0.000000 3.221410 
# 
# 
# High freq. dielectric constant tensor:
#      x y z
#    x 1.623980 0.000000 0.000000 
#    y 0.000000 1.632950 0.000000 
#    z 0.000000 0.000000 1.631000 
# 
# From -- ./inp_files/9298.got.cif
#   From: 2010.03.12/outbox.cif.g09.slc.cpg/sg46_5_cif.got.tgz:9298.got - 2010.04.14 02:56:35.
