data_PCOD8191250
_publ_section_title
;
Structure prediction by ZEFSAII (Michael W. Deem and Ramdas Pophale) SiO2 
 PCOD8191250
Probable space group: I M A 2
;
_chemical_formula_sum "Si O2"
_cell_formula_units_Z 64
_cell_length_a 8.902208
_cell_length_b 26.697903
_cell_length_c 18.602813
_cell_angle_alpha 90.000000
_cell_angle_beta 90.000000
_cell_angle_gamma 90.000000
_cell_volume 4421.335880
_symmetry_space_group_name_H-M "I M A 2"
_symmetry_group_IT_number 46
_symmetry_cell_setting 'orthorhombic'
loop_
_space_group_symop_operation_xyz
x,y,z
-x,-y,z
1/2-x,y,z
1/2+x,-y,z
1/2+x,1/2+y,1/2+z
1/2-x,1/2-y,1/2+z
-x,1/2+y,1/2+z
x,1/2-y,1/2+z
loop_
_atom_site_type_symbol
_atom_site_label
_atom_site_fract_x
_atom_site_fract_y
_atom_site_fract_z
Si Si1 0.073545 0.550756 0.646570
Si Si2 0.926194 0.700047 0.440331
Si Si3 0.422767 0.790936 0.513836
Si Si4 0.072653 0.550935 0.811418
Si Si5 0.076463 0.851189 0.385013
Si Si6 0.423547 0.744689 0.654547
Si Si7 0.928596 0.149308 0.065592
Si Si8 0.428866 0.751611 0.813263
O O1 0.250000 0.544901 0.639775
O O2 0.025752 0.560251 0.728929
O O3 0.015390 0.597189 0.599291
O O4 0.000000 0.500000 0.616560
O O5 0.750000 0.691416 0.433737
O O6 0.962664 0.751196 0.481604
O O7 0.998459 0.654631 0.486380
O O8 0.997512 0.703902 0.360469
O O9 0.250000 0.773029 0.498632
O O10 0.449907 0.843446 0.471575
O O11 0.448824 0.792293 0.600185
O O12 0.250000 0.546000 0.820492
O O13 0.002280 0.597182 0.857530
O O14 0.000000 0.500000 0.841154
O O15 0.250000 0.856313 0.365733
O O16 0.015895 0.802438 0.342876
O O17 0.250000 0.734972 0.669940
O O18 0.487353 0.694197 0.617535
O O19 0.495330 0.756433 0.732159
O O20 0.750000 0.151479 0.057867
O O21 0.250000 0.757457 0.817900
#
# Coordination Sequence:
#
# PCOD8191250 Si02
#       8
#     8   8   8   8   8   8   8   8
#     4   9  17  27  40  56  76 100 129 162 193 222
#     4  10  18  26  36  54  78 102 126 156 190 226
#     4   8  14  26  41  56  73  97 128 161 192 226
#     4   9  16  26  38  55  77 102 130 161 192 222
#     4   8  13  22  38  54  71  98 130 155 181 218
#     4   8  13  22  40  60  74  92 126 162 189 219
#     4   9  16  28  43  57  74 102 135 162 188 225
#     4   9  15  25  40  56  74  99 127 157 189 226
#
# _framework density 14.475263999999999
#
# number of rings (size 3 to 8) (size 9 to 14) (size 15 to 20)
#    0.000    3.250    0.000    3.375    0.000    3.500 
#    0.000    5.000    0.000    3.000    0.000    0.000 
#    0.000    1.000    0.000    4.250    0.000    2.000 
#
# Total GULP energy -396430.514122 kJ/mol
# GULP energy per Si atom -12388.453566 kJ/mol
# Density = 1.444232 g / cm^3
# Si number density = 14.475264 Si / 1000 Ang^3
#
#
#
# Elastic Constant Matrix: (Units=GPa)
#
#
# Indices 1 2 3 4 5 6 
#
# 1 30.0044 20.1603 24.2015 0.0000 0.0000 0.0000
# 2 20.1603 93.1056 63.4276 0.0000 0.0000 0.0000
# 3 24.2015 63.4276 125.3152 0.0001 0.0000 0.0000
# 4 0.0000 0.0000 0.0001 27.3724 0.0000 0.0000
# 5 0.0000 0.0000 0.0000 0.0000 10.3709 0.0000
# 6 0.0000 0.0000 0.0000 0.0000 0.0000 16.7129
#
#
#
# Elastic Compliance Matrix: (Units=1/GPa)
#
#
# Indices 1 2 3 4 5 6 
#
# 1 0.041145 -0.005336 -0.005245 0.000000 0.000000 0.000000
# 2 -0.005336 0.017085 -0.007617 0.000000 0.000000 0.000000
# 3 -0.005245 -0.007617 0.012848 0.000000 0.000000 0.000000
# 4 0.000000 0.000000 0.000000 0.036533 0.000000 0.000000
# 5 0.000000 0.000000 0.000000 0.000000 0.096423 0.000000
# 6 0.000000 0.000000 0.000000 0.000000 0.000000 0.059834
#
#
# Mechanical properties :
#
#
# Convention : Reuss Voigt Hill
#
# Bulk Modulus (GPa) = 28.83383 51.55601 40.19492
# Shear Modulus (GPa) = 16.03466 20.26697 18.15081
#
# Velocity S-wave (km/s) = 3.33187 3.74586 3.54491
# Velocity P-wave (km/s) = 5.89613 7.37581 6.67709
#
# Compressibility (1/GPa) = 0.03468148
#
# Stress axis : x y z
#
# Youngs Moduli (GPa) = 24.30455 58.53146 77.83204
#
# Poissons Ratio (x) = 0.31230 0.40826
# Poissons Ratio (y) = 0.12968 0.59284
# Poissons Ratio (z) = 0.12749 0.44583
#
# Static dielectric constant tensor:
#      x y z
#    x 2.540000 0.000000 0.000000 
#    y 0.000000 2.781340 0.000000 
#    z 0.000000 0.000000 3.104000 
# 
# 
# High freq. dielectric constant tensor:
#      x y z
#    x 1.528190 0.000000 0.000000 
#    y 0.000000 1.519290 0.000000 
#    z 0.000000 0.000000 1.549080 
# 
# From -- ./inp_files/21471.got.cif
#   From: 2010.03.12/outbox.cif.g09.slc.cpg/sg46_11_cif.got.tgz:21471.got - 2010.04.14 02:56:35.
