data_PCOD8191063
_publ_section_title
;
Structure prediction by ZEFSAII (Michael W. Deem and Ramdas Pophale) SiO2 
 PCOD8191063
Probable space group: I B A 2
;
_chemical_formula_sum "Si O2"
_cell_formula_units_Z 48
_cell_length_a 17.443267
_cell_length_b 13.476295
_cell_length_c 9.318446
_cell_angle_alpha 90.000000
_cell_angle_beta 90.000000
_cell_angle_gamma 90.000000
_cell_volume 2190.492803
_symmetry_space_group_name_H-M "I B A 2"
_symmetry_group_IT_number 45
_symmetry_cell_setting 'orthorhombic'
loop_
_space_group_symop_operation_xyz
x,y,z
-x,-y,z
-x,y,1/2+z
x,-y,1/2+z
1/2+x,1/2+y,1/2+z
1/2-x,1/2-y,1/2+z
1/2-x,1/2+y,z
1/2+x,1/2-y,z
loop_
_atom_site_type_symbol
_atom_site_label
_atom_site_fract_x
_atom_site_fract_y
_atom_site_fract_z
Si Si1 0.767459 0.292773 0.139120
Si Si2 0.440737 0.212604 0.117422
Si Si3 0.070728 0.930493 0.220064
Si Si4 0.287736 0.130205 0.446771
Si Si5 0.038722 0.604716 0.401443
Si Si6 0.327797 0.461659 0.488432
O O1 0.852243 0.301908 0.072229
O O2 0.772951 0.296837 0.311652
O O3 0.710644 0.375876 0.081002
O O4 0.734718 0.185652 0.093987
O O5 0.459265 0.322533 0.174436
O O6 0.462627 0.129941 0.234215
O O7 0.493272 0.193011 0.980113
O O8 0.113965 0.977570 0.085988
O O9 0.126638 0.915096 0.355112
O O10 0.000000 0.000000 0.265524
O O11 0.375340 0.098064 0.460753
O O12 0.237712 0.032283 0.425207
O O13 0.000000 0.500000 0.430412
#
# Coordination Sequence:
#
# PCOD8191063 Si02
#       6
#     8   8   8   8   8   8
#     4  11  24  44  71  99 141 185 239 291 350 422
#     4  11  26  46  70 107 142 186 238 289 359 427
#     4  12  28  45  71 106 148 190 241 290 362 430
#     4  11  25  44  70 104 138 185 239 288 355 419
#     4  11  25  46  72 104 143 185 235 295 355 423
#     4  12  24  47  70 101 142 188 236 297 350 425
#
# _framework density 21.912877000000002
#
# number of rings (size 3 to 8) (size 9 to 14) (size 15 to 20)
#    0.000    0.667    3.333    4.000    7.000    2.667 
#    0.000    0.000    0.000    0.000    0.000    0.000 
#    0.000    0.000    0.000    0.000    0.000    0.000 
#
# Total GULP energy -297793.555981 kJ/mol
# GULP energy per Si atom -12408.064833 kJ/mol
# Density = 2.186300 g / cm^3
# Si number density = 21.912877 Si / 1000 Ang^3
#
#
#
# Elastic Constant Matrix: (Units=GPa)
#
#
# Indices 1 2 3 4 5 6 
#
# 1 120.1581 38.3305 28.0142 0.0000 0.0000 0.0000
# 2 38.3305 114.9919 18.1511 0.0000 0.0000 0.0000
# 3 28.0142 18.1511 57.8302 0.0000 0.0000 0.0000
# 4 0.0000 0.0000 0.0000 31.9868 0.0000 0.0000
# 5 0.0000 0.0000 0.0000 0.0000 35.1089 0.0000
# 6 0.0000 0.0000 0.0000 0.0000 0.0000 40.2247
#
#
#
# Elastic Compliance Matrix: (Units=1/GPa)
#
#
# Indices 1 2 3 4 5 6 
#
# 1 0.010142 -0.002741 -0.004053 0.000000 0.000000 0.000000
# 2 -0.002741 0.009890 -0.001777 0.000000 0.000000 0.000000
# 3 -0.004053 -0.001777 0.019813 0.000000 0.000000 0.000000
# 4 0.000000 0.000000 0.000000 0.031263 0.000000 0.000000
# 5 0.000000 0.000000 0.000000 0.000000 0.028483 0.000000
# 6 0.000000 0.000000 0.000000 0.000000 0.000000 0.024860
#
#
# Mechanical properties :
#
#
# Convention : Reuss Voigt Hill
#
# Bulk Modulus (GPa) = 44.04359 51.33021 47.68690
# Shear Modulus (GPa) = 33.52137 35.36304 34.44220
#
# Velocity S-wave (km/s) = 3.91545 4.02157 3.96887
# Velocity P-wave (km/s) = 6.37056 6.71115 6.54308
#
# Compressibility (1/GPa) = 0.02270478
#
# Stress axis : x y z
#
# Youngs Moduli (GPa) = 98.60458 101.10926 50.47260
#
# Poissons Ratio (x) = 0.27712 0.20454
# Poissons Ratio (y) = 0.27026 0.08967
# Poissons Ratio (z) = 0.39960 0.17963
#
# Static dielectric constant tensor:
#      x y z
#    x 4.260780 0.000000 0.000000 
#    y 0.000000 3.932030 0.000000 
#    z 0.000000 0.000000 3.937850 
# 
# 
# High freq. dielectric constant tensor:
#      x y z
#    x 1.876350 0.000000 0.000000 
#    y 0.000000 1.868850 0.000000 
#    z 0.000000 0.000000 1.863820 
# 
# From -- ./inp_files/1704.got.cif
#   From: 2010.03.12/outbox.cif.g09.slc.cpg/sg45_1_cif.got.tgz:1704.got - 2010.04.14 02:50:11.
