data_PCOD8191576
_publ_section_title
;
Structure prediction by ZEFSAII (Michael W. Deem and Ramdas Pophale) SiO2 
 PCOD8191576
Probable space group: I M A 2
;
_chemical_formula_sum "Si O2"
_cell_formula_units_Z 64
_cell_length_a 21.084591
_cell_length_b 9.572169
_cell_length_c 16.496634
_cell_angle_alpha 90.000000
_cell_angle_beta 90.000000
_cell_angle_gamma 90.000000
_cell_volume 3329.437584
_symmetry_space_group_name_H-M "I M A 2"
_symmetry_group_IT_number 46
_symmetry_cell_setting 'orthorhombic'
loop_
_space_group_symop_operation_xyz
x,y,z
-x,-y,z
1/2-x,y,z
1/2+x,-y,z
1/2+x,1/2+y,1/2+z
1/2-x,1/2-y,1/2+z
-x,1/2+y,1/2+z
x,1/2-y,1/2+z
loop_
_atom_site_type_symbol
_atom_site_label
_atom_site_fract_x
_atom_site_fract_y
_atom_site_fract_z
Si Si1 0.571528 0.507424 0.339120
Si Si2 0.824610 0.549936 0.754600
Si Si3 0.528981 0.647271 0.498010
Si Si4 0.176192 0.134047 0.727187
Si Si5 0.675358 0.017744 0.429574
Si Si6 0.180004 0.519622 0.581404
Si Si7 0.147636 0.282693 0.054944
Si Si8 0.102078 0.711080 0.463453
O O1 0.500000 0.500000 0.300307
O O2 0.566196 0.619199 0.412984
O O3 0.625923 0.538204 0.273847
O O4 0.595518 0.358593 0.374711
O O5 0.750000 0.535005 0.754132
O O6 0.842806 0.711384 0.753328
O O7 0.852042 0.486626 0.837735
O O8 0.849019 0.472358 0.673160
O O9 0.500000 0.500000 0.530204
O O10 0.575491 0.724800 0.560170
O O11 0.469297 0.751524 0.489528
O O12 0.250000 0.096131 0.748153
O O13 0.164937 0.118200 0.630841
O O14 0.750000 0.040658 0.430793
O O15 0.658570 0.873799 0.474585
O O16 0.643597 0.150916 0.470626
O O17 0.250000 0.588924 0.576382
O O18 0.190192 0.357026 0.555670
O O19 0.131483 0.595132 0.522934
#
# Coordination Sequence:
#
# PCOD8191576 Si02
#       8
#     8   8   8   8   8   8   8   8
#     4   9  19  39  60  80 118 159 202 250 297 363
#     4   8  18  33  53  80 116 146 182 243 300 350
#     4   9  18  38  62  83 111 154 202 248 285 359
#     4  10  20  36  59  91 116 148 207 258 298 358
#     4  11  22  37  54  87 124 151 190 249 308 358
#     4  10  18  34  59  85 109 152 200 239 297 360
#     4  11  20  37  61  83 118 153 194 255 304 350
#     4  10  21  37  58  83 116 157 198 247 296 367
#
# _framework density 19.222465
#
# number of rings (size 3 to 8) (size 9 to 14) (size 15 to 20)
#    0.000    2.500    2.500    3.000    0.000    1.500 
#    4.500    1.250    0.000    0.000    0.000    0.000 
#    0.000    0.000    0.000    0.000    0.000    0.000 
#
# Total GULP energy -396442.200666 kJ/mol
# GULP energy per Si atom -12388.818771 kJ/mol
# Density = 1.917871 g / cm^3
# Si number density = 19.222465 Si / 1000 Ang^3
#
#
#
# Elastic Constant Matrix: (Units=GPa)
#
#
# Indices 1 2 3 4 5 6 
#
# 1 107.7442 11.2565 27.2686 0.0000 0.0000 0.0000
# 2 11.2565 40.2808 16.8311 0.0000 0.0000 0.0000
# 3 27.2686 16.8311 57.6046 0.0000 0.0000 0.0000
# 4 0.0000 0.0000 0.0000 23.5706 0.0000 0.0000
# 5 0.0000 0.0000 0.0000 0.0000 28.8282 0.0000
# 6 0.0000 0.0000 0.0000 0.0000 0.0000 33.1419
#
#
#
# Elastic Compliance Matrix: (Units=1/GPa)
#
#
# Indices 1 2 3 4 5 6 
#
# 1 0.010579 -0.000984 -0.004720 0.000000 0.000000 0.000000
# 2 -0.000984 0.028370 -0.007823 0.000000 0.000000 0.000000
# 3 -0.004720 -0.007823 0.021880 0.000000 0.000000 0.000000
# 4 0.000000 0.000000 0.000000 0.042426 0.000000 0.000000
# 5 0.000000 0.000000 0.000000 0.000000 0.034688 0.000000
# 6 0.000000 0.000000 0.000000 0.000000 0.000000 0.030173
#
#
# Mechanical properties :
#
#
# Convention : Reuss Voigt Hill
#
# Bulk Modulus (GPa) = 29.60915 35.14911 32.37913
# Shear Modulus (GPa) = 24.22151 27.12639 25.67395
#
# Velocity S-wave (km/s) = 3.55359 3.76064 3.65858
# Velocity P-wave (km/s) = 5.68104 6.09768 5.89304
#
# Compressibility (1/GPa) = 0.03377334
#
# Stress axis : x y z
#
# Youngs Moduli (GPa) = 94.52994 35.24902 45.70384
#
# Poissons Ratio (x) = 0.03468 0.21573
# Poissons Ratio (y) = 0.09301 0.35756
# Poissons Ratio (z) = 0.44620 0.27576
#
# Static dielectric constant tensor:
#      x y z
#    x 3.559360 0.000000 0.000000 
#    y 0.000000 3.198870 0.000000 
#    z 0.000000 0.000000 3.619860 
# 
# 
# High freq. dielectric constant tensor:
#      x y z
#    x 1.753320 0.000000 0.000000 
#    y 0.000000 1.718640 0.000000 
#    z 0.000000 0.000000 1.737500 
# 
# From -- ./inp_files/20235.got.cif
#   From: 2010.03.12/outbox.cif.g09.slc.cpg/sg46_11_cif.got.tgz:20235.got - 2010.04.14 02:56:35.
