data_PCOD8191494
_publ_section_title
;
Structure prediction by ZEFSAII (Michael W. Deem and Ramdas Pophale) SiO2 
 PCOD8191494
Probable space group: I M A 2
;
_chemical_formula_sum "Si O2"
_cell_formula_units_Z 64
_cell_length_a 14.546776
_cell_length_b 5.247541
_cell_length_c 34.747534
_cell_angle_alpha 90.000000
_cell_angle_beta 90.000000
_cell_angle_gamma 90.000000
_cell_volume 2652.446179
_symmetry_space_group_name_H-M "I M A 2"
_symmetry_group_IT_number 46
_symmetry_cell_setting 'orthorhombic'
loop_
_space_group_symop_operation_xyz
x,y,z
-x,-y,z
1/2-x,y,z
1/2+x,-y,z
1/2+x,1/2+y,1/2+z
1/2-x,1/2-y,1/2+z
-x,1/2+y,1/2+z
x,1/2-y,1/2+z
loop_
_atom_site_type_symbol
_atom_site_label
_atom_site_fract_x
_atom_site_fract_y
_atom_site_fract_z
Si Si1 0.640935 0.790247 0.630450
Si Si2 0.604348 0.427557 0.924407
Si Si3 0.104530 0.767986 0.511740
Si Si4 0.140577 0.169782 0.805482
Si Si5 0.899884 0.761676 0.044547
Si Si6 0.141299 0.788328 0.175409
Si Si7 0.859584 0.170874 0.261568
Si Si8 0.898096 0.570616 0.391468
O O1 0.750000 0.800128 0.623317
O O2 0.589920 0.736192 0.590374
O O3 0.611799 0.554874 0.656969
O O4 0.603418 0.048869 0.650551
O O5 0.500000 0.500000 0.912995
O O6 0.651603 0.705145 0.916962
O O7 0.650381 0.207619 0.896982
O O8 0.615655 0.312979 0.966685
O O9 0.152696 0.509046 0.527205
O O10 0.998448 0.751755 0.524009
O O11 0.154479 0.005183 0.532809
O O12 0.250000 0.176304 0.808106
O O13 0.102745 0.412550 0.781549
O O14 0.099133 0.169962 0.848007
O O15 0.105156 0.913402 0.785264
O O16 0.250000 0.757353 0.177232
O O17 0.100818 0.794726 0.218523
O O18 0.750000 0.158336 0.260264
O O19 0.000000 0.500000 0.407253
#
# Coordination Sequence:
#
# PCOD8191494 Si02
#       8
#     8   8   8   8   8   8   8   8
#     4  10  19  31  48  74 108 135 161 205 256 306
#     4  10  18  32  52  75  97 120 168 216 258 281
#     4  10  19  32  52  75  91 125 167 222 239 287
#     4  10  19  33  52  78 107 133 166 215 261 298
#     4  10  19  30  50  75  97 126 161 209 263 283
#     4   9  17  30  48  74 102 132 173 208 240 290
#     4   9  17  30  52  77 101 132 171 212 247 291
#     4  10  21  32  52  80 100 133 168 213 250 312
#
# _framework density 24.128668999999999
#
# number of rings (size 3 to 8) (size 9 to 14) (size 15 to 20)
#    0.000    2.250    1.250    3.000    3.500    3.000 
#    0.000    0.000    0.000    4.500   32.500    0.000 
#    0.000    0.000    0.000    0.000    0.000    0.000 
#
# Total GULP energy -396501.433207 kJ/mol
# GULP energy per Si atom -12390.669788 kJ/mol
# Density = 2.407375 g / cm^3
# Si number density = 24.128669 Si / 1000 Ang^3
#
#
#
# Elastic Constant Matrix: (Units=GPa)
#
#
# Indices 1 2 3 4 5 6 
#
# 1 11.5520 -2.3562 -5.1914 0.0000 0.0000 0.0000
# 2 -2.3562 283.7541 101.0991 0.0000 0.0000 0.0000
# 3 -5.1914 101.0991 193.4021 0.0000 0.0000 0.0000
# 4 0.0000 0.0000 0.0000 137.5511 0.0000 0.0000
# 5 0.0000 0.0000 0.0000 0.0000 -24.5046 0.0000
# 6 0.0000 0.0000 0.0000 0.0000 0.0000 -17.4077
#
#
#
# Elastic Compliance Matrix: (Units=1/GPa)
#
#
# Indices 1 2 3 4 5 6 
#
# 1 0.087626 -0.000136 0.002423 0.000000 0.000000 0.000000
# 2 -0.000136 0.004331 -0.002268 0.000000 0.000000 0.000000
# 3 0.002423 -0.002268 0.006421 0.000000 0.000000 0.000000
# 4 0.000000 0.000000 0.000000 0.007270 0.000000 0.000000
# 5 0.000000 0.000000 0.000000 0.000000 -0.040809 0.000000
# 6 0.000000 0.000000 0.000000 0.000000 0.000000 -0.057446
#
#
# Mechanical properties :
#
#
# Convention : Reuss Voigt Hill
#
# Bulk Modulus (GPa) = 10.16081 75.09014 42.62548
# Shear Modulus (GPa) = 124.50264 45.47154 84.98709
#
# Velocity S-wave (km/s) = 7.19107 4.34584 5.94129
# Velocity P-wave (km/s) = 8.55388 7.50800 8.04795
#
# Compressibility (1/GPa) = 0.09841736
#
# Stress axis : x y z
#
# Youngs Moduli (GPa) = 11.41215 230.89430 155.73916
#
# Poissons Ratio (x) = 0.03133 -0.37736
# Poissons Ratio (y) = 0.00155 0.35316
# Poissons Ratio (z) = -0.02765 0.52358
#
# Static dielectric constant tensor:
#      x y z
#    x 0.000000 0.000000 0.000000 
#    y 0.000000 0.000000 0.000000 
#    z 0.000000 0.000000 0.000000 
# 
# 
# High freq. dielectric constant tensor:
#      x y z
#    x 1.904240 0.000000 0.000000 
#    y 0.000000 1.994850 0.000000 
#    z 0.000000 0.000000 1.959240 
# 
# From -- ./inp_files/25512.got.cif
#   From: 2010.03.12/outbox.cif.g09.slc.cpg/sg46_13_cif.got.tgz:25512.got - 2010.04.14 02:56:35.
