data_PCOD8191475
_publ_section_title
;
Structure prediction by ZEFSAII (Michael W. Deem and Ramdas Pophale) SiO2 
 PCOD8191475
Probable space group: I M A 2
;
_chemical_formula_sum "Si O2"
_cell_formula_units_Z 64
_cell_length_a 8.935303
_cell_length_b 28.662036
_cell_length_c 12.088364
_cell_angle_alpha 90.000000
_cell_angle_beta 90.000000
_cell_angle_gamma 90.000000
_cell_volume 3095.878087
_symmetry_space_group_name_H-M "I M A 2"
_symmetry_group_IT_number 46
_symmetry_cell_setting 'orthorhombic'
loop_
_space_group_symop_operation_xyz
x,y,z
-x,-y,z
1/2-x,y,z
1/2+x,-y,z
1/2+x,1/2+y,1/2+z
1/2-x,1/2-y,1/2+z
-x,1/2+y,1/2+z
x,1/2-y,1/2+z
loop_
_atom_site_type_symbol
_atom_site_label
_atom_site_fract_x
_atom_site_fract_y
_atom_site_fract_z
Si Si1 0.083814 0.860448 0.416760
Si Si2 0.426783 0.547695 0.456962
Si Si3 0.074407 0.185648 0.235902
Si Si4 0.419846 0.218463 0.832168
Si Si5 0.427793 0.653618 0.512125
Si Si6 0.415416 0.161063 0.627173
Si Si7 0.416718 0.539997 0.012822
Si Si8 0.076750 0.434485 0.231009
O O1 0.250000 0.842137 0.387767
O O2 0.085584 0.914746 0.439645
O O3 0.974275 0.857486 0.312033
O O4 0.029751 0.833517 0.526571
O O5 0.500000 0.500000 0.511090
O O6 0.250000 0.542945 0.470293
O O7 0.480554 0.598607 0.506578
O O8 0.472158 0.547346 0.328849
O O9 0.250000 0.187152 0.212167
O O10 0.022789 0.228358 0.317864
O O11 0.991905 0.180220 0.119022
O O12 0.250000 0.215935 0.878840
O O13 0.520793 0.184592 0.906802
O O14 0.423379 0.206618 0.701630
O O15 0.250000 0.654960 0.515344
O O16 0.250000 0.153294 0.575683
O O17 0.453155 0.120315 0.714299
O O18 0.500000 0.500000 0.940165
O O19 0.250000 0.526482 0.050142
O O20 0.525110 0.541855 0.118687
O O21 0.250000 0.445282 0.258517
#
# Coordination Sequence:
#
# PCOD8191475 Si02
#       8
#     8   8   8   8   8   8   8   8
#     4  10  22  39  59  86 122 158 200 252 303 357
#     4  11  23  38  59  88 123 164 209 257 312 374
#     4  11  25  43  66  91 122 165 210 255 306 372
#     4  10  22  41  65  93 123 160 204 248 302 368
#     4  11  25  44  66  94 129 164 208 265 318 373
#     4   9  18  34  58  87 120 158 198 242 294 358
#     4  10  20  34  54  82 117 157 201 252 306 363
#     4  10  18  31  54  83 119 160 197 243 300 361
#
# _framework density 20.672649
#
# number of rings (size 3 to 8) (size 9 to 14) (size 15 to 20)
#    0.000    1.750    1.250    2.625    1.750    5.000 
#    0.000    0.625    0.000    0.000    0.000    0.000 
#    0.000    0.000    0.000    0.000    0.000    0.000 
#
# Total GULP energy -396474.137893 kJ/mol
# GULP energy per Si atom -12389.816809 kJ/mol
# Density = 2.062560 g / cm^3
# Si number density = 20.672649 Si / 1000 Ang^3
#
#
#
# Elastic Constant Matrix: (Units=GPa)
#
#
# Indices 1 2 3 4 5 6 
#
# 1 87.3388 52.9651 40.0378 -0.0004 0.0001 0.0000
# 2 52.9651 91.8595 38.0117 -0.0011 0.0001 0.0000
# 3 40.0378 38.0117 74.0980 0.0027 0.0005 -0.0001
# 4 -0.0004 -0.0011 0.0027 50.9882 0.0005 0.0001
# 5 0.0001 0.0001 0.0005 0.0005 35.3059 0.0004
# 6 0.0000 0.0000 -0.0001 0.0001 0.0004 28.6235
#
#
#
# Elastic Compliance Matrix: (Units=1/GPa)
#
#
# Indices 1 2 3 4 5 6 
#
# 1 0.019541 -0.008757 -0.006067 0.000000 0.000000 0.000000
# 2 -0.008757 0.017744 -0.004371 0.000001 0.000000 0.000000
# 3 -0.006067 -0.004371 0.019016 -0.000001 0.000000 0.000000
# 4 0.000000 0.000001 -0.000001 0.019612 0.000000 0.000000
# 5 0.000000 0.000000 0.000000 0.000000 0.028324 0.000000
# 6 0.000000 0.000000 0.000000 0.000000 0.000000 0.034936
#
#
# Mechanical properties :
#
#
# Convention : Reuss Voigt Hill
#
# Bulk Modulus (GPa) = 55.82740 57.25840 56.54290
# Shear Modulus (GPa) = 27.24307 31.13564 29.18936
#
# Velocity S-wave (km/s) = 3.63413 3.88510 3.76171
# Velocity P-wave (km/s) = 6.68381 6.91976 6.80281
#
# Compressibility (1/GPa) = 0.01791235
#
# Stress axis : x y z
#
# Youngs Moduli (GPa) = 51.17406 56.35724 52.58768
#
# Poissons Ratio (x) = 0.49351 0.31903
# Poissons Ratio (y) = 0.44812 0.22985
# Poissons Ratio (z) = 0.31045 0.24633
#
# Static dielectric constant tensor:
#      x y z
#    x 3.848850 0.000010 0.000000 
#    y 0.000010 3.119310 0.000000 
#    z 0.000000 0.000000 3.408720 
# 
# 
# High freq. dielectric constant tensor:
#      x y z
#    x 1.812570 0.000000 0.000000 
#    y 0.000000 1.827380 0.000000 
#    z 0.000000 0.000000 1.781100 
# 
# From -- ./inp_files/9662.got.cif
#   From: 2010.03.12/outbox.cif.g09.slc.cpg/sg46_5_cif.got.tgz:9662.got - 2010.04.14 02:56:35.
