data_PCOD8191915
_publ_section_title
;
Structure prediction by ZEFSAII (Michael W. Deem and Ramdas Pophale) SiO2 
 PCOD8191915
Probable space group: I M A 2
;
_chemical_formula_sum "Si O2"
_cell_formula_units_Z 64
_cell_length_a 20.487885
_cell_length_b 17.744373
_cell_length_c 9.377262
_cell_angle_alpha 90.000000
_cell_angle_beta 90.000000
_cell_angle_gamma 90.000000
_cell_volume 3409.053651
_symmetry_space_group_name_H-M "I M A 2"
_symmetry_group_IT_number 46
_symmetry_cell_setting 'orthorhombic'
loop_
_space_group_symop_operation_xyz
x,y,z
-x,-y,z
1/2-x,y,z
1/2+x,-y,z
1/2+x,1/2+y,1/2+z
1/2-x,1/2-y,1/2+z
-x,1/2+y,1/2+z
x,1/2-y,1/2+z
loop_
_atom_site_type_symbol
_atom_site_label
_atom_site_fract_x
_atom_site_fract_y
_atom_site_fract_z
Si Si1 0.177642 0.492951 0.233800
Si Si2 0.678335 0.926394 0.424370
Si Si3 0.514820 0.844066 0.992011
Si Si4 0.457043 0.075016 0.282188
Si Si5 0.155965 0.281436 0.075457
Si Si6 0.492093 0.318275 0.037389
Si Si7 0.151435 0.159125 0.869769
Si Si8 0.453887 0.929611 0.762531
O O1 0.250000 0.529153 0.242012
O O2 0.173792 0.427045 0.353339
O O3 0.122844 0.554219 0.262961
O O4 0.162023 0.462747 0.076868
O O5 0.750000 0.953574 0.366045
O O6 0.618765 0.946013 0.317621
O O7 0.683864 0.837645 0.455880
O O8 0.572939 0.836147 0.875448
O O9 0.466173 0.905474 0.925558
O O10 0.543092 0.876333 0.138983
O O11 0.476325 0.764004 0.005054
O O12 0.489493 0.127056 0.402023
O O13 0.500000 0.000000 0.266797
O O14 0.182071 0.294941 0.235018
O O15 0.079113 0.294578 0.089891
O O16 0.176199 0.198309 0.017222
O O17 0.533476 0.359821 0.157977
O O18 0.500000 0.000000 0.717596
#
# Coordination Sequence:
#
# PCOD8191915 Si02
#       8
#     8   8   8   8   8   8   8   8
#     4  10  21  37  58  83 111 149 199 243 283 345
#     4   9  19  36  54  77 110 149 193 232 270 331
#     4  11  22  34  55  85 118 144 180 242 293 341
#     4  11  22  35  56  82 113 145 186 233 284 333
#     4   9  18  30  52  76 107 148 183 225 272 329
#     4  10  20  34  55  84 109 145 188 235 282 338
#     4  10  19  33  51  78 113 147 185 229 276 338
#     4  12  19  36  62  84 112 150 194 240 290 341
#
# _framework density 18.773537999999999
#
# number of rings (size 3 to 8) (size 9 to 14) (size 15 to 20)
#    0.000    1.750    2.500    3.750    8.750    0.500 
#    0.000    0.625    0.000    0.750    0.000    1.750 
#    0.000    0.000    0.000    0.000    0.000    0.000 
#
# Total GULP energy -396502.110751 kJ/mol
# GULP energy per Si atom -12390.690961 kJ/mol
# Density = 1.873081 g / cm^3
# Si number density = 18.773538 Si / 1000 Ang^3
#
#
#
# Elastic Constant Matrix: (Units=GPa)
#
#
# Indices 1 2 3 4 5 6 
#
# 1 106.6446 45.2387 30.5666 0.0000 0.0000 0.0000
# 2 45.2387 82.9150 26.3098 0.0000 0.0000 0.0000
# 3 30.5666 26.3098 73.1657 0.0000 0.0000 0.0000
# 4 0.0000 0.0000 0.0000 31.8205 0.0000 0.0000
# 5 0.0000 0.0000 0.0000 0.0000 -2.5159 0.0000
# 6 0.0000 0.0000 0.0000 0.0000 0.0000 11.1515
#
#
#
# Elastic Compliance Matrix: (Units=1/GPa)
#
#
# Indices 1 2 3 4 5 6 
#
# 1 0.012836 -0.005985 -0.003210 0.000000 0.000000 0.000000
# 2 -0.005985 0.016404 -0.003399 0.000000 0.000000 0.000000
# 3 -0.003210 -0.003399 0.016231 0.000000 0.000000 0.000000
# 4 0.000000 0.000000 0.000000 0.031426 0.000000 0.000000
# 5 0.000000 0.000000 0.000000 0.000000 -0.397468 0.000000
# 6 0.000000 0.000000 0.000000 0.000000 0.000000 0.089674
#
#
# Mechanical properties :
#
#
# Convention : Reuss Voigt Hill
#
# Bulk Modulus (GPa) = 49.30073 51.88394 50.59234
# Shear Modulus (GPa) = -25.13214 18.79856 -3.16679
#
# Velocity S-wave (km/s) = -3.66279 3.16782 -1.30019
# Velocity P-wave (km/s) = 2.90339 6.40912 4.97526
#
# Compressibility (1/GPa) = 0.02028368
#
# Stress axis : x y z
#
# Youngs Moduli (GPa) = 77.90738 60.96026 61.61071
#
# Poissons Ratio (x) = 0.36482 0.19780
# Poissons Ratio (y) = 0.46624 0.20939
# Poissons Ratio (z) = 0.25012 0.20718
#
# Static dielectric constant tensor:
#      x y z
#    x 4.112420 0.000000 0.000000 
#    y 0.000000 3.566490 0.000000 
#    z 0.000000 0.000000 3.473360 
# 
# 
# High freq. dielectric constant tensor:
#      x y z
#    x 1.704530 0.000000 0.000000 
#    y 0.000000 1.710690 0.000000 
#    z 0.000000 0.000000 1.731340 
# 
# From -- ./inp_files/7554.got.cif
#   From: 2010.03.12/outbox.cif.g09.slc.cpg/sg46_4_cif.got.tgz:7554.got - 2010.04.14 02:56:35.
