data_PCOD8191211
_publ_section_title
;
Structure prediction by ZEFSAII (Michael W. Deem and Ramdas Pophale) SiO2 
 PCOD8191211
Probable space group: I M A 2
;
_chemical_formula_sum "Si O2"
_cell_formula_units_Z 64
_cell_length_a 19.450380
_cell_length_b 21.193406
_cell_length_c 9.403977
_cell_angle_alpha 90.000000
_cell_angle_beta 90.000000
_cell_angle_gamma 90.000000
_cell_volume 3876.505520
_symmetry_space_group_name_H-M "I M A 2"
_symmetry_group_IT_number 46
_symmetry_cell_setting 'orthorhombic'
loop_
_space_group_symop_operation_xyz
x,y,z
-x,-y,z
1/2-x,y,z
1/2+x,-y,z
1/2+x,1/2+y,1/2+z
1/2-x,1/2-y,1/2+z
-x,1/2+y,1/2+z
x,1/2-y,1/2+z
loop_
_atom_site_type_symbol
_atom_site_label
_atom_site_fract_x
_atom_site_fract_y
_atom_site_fract_z
Si Si1 0.475370 0.750001 0.549160
Si Si2 0.170787 0.554096 0.299163
Si Si3 0.328836 0.056477 0.598814
Si Si4 0.935124 0.334731 0.299161
Si Si5 0.172110 0.399207 0.799162
Si Si6 0.590320 0.642498 0.299163
Si Si7 0.328836 0.056476 0.999510
Si Si8 0.067746 0.214237 0.299161
O O1 0.428984 0.706548 0.444725
O O2 0.428984 0.793453 0.653596
O O3 0.522420 0.792458 0.443232
O O4 0.522421 0.707545 0.655087
O O5 0.250000 0.575142 0.299163
O O6 0.152206 0.512076 0.160954
O O7 0.126505 0.616662 0.299161
O O8 0.152205 0.512078 0.437374
O O9 0.250000 0.072416 0.638482
O O10 0.341975 0.054941 0.431389
O O11 0.376312 0.111664 0.660396
O O12 0.008476 0.370124 0.299161
O O13 0.250000 0.373573 0.799165
O O14 0.158028 0.445060 0.666936
O O15 0.125185 0.338227 0.799157
O O16 0.623687 0.611661 0.437928
O O17 0.604139 0.717231 0.299166
O O18 0.250000 0.072413 0.959834
#
# Coordination Sequence:
#
# PCOD8191211 Si02
#       8
#     8   8   8   8   8   8   8   8
#     4   8  18  32  50  70  94 116 144 190 234 278
#     4   9  19  36  54  67  87 121 154 184 230 289
#     4   9  18  31  45  66  97 128 159 196 227 255
#     4  10  18  33  54  73  91 117 149 183 232 285
#     4  10  18  27  42  65  95 129 164 196 223 255
#     4   9  17  29  47  67  92 126 160 192 223 272
#     4   9  18  31  45  66  97 128 159 196 227 255
#     4  10  17  30  45  66  97 131 157 187 235 268
#
# _framework density 16.509715
#
# number of rings (size 3 to 8) (size 9 to 14) (size 15 to 20)
#    0.000    3.000    0.000    4.125    0.000    3.000 
#    0.000    6.250    0.000    3.000    0.000    0.000 
#    0.000    0.000    0.000    0.000    0.000    0.000 
#
# Total GULP energy -396573.316798 kJ/mol
# GULP energy per Si atom -12392.916150 kJ/mol
# Density = 1.647214 g / cm^3
# Si number density = 16.509715 Si / 1000 Ang^3
#
#
#
# Elastic Constant Matrix: (Units=GPa)
#
#
# Indices 1 2 3 4 5 6 
#
# 1 73.2315 66.3202 45.9268 0.0000 0.0000 0.0000
# 2 66.3202 110.5267 65.4686 0.0000 0.0000 0.0000
# 3 45.9268 65.4686 155.4042 0.0000 0.0000 0.0000
# 4 0.0000 0.0000 0.0000 12.9842 0.0000 0.0000
# 5 0.0000 0.0000 0.0000 0.0000 13.9682 0.0000
# 6 0.0000 0.0000 0.0000 0.0000 0.0000 39.3858
#
#
#
# Elastic Compliance Matrix: (Units=1/GPa)
#
#
# Indices 1 2 3 4 5 6 
#
# 1 0.030249 -0.017130 -0.001723 0.000000 0.000000 0.000000
# 2 -0.017130 0.021757 -0.004103 0.000000 0.000000 0.000000
# 3 -0.001723 -0.004103 0.008673 0.000000 0.000000 0.000000
# 4 0.000000 0.000000 0.000000 0.077017 0.000000 0.000000
# 5 0.000000 0.000000 0.000000 0.000000 0.071591 0.000000
# 6 0.000000 0.000000 0.000000 0.000000 0.000000 0.025390
#
#
# Mechanical properties :
#
#
# Convention : Reuss Voigt Hill
#
# Bulk Modulus (GPa) = 67.72306 77.17706 72.45006
# Shear Modulus (GPa) = 17.51244 24.03076 20.77160
#
# Velocity S-wave (km/s) = 3.26043 3.81931 3.55088
# Velocity P-wave (km/s) = 7.43526 8.14232 7.79681
#
# Compressibility (1/GPa) = 0.01476602
#
# Stress axis : x y z
#
# Youngs Moduli (GPa) = 33.05849 45.96267 115.30510
#
# Poissons Ratio (x) = 0.78735 0.19868
# Poissons Ratio (y) = 0.56630 0.47312
# Poissons Ratio (z) = 0.05696 0.18859
#
# Static dielectric constant tensor:
#      x y z
#    x 2.886650 0.000000 0.000000 
#    y 0.000000 2.810730 0.000000 
#    z 0.000000 0.000000 3.477190 
# 
# 
# High freq. dielectric constant tensor:
#      x y z
#    x 1.614580 0.000000 0.000000 
#    y 0.000000 1.610570 0.000000 
#    z 0.000000 0.000000 1.656180 
# 
# From -- ./inp_files/7026.got.cif
#   From: 2010.03.12/outbox.cif.g09.slc.cpg/sg46_4_cif.got.tgz:7026.got - 2010.04.14 02:56:35.
