data_PCOD8191987
_publ_section_title
;
Structure prediction by ZEFSAII (Michael W. Deem and Ramdas Pophale) SiO2 
 PCOD8191987
Probable space group: I M A 2
;
_chemical_formula_sum "Si O2"
_cell_formula_units_Z 64
_cell_length_a 9.184302
_cell_length_b 16.174372
_cell_length_c 22.814396
_cell_angle_alpha 90.000000
_cell_angle_beta 90.000000
_cell_angle_gamma 90.000000
_cell_volume 3389.085760
_symmetry_space_group_name_H-M "I M A 2"
_symmetry_group_IT_number 46
_symmetry_cell_setting 'orthorhombic'
loop_
_space_group_symop_operation_xyz
x,y,z
-x,-y,z
1/2-x,y,z
1/2+x,-y,z
1/2+x,1/2+y,1/2+z
1/2-x,1/2-y,1/2+z
-x,1/2+y,1/2+z
x,1/2-y,1/2+z
loop_
_atom_site_type_symbol
_atom_site_label
_atom_site_fract_x
_atom_site_fract_y
_atom_site_fract_z
Si Si1 0.422355 0.583724 0.172560
Si Si2 0.074810 0.913827 0.199044
Si Si3 0.412424 0.575999 0.919457
Si Si4 0.089101 0.218014 0.989458
Si Si5 0.913855 0.575766 0.580674
Si Si6 0.085838 0.637347 0.044466
Si Si7 0.578264 0.238732 0.749492
Si Si8 0.421845 0.746250 0.380823
O O1 0.500000 0.500000 0.195771
O O2 0.250000 0.572879 0.181223
O O3 0.466414 0.594598 0.104436
O O4 0.481752 0.664737 0.207965
O O5 0.250000 0.923456 0.199781
O O6 0.023909 0.831997 0.235027
O O7 0.013704 0.894173 0.134559
O O8 0.000000 0.000000 0.222262
O O9 0.500000 0.500000 0.892599
O O10 0.250000 0.565162 0.896265
O O11 0.476420 0.660324 0.893116
O O12 0.420564 0.573578 0.990302
O O13 0.250000 0.248879 0.971598
O O14 0.099040 0.138761 0.028805
O O15 0.015186 0.286120 0.029985
O O16 0.001358 0.192580 0.930627
O O17 0.750000 0.552822 0.603042
O O18 0.000000 0.500000 0.551962
O O19 0.250000 0.670974 0.052697
O O20 0.750000 0.239398 0.743170
O O21 0.530762 0.217852 0.816130
O O22 0.250000 0.738985 0.390689
#
# Coordination Sequence:
#
# PCOD8191987 Si02
#       8
#     8   8   8   8   8   8   8   8
#     4  10  20  35  55  79 105 136 177 219 261 309
#     4  10  19  33  55  82 111 140 172 210 254 309
#     4   9  17  28  45  70  98 127 159 196 241 296
#     4  10  20  33  51  77 103 127 164 215 262 300
#     4  10  20  33  50  75 105 132 163 205 255 311
#     4   9  18  32  51  75 103 135 165 196 248 319
#     4   9  19  36  56  75 101 142 183 215 253 309
#     4   9  19  36  53  69  95 135 178 210 246 305
#
# _framework density 18.884150000000002
#
# number of rings (size 3 to 8) (size 9 to 14) (size 15 to 20)
#    0.000    2.500    0.000    3.750    0.000    6.000 
#    0.000    3.750    0.000    3.000    0.000    0.000 
#    0.000    0.000    0.000    0.000    0.000    0.000 
#
# Total GULP energy -396533.880069 kJ/mol
# GULP energy per Si atom -12391.683752 kJ/mol
# Density = 1.884117 g / cm^3
# Si number density = 18.884150 Si / 1000 Ang^3
#
#
#
# Elastic Constant Matrix: (Units=GPa)
#
#
# Indices 1 2 3 4 5 6 
#
# 1 77.9912 34.2821 28.7570 0.0000 0.0000 0.0000
# 2 34.2821 87.8300 34.4401 0.0000 0.0000 0.0000
# 3 28.7570 34.4401 72.5018 0.0000 0.0000 0.0000
# 4 0.0000 0.0000 0.0000 15.2560 0.0000 0.0000
# 5 0.0000 0.0000 0.0000 0.0000 10.6389 0.0000
# 6 0.0000 0.0000 0.0000 0.0000 0.0000 29.4704
#
#
#
# Elastic Compliance Matrix: (Units=1/GPa)
#
#
# Indices 1 2 3 4 5 6 
#
# 1 0.016492 -0.004759 -0.004281 0.000000 0.000000 0.000000
# 2 -0.004759 0.015365 -0.005411 0.000000 0.000000 0.000000
# 3 -0.004281 -0.005411 0.018061 0.000000 0.000000 0.000000
# 4 0.000000 0.000000 0.000000 0.065548 0.000000 0.000000
# 5 0.000000 0.000000 0.000000 0.000000 0.093995 0.000000
# 6 0.000000 0.000000 0.000000 0.000000 0.000000 0.033932
#
#
# Mechanical properties :
#
#
# Convention : Reuss Voigt Hill
#
# Bulk Modulus (GPa) = 47.58136 48.14238 47.86187
# Shear Modulus (GPa) = 17.90186 20.46265 19.18225
#
# Velocity S-wave (km/s) = 3.08227 3.29536 3.19060
# Velocity P-wave (km/s) = 6.15779 6.32678 6.24285
#
# Compressibility (1/GPa) = 0.02101663
#
# Stress axis : x y z
#
# Youngs Moduli (GPa) = 60.63489 65.08332 55.36719
#
# Poissons Ratio (x) = 0.30971 0.23702
# Poissons Ratio (y) = 0.28854 0.29961
# Poissons Ratio (z) = 0.25958 0.35218
#
# Static dielectric constant tensor:
#      x y z
#    x 3.617510 0.000000 0.000000 
#    y 0.000000 3.469110 0.000000 
#    z 0.000000 0.000000 3.483430 
# 
# 
# High freq. dielectric constant tensor:
#      x y z
#    x 1.724800 0.000000 0.000000 
#    y 0.000000 1.723780 0.000000 
#    z 0.000000 0.000000 1.726840 
# 
# From -- ./inp_files/23208.got.cif
#   From: 2010.03.12/outbox.cif.g09.slc.cpg/sg46_12_cif.got.tgz:23208.got - 2010.04.14 02:56:35.
