data_PCOD8191921
_publ_section_title
;
Structure prediction by ZEFSAII (Michael W. Deem and Ramdas Pophale) SiO2 
 PCOD8191921
Probable space group: I M A 2
;
_chemical_formula_sum "Si O2"
_cell_formula_units_Z 64
_cell_length_a 8.540156
_cell_length_b 27.925200
_cell_length_c 14.657372
_cell_angle_alpha 90.000000
_cell_angle_beta 90.000000
_cell_angle_gamma 90.000000
_cell_volume 3495.571633
_symmetry_space_group_name_H-M "I M A 2"
_symmetry_group_IT_number 46
_symmetry_cell_setting 'orthorhombic'
loop_
_space_group_symop_operation_xyz
x,y,z
-x,-y,z
1/2-x,y,z
1/2+x,-y,z
1/2+x,1/2+y,1/2+z
1/2-x,1/2-y,1/2+z
-x,1/2+y,1/2+z
x,1/2-y,1/2+z
loop_
_atom_site_type_symbol
_atom_site_label
_atom_site_fract_x
_atom_site_fract_y
_atom_site_fract_z
Si Si1 0.565568 0.139584 0.349700
Si Si2 0.434014 0.719204 0.154980
Si Si3 0.566229 0.173808 0.159101
Si Si4 0.067547 0.224034 0.465029
Si Si5 0.066355 0.140045 0.779827
Si Si6 0.566029 0.327797 0.458988
Si Si7 0.934250 0.550362 0.164906
Si Si8 0.935655 0.948850 0.457280
O O1 0.750000 0.147714 0.363288
O O2 0.519211 0.138630 0.241830
O O3 0.472540 0.183551 0.392337
O O4 0.514290 0.089765 0.392215
O O5 0.250000 0.716944 0.135770
O O6 0.492933 0.772437 0.180869
O O7 0.477789 0.685321 0.238248
O O8 0.523663 0.702377 0.063823
O O9 0.750000 0.176701 0.148302
O O10 0.503084 0.156613 0.059924
O O11 0.250000 0.236504 0.459897
O O12 0.969205 0.271685 0.443550
O O13 0.250000 0.145731 0.764008
O O14 0.002826 0.091960 0.731301
O O15 0.025329 0.138880 0.886926
O O16 0.750000 0.336302 0.446544
O O17 0.750000 0.547002 0.168809
O O18 0.000000 0.500000 0.200391
O O19 0.989469 0.561123 0.061398
O O20 0.750000 0.946744 0.446783
O O21 0.000000 0.000000 0.424955
#
# Coordination Sequence:
#
# PCOD8191921 Si02
#       8
#     8   8   8   8   8   8   8   8
#     4  11  20  33  54  78 102 135 176 217 260 314
#     4  10  19  33  52  75 104 142 179 212 253 311
#     4   8  18  34  51  71  99 133 175 218 252 291
#     4  11  21  33  49  75 109 141 173 217 263 308
#     4  11  21  33  51  79 108 135 169 216 265 311
#     4  10  20  36  53  72 101 141 182 218 256 308
#     4   9  20  36  54  75 104 133 163 203 252 308
#     4  10  20  36  55  79 107 136 166 205 257 313
#
# _framework density 18.308879999999998
#
# number of rings (size 3 to 8) (size 9 to 14) (size 15 to 20)
#    0.000    2.000    0.000    5.250    0.000    3.500 
#    0.000    6.875    0.000    0.750    0.000    1.750 
#    0.000    0.000    0.000    0.000    0.000    0.000 
#
# Total GULP energy -396804.568158 kJ/mol
# GULP energy per Si atom -12400.142755 kJ/mol
# Density = 1.826721 g / cm^3
# Si number density = 18.308880 Si / 1000 Ang^3
#
#
#
# Elastic Constant Matrix: (Units=GPa)
#
#
# Indices 1 2 3 4 5 6 
#
# 1 52.4630 16.7543 21.4471 -0.0002 0.0000 0.0000
# 2 16.7543 91.7831 70.2077 -0.0002 0.0000 -0.0001
# 3 21.4471 70.2077 132.6285 -0.0005 -0.0001 -0.0002
# 4 -0.0002 -0.0002 -0.0005 33.1661 0.0000 -0.0001
# 5 0.0000 0.0000 -0.0001 0.0000 25.8536 0.0000
# 6 0.0000 -0.0001 -0.0002 -0.0001 0.0000 26.9725
#
#
#
# Elastic Compliance Matrix: (Units=1/GPa)
#
#
# Indices 1 2 3 4 5 6 
#
# 1 0.020635 -0.002041 -0.002257 0.000000 0.000000 0.000000
# 2 -0.002041 0.018511 -0.009469 0.000000 0.000000 0.000000
# 3 -0.002257 -0.009469 0.012917 0.000000 0.000000 0.000000
# 4 0.000000 0.000000 0.000000 0.030151 0.000000 0.000000
# 5 0.000000 0.000000 0.000000 0.000000 0.038679 0.000000
# 6 0.000000 0.000000 0.000000 0.000000 0.000000 0.037075
#
#
# Mechanical properties :
#
#
# Convention : Reuss Voigt Hill
#
# Bulk Modulus (GPa) = 40.76476 54.85476 47.80976
# Shear Modulus (GPa) = 25.81608 28.42946 27.12277
#
# Velocity S-wave (km/s) = 3.75911 3.94479 3.85307
# Velocity P-wave (km/s) = 6.41518 7.12561 6.77971
#
# Compressibility (1/GPa) = 0.02453099
#
# Stress axis : x y z
#
# Youngs Moduli (GPa) = 48.46070 54.02273 77.41651
#
# Poissons Ratio (x) = 0.11024 0.17470
# Poissons Ratio (y) = 0.09889 0.73304
# Poissons Ratio (z) = 0.10936 0.51153
#
# Static dielectric constant tensor:
#      x y z
#    x 3.303830 0.000000 0.000000 
#    y 0.000000 3.238560 0.000000 
#    z 0.000000 0.000000 3.674740 
# 
# 
# High freq. dielectric constant tensor:
#      x y z
#    x 1.709730 0.000000 0.000000 
#    y 0.000000 1.684870 0.000000 
#    z 0.000000 0.000000 1.714400 
# 
# From -- ./inp_files/14496.got.cif
#   From: 2010.03.12/outbox.cif.g09.slc.cpg/sg46_8_cif.got.tgz:14496.got - 2010.04.14 02:56:35.
