data_PCOD8191956
_publ_section_title
;
Structure prediction by ZEFSAII (Michael W. Deem and Ramdas Pophale) SiO2 
 PCOD8191956
Probable space group: I M A 2
;
_chemical_formula_sum "Si O2"
_cell_formula_units_Z 40
_cell_length_a 17.165658
_cell_length_b 5.097045
_cell_length_c 22.280930
_cell_angle_alpha 90.000000
_cell_angle_beta 90.000000
_cell_angle_gamma 90.000000
_cell_volume 1949.450614
_symmetry_space_group_name_H-M "I M A 2"
_symmetry_group_IT_number 46
_symmetry_cell_setting 'orthorhombic'
loop_
_space_group_symop_operation_xyz
x,y,z
-x,-y,z
1/2-x,y,z
1/2+x,-y,z
1/2+x,1/2+y,1/2+z
1/2-x,1/2-y,1/2+z
-x,1/2+y,1/2+z
x,1/2-y,1/2+z
loop_
_atom_site_type_symbol
_atom_site_label
_atom_site_fract_x
_atom_site_fract_y
_atom_site_fract_z
Si Si1 0.591290 0.545134 0.528100
Si Si2 0.339648 0.378659 0.655073
Si Si3 0.050715 0.745179 0.840643
Si Si4 0.160446 0.611636 0.232271
Si Si5 0.910196 0.453266 0.966548
O O1 0.500000 0.500000 0.518814
O O2 0.608673 0.628870 0.595779
O O3 0.629798 0.267873 0.508957
O O4 0.627692 0.765773 0.483042
O O5 0.250000 0.328080 0.637718
O O6 0.351904 0.657507 0.685369
O O7 0.369035 0.154505 0.700682
O O8 0.110475 0.840710 0.791075
O O9 0.098930 0.634288 0.897478
O O10 0.000000 0.500000 0.815741
O O11 0.000000 0.000000 0.860335
O O12 0.250000 0.586892 0.252475
O O13 0.000000 0.500000 0.983144
#
# Coordination Sequence:
#
# PCOD8191956 Si02
#       5
#     8   8   8   8   8
#     4  10  19  33  54  78 105 138 176 217 263 320
#     4  10  21  37  55  77 110 147 180 221 273 322
#     4  11  21  36  59  83 109 142 184 227 268 323
#     4  10  22  39  56  78 112 148 180 223 278 323
#     4   9  18  33  53  78 107 137 169 216 275 316
#
# _framework density 20.518601
#
# number of rings (size 3 to 8) (size 9 to 14) (size 15 to 20)
#    0.000    2.000    0.000    5.400    0.000    2.400 
#    0.000    2.000    0.000    0.000    0.000    1.400 
#    0.000    0.000    0.000    0.000    0.000    0.000 
#
# Total GULP energy -247909.287638 kJ/mol
# GULP energy per Si atom -12395.464382 kJ/mol
# Density = 2.047190 g / cm^3
# Si number density = 20.518601 Si / 1000 Ang^3
#
#
#
# Elastic Constant Matrix: (Units=GPa)
#
#
# Indices 1 2 3 4 5 6 
#
# 1 26.8912 26.7000 36.6697 0.0000 0.0000 0.0000
# 2 26.7000 114.5922 35.6157 0.0000 0.0000 0.0000
# 3 36.6697 35.6157 123.2379 0.0000 0.0000 0.0000
# 4 0.0000 0.0000 0.0000 37.4715 0.0000 0.0000
# 5 0.0000 0.0000 0.0000 0.0000 -7.6723 0.0000
# 6 0.0000 0.0000 0.0000 0.0000 0.0000 15.4210
#
#
#
# Elastic Compliance Matrix: (Units=1/GPa)
#
#
# Indices 1 2 3 4 5 6 
#
# 1 0.074107 -0.011441 -0.018744 0.000000 0.000000 0.000000
# 2 -0.011441 0.011354 0.000123 0.000000 0.000000 0.000000
# 3 -0.018744 0.000123 0.013656 0.000000 0.000000 0.000000
# 4 0.000000 0.000000 0.000000 0.026687 0.000000 0.000000
# 5 0.000000 0.000000 0.000000 0.000000 -0.130338 0.000000
# 6 0.000000 0.000000 0.000000 0.000000 0.000000 0.064847
#
#
# Mechanical properties :
#
#
# Convention : Reuss Voigt Hill
#
# Bulk Modulus (GPa) = 25.64590 51.41023 38.52806
# Shear Modulus (GPa) = 37.47150 20.09308 28.78229
#
# Velocity S-wave (km/s) = 4.27807 3.13271 3.74938
# Velocity P-wave (km/s) = 6.07688 6.18021 6.12876
#
# Compressibility (1/GPa) = 0.03899259
#
# Stress axis : x y z
#
# Youngs Moduli (GPa) = 13.49402 88.07348 73.22672
#
# Poissons Ratio (x) = 1.00766 1.37258
# Poissons Ratio (y) = 0.15439 -0.00901
# Poissons Ratio (z) = 0.25293 -0.01083
#
# Static dielectric constant tensor:
#      x y z
#    x 3.346810 0.000000 0.000000 
#    y 0.000000 4.518310 0.000000 
#    z 0.000000 0.000000 3.510800 
# 
# 
# High freq. dielectric constant tensor:
#      x y z
#    x 1.751740 0.000000 0.000000 
#    y 0.000000 1.838070 0.000000 
#    z 0.000000 0.000000 1.803720 
# 
# From -- ./inp_files/22137.got.cif
#   From: 2010.03.12/outbox.cif.g09.slc.cpg/sg46_12_cif.got.tgz:22137.got - 2010.04.14 02:56:35.
