data_PCOD8191434
_publ_section_title
;
Structure prediction by ZEFSAII (Michael W. Deem and Ramdas Pophale) SiO2 
 PCOD8191434
Probable space group: I M A 2
;
_chemical_formula_sum "Si O2"
_cell_formula_units_Z 56
_cell_length_a 26.093669
_cell_length_b 21.733610
_cell_length_c 5.278389
_cell_angle_alpha 90.000000
_cell_angle_beta 90.000000
_cell_angle_gamma 90.000000
_cell_volume 2993.425209
_symmetry_space_group_name_H-M "I M A 2"
_symmetry_group_IT_number 46
_symmetry_cell_setting 'orthorhombic'
loop_
_space_group_symop_operation_xyz
x,y,z
-x,-y,z
1/2-x,y,z
1/2+x,-y,z
1/2+x,1/2+y,1/2+z
1/2-x,1/2-y,1/2+z
-x,1/2+y,1/2+z
x,1/2-y,1/2+z
loop_
_atom_site_type_symbol
_atom_site_label
_atom_site_fract_x
_atom_site_fract_y
_atom_site_fract_z
Si Si1 0.845175 0.674929 0.643890
Si Si2 0.403791 0.067520 0.226612
Si Si3 0.558916 0.990636 0.728271
Si Si4 0.191441 0.985038 0.201487
Si Si5 0.693280 0.693420 0.144308
Si Si6 0.809513 0.289121 0.206724
Si Si7 0.152261 0.922391 0.704175
O O1 0.900319 0.641600 0.680086
O O2 0.820518 0.649971 0.381478
O O3 0.846695 0.749224 0.626385
O O4 0.811008 0.654544 0.887127
O O5 0.422798 0.056084 0.510257
O O6 0.345505 0.043865 0.192879
O O7 0.439022 0.037765 0.010197
O O8 0.500000 0.000000 0.665108
O O9 0.593200 0.052854 0.713888
O O10 0.250000 0.007531 0.212593
O O11 0.179244 0.944097 0.446974
O O12 0.183261 0.945188 0.948574
O O13 0.750000 0.721083 0.180950
O O14 0.750000 0.309996 0.205841
O O15 0.822223 0.250265 0.457399
O O16 0.846618 0.348429 0.205945
#
# Coordination Sequence:
#
# PCOD8191434 Si02
#       7
#     8   8   8   8   8   8   8
#     4  10  18  31  46  69 100 134 174 223 253 296
#     4  10  21  34  52  80 103 130 172 221 265 313
#     4  10  21  39  59  79  99 128 180 222 276 321
#     4  10  19  30  47  72 108 142 164 195 253 315
#     4  10  19  30  47  71 103 150 187 205 242 299
#     4  10  19  30  48  76 105 140 173 197 237 302
#     4  10  20  34  51  75 104 138 169 213 254 299
#
# _framework density 18.707666
#
# number of rings (size 3 to 8) (size 9 to 14) (size 15 to 20)
#    0.000    2.000    0.000    5.571    0.000    2.857 
#    0.000    0.000    0.000    0.000   22.286    0.000 
#    0.000    0.000    0.000    0.000    0.000    0.000 
#
# Total GULP energy -346916.873498 kJ/mol
# GULP energy per Si atom -12389.888339 kJ/mol
# Density = 1.866509 g / cm^3
# Si number density = 18.707666 Si / 1000 Ang^3
#
#
#
# Elastic Constant Matrix: (Units=GPa)
#
#
# Indices 1 2 3 4 5 6 
#
# 1 85.4689 24.4667 9.1378 0.0000 0.0000 0.0000
# 2 24.4667 65.6427 8.4472 0.0000 0.0000 0.0000
# 3 9.1378 8.4472 144.3740 0.0000 0.0000 0.0000
# 4 0.0000 0.0000 0.0000 18.6125 0.0000 0.0000
# 5 0.0000 0.0000 0.0000 0.0000 26.9123 0.0000
# 6 0.0000 0.0000 0.0000 0.0000 0.0000 9.8728
#
#
#
# Elastic Compliance Matrix: (Units=1/GPa)
#
#
# Indices 1 2 3 4 5 6 
#
# 1 0.013141 -0.004827 -0.000549 0.000000 0.000000 0.000000
# 2 -0.004827 0.017123 -0.000696 0.000000 0.000000 0.000000
# 3 -0.000549 -0.000696 0.007002 0.000000 0.000000 0.000000
# 4 0.000000 0.000000 0.000000 0.053727 0.000000 0.000000
# 5 0.000000 0.000000 0.000000 0.000000 0.037158 0.000000
# 6 0.000000 0.000000 0.000000 0.000000 0.000000 0.101288
#
#
# Mechanical properties :
#
#
# Convention : Reuss Voigt Hill
#
# Bulk Modulus (GPa) = 39.80905 42.17657 40.99281
# Shear Modulus (GPa) = 20.00337 27.97510 23.98924
#
# Velocity S-wave (km/s) = 3.27350 3.87121 3.58484
# Velocity P-wave (km/s) = 5.96770 6.52501 6.25257
#
# Compressibility (1/GPa) = 0.02511992
#
# Stress axis : x y z
#
# Youngs Moduli (GPa) = 76.09918 58.40157 142.81713
#
# Poissons Ratio (x) = 0.28192 0.07845
# Poissons Ratio (y) = 0.36735 0.09945
# Poissons Ratio (z) = 0.04180 0.04067
#
# Static dielectric constant tensor:
#      x y z
#    x 3.102720 0.000000 0.000000 
#    y 0.000000 3.230600 0.000000 
#    z 0.000000 0.000000 4.160070 
# 
# 
# High freq. dielectric constant tensor:
#      x y z
#    x 1.677560 0.000000 0.000000 
#    y 0.000000 1.708730 0.000000 
#    z 0.000000 0.000000 1.770200 
# 
# From -- ./inp_files/2368.got.cif
#   From: 2010.03.12/outbox.cif.g09.slc.cpg/sg46_2_cif.got.tgz:2368.got - 2010.04.14 02:56:35.
