data_PCOD8191454
_publ_section_title
;
Structure prediction by ZEFSAII (Michael W. Deem and Ramdas Pophale) SiO2 
 PCOD8191454
Probable space group: I M A 2
;
_chemical_formula_sum "Si O2"
_cell_formula_units_Z 48
_cell_length_a 8.547512
_cell_length_b 16.883833
_cell_length_c 18.343544
_cell_angle_alpha 90.000000
_cell_angle_beta 90.000000
_cell_angle_gamma 90.000000
_cell_volume 2647.244245
_symmetry_space_group_name_H-M "I M A 2"
_symmetry_group_IT_number 46
_symmetry_cell_setting 'orthorhombic'
loop_
_space_group_symop_operation_xyz
x,y,z
-x,-y,z
1/2-x,y,z
1/2+x,-y,z
1/2+x,1/2+y,1/2+z
1/2-x,1/2-y,1/2+z
-x,1/2+y,1/2+z
x,1/2-y,1/2+z
loop_
_atom_site_type_symbol
_atom_site_label
_atom_site_fract_x
_atom_site_fract_y
_atom_site_fract_z
Si Si1 0.929470 0.416404 0.458190
Si Si2 0.431993 0.688475 0.584489
Si Si3 0.067882 0.173521 0.493418
Si Si4 0.565976 0.769430 0.708857
Si Si5 0.435286 0.584043 0.120056
Si Si6 0.434743 0.734576 0.367664
O O1 0.750000 0.424408 0.440521
O O2 0.958916 0.395891 0.544215
O O3 0.995011 0.345226 0.408226
O O4 0.000000 0.500000 0.436629
O O5 0.250000 0.713677 0.576378
O O6 0.542370 0.751361 0.544954
O O7 0.487744 0.692326 0.668444
O O8 0.250000 0.158853 0.478682
O O9 0.995940 0.099059 0.537294
O O10 0.980216 0.189047 0.416660
O O11 0.750000 0.769255 0.696576
O O12 0.494832 0.850278 0.677014
O O13 0.527286 0.760131 0.792989
O O14 0.500000 0.500000 0.147368
O O15 0.250000 0.583737 0.121015
O O16 0.250000 0.733968 0.354032
#
# Coordination Sequence:
#
# PCOD8191454 Si02
#       6
#     8   8   8   8   8   8
#     4   9  19  32  50  73  99 130 165 200 243 291
#     4   9  17  32  50  70  96 131 168 203 245 297
#     4  10  18  31  51  75  98 127 168 211 248 293
#     4  11  21  33  51  77 102 131 168 209 253 299
#     4  11  21  35  53  75 103 136 169 207 251 301
#     4  10  20  35  51  72 102 137 169 204 250 301
#
# _framework density 18.132064
#
# number of rings (size 3 to 8) (size 9 to 14) (size 15 to 20)
#    0.000    2.000    0.000    8.500    0.000    4.667 
#    0.000    1.667    0.000    1.000    0.000    4.667 
#    0.000    0.000    0.000    0.000    0.000    0.000 
#
# Total GULP energy -297455.869966 kJ/mol
# GULP energy per Si atom -12393.994582 kJ/mol
# Density = 1.809079 g / cm^3
# Si number density = 18.132064 Si / 1000 Ang^3
#
#
#
# Elastic Constant Matrix: (Units=GPa)
#
#
# Indices 1 2 3 4 5 6 
#
# 1 92.6553 3.8750 16.6545 0.0000 0.0000 0.0000
# 2 3.8750 5.7680 14.9987 0.0000 0.0000 0.0000
# 3 16.6545 14.9987 102.6232 0.0000 0.0000 0.0000
# 4 0.0000 0.0000 0.0000 16.7867 0.0000 0.0000
# 5 0.0000 0.0000 0.0000 0.0000 32.7195 0.0000
# 6 0.0000 0.0000 0.0000 0.0000 0.0000 27.0045
#
#
#
# Elastic Compliance Matrix: (Units=1/GPa)
#
#
# Indices 1 2 3 4 5 6 
#
# 1 0.011189 -0.004509 -0.001157 0.000000 0.000000 0.000000
# 2 -0.004509 0.281465 -0.040405 0.000000 0.000000 0.000000
# 3 -0.001157 -0.040405 0.015838 0.000000 0.000000 0.000000
# 4 0.000000 0.000000 0.000000 0.059571 0.000000 0.000000
# 5 0.000000 0.000000 0.000000 0.000000 0.030563 0.000000
# 6 0.000000 0.000000 0.000000 0.000000 0.000000 0.037031
#
#
# Mechanical properties :
#
#
# Convention : Reuss Voigt Hill
#
# Bulk Modulus (GPa) = 4.62215 30.23366 17.42790
# Shear Modulus (GPa) = 8.33452 26.33668 17.33560
#
# Velocity S-wave (km/s) = 2.14629 3.81529 3.09540
# Velocity P-wave (km/s) = 2.94903 6.00990 4.73369
#
# Compressibility (1/GPa) = 0.21634956
#
# Stress axis : x y z
#
# Youngs Moduli (GPa) = 89.37181 3.55284 63.14127
#
# Poissons Ratio (x) = 0.01602 0.07305
# Poissons Ratio (y) = 0.40295 2.55124
# Poissons Ratio (z) = 0.10339 0.14355
#
# Static dielectric constant tensor:
#      x y z
#    x 3.373670 0.000000 0.000000 
#    y 0.000000 9.904360 0.000000 
#    z 0.000000 0.000000 3.564690 
# 
# 
# High freq. dielectric constant tensor:
#      x y z
#    x 1.717920 0.000000 0.000000 
#    y 0.000000 1.669330 0.000000 
#    z 0.000000 0.000000 1.698500 
# 
# From -- ./inp_files/18177.got.cif
#   From: 2010.03.12/outbox.cif.g09.slc.cpg/sg46_10_cif.got.tgz:18177.got - 2010.04.14 02:56:35.
