data_PCOD8191446
_publ_section_title
;
Structure prediction by ZEFSAII (Michael W. Deem and Ramdas Pophale) SiO2 
 PCOD8191446
Probable space group: I M A 2
;
_chemical_formula_sum "Si O2"
_cell_formula_units_Z 56
_cell_length_a 14.553477
_cell_length_b 20.805710
_cell_length_c 10.160206
_cell_angle_alpha 90.000000
_cell_angle_beta 90.000000
_cell_angle_gamma 90.000000
_cell_volume 3076.463863
_symmetry_space_group_name_H-M "I M A 2"
_symmetry_group_IT_number 46
_symmetry_cell_setting 'orthorhombic'
loop_
_space_group_symop_operation_xyz
x,y,z
-x,-y,z
1/2-x,y,z
1/2+x,-y,z
1/2+x,1/2+y,1/2+z
1/2-x,1/2-y,1/2+z
-x,1/2+y,1/2+z
x,1/2-y,1/2+z
loop_
_atom_site_type_symbol
_atom_site_label
_atom_site_fract_x
_atom_site_fract_y
_atom_site_fract_z
Si Si1 0.145916 0.402247 0.569860
Si Si2 0.646377 0.463631 0.651990
Si Si3 0.985333 0.396653 0.996760
Si Si4 0.538232 0.774825 0.627024
Si Si5 0.355391 0.287735 0.392440
Si Si6 0.979284 0.353213 0.710486
Si Si7 0.142846 0.006823 0.450349
O O1 0.250000 0.397112 0.622520
O O2 0.121917 0.478135 0.550937
O O3 0.132196 0.362822 0.434448
O O4 0.085795 0.369551 0.683940
O O5 0.750000 0.439265 0.634660
O O6 0.582258 0.402447 0.624227
O O7 0.629589 0.493236 0.796254
O O8 0.987101 0.343108 0.111057
O O9 0.086262 0.428993 0.985209
O O10 0.905122 0.447971 0.029642
O O11 0.956688 0.360223 0.863015
O O12 0.589635 0.758818 0.490800
O O13 0.462467 0.719985 0.662077
O O14 0.610580 0.779346 0.744860
O O15 0.250000 0.266757 0.398628
O O16 0.250000 0.013905 0.490682
#
# Coordination Sequence:
#
# PCOD8191446 Si02
#       7
#     8   8   8   8   8   8   8
#     4   9  17  29  49  77 106 134 168 212 266 317
#     4   9  16  29  53  81 104 132 178 229 267 304
#     4  10  19  33  54  79 105 138 180 223 268 320
#     4  11  21  36  52  76 108 150 178 218 268 322
#     4  10  21  34  50  77 112 146 181 215 264 330
#     4  10  18  31  50  76 109 138 176 217 262 312
#     4   9  18  32  54  82 106 134 178 229 273 315
#
# _framework density 18.202717
#
# number of rings (size 3 to 8) (size 9 to 14) (size 15 to 20)
#    0.000    2.286    2.857    0.857    0.000    1.714 
#    0.000    0.714   12.571    0.000    0.000    0.000 
#    0.000    0.000    0.000    0.000    0.000    0.000 
#
# Total GULP energy -347069.205431 kJ/mol
# GULP energy per Si atom -12395.328765 kJ/mol
# Density = 1.816129 g / cm^3
# Si number density = 18.202717 Si / 1000 Ang^3
#
#
#
# Elastic Constant Matrix: (Units=GPa)
#
#
# Indices 1 2 3 4 5 6 
#
# 1 68.2614 41.5243 7.3719 0.0000 0.0000 0.0000
# 2 41.5243 132.7152 22.3288 0.0000 0.0000 0.0000
# 3 7.3719 22.3288 43.9346 0.0000 0.0000 0.0000
# 4 0.0000 0.0000 0.0000 29.4870 0.0000 0.0000
# 5 0.0000 0.0000 0.0000 0.0000 17.2586 0.0000
# 6 0.0000 0.0000 0.0000 0.0000 0.0000 24.6337
#
#
#
# Elastic Compliance Matrix: (Units=1/GPa)
#
#
# Indices 1 2 3 4 5 6 
#
# 1 0.018094 -0.005632 -0.000174 0.000000 0.000000 0.000000
# 2 -0.005632 0.009993 -0.004133 0.000000 0.000000 0.000000
# 3 -0.000174 -0.004133 0.024891 0.000000 0.000000 0.000000
# 4 0.000000 0.000000 0.000000 0.033913 0.000000 0.000000
# 5 0.000000 0.000000 0.000000 0.000000 0.057942 0.000000
# 6 0.000000 0.000000 0.000000 0.000000 0.000000 0.040595
#
#
# Mechanical properties :
#
#
# Convention : Reuss Voigt Hill
#
# Bulk Modulus (GPa) = 30.21209 43.04015 36.62612
# Shear Modulus (GPa) = 23.11175 25.85494 24.48334
#
# Velocity S-wave (km/s) = 3.56713 3.77289 3.67145
# Velocity P-wave (km/s) = 5.79651 6.53268 6.17557
#
# Compressibility (1/GPa) = 0.03309933
#
# Stress axis : x y z
#
# Youngs Moduli (GPa) = 55.26545 100.07404 40.17515
#
# Poissons Ratio (x) = 0.56364 0.00698
# Poissons Ratio (y) = 0.31127 0.16606
# Poissons Ratio (z) = 0.00960 0.41365
#
# Static dielectric constant tensor:
#      x y z
#    x 3.319510 0.000000 0.000000 
#    y 0.000000 3.710020 0.000000 
#    z 0.000000 0.000000 2.996340 
# 
# 
# High freq. dielectric constant tensor:
#      x y z
#    x 1.690040 0.000000 0.000000 
#    y 0.000000 1.717910 0.000000 
#    z 0.000000 0.000000 1.662280 
# 
# From -- ./inp_files/5936.got.cif
#   From: 2010.03.12/outbox.cif.g09.slc.cpg/sg46_3_cif.got.tgz:5936.got - 2010.04.14 02:56:35.
