data_PCOD8191055
_publ_section_title
;
Structure prediction by ZEFSAII (Michael W. Deem and Ramdas Pophale) SiO2 
 PCOD8191055
Probable space group: I B A 2
;
_chemical_formula_sum "Si O2"
_cell_formula_units_Z 64
_cell_length_a 15.202347
_cell_length_b 23.471090
_cell_length_c 8.504890
_cell_angle_alpha 90.000000
_cell_angle_beta 90.000000
_cell_angle_gamma 90.000000
_cell_volume 3034.677893
_symmetry_space_group_name_H-M "I B A 2"
_symmetry_group_IT_number 45
_symmetry_cell_setting 'orthorhombic'
loop_
_space_group_symop_operation_xyz
x,y,z
-x,-y,z
-x,y,1/2+z
x,-y,1/2+z
1/2+x,1/2+y,1/2+z
1/2-x,1/2-y,1/2+z
1/2-x,1/2+y,z
1/2+x,1/2-y,z
loop_
_atom_site_type_symbol
_atom_site_label
_atom_site_fract_x
_atom_site_fract_y
_atom_site_fract_z
Si Si1 0.084930 0.636731 0.114080
Si Si2 0.333586 0.742885 0.122750
Si Si3 0.258103 0.947241 0.617030
Si Si4 0.594771 0.851942 0.482248
Si Si5 0.892692 0.124762 0.484598
Si Si6 0.577381 0.631915 0.117910
Si Si7 0.354340 0.255079 0.990738
Si Si8 0.743384 0.430904 0.484060
O O1 0.153409 0.586961 0.073828
O O2 0.084834 0.652933 0.296104
O O3 0.107123 0.692557 0.013625
O O4 0.988885 0.615628 0.057894
O O5 0.340792 0.734358 0.307559
O O6 0.402551 0.788773 0.056412
O O7 0.349592 0.682722 0.043356
O O8 0.236078 0.763818 0.083307
O O9 0.176993 0.925205 0.513533
O O10 0.237001 0.941381 0.799590
O O11 0.272216 0.012798 0.575916
O O12 0.682878 0.884942 0.528720
O O13 0.911853 0.130305 0.302552
O O14 0.981240 0.108186 0.576416
O O15 0.580006 0.696905 0.056229
O O16 0.649264 0.591939 0.037186
#
# Coordination Sequence:
#
# PCOD8191055 Si02
#       8
#     8   8   8   8   8   8   8   8
#     4  11  24  42  66  96 132 171 215 265 321 382
#     4  12  23  39  65  97 133 171 213 260 322 386
#     4  11  25  45  68  94 128 169 219 271 323 381
#     4  11  24  42  66  96 132 171 215 265 321 382
#     4  12  25  43  68  97 132 171 214 265 323 384
#     4  12  25  43  68  97 132 171 214 265 323 384
#     4  12  23  39  65  97 133 171 213 260 322 386
#     4  11  25  45  68  94 128 169 219 271 323 381
#
# _framework density 21.089552000000001
#
# number of rings (size 3 to 8) (size 9 to 14) (size 15 to 20)
#    0.000    0.500    2.500    6.750    0.000    4.000 
#    0.000    5.000    0.000    0.000    0.000    0.000 
#    0.000    0.000    0.000    0.000    0.000    0.000 
#
# Total GULP energy -397073.818275 kJ/mol
# GULP energy per Si atom -12408.556821 kJ/mol
# Density = 2.104155 g / cm^3
# Si number density = 21.089552 Si / 1000 Ang^3
#
#
#
# Elastic Constant Matrix: (Units=GPa)
#
#
# Indices 1 2 3 4 5 6 
#
# 1 90.3017 -0.0886 5.7202 0.0003 0.0000 0.0001
# 2 -0.0886 80.5868 6.3709 0.0001 0.0000 0.0000
# 3 5.7202 6.3709 102.9698 0.0009 -0.0001 0.0001
# 4 0.0003 0.0001 0.0009 36.1566 0.0000 0.0001
# 5 0.0000 0.0000 -0.0001 0.0000 37.8159 -0.0001
# 6 0.0001 0.0000 0.0001 0.0001 -0.0001 13.5202
#
#
#
# Elastic Compliance Matrix: (Units=1/GPa)
#
#
# Indices 1 2 3 4 5 6 
#
# 1 0.011113 0.000061 -0.000621 0.000000 0.000000 0.000000
# 2 0.000061 0.012470 -0.000775 0.000000 0.000000 0.000000
# 3 -0.000621 -0.000775 0.009794 0.000000 0.000000 0.000000
# 4 0.000000 0.000000 0.000000 0.027657 0.000000 0.000000
# 5 0.000000 0.000000 0.000000 0.000000 0.026444 0.000000
# 6 0.000000 0.000000 0.000000 0.000000 0.000000 0.073963
#
#
# Mechanical properties :
#
#
# Convention : Reuss Voigt Hill
#
# Bulk Modulus (GPa) = 32.56466 33.09593 32.83029
# Shear Modulus (GPa) = 28.67826 34.95558 31.81692
#
# Velocity S-wave (km/s) = 3.69159 4.07564 3.88836
# Velocity P-wave (km/s) = 5.80044 6.15426 5.97997
#
# Compressibility (1/GPa) = 0.03070813
#
# Stress axis : x y z
#
# Youngs Moduli (GPa) = 89.98145 80.19041 102.10289
#
# Poissons Ratio (x) = -0.00492 0.06342
# Poissons Ratio (y) = -0.00552 0.07913
# Poissons Ratio (z) = 0.05589 0.06214
#
# Static dielectric constant tensor:
#      x y z
#    x 4.069430 0.000000 0.000000 
#    y 0.000000 3.687480 0.000000 
#    z 0.000000 0.000000 3.893150 
# 
# 
# High freq. dielectric constant tensor:
#      x y z
#    x 1.842950 0.000000 0.000000 
#    y 0.000000 1.821580 0.000000 
#    z 0.000000 0.000000 1.843490 
# 
# From -- ./inp_files/1935.got.cif
#   From: 2010.03.12/outbox.cif.g09.slc.cpg/sg45_1_cif.got.tgz:1935.got - 2010.04.14 02:50:11.
