data_PCOD8191221
_publ_section_title
;
Structure prediction by ZEFSAII (Michael W. Deem and Ramdas Pophale) SiO2 
 PCOD8191221
Probable space group: I M A 2
;
_chemical_formula_sum "Si O2"
_cell_formula_units_Z 64
_cell_length_a 9.111558
_cell_length_b 19.762455
_cell_length_c 20.612095
_cell_angle_alpha 90.000000
_cell_angle_beta 90.000000
_cell_angle_gamma 90.000000
_cell_volume 3711.553059
_symmetry_space_group_name_H-M "I M A 2"
_symmetry_group_IT_number 46
_symmetry_cell_setting 'orthorhombic'
loop_
_space_group_symop_operation_xyz
x,y,z
-x,-y,z
1/2-x,y,z
1/2+x,-y,z
1/2+x,1/2+y,1/2+z
1/2-x,1/2-y,1/2+z
-x,1/2+y,1/2+z
x,1/2-y,1/2+z
loop_
_atom_site_type_symbol
_atom_site_label
_atom_site_fract_x
_atom_site_fract_y
_atom_site_fract_z
Si Si1 0.081365 0.066185 0.641340
Si Si2 0.578214 0.431414 0.686797
Si Si3 0.078352 0.301694 0.488176
Si Si4 0.424816 0.200180 0.228067
Si Si5 0.421253 0.931647 0.035740
Si Si6 0.918645 0.934083 0.794202
Si Si7 0.078803 0.293436 0.342635
Si Si8 0.076127 0.211431 0.606458
O O1 0.250000 0.057151 0.622650
O O2 0.058541 0.073616 0.717755
O O3 0.014641 0.134609 0.609219
O O4 0.000000 0.000000 0.613717
O O5 0.500000 0.500000 0.709539
O O6 0.750000 0.436497 0.702117
O O7 0.505642 0.371406 0.727486
O O8 0.547487 0.417997 0.611194
O O9 0.250000 0.317996 0.498571
O O10 0.047094 0.271835 0.416633
O O11 0.023000 0.246034 0.539749
O O12 0.988593 0.370415 0.495246
O O13 0.250000 0.188756 0.226141
O O14 0.481441 0.236535 0.293766
O O15 0.480428 0.244763 0.167238
O O16 0.250000 0.938157 0.020732
O O17 0.500000 0.000000 0.012592
O O18 0.750000 0.943013 0.813123
O O19 0.989035 0.867478 0.827624
O O20 0.000000 0.000000 0.821650
O O21 0.250000 0.300400 0.327660
O O22 0.250000 0.207346 0.610951
#
# Coordination Sequence:
#
# PCOD8191221 Si02
#       8
#     8   8   8   8   8   8   8   8
#     4   9  16  28  46  69  93 120 154 194 237 282
#     4  10  20  33  51  77 103 128 163 208 254 300
#     4  10  19  32  50  73  98 130 170 207 244 294
#     4  10  17  31  53  74  97 130 166 204 249 294
#     4  10  20  33  49  71 101 135 168 205 248 297
#     4   9  16  28  44  64  92 124 156 189 228 279
#     4   9  18  31  49  72  99 130 164 201 246 297
#     4   9  16  28  50  72  93 125 165 202 240 287
#
# _framework density 17.243455000000001
#
# number of rings (size 3 to 8) (size 9 to 14) (size 15 to 20)
#    0.000    2.500    2.500    0.750    0.000    1.500 
#    0.000    4.375    0.000    0.750    0.000    1.750 
#    0.000    0.000    0.000    0.000    0.000    0.000 
#
# Total GULP energy -396770.646135 kJ/mol
# GULP energy per Si atom -12399.082692 kJ/mol
# Density = 1.720421 g / cm^3
# Si number density = 17.243455 Si / 1000 Ang^3
#
#
#
# Elastic Constant Matrix: (Units=GPa)
#
#
# Indices 1 2 3 4 5 6 
#
# 1 52.4258 45.3370 31.6501 0.0000 0.0000 0.0000
# 2 45.3370 152.6978 64.8722 0.0000 0.0000 0.0000
# 3 31.6501 64.8722 91.6686 0.0000 0.0000 0.0000
# 4 0.0000 0.0000 0.0000 24.5769 0.0000 0.0000
# 5 0.0000 0.0000 0.0000 0.0000 11.0870 0.0000
# 6 0.0000 0.0000 0.0000 0.0000 0.0000 30.4971
#
#
#
# Elastic Compliance Matrix: (Units=1/GPa)
#
#
# Indices 1 2 3 4 5 6 
#
# 1 0.027344 -0.005874 -0.005284 0.000000 0.000000 0.000000
# 2 -0.005874 0.010626 -0.005492 0.000000 0.000000 0.000000
# 3 -0.005284 -0.005492 0.016620 0.000000 0.000000 0.000000
# 4 0.000000 0.000000 0.000000 0.040689 0.000000 0.000000
# 5 0.000000 0.000000 0.000000 0.000000 0.090196 0.000000
# 6 0.000000 0.000000 0.000000 0.000000 0.000000 0.032790
#
#
# Mechanical properties :
#
#
# Convention : Reuss Voigt Hill
#
# Bulk Modulus (GPa) = 46.96965 64.50119 55.73542
# Shear Modulus (GPa) = 19.33031 23.56107 21.44569
#
# Velocity S-wave (km/s) = 3.35180 3.70046 3.53044
# Velocity P-wave (km/s) = 6.50213 7.46628 7.00082
#
# Compressibility (1/GPa) = 0.02129034
#
# Stress axis : x y z
#
# Youngs Moduli (GPa) = 36.57076 94.10920 60.16914
#
# Poissons Ratio (x) = 0.55277 0.31795
# Poissons Ratio (y) = 0.21480 0.33044
# Poissons Ratio (z) = 0.19325 0.51683
#
# Static dielectric constant tensor:
#      x y z
#    x 2.973990 0.000000 0.000000 
#    y 0.000000 3.404370 0.000000 
#    z 0.000000 0.000000 3.066220 
# 
# 
# High freq. dielectric constant tensor:
#      x y z
#    x 1.638800 0.000000 0.000000 
#    y 0.000000 1.673950 0.000000 
#    z 0.000000 0.000000 1.642000 
# 
# From -- ./inp_files/21413.got.cif
#   From: 2010.03.12/outbox.cif.g09.slc.cpg/sg46_11_cif.got.tgz:21413.got - 2010.04.14 02:56:35.
