data_PCOD8191312
_publ_section_title
;
Structure prediction by ZEFSAII (Michael W. Deem and Ramdas Pophale) SiO2 
 PCOD8191312
Probable space group: I M A 2
;
_chemical_formula_sum "Si O2"
_cell_formula_units_Z 44
_cell_length_a 13.057495
_cell_length_b 16.374101
_cell_length_c 13.293020
_cell_angle_alpha 90.000000
_cell_angle_beta 90.000000
_cell_angle_gamma 90.000000
_cell_volume 2842.110711
_symmetry_space_group_name_H-M "I M A 2"
_symmetry_group_IT_number 46
_symmetry_cell_setting 'orthorhombic'
loop_
_space_group_symop_operation_xyz
x,y,z
-x,-y,z
1/2-x,y,z
1/2+x,-y,z
1/2+x,1/2+y,1/2+z
1/2-x,1/2-y,1/2+z
-x,1/2+y,1/2+z
x,1/2-y,1/2+z
loop_
_atom_site_type_symbol
_atom_site_label
_atom_site_fract_x
_atom_site_fract_y
_atom_site_fract_z
Si Si1 0.632821 0.309453 0.974020
Si Si2 0.131425 0.788903 0.696152
Si Si3 0.634056 0.129185 0.898780
Si Si4 0.000000 0.000000 0.010689
Si Si5 0.953729 0.374542 0.778984
Si Si6 0.867242 0.535760 0.693003
O O1 0.750000 0.334149 0.953397
O O2 0.617442 0.213654 0.956597
O O3 0.564556 0.362884 0.898148
O O4 0.599854 0.327649 0.088877
O O5 0.250000 0.761013 0.695577
O O6 0.113238 0.857964 0.780090
O O7 0.065008 0.708895 0.718963
O O8 0.750000 0.097130 0.916787
O O9 0.551881 0.065915 0.939009
O O10 0.913877 0.958053 0.080729
O O11 0.878859 0.443668 0.734038
O O12 0.071576 0.401655 0.765002
O O13 0.750000 0.562717 0.691101
#
# Coordination Sequence:
#
# PCOD8191312 Si02
#       6
#     8   8   8   4   8   8
#     4   9  15  26  46  68  88 109 137 176 218 253
#     4   9  16  27  46  69  89 110 140 179 216 249
#     4   9  17  28  44  67  90 111 140 178 215 251
#     4  10  18  28  44  64  86 114 140 174 218 258
#     4   9  17  28  45  66  88 111 140 178 216 252
#     4  10  19  29  43  64  88 113 142 176 214 256
#
# _framework density 15.481451
#
# number of rings (size 3 to 8) (size 9 to 14) (size 15 to 20)
#    0.000    2.909    0.000    5.455    0.000    1.455 
#    0.000    1.818    0.000   14.182    0.000    0.000 
#    0.000    0.000    0.000    0.000    0.000    0.000 
#
# Total GULP energy -272739.605860 kJ/mol
# GULP energy per Si atom -12397.254812 kJ/mol
# Density = 1.544621 g / cm^3
# Si number density = 15.481451 Si / 1000 Ang^3
#
#
#
# Elastic Constant Matrix: (Units=GPa)
#
#
# Indices 1 2 3 4 5 6 
#
# 1 110.9659 45.0610 53.3083 0.0000 0.0000 0.0000
# 2 45.0610 62.1835 45.6084 0.0000 0.0000 0.0000
# 3 53.3083 45.6084 138.8835 0.0000 0.0000 0.0000
# 4 0.0000 0.0000 0.0000 20.0033 0.0000 0.0000
# 5 0.0000 0.0000 0.0000 0.0000 23.9871 0.0000
# 6 0.0000 0.0000 0.0000 0.0000 0.0000 26.2427
#
#
#
# Elastic Compliance Matrix: (Units=1/GPa)
#
#
# Indices 1 2 3 4 5 6 
#
# 1 0.013437 -0.007844 -0.002582 0.000000 0.000000 0.000000
# 2 -0.007844 0.025762 -0.005450 0.000000 0.000000 0.000000
# 3 -0.002582 -0.005450 0.009981 0.000000 0.000000 0.000000
# 4 0.000000 0.000000 0.000000 0.049992 0.000000 0.000000
# 5 0.000000 0.000000 0.000000 0.000000 0.041689 0.000000
# 6 0.000000 0.000000 0.000000 0.000000 0.000000 0.038106
#
#
# Mechanical properties :
#
#
# Convention : Reuss Voigt Hill
#
# Bulk Modulus (GPa) = 57.37110 66.66538 62.01824
# Shear Modulus (GPa) = 23.09182 25.25030 24.17106
#
# Velocity S-wave (km/s) = 3.86629 4.04295 3.95561
# Velocity P-wave (km/s) = 7.55442 8.05909 7.81083
#
# Compressibility (1/GPa) = 0.01743038
#
# Stress axis : x y z
#
# Youngs Moduli (GPa) = 74.42003 38.81663 100.19143
#
# Poissons Ratio (x) = 0.30446 0.25869
# Poissons Ratio (y) = 0.58372 0.54599
# Poissons Ratio (z) = 0.19215 0.21153
#
# Static dielectric constant tensor:
#      x y z
#    x 2.801730 0.000000 0.000000 
#    y 0.000000 2.689350 0.000000 
#    z 0.000000 0.000000 3.191860 
# 
# 
# High freq. dielectric constant tensor:
#      x y z
#    x 1.572520 0.000000 0.000000 
#    y 0.000000 1.567310 0.000000 
#    z 0.000000 0.000000 1.606810 
# 
# From -- ./inp_files/15120.got.cif
#   From: 2010.03.12/outbox.cif.g09.slc.cpg/sg46_8_cif.got.tgz:15120.got - 2010.04.14 02:56:35.
