data_PCOD8191220
_publ_section_title
;
Structure prediction by ZEFSAII (Michael W. Deem and Ramdas Pophale) SiO2 
 PCOD8191220
Probable space group: I M A 2
;
_chemical_formula_sum "Si O2"
_cell_formula_units_Z 64
_cell_length_a 8.750159
_cell_length_b 19.843433
_cell_length_c 20.925196
_cell_angle_alpha 90.000000
_cell_angle_beta 90.000000
_cell_angle_gamma 90.000000
_cell_volume 3633.308614
_symmetry_space_group_name_H-M "I M A 2"
_symmetry_group_IT_number 46
_symmetry_cell_setting 'orthorhombic'
loop_
_space_group_symop_operation_xyz
x,y,z
-x,-y,z
1/2-x,y,z
1/2+x,-y,z
1/2+x,1/2+y,1/2+z
1/2-x,1/2-y,1/2+z
-x,1/2+y,1/2+z
x,1/2-y,1/2+z
loop_
_atom_site_type_symbol
_atom_site_label
_atom_site_fract_x
_atom_site_fract_y
_atom_site_fract_z
Si Si1 0.929993 0.207323 0.959150
Si Si2 0.567812 0.287871 0.839149
Si Si3 0.430195 0.567879 0.653605
Si Si4 0.930149 0.068355 0.899498
Si Si5 0.068598 0.430065 0.261192
Si Si6 0.567980 0.207260 0.099888
Si Si7 0.568200 0.202675 0.716863
Si Si8 0.070177 0.567914 0.800122
O O1 0.750000 0.217608 0.957248
O O2 0.001369 0.254544 0.903674
O O3 0.969941 0.129141 0.947005
O O4 0.993368 0.227586 0.029250
O O5 0.750000 0.285827 0.838824
O O6 0.510561 0.246320 0.777429
O O7 0.509899 0.365206 0.836377
O O8 0.500000 0.500000 0.623056
O O9 0.250000 0.563589 0.647664
O O10 0.495082 0.632877 0.616598
O O11 0.482598 0.574775 0.726944
O O12 0.750000 0.060038 0.888713
O O13 0.006440 0.084322 0.831846
O O14 0.000000 0.000000 0.929268
O O15 0.250000 0.434537 0.261902
O O16 0.000000 0.500000 0.234417
O O17 0.012306 0.369820 0.215937
O O18 0.750000 0.204304 0.100777
O O19 0.511582 0.260864 0.152149
O O20 0.750000 0.193559 0.718509
O O21 0.250000 0.562451 0.805953
O O22 0.000000 0.500000 0.831097
#
# Coordination Sequence:
#
# PCOD8191220 Si02
#       8
#     8   8   8   8   8   8   8   8
#     4   9  17  28  46  72  97 125 165 204 236 285
#     4   9  15  27  48  70  93 124 161 198 238 282
#     4   9  16  27  43  65  93 124 158 189 226 275
#     4  10  18  30  48  70 101 135 170 204 241 287
#     4  11  21  33  51  76 102 127 162 204 252 300
#     4   9  17  29  47  71  98 129 165 200 241 293
#     4  10  17  31  53  74  96 126 164 206 248 288
#     4   9  16  27  45  68  92 120 152 192 233 277
#
# _framework density 17.614798
#
# number of rings (size 3 to 8) (size 9 to 14) (size 15 to 20)
#    0.000    2.500    2.500    2.250    0.000    0.500 
#    0.000    1.250    0.000    3.000    0.000    1.750 
#    0.000    0.000    0.000    0.000    0.000    0.000 
#
# Total GULP energy -396668.782593 kJ/mol
# GULP energy per Si atom -12395.899456 kJ/mol
# Density = 1.757471 g / cm^3
# Si number density = 17.614798 Si / 1000 Ang^3
#
#
#
# Elastic Constant Matrix: (Units=GPa)
#
#
# Indices 1 2 3 4 5 6 
#
# 1 41.5609 32.0561 21.3388 0.0000 0.0000 0.0000
# 2 32.0561 154.2618 82.1207 0.0000 0.0000 0.0000
# 3 21.3388 82.1207 123.7604 0.0000 0.0000 0.0000
# 4 0.0000 0.0000 0.0000 26.4474 0.0000 0.0000
# 5 0.0000 0.0000 0.0000 0.0000 7.9151 0.0000
# 6 0.0000 0.0000 0.0000 0.0000 0.0000 28.4795
#
#
#
# Elastic Compliance Matrix: (Units=1/GPa)
#
#
# Indices 1 2 3 4 5 6 
#
# 1 0.028842 -0.005174 -0.001540 0.000000 0.000000 0.000000
# 2 -0.005174 0.010951 -0.006374 0.000000 0.000000 0.000000
# 3 -0.001540 -0.006374 0.012575 0.000000 0.000000 0.000000
# 4 0.000000 0.000000 0.000000 0.037811 0.000000 0.000000
# 5 0.000000 0.000000 0.000000 0.000000 0.126340 0.000000
# 6 0.000000 0.000000 0.000000 0.000000 0.000000 0.035113
#
#
# Mechanical properties :
#
#
# Convention : Reuss Voigt Hill
#
# Bulk Modulus (GPa) = 38.17909 65.62381 51.90145
# Shear Modulus (GPa) = 17.44958 24.83957 21.14457
#
# Velocity S-wave (km/s) = 3.15083 3.75928 3.46842
# Velocity P-wave (km/s) = 5.91257 7.49524 6.75045
#
# Compressibility (1/GPa) = 0.02619235
#
# Stress axis : x y z
#
# Youngs Moduli (GPa) = 34.67139 91.31571 79.52031
#
# Poissons Ratio (x) = 0.47244 0.12246
# Poissons Ratio (y) = 0.17938 0.50690
# Poissons Ratio (z) = 0.05339 0.58209
#
# Static dielectric constant tensor:
#      x y z
#    x 2.901990 0.000000 0.000000 
#    y 0.000000 3.524170 0.000000 
#    z 0.000000 0.000000 3.312960 
# 
# 
# High freq. dielectric constant tensor:
#      x y z
#    x 1.643320 0.000000 0.000000 
#    y 0.000000 1.692220 0.000000 
#    z 0.000000 0.000000 1.655610 
# 
# From -- ./inp_files/21414.got.cif
#   From: 2010.03.12/outbox.cif.g09.slc.cpg/sg46_11_cif.got.tgz:21414.got - 2010.04.14 02:56:35.
