data_PCOD8191320
_publ_section_title
;
Structure prediction by ZEFSAII (Michael W. Deem and Ramdas Pophale) SiO2 
 PCOD8191320
Probable space group: I M A 2
;
_chemical_formula_sum "Si O2"
_cell_formula_units_Z 56
_cell_length_a 8.843304
_cell_length_b 18.138698
_cell_length_c 20.966970
_cell_angle_alpha 90.000000
_cell_angle_beta 90.000000
_cell_angle_gamma 90.000000
_cell_volume 3363.228221
_symmetry_space_group_name_H-M "I M A 2"
_symmetry_group_IT_number 46
_symmetry_cell_setting 'orthorhombic'
loop_
_space_group_symop_operation_xyz
x,y,z
-x,-y,z
1/2-x,y,z
1/2+x,-y,z
1/2+x,1/2+y,1/2+z
1/2-x,1/2-y,1/2+z
-x,1/2+y,1/2+z
x,1/2-y,1/2+z
loop_
_atom_site_type_symbol
_atom_site_label
_atom_site_fract_x
_atom_site_fract_y
_atom_site_fract_z
Si Si1 0.926683 0.838917 0.853930
Si Si2 0.071608 0.079868 0.984316
Si Si3 0.083103 0.795408 0.667570
Si Si4 0.429559 0.851319 0.107725
Si Si5 0.418986 0.706787 0.798131
Si Si6 0.070236 0.077892 0.231574
Si Si7 0.926310 0.577610 0.228340
O O1 0.750000 0.823969 0.845951
O O2 0.968081 0.877758 0.919656
O O3 0.983763 0.891982 0.796679
O O4 0.008934 0.759617 0.851977
O O5 0.250000 0.073365 0.995960
O O6 0.000000 0.000000 0.979942
O O7 0.994307 0.124939 0.040380
O O8 0.250000 0.826242 0.651751
O O9 0.030986 0.735873 0.614570
O O10 0.086288 0.751341 0.733066
O O11 0.969984 0.864479 0.672449
O O12 0.250000 0.864647 0.112158
O O13 0.507804 0.899229 0.162527
O O14 0.250000 0.683512 0.819268
O O15 0.520688 0.634470 0.787205
O O16 0.250000 0.073421 0.228401
O O17 0.000000 0.000000 0.250819
O O18 0.750000 0.565630 0.228105
O O19 0.000000 0.500000 0.212976
#
# Coordination Sequence:
#
# PCOD8191320 Si02
#       7
#     8   8   8   8   8   8   8
#     4   9  19  33  47  66  93 127 162 194 229 273
#     4  11  22  34  48  68  96 129 165 199 232 273
#     4   8  16  30  46  64  88 117 150 189 231 277
#     4  10  20  34  49  67  93 125 161 197 236 281
#     4   9  17  30  48  69  92 120 154 192 235 280
#     4  11  20  31  48  70  97 125 155 193 237 282
#     4  10  18  28  45  68  94 121 151 188 230 274
#
# _framework density 16.650669000000001
#
# number of rings (size 3 to 8) (size 9 to 14) (size 15 to 20)
#    0.000    2.286    0.000    4.714    0.000    5.714 
#    0.000    0.000    0.000    0.000    0.000    1.000 
#    0.000    2.286    0.000    0.000    0.000    0.000 
#
# Total GULP energy -347163.534712 kJ/mol
# GULP energy per Si atom -12398.697668 kJ/mol
# Density = 1.661277 g / cm^3
# Si number density = 16.650669 Si / 1000 Ang^3
#
#
#
# Elastic Constant Matrix: (Units=GPa)
#
#
# Indices 1 2 3 4 5 6 
#
# 1 105.3612 68.4461 40.6943 0.0000 0.0000 0.0000
# 2 68.4461 139.5967 58.1366 0.0000 0.0000 0.0000
# 3 40.6943 58.1366 66.8898 0.0000 0.0000 0.0000
# 4 0.0000 0.0000 0.0000 25.5679 0.0000 0.0000
# 5 0.0000 0.0000 0.0000 0.0000 21.1166 0.0000
# 6 0.0000 0.0000 0.0000 0.0000 0.0000 28.6421
#
#
#
# Elastic Compliance Matrix: (Units=1/GPa)
#
#
# Indices 1 2 3 4 5 6 
#
# 1 0.014637 -0.005436 -0.004180 0.000000 0.000000 0.000000
# 2 -0.005436 0.013246 -0.008206 0.000000 0.000000 0.000000
# 3 -0.004180 -0.008206 0.024625 0.000000 0.000000 0.000000
# 4 0.000000 0.000000 0.000000 0.039111 0.000000 0.000000
# 5 0.000000 0.000000 0.000000 0.000000 0.047356 0.000000
# 6 0.000000 0.000000 0.000000 0.000000 0.000000 0.034914
#
#
# Mechanical properties :
#
#
# Convention : Reuss Voigt Hill
#
# Bulk Modulus (GPa) = 59.29612 71.82240 65.55926
# Shear Modulus (GPa) = 23.23909 24.70337 23.97123
#
# Velocity S-wave (km/s) = 3.73994 3.85597 3.79840
# Velocity P-wave (km/s) = 7.37148 7.94060 7.66133
#
# Compressibility (1/GPa) = 0.01686451
#
# Stress axis : x y z
#
# Youngs Moduli (GPa) = 68.31993 75.49412 40.60887
#
# Poissons Ratio (x) = 0.41037 0.16976
# Poissons Ratio (y) = 0.37137 0.33322
# Poissons Ratio (z) = 0.28561 0.61948
#
# Static dielectric constant tensor:
#      x y z
#    x 3.303990 0.000000 0.000000 
#    y 0.000000 3.304580 0.000000 
#    z 0.000000 0.000000 2.943930 
# 
# 
# High freq. dielectric constant tensor:
#      x y z
#    x 1.656410 0.000000 0.000000 
#    y 0.000000 1.645670 0.000000 
#    z 0.000000 0.000000 1.600070 
# 
# From -- ./inp_files/21109.got.cif
#   From: 2010.03.12/outbox.cif.g09.slc.cpg/sg46_11_cif.got.tgz:21109.got - 2010.04.14 02:56:35.
