data_PCOD8191420
_publ_section_title
;
Structure prediction by ZEFSAII (Michael W. Deem and Ramdas Pophale) SiO2 
 PCOD8191420
Probable space group: I M A 2
;
_chemical_formula_sum "Si O2"
_cell_formula_units_Z 64
_cell_length_a 18.505862
_cell_length_b 8.726221
_cell_length_c 22.673352
_cell_angle_alpha 90.000000
_cell_angle_beta 90.000000
_cell_angle_gamma 90.000000
_cell_volume 3661.434399
_symmetry_space_group_name_H-M "I M A 2"
_symmetry_group_IT_number 46
_symmetry_cell_setting 'orthorhombic'
loop_
_space_group_symop_operation_xyz
x,y,z
-x,-y,z
1/2-x,y,z
1/2+x,-y,z
1/2+x,1/2+y,1/2+z
1/2-x,1/2-y,1/2+z
-x,1/2+y,1/2+z
x,1/2-y,1/2+z
loop_
_atom_site_type_symbol
_atom_site_label
_atom_site_fract_x
_atom_site_fract_y
_atom_site_fract_z
Si Si1 0.018729 0.163760 0.471820
Si Si2 0.835111 0.093503 0.815198
Si Si3 0.061190 0.375608 0.254155
Si Si4 0.075600 0.081967 0.045398
Si Si5 0.334360 0.934558 0.274682
Si Si6 0.422915 0.583278 0.434564
Si Si7 0.938849 0.876700 0.345459
Si Si8 0.077466 0.081259 0.175655
O O1 0.061718 0.245380 0.523964
O O2 0.070318 0.153243 0.414582
O O3 0.943245 0.242002 0.450786
O O4 0.000000 0.000000 0.498245
O O5 0.750000 0.068459 0.821387
O O6 0.854743 0.261902 0.792047
O O7 0.870661 0.070323 0.879265
O O8 0.865413 0.968751 0.768898
O O9 0.038607 0.280229 0.312525
O O10 0.073272 0.255308 0.200814
O O11 0.000000 0.500000 0.238052
O O12 0.112415 0.087313 0.109687
O O13 0.000000 0.000000 0.054848
O O14 0.117028 0.992122 0.992262
O O15 0.250000 0.958911 0.270182
O O16 0.363158 0.056205 0.322606
O O17 0.368876 0.973416 0.211789
O O18 0.500000 0.500000 0.422989
O O19 0.000000 0.000000 0.330323
O O20 0.000000 0.000000 0.177586
#
# Coordination Sequence:
#
# PCOD8191420 Si02
#       8
#     8   8   8   8   8   8   8   8
#     4   9  15  25  48  75  98 120 153 198 242 281
#     4  11  21  32  49  75 102 125 158 204 250 290
#     4  11  19  29  48  74 101 127 160 203 247 283
#     4   8  17  32  48  69  95 126 160 195 234 282
#     4  10  21  35  50  70  99 133 165 199 241 290
#     4   9  17  32  51  71  99 129 155 192 241 292
#     4  10  18  30  50  74 100 131 162 191 238 299
#     4  10  20  35  53  70  95 131 170 200 231 287
#
# _framework density 17.479486999999999
#
# number of rings (size 3 to 8) (size 9 to 14) (size 15 to 20)
#    0.000    2.500    0.000    7.125    0.000    3.000 
#    0.000    1.875    0.000    0.750    0.000    1.750 
#    0.000    0.000    0.000    0.000    0.000    0.000 
#
# Total GULP energy -396557.349439 kJ/mol
# GULP energy per Si atom -12392.417170 kJ/mol
# Density = 1.743970 g / cm^3
# Si number density = 17.479487 Si / 1000 Ang^3
#
#
#
# Elastic Constant Matrix: (Units=GPa)
#
#
# Indices 1 2 3 4 5 6 
#
# 1 65.6036 35.4419 45.0850 0.0000 0.0000 0.0000
# 2 35.4419 117.9788 59.3942 0.0000 0.0000 0.0000
# 3 45.0850 59.3942 148.1394 0.0000 0.0000 0.0000
# 4 0.0000 0.0000 0.0000 10.6915 0.0000 0.0000
# 5 0.0000 0.0000 0.0000 0.0000 8.5677 0.0000
# 6 0.0000 0.0000 0.0000 0.0000 0.0000 23.5478
#
#
#
# Elastic Compliance Matrix: (Units=1/GPa)
#
#
# Indices 1 2 3 4 5 6 
#
# 1 0.020542 -0.003788 -0.004733 0.000000 0.000000 0.000000
# 2 -0.003788 0.011318 -0.003385 0.000000 0.000000 0.000000
# 3 -0.004733 -0.003385 0.009548 0.000000 0.000000 0.000000
# 4 0.000000 0.000000 0.000000 0.093532 0.000000 0.000000
# 5 0.000000 0.000000 0.000000 0.000000 0.116717 0.000000
# 6 0.000000 0.000000 0.000000 0.000000 0.000000 0.042467
#
#
# Mechanical properties :
#
#
# Convention : Reuss Voigt Hill
#
# Bulk Modulus (GPa) = 56.83106 67.95154 62.39130
# Shear Modulus (GPa) = 15.44151 21.34813 18.39482
#
# Velocity S-wave (km/s) = 2.97544 3.49854 3.24754
# Velocity P-wave (km/s) = 6.66243 7.43499 7.05929
#
# Compressibility (1/GPa) = 0.01759601
#
# Stress axis : x y z
#
# Youngs Moduli (GPa) = 48.67980 88.35311 104.73423
#
# Poissons Ratio (x) = 0.33471 0.49571
# Poissons Ratio (y) = 0.18442 0.35452
# Poissons Ratio (z) = 0.23040 0.29907
#
# Static dielectric constant tensor:
#      x y z
#    x 2.898380 0.000000 0.000000 
#    y 0.000000 3.589660 0.000000 
#    z 0.000000 0.000000 3.576900 
# 
# 
# High freq. dielectric constant tensor:
#      x y z
#    x 1.631680 0.000000 0.000000 
#    y 0.000000 1.695770 0.000000 
#    z 0.000000 0.000000 1.674410 
# 
# From -- ./inp_files/23786.got.cif
#   From: 2010.03.12/outbox.cif.g09.slc.cpg/sg46_12_cif.got.tgz:23786.got - 2010.04.14 02:56:35.
