data_PCOD8191793
_publ_section_title
;
Structure prediction by ZEFSAII (Michael W. Deem and Ramdas Pophale) SiO2 
 PCOD8191793
Probable space group: I M A 2
;
_chemical_formula_sum "Si O2"
_cell_formula_units_Z 48
_cell_length_a 10.406103
_cell_length_b 25.156337
_cell_length_c 9.729903
_cell_angle_alpha 90.000000
_cell_angle_beta 90.000000
_cell_angle_gamma 90.000000
_cell_volume 2547.088499
_symmetry_space_group_name_H-M "I M A 2"
_symmetry_group_IT_number 46
_symmetry_cell_setting 'orthorhombic'
loop_
_space_group_symop_operation_xyz
x,y,z
-x,-y,z
1/2-x,y,z
1/2+x,-y,z
1/2+x,1/2+y,1/2+z
1/2-x,1/2-y,1/2+z
-x,1/2+y,1/2+z
x,1/2-y,1/2+z
loop_
_atom_site_type_symbol
_atom_site_label
_atom_site_fract_x
_atom_site_fract_y
_atom_site_fract_z
Si Si1 0.405415 0.950276 0.228990
Si Si2 0.396355 0.670409 0.220997
Si Si3 0.250000 0.182657 0.489736
Si Si4 0.478955 0.636879 0.938732
Si Si5 0.025551 0.788992 0.197838
Si Si6 0.106801 0.628761 0.497740
Si Si7 0.250000 0.269053 0.708513
O O1 0.250000 0.962753 0.226870
O O2 0.441889 0.918136 0.366224
O O3 0.500000 0.000000 0.227682
O O4 0.453516 0.916157 0.096357
O O5 0.250000 0.683597 0.259819
O O6 0.468449 0.725787 0.201233
O O7 0.460028 0.637141 0.348291
O O8 0.402828 0.636729 0.081989
O O9 0.129592 0.143239 0.471487
O O10 0.250000 0.210014 0.640702
O O11 0.250000 0.231005 0.377027
O O12 0.431321 0.685886 0.843330
O O13 0.876065 0.802182 0.163749
O O14 0.108359 0.814368 0.076033
O O15 0.250000 0.609617 0.469282
#
# Coordination Sequence:
#
# PCOD8191793 Si02
#       7
#     8   8   4   8   8   8   4
#     4  10  22  42  66  84 107 138 184 238 291 344
#     4  11  20  31  52  80 113 149 182 221 271 326
#     4  10  20  34  52  78 120 154 192 226 266 326
#     4  10  21  35  55  81 114 145 189 229 277 326
#     4  10  19  32  49  77 113 153 187 218 261 319
#     4   9  20  36  54  81 109 143 184 229 272 328
#     4  10  20  30  46  74 110 160 180 226 256 310
#
# _framework density 18.845044999999999
#
# number of rings (size 3 to 8) (size 9 to 14) (size 15 to 20)
#    0.000    2.000    1.667    2.000    3.500    3.333 
#    1.500    0.833    0.000    0.000    0.000    0.000 
#    0.000    0.000    0.000    0.000    0.000    0.000 
#
# Total GULP energy -297354.373866 kJ/mol
# GULP energy per Si atom -12389.765578 kJ/mol
# Density = 1.880215 g / cm^3
# Si number density = 18.845045 Si / 1000 Ang^3
#
#
#
# Elastic Constant Matrix: (Units=GPa)
#
#
# Indices 1 2 3 4 5 6 
#
# 1 76.0777 30.4834 27.7871 0.0001 0.0003 0.0014
# 2 30.4834 108.3578 60.5382 0.0001 0.0002 0.0000
# 3 27.7871 60.5382 148.8688 0.0008 -0.0030 0.0069
# 4 0.0001 0.0001 0.0008 13.1772 -0.0003 -0.0004
# 5 0.0003 0.0002 -0.0030 -0.0003 20.9669 0.0008
# 6 0.0014 0.0000 0.0069 -0.0004 0.0008 20.6874
#
#
#
# Elastic Compliance Matrix: (Units=1/GPa)
#
#
# Indices 1 2 3 4 5 6 
#
# 1 0.015038 -0.003445 -0.001406 0.000000 0.000000 -0.000001
# 2 -0.003445 0.012731 -0.004534 0.000000 -0.000001 0.000002
# 3 -0.001406 -0.004534 0.008824 -0.000001 0.000001 -0.000003
# 4 0.000000 0.000000 -0.000001 0.075889 0.000001 0.000001
# 5 0.000000 -0.000001 0.000001 0.000001 0.047694 -0.000002
# 6 -0.000001 0.000002 -0.000003 0.000001 -0.000002 0.048339
#
#
# Mechanical properties :
#
#
# Convention : Reuss Voigt Hill
#
# Bulk Modulus (GPa) = 56.10864 63.43574 59.77219
# Shear Modulus (GPa) = 21.43848 25.26603 23.35226
#
# Velocity S-wave (km/s) = 3.37652 3.66556 3.52401
# Velocity P-wave (km/s) = 6.71115 7.18679 6.95304
#
# Compressibility (1/GPa) = 0.01782257
#
# Stress axis : x y z
#
# Youngs Moduli (GPa) = 66.49642 78.54845 113.33282
#
# Poissons Ratio (x) = 0.27061 0.15935
# Poissons Ratio (y) = 0.22909 0.51386
# Poissons Ratio (z) = 0.09350 0.35614
#
# Static dielectric constant tensor:
#      x y z
#    x 3.541810 0.000000 0.000000 
#    y 0.000000 3.076430 0.000000 
#    z 0.000000 0.000000 3.729520 
# 
# 
# High freq. dielectric constant tensor:
#      x y z
#    x 1.734710 0.000000 0.000000 
#    y 0.000000 1.684980 0.000000 
#    z 0.000000 0.000000 1.744230 
# 
# From -- ./inp_files/4732.got.cif
#   From: 2010.03.12/outbox.cif.g09.slc.cpg/sg46_3_cif.got.tgz:4732.got - 2010.04.14 02:56:35.
