data_PCOD8191834
_publ_section_title
;
Structure prediction by ZEFSAII (Michael W. Deem and Ramdas Pophale) SiO2 
 PCOD8191834
Probable space group: I M A 2
;
_chemical_formula_sum "Si O2"
_cell_formula_units_Z 56
_cell_length_a 9.006143
_cell_length_b 23.549735
_cell_length_c 13.572512
_cell_angle_alpha 90.000000
_cell_angle_beta 90.000000
_cell_angle_gamma 90.000000
_cell_volume 2878.625029
_symmetry_space_group_name_H-M "I M A 2"
_symmetry_group_IT_number 46
_symmetry_cell_setting 'orthorhombic'
loop_
_space_group_symop_operation_xyz
x,y,z
-x,-y,z
1/2-x,y,z
1/2+x,-y,z
1/2+x,1/2+y,1/2+z
1/2-x,1/2-y,1/2+z
-x,1/2+y,1/2+z
x,1/2-y,1/2+z
loop_
_atom_site_type_symbol
_atom_site_label
_atom_site_fract_x
_atom_site_fract_y
_atom_site_fract_z
Si Si1 0.923012 0.834818 0.671990
Si Si2 0.079559 0.172706 0.897571
Si Si3 0.925836 0.059214 0.585052
Si Si4 0.921733 0.117719 0.170579
Si Si5 0.078289 0.557089 0.863290
Si Si6 0.577307 0.942851 0.998843
Si Si7 0.423535 0.732625 0.568412
O O1 0.750000 0.844318 0.650530
O O2 0.951322 0.815020 0.783575
O O3 0.009341 0.893294 0.656428
O O4 0.985852 0.787803 0.598607
O O5 0.250000 0.185331 0.926446
O O6 0.041854 0.107055 0.921136
O O7 0.973446 0.214165 0.959310
O O8 0.750000 0.054869 0.599046
O O9 0.971857 0.075519 0.472749
O O10 0.000000 0.000000 0.615469
O O11 0.750000 0.105829 0.146240
O O12 0.958414 0.107272 0.285818
O O13 0.962332 0.182617 0.145600
O O14 0.017278 0.074285 0.106182
O O15 0.250000 0.542307 0.864315
O O16 0.000000 0.500000 0.827536
O O17 0.750000 0.955193 0.008598
O O18 0.500000 0.000000 0.959930
O O19 0.250000 0.747489 0.566721
#
# Coordination Sequence:
#
# PCOD8191834 Si02
#       7
#     8   8   8   8   8   8   8
#     4  11  23  40  61  84 111 145 185 228 278 334
#     4   9  21  40  58  79 110 147 186 229 274 326
#     4  10  21  38  58  82 112 146 185 230 279 330
#     4   9  18  33  52  77 109 144 182 223 269 322
#     4   9  18  32  51  77 110 145 181 222 268 321
#     4  10  19  32  51  77 109 144 183 225 272 323
#     4  10  21  37  58  84 113 145 183 229 278 330
#
# _framework density 19.453731000000001
#
# number of rings (size 3 to 8) (size 9 to 14) (size 15 to 20)
#    0.000    2.286    0.000    2.143    0.000    6.286 
#    0.000    2.857    0.000    0.000    0.000    0.000 
#    0.000    0.000    0.000    0.000    0.000    0.000 
#
# Total GULP energy -347282.834962 kJ/mol
# GULP energy per Si atom -12402.958391 kJ/mol
# Density = 1.940945 g / cm^3
# Si number density = 19.453731 Si / 1000 Ang^3
#
#
#
# Elastic Constant Matrix: (Units=GPa)
#
#
# Indices 1 2 3 4 5 6 
#
# 1 89.4011 50.9021 38.4508 0.0000 0.0000 0.0000
# 2 50.9021 103.0584 37.7061 0.0000 0.0000 0.0000
# 3 38.4508 37.7061 71.2882 0.0000 0.0001 0.0000
# 4 0.0000 0.0000 0.0000 24.6356 0.0000 0.0000
# 5 0.0000 0.0000 0.0001 0.0000 27.9467 0.0000
# 6 0.0000 0.0000 0.0000 0.0000 0.0000 36.4682
#
#
#
# Elastic Compliance Matrix: (Units=1/GPa)
#
#
# Indices 1 2 3 4 5 6 
#
# 1 0.017415 -0.006404 -0.006006 0.000000 0.000000 0.000000
# 2 -0.006404 0.014387 -0.004155 0.000000 0.000000 0.000000
# 3 -0.006006 -0.004155 0.019465 0.000000 0.000000 0.000000
# 4 0.000000 0.000000 0.000000 0.040592 0.000000 0.000000
# 5 0.000000 0.000000 0.000000 0.000000 0.035782 0.000000
# 6 0.000000 0.000000 0.000000 0.000000 0.000000 0.027421
#
#
# Mechanical properties :
#
#
# Convention : Reuss Voigt Hill
#
# Bulk Modulus (GPa) = 55.13916 57.54061 56.33988
# Shear Modulus (GPa) = 25.74174 26.92269 26.33221
#
# Velocity S-wave (km/s) = 3.64157 3.72416 3.68310
# Velocity P-wave (km/s) = 6.78871 6.93793 6.86373
#
# Compressibility (1/GPa) = 0.01813593
#
# Stress axis : x y z
#
# Youngs Moduli (GPa) = 57.42214 69.50906 51.37501
#
# Poissons Ratio (x) = 0.44515 0.30855
# Poissons Ratio (y) = 0.36774 0.21347
# Poissons Ratio (z) = 0.34486 0.28883
#
# Static dielectric constant tensor:
#      x y z
#    x 3.583520 0.000000 0.000000 
#    y 0.000000 3.511260 0.000000 
#    z 0.000000 0.000000 3.543260 
# 
# 
# High freq. dielectric constant tensor:
#      x y z
#    x 1.763920 0.000000 0.000000 
#    y 0.000000 1.753210 0.000000 
#    z 0.000000 0.000000 1.752620 
# 
# From -- ./inp_files/14190.got.cif
#   From: 2010.03.12/outbox.cif.g09.slc.cpg/sg46_8_cif.got.tgz:14190.got - 2010.04.14 02:56:35.
