data_PCOD8191603
_publ_section_title
;
Structure prediction by ZEFSAII (Michael W. Deem and Ramdas Pophale) SiO2 
 PCOD8191603
Probable space group: I M A 2
;
_chemical_formula_sum "Si O2"
_cell_formula_units_Z 64
_cell_length_a 8.847065
_cell_length_b 15.433398
_cell_length_c 23.646018
_cell_angle_alpha 90.000000
_cell_angle_beta 90.000000
_cell_angle_gamma 90.000000
_cell_volume 3228.633807
_symmetry_space_group_name_H-M "I M A 2"
_symmetry_group_IT_number 46
_symmetry_cell_setting 'orthorhombic'
loop_
_space_group_symop_operation_xyz
x,y,z
-x,-y,z
1/2-x,y,z
1/2+x,-y,z
1/2+x,1/2+y,1/2+z
1/2-x,1/2-y,1/2+z
-x,1/2+y,1/2+z
x,1/2-y,1/2+z
loop_
_atom_site_type_symbol
_atom_site_label
_atom_site_fract_x
_atom_site_fract_y
_atom_site_fract_z
Si Si1 0.072128 0.589139 0.287000
Si Si2 0.071656 0.413489 0.051641
Si Si3 0.570365 0.352664 0.163533
Si Si4 0.929301 0.410104 0.538923
Si Si5 0.071951 0.250474 0.477658
Si Si6 0.072142 0.744840 0.858306
Si Si7 0.572319 0.412047 0.776808
Si Si8 0.570658 0.343444 0.658926
O O1 0.250000 0.579185 0.287752
O O2 0.016577 0.610112 0.223677
O O3 0.022102 0.665641 0.328968
O O4 0.000000 0.500000 0.308869
O O5 0.250000 0.422947 0.051884
O O6 0.000000 0.500000 0.023865
O O7 0.010758 0.407669 0.115357
O O8 0.019019 0.330433 0.015743
O O9 0.750000 0.358429 0.155868
O O10 0.510503 0.254512 0.158805
O O11 0.750000 0.415597 0.535837
O O12 0.987445 0.391128 0.602565
O O13 0.000000 0.500000 0.518006
O O14 0.984413 0.335583 0.497265
O O15 0.250000 0.266126 0.482534
O O16 0.025830 0.230438 0.413890
O O17 0.250000 0.744567 0.872426
O O18 0.027474 0.667013 0.816858
O O19 0.500000 0.500000 0.800590
O O20 0.750000 0.424311 0.774832
O O21 0.507065 0.392942 0.713941
O O22 0.750000 0.340935 0.661592
#
# Coordination Sequence:
#
# PCOD8191603 Si02
#       8
#     8   8   8   8   8   8   8   8
#     4  10  21  37  60  88 118 151 190 235 285 346
#     4  11  24  40  60  88 120 154 195 243 295 351
#     4  10  18  35  62  89 120 155 191 233 289 354
#     4  11  22  38  63  91 121 158 196 237 292 351
#     4  11  25  43  61  85 117 152 200 254 295 343
#     4  10  22  41  62  82 112 157 200 238 290 351
#     4  10  20  37  60  88 120 154 193 237 289 349
#     4   9  17  33  60  89 119 156 191 230 288 353
#
# _framework density 19.822627000000001
#
# number of rings (size 3 to 8) (size 9 to 14) (size 15 to 20)
#    0.000    1.750    2.500    1.875    0.000    5.000 
#    0.000    5.000    0.000    0.000    0.000    0.000 
#    0.000    0.000    0.000    0.000    0.000    0.000 
#
# Total GULP energy -396927.583212 kJ/mol
# GULP energy per Si atom -12403.986975 kJ/mol
# Density = 1.977751 g / cm^3
# Si number density = 19.822627 Si / 1000 Ang^3
#
#
#
# Elastic Constant Matrix: (Units=GPa)
#
#
# Indices 1 2 3 4 5 6 
#
# 1 42.7346 31.7167 24.9570 0.0000 0.0000 0.0000
# 2 31.7167 142.6939 27.5539 0.0000 0.0000 0.0000
# 3 24.9570 27.5539 93.2012 0.0000 0.0000 0.0000
# 4 0.0000 0.0000 0.0000 9.7451 0.0000 0.0000
# 5 0.0000 0.0000 0.0000 0.0000 25.3819 0.0000
# 6 0.0000 0.0000 0.0000 0.0000 0.0000 32.3012
#
#
#
# Elastic Compliance Matrix: (Units=1/GPa)
#
#
# Indices 1 2 3 4 5 6 
#
# 1 0.031596 -0.005715 -0.006771 0.000000 0.000000 0.000000
# 2 -0.005715 0.008466 -0.000972 0.000000 0.000000 0.000000
# 3 -0.006771 -0.000972 0.012830 0.000000 0.000000 0.000000
# 4 0.000000 0.000000 0.000000 0.102616 0.000000 0.000000
# 5 0.000000 0.000000 0.000000 0.000000 0.039398 0.000000
# 6 0.000000 0.000000 0.000000 0.000000 0.000000 0.030959
#
#
# Mechanical properties :
#
#
# Convention : Reuss Voigt Hill
#
# Bulk Modulus (GPa) = 38.49896 49.67609 44.08752
# Shear Modulus (GPa) = 19.12474 26.44578 22.78526
#
# Velocity S-wave (km/s) = 3.10948 3.65652 3.39404
# Velocity P-wave (km/s) = 5.68821 6.55298 6.13585
#
# Compressibility (1/GPa) = 0.02597473
#
# Stress axis : x y z
#
# Youngs Moduli (GPa) = 31.64915 118.11712 77.94178
#
# Poissons Ratio (x) = 0.67510 0.52775
# Poissons Ratio (y) = 0.18089 0.07580
# Poissons Ratio (z) = 0.21430 0.11486
#
# Static dielectric constant tensor:
#      x y z
#    x 3.314100 0.000000 0.000000 
#    y 0.000000 3.820730 0.000000 
#    z 0.000000 0.000000 3.637460 
# 
# 
# High freq. dielectric constant tensor:
#      x y z
#    x 1.753880 0.000000 0.000000 
#    y 0.000000 1.790660 0.000000 
#    z 0.000000 0.000000 1.771680 
# 
# From -- ./inp_files/23157.got.cif
#   From: 2010.03.12/outbox.cif.g09.slc.cpg/sg46_12_cif.got.tgz:23157.got - 2010.04.14 02:56:35.
