data_PCOD8191252
_publ_section_title
;
Structure prediction by ZEFSAII (Michael W. Deem and Ramdas Pophale) SiO2 
 PCOD8191252
Probable space group: I M A 2
;
_chemical_formula_sum "Si O2"
_cell_formula_units_Z 64
_cell_length_a 8.808439
_cell_length_b 26.230445
_cell_length_c 18.610033
_cell_angle_alpha 90.000000
_cell_angle_beta 90.000000
_cell_angle_gamma 90.000000
_cell_volume 4299.834627
_symmetry_space_group_name_H-M "I M A 2"
_symmetry_group_IT_number 46
_symmetry_cell_setting 'orthorhombic'
loop_
_space_group_symop_operation_xyz
x,y,z
-x,-y,z
1/2-x,y,z
1/2+x,-y,z
1/2+x,1/2+y,1/2+z
1/2-x,1/2-y,1/2+z
-x,1/2+y,1/2+z
x,1/2-y,1/2+z
loop_
_atom_site_type_symbol
_atom_site_label
_atom_site_fract_x
_atom_site_fract_y
_atom_site_fract_z
Si Si1 0.425480 0.243819 0.565930
Si Si2 0.576914 0.857433 0.332499
Si Si3 0.573751 0.299659 0.280915
Si Si4 0.923483 0.707864 0.705945
Si Si5 0.929031 0.053342 0.411516
Si Si6 0.928758 0.851494 0.656586
Si Si7 0.429768 0.053159 0.563547
Si Si8 0.927913 0.750612 0.407680
O O1 0.250000 0.233333 0.550459
O O2 0.449223 0.292891 0.619357
O O3 0.492218 0.193270 0.604332
O O4 0.500157 0.253374 0.488019
O O5 0.750000 0.873728 0.348617
O O6 0.553208 0.846103 0.246673
O O7 0.466253 0.903259 0.353407
O O8 0.534563 0.806630 0.376774
O O9 0.750000 0.309704 0.288558
O O10 0.540852 0.247762 0.238439
O O11 0.502177 0.346599 0.235796
O O12 0.504081 0.294120 0.360619
O O13 0.750000 0.726953 0.721810
O O14 0.750000 0.046883 0.419409
O O15 0.999972 0.069900 0.487526
O O16 0.000000 0.000000 0.385218
O O17 0.750000 0.846074 0.665397
O O18 0.975245 0.905486 0.623039
O O19 0.250000 0.048192 0.554008
O O20 0.500000 0.000000 0.589803
O O21 0.750000 0.739985 0.406691
#
# Coordination Sequence:
#
# PCOD8191252 Si02
#       8
#     8   8   8   8   8   8   8   8
#     4   8  13  24  43  62  77 102 141 171 191 229
#     4   9  16  27  42  59  81 110 141 171 204 240
#     4  10  18  26  38  58  83 107 135 171 204 235
#     4   8  15  28  43  58  79 107 137 167 201 243
#     4  11  21  31  43  59  82 109 139 174 208 243
#     4   9  17  30  45  58  77 109 143 169 200 243
#     4  10  19  31  46  62  82 107 137 173 209 245
#     4   9  16  27  43  60  82 111 139 166 198 242
#
# _framework density 14.884294000000001
#
# number of rings (size 3 to 8) (size 9 to 14) (size 15 to 20)
#    0.000    2.750    0.000    5.625    0.000    5.000 
#    0.000    2.500    0.000    0.000    0.000    0.000 
#    0.000    1.000    0.000    6.250    0.000    3.875 
#
# Total GULP energy -396553.603786 kJ/mol
# GULP energy per Si atom -12392.300118 kJ/mol
# Density = 1.485042 g / cm^3
# Si number density = 14.884294 Si / 1000 Ang^3
#
#
#
# Elastic Constant Matrix: (Units=GPa)
#
#
# Indices 1 2 3 4 5 6 
#
# 1 61.3799 34.1233 33.6271 0.0000 0.0000 0.0000
# 2 34.1233 78.3076 55.2629 0.0000 0.0000 0.0000
# 3 33.6271 55.2629 120.4611 0.0001 0.0001 0.0000
# 4 0.0000 0.0000 0.0001 27.6097 0.0000 0.0000
# 5 0.0000 0.0000 0.0001 0.0000 15.0347 0.0000
# 6 0.0000 0.0000 0.0000 0.0000 0.0000 20.1372
#
#
#
# Elastic Compliance Matrix: (Units=1/GPa)
#
#
# Indices 1 2 3 4 5 6 
#
# 1 0.022030 -0.007778 -0.002582 0.000000 0.000000 0.000000
# 2 -0.007778 0.021630 -0.007752 0.000000 0.000000 0.000000
# 3 -0.002582 -0.007752 0.012578 0.000000 0.000000 0.000000
# 4 0.000000 0.000000 0.000000 0.036219 0.000000 0.000000
# 5 0.000000 0.000000 0.000000 0.000000 0.066513 0.000000
# 6 0.000000 0.000000 0.000000 0.000000 0.000000 0.049659
#
#
# Mechanical properties :
#
#
# Convention : Reuss Voigt Hill
#
# Bulk Modulus (GPa) = 49.96024 56.24169 53.10096
# Shear Modulus (GPa) = 19.87877 21.69870 20.78874
#
# Velocity S-wave (km/s) = 3.65849 3.82229 3.74129
# Velocity P-wave (km/s) = 7.17528 7.57283 7.37674
#
# Compressibility (1/GPa) = 0.02001592
#
# Stress axis : x y z
#
# Youngs Moduli (GPa) = 45.39179 46.23199 79.50214
#
# Poissons Ratio (x) = 0.35960 0.20524
# Poissons Ratio (y) = 0.35306 0.61628
# Poissons Ratio (z) = 0.11718 0.35838
#
# Static dielectric constant tensor:
#      x y z
#    x 2.735350 0.000000 0.000000 
#    y 0.000000 2.704440 0.000000 
#    z 0.000000 0.000000 3.149610 
# 
# 
# High freq. dielectric constant tensor:
#      x y z
#    x 1.562150 0.000000 0.000000 
#    y 0.000000 1.531730 0.000000 
#    z 0.000000 0.000000 1.565150 
# 
# From -- ./inp_files/18678.got.cif
#   From: 2010.03.12/outbox.cif.g09.slc.cpg/sg46_10_cif.got.tgz:18678.got - 2010.04.14 02:56:35.
