data_PCOD8191413
_publ_section_title
;
Structure prediction by ZEFSAII (Michael W. Deem and Ramdas Pophale) SiO2 
 PCOD8191413
Probable space group: I M A 2
;
_chemical_formula_sum "Si O2"
_cell_formula_units_Z 56
_cell_length_a 14.571758
_cell_length_b 22.053888
_cell_length_c 9.507269
_cell_angle_alpha 90.000000
_cell_angle_beta 90.000000
_cell_angle_gamma 90.000000
_cell_volume 3055.293224
_symmetry_space_group_name_H-M "I M A 2"
_symmetry_group_IT_number 46
_symmetry_cell_setting 'orthorhombic'
loop_
_space_group_symop_operation_xyz
x,y,z
-x,-y,z
1/2-x,y,z
1/2+x,-y,z
1/2+x,1/2+y,1/2+z
1/2-x,1/2-y,1/2+z
-x,1/2+y,1/2+z
x,1/2-y,1/2+z
loop_
_atom_site_type_symbol
_atom_site_label
_atom_site_fract_x
_atom_site_fract_y
_atom_site_fract_z
Si Si1 0.644579 0.220282 0.449320
Si Si2 0.087841 0.959084 0.103733
Si Si3 0.648347 0.924944 0.620299
Si Si4 0.455913 0.884917 0.590415
Si Si5 0.650020 0.474839 0.901509
Si Si6 0.648167 0.462350 0.299428
Si Si7 0.643307 0.328095 0.644328
O O1 0.750000 0.203048 0.476302
O O2 0.583167 0.180066 0.552689
O O3 0.626266 0.288882 0.502773
O O4 0.619144 0.211021 0.285017
O O5 0.134273 0.989336 0.238489
O O6 0.076448 0.886918 0.138186
O O7 0.151138 0.962783 0.966979
O O8 0.000000 0.000000 0.068373
O O9 0.750000 0.895634 0.648473
O O10 0.566192 0.876455 0.607291
O O11 0.650560 0.960164 0.473494
O O12 0.619010 0.971396 0.743945
O O13 0.428673 0.931948 0.466078
O O14 0.416722 0.909720 0.738294
O O15 0.750000 0.443006 0.920603
O O16 0.750000 0.449008 0.241099
O O17 0.750000 0.349192 0.651127
#
# Coordination Sequence:
#
# PCOD8191413 Si02
#       7
#     8   8   8   8   8   8   8
#     4  10  21  36  55  79 111 147 184 225 276 335
#     4  12  22  33  51  78 113 152 186 225 277 332
#     4   9  19  33  49  75 107 140 184 231 276 329
#     4  11  18  32  54  76 103 143 188 227 272 334
#     4  10  18  30  49  75 107 140 176 226 281 326
#     4  10  20  32  49  75 111 149 185 227 282 334
#     4  10  22  38  54  80 114 149 186 228 279 335
#
# _framework density 18.328845999999999
#
# number of rings (size 3 to 8) (size 9 to 14) (size 15 to 20)
#    0.000    1.714    1.429    6.857    2.000    0.000 
#    0.000    0.000    0.000    0.000    0.000    4.000 
#    0.000    0.000    0.000    0.000    0.000    0.000 
#
# Total GULP energy -346982.214114 kJ/mol
# GULP energy per Si atom -12392.221933 kJ/mol
# Density = 1.828713 g / cm^3
# Si number density = 18.328846 Si / 1000 Ang^3
#
#
#
# Elastic Constant Matrix: (Units=GPa)
#
#
# Indices 1 2 3 4 5 6 
#
# 1 87.4810 28.2040 7.2661 0.0000 0.0000 0.0000
# 2 28.2040 68.0320 18.2951 0.0000 0.0000 0.0000
# 3 7.2661 18.2951 117.6346 0.0002 0.0000 -0.0001
# 4 0.0000 0.0000 0.0002 15.8950 0.0000 0.0000
# 5 0.0000 0.0000 0.0000 0.0000 19.9429 0.0000
# 6 0.0000 0.0000 -0.0001 0.0000 0.0000 21.9769
#
#
#
# Elastic Compliance Matrix: (Units=1/GPa)
#
#
# Indices 1 2 3 4 5 6 
#
# 1 0.013195 -0.005480 0.000037 0.000000 0.000000 0.000000
# 2 -0.005480 0.017617 -0.002401 0.000000 0.000000 0.000000
# 3 0.000037 -0.002401 0.008872 0.000000 0.000000 0.000000
# 4 0.000000 0.000000 0.000000 0.062913 0.000000 0.000000
# 5 0.000000 0.000000 0.000000 0.000000 0.050143 0.000000
# 6 0.000000 0.000000 0.000000 0.000000 0.000000 0.045502
#
#
# Mechanical properties :
#
#
# Convention : Reuss Voigt Hill
#
# Bulk Modulus (GPa) = 41.67528 42.29756 41.98642
# Shear Modulus (GPa) = 22.52978 26.18846 24.35912
#
# Velocity S-wave (km/s) = 3.50980 3.78406 3.64951
# Velocity P-wave (km/s) = 6.26193 6.49764 6.38087
#
# Compressibility (1/GPa) = 0.02399504
#
# Stress axis : x y z
#
# Youngs Moduli (GPa) = 75.78753 56.76451 112.71342
#
# Poissons Ratio (x) = 0.31108 -0.00420
# Poissons Ratio (y) = 0.41533 0.27066
# Poissons Ratio (z) = -0.00283 0.13631
#
# Static dielectric constant tensor:
#      x y z
#    x 3.412890 0.000000 0.000000 
#    y 0.000000 3.055130 0.000000 
#    z 0.000000 0.000000 3.546200 
# 
# 
# High freq. dielectric constant tensor:
#      x y z
#    x 1.692940 0.000000 0.000000 
#    y 0.000000 1.665590 0.000000 
#    z 0.000000 0.000000 1.727260 
# 
# From -- ./inp_files/5909.got.cif
#   From: 2010.03.12/outbox.cif.g09.slc.cpg/sg46_3_cif.got.tgz:5909.got - 2010.04.14 02:56:35.
