data_PCOD8191599
_publ_section_title
;
Structure prediction by ZEFSAII (Michael W. Deem and Ramdas Pophale) SiO2 
 PCOD8191599
Probable space group: I M A 2
;
_chemical_formula_sum "Si O2"
_cell_formula_units_Z 56
_cell_length_a 19.095958
_cell_length_b 15.622261
_cell_length_c 8.650689
_cell_angle_alpha 90.000000
_cell_angle_beta 90.000000
_cell_angle_gamma 90.000000
_cell_volume 2580.691189
_symmetry_space_group_name_H-M "I M A 2"
_symmetry_group_IT_number 46
_symmetry_cell_setting 'orthorhombic'
loop_
_space_group_symop_operation_xyz
x,y,z
-x,-y,z
1/2-x,y,z
1/2+x,-y,z
1/2+x,1/2+y,1/2+z
1/2-x,1/2-y,1/2+z
-x,1/2+y,1/2+z
x,1/2-y,1/2+z
loop_
_atom_site_type_symbol
_atom_site_label
_atom_site_fract_x
_atom_site_fract_y
_atom_site_fract_z
Si Si1 0.986671 0.798207 0.742160
Si Si2 0.581519 0.006858 0.025683
Si Si3 0.831416 0.151921 0.504874
Si Si4 0.391438 0.816867 0.174263
Si Si5 0.111457 0.224273 0.479975
Si Si6 0.068608 0.543425 0.194804
Si Si7 0.829151 0.636129 0.689924
O O1 0.941441 0.826883 0.592245
O O2 0.935269 0.791464 0.885872
O O3 0.028092 0.708663 0.714757
O O4 0.043465 0.869645 0.779901
O O5 0.610178 0.100777 0.065484
O O6 0.500000 0.000000 0.065426
O O7 0.621524 0.938272 0.129325
O O8 0.596289 0.987994 0.841850
O O9 0.750000 0.134724 0.532678
O O10 0.847657 0.159967 0.325549
O O11 0.854084 0.238857 0.587624
O O12 0.872208 0.067727 0.570617
O O13 0.164989 0.278824 0.584605
O O14 0.150853 0.158527 0.367294
O O15 0.000000 0.500000 0.115278
O O16 0.750000 0.602995 0.686646
#
# Coordination Sequence:
#
# PCOD8191599 Si02
#       7
#     8   8   8   8   8   8   8
#     4  10  18  35  61  89 114 155 205 257 309 362
#     4  11  23  40  63  92 123 158 206 266 324 375
#     4  11  24  40  61  89 126 175 217 254 315 387
#     4  11  22  38  62  90 124 162 211 265 313 374
#     4  10  20  37  61  86 117 155 204 254 306 375
#     4  10  21  38  60  88 121 157 204 261 312 366
#     4  11  24  40  61  90 125 166 207 255 319 383
#
# _framework density 21.699612999999999
#
# number of rings (size 3 to 8) (size 9 to 14) (size 15 to 20)
#    0.000    1.429    0.000    8.571    0.000    3.429 
#    0.000    0.000    0.000    2.571    0.000    0.000 
#    0.000    0.000    0.000    0.000    0.000    0.000 
#
# Total GULP energy -347166.922355 kJ/mol
# GULP energy per Si atom -12398.818656 kJ/mol
# Density = 2.165022 g / cm^3
# Si number density = 21.699613 Si / 1000 Ang^3
#
#
#
# Elastic Constant Matrix: (Units=GPa)
#
#
# Indices 1 2 3 4 5 6 
#
# 1 129.3760 30.8905 38.2158 0.0000 0.0000 0.0000
# 2 30.8905 62.6405 12.5861 0.0000 0.0000 0.0000
# 3 38.2158 12.5861 103.9553 0.0000 0.0000 0.0000
# 4 0.0000 0.0000 0.0000 32.2955 0.0000 0.0000
# 5 0.0000 0.0000 0.0000 0.0000 24.2685 0.0000
# 6 0.0000 0.0000 0.0000 0.0000 0.0000 27.6961
#
#
#
# Elastic Compliance Matrix: (Units=1/GPa)
#
#
# Indices 1 2 3 4 5 6 
#
# 1 0.009612 -0.004130 -0.003033 0.000000 0.000000 0.000000
# 2 -0.004130 0.018137 -0.000677 0.000000 0.000000 0.000000
# 3 -0.003033 -0.000677 0.010817 0.000000 0.000000 0.000000
# 4 0.000000 0.000000 0.000000 0.030964 0.000000 0.000000
# 5 0.000000 0.000000 0.000000 0.000000 0.041206 0.000000
# 6 0.000000 0.000000 0.000000 0.000000 0.000000 0.036106
#
#
# Mechanical properties :
#
#
# Convention : Reuss Voigt Hill
#
# Bulk Modulus (GPa) = 43.70069 51.03964 47.37017
# Shear Modulus (GPa) = 29.38561 31.13732 30.26147
#
# Velocity S-wave (km/s) = 3.68394 3.79215 3.73844
# Velocity P-wave (km/s) = 6.18691 6.53804 6.36489
#
# Compressibility (1/GPa) = 0.02288293
#
# Stress axis : x y z
#
# Youngs Moduli (GPa) = 104.04088 55.13565 92.45006
#
# Poissons Ratio (x) = 0.22773 0.28043
# Poissons Ratio (y) = 0.42973 0.06263
# Poissons Ratio (z) = 0.31559 0.03735
#
# Static dielectric constant tensor:
#      x y z
#    x 3.832730 0.000000 0.000000 
#    y 0.000000 3.909710 0.000000 
#    z 0.000000 0.000000 4.090010 
# 
# 
# High freq. dielectric constant tensor:
#      x y z
#    x 1.840570 0.000000 0.000000 
#    y 0.000000 1.848350 0.000000 
#    z 0.000000 0.000000 1.862110 
# 
# From -- ./inp_files/7398.got.cif
#   From: 2010.03.12/outbox.cif.g09.slc.cpg/sg46_4_cif.got.tgz:7398.got - 2010.04.14 02:56:35.
