data_PCOD8191936
_publ_section_title
;
Structure prediction by ZEFSAII (Michael W. Deem and Ramdas Pophale) SiO2 
 PCOD8191936
Probable space group: I M A 2
;
_chemical_formula_sum "Si O2"
_cell_formula_units_Z 64
_cell_length_a 8.924344
_cell_length_b 19.577448
_cell_length_c 20.364387
_cell_angle_alpha 90.000000
_cell_angle_beta 90.000000
_cell_angle_gamma 90.000000
_cell_volume 3557.981807
_symmetry_space_group_name_H-M "I M A 2"
_symmetry_group_IT_number 46
_symmetry_cell_setting 'orthorhombic'
loop_
_space_group_symop_operation_xyz
x,y,z
-x,-y,z
1/2-x,y,z
1/2+x,-y,z
1/2+x,1/2+y,1/2+z
1/2-x,1/2-y,1/2+z
-x,1/2+y,1/2+z
x,1/2-y,1/2+z
loop_
_atom_site_type_symbol
_atom_site_label
_atom_site_fract_x
_atom_site_fract_y
_atom_site_fract_z
Si Si1 0.426836 0.214650 0.222940
Si Si2 0.423236 0.070460 0.808441
Si Si3 0.077546 0.705012 0.110352
Si Si4 0.920389 0.300805 0.962320
Si Si5 0.574065 0.931780 0.416004
Si Si6 0.423953 0.070648 0.654483
Si Si7 0.573178 0.205993 0.843046
Si Si8 0.575556 0.932660 0.266639
O O1 0.250000 0.227760 0.229242
O O2 0.485380 0.241561 0.153684
O O3 0.505614 0.253318 0.282179
O O4 0.466978 0.134378 0.225212
O O5 0.250000 0.067081 0.827992
O O6 0.444733 0.084651 0.731466
O O7 0.502789 0.130933 0.848045
O O8 0.500000 0.000000 0.829615
O O9 0.250000 0.702846 0.133642
O O10 0.008018 0.629875 0.115624
O O11 0.063743 0.730065 0.035252
O O12 0.750000 0.323267 0.947869
O O13 0.971594 0.243713 0.910381
O O14 0.023990 0.367056 0.957869
O O15 0.750000 0.939607 0.421406
O O16 0.519003 0.921221 0.341080
O O17 0.500000 0.000000 0.445763
O O18 0.250000 0.068892 0.634590
O O19 0.500000 0.000000 0.633433
O O20 0.750000 0.199718 0.833252
O O21 0.750000 0.946467 0.265866
O O22 0.500000 0.000000 0.235245
#
# Coordination Sequence:
#
# PCOD8191936 Si02
#       8
#     8   8   8   8   8   8   8   8
#     4  11  21  36  56  83 112 141 182 228 273 325
#     4  10  20  34  55  83 114 142 178 225 273 324
#     4  11  23  38  55  78 110 148 187 226 272 323
#     4  10  23  39  54  78 111 147 187 227 269 325
#     4  10  19  33  53  78 109 147 185 223 269 321
#     4  10  20  34  53  78 110 146 184 224 268 322
#     4  11  21  35  58  83 109 144 183 226 275 322
#     4   9  19  33  53  81 111 139 175 223 269 320
#
# _framework density 17.987725999999999
#
# number of rings (size 3 to 8) (size 9 to 14) (size 15 to 20)
#    0.000    1.750    2.500    2.250    0.000    4.500 
#    0.000    0.000    0.000    0.750    0.000    1.750 
#    0.000    0.000    0.000    0.000    0.000    0.000 
#
# Total GULP energy -396925.701390 kJ/mol
# GULP energy per Si atom -12403.928168 kJ/mol
# Density = 1.794678 g / cm^3
# Si number density = 17.987726 Si / 1000 Ang^3
#
#
#
# Elastic Constant Matrix: (Units=GPa)
#
#
# Indices 1 2 3 4 5 6 
#
# 1 95.6400 59.2098 34.4873 0.0000 0.0000 0.0000
# 2 59.2098 133.0640 52.5588 0.0000 0.0000 0.0000
# 3 34.4873 52.5588 78.7553 0.0000 0.0000 0.0000
# 4 0.0000 0.0000 0.0000 21.4559 0.0000 0.0000
# 5 0.0000 0.0000 0.0000 0.0000 16.0330 0.0000
# 6 0.0000 0.0000 0.0000 0.0000 0.0000 37.1065
#
#
#
# Elastic Compliance Matrix: (Units=1/GPa)
#
#
# Indices 1 2 3 4 5 6 
#
# 1 0.014888 -0.005499 -0.002849 0.000000 0.000000 0.000000
# 2 -0.005499 0.012237 -0.005758 0.000000 0.000000 0.000000
# 3 -0.002849 -0.005758 0.017788 0.000000 0.000000 0.000000
# 4 0.000000 0.000000 0.000000 0.046607 0.000000 0.000000
# 5 0.000000 0.000000 0.000000 0.000000 0.062371 0.000000
# 6 0.000000 0.000000 0.000000 0.000000 0.000000 0.026949
#
#
# Mechanical properties :
#
#
# Convention : Reuss Voigt Hill
#
# Bulk Modulus (GPa) = 59.88404 66.66343 63.27374
# Shear Modulus (GPa) = 23.29693 25.66599 24.48146
#
# Velocity S-wave (km/s) = 3.60273 3.78148 3.69319
# Velocity P-wave (km/s) = 7.11830 7.49714 7.31017
#
# Compressibility (1/GPa) = 0.01669894
#
# Stress axis : x y z
#
# Youngs Moduli (GPa) = 67.16881 81.72225 56.21708
#
# Poissons Ratio (x) = 0.44940 0.16019
# Poissons Ratio (y) = 0.36937 0.32371
# Poissons Ratio (z) = 0.19140 0.47057
#
# Static dielectric constant tensor:
#      x y z
#    x 3.444400 0.000000 0.000000 
#    y 0.000000 3.445340 0.000000 
#    z 0.000000 0.000000 3.150380 
# 
# 
# High freq. dielectric constant tensor:
#      x y z
#    x 1.711260 0.000000 0.000000 
#    y 0.000000 1.700480 0.000000 
#    z 0.000000 0.000000 1.668810 
# 
# From -- ./inp_files/18530.got.cif
#   From: 2010.03.12/outbox.cif.g09.slc.cpg/sg46_10_cif.got.tgz:18530.got - 2010.04.14 02:56:35.
