data_PCOD8191238
_publ_section_title
;
Structure prediction by ZEFSAII (Michael W. Deem and Ramdas Pophale) SiO2 
 PCOD8191238
Probable space group: I M A 2
;
_chemical_formula_sum "Si O2"
_cell_formula_units_Z 64
_cell_length_a 18.475135
_cell_length_b 20.935474
_cell_length_c 9.167202
_cell_angle_alpha 90.000000
_cell_angle_beta 90.000000
_cell_angle_gamma 90.000000
_cell_volume 3545.742720
_symmetry_space_group_name_H-M "I M A 2"
_symmetry_group_IT_number 46
_symmetry_cell_setting 'orthorhombic'
loop_
_space_group_symop_operation_xyz
x,y,z
-x,-y,z
1/2-x,y,z
1/2+x,-y,z
1/2+x,1/2+y,1/2+z
1/2-x,1/2-y,1/2+z
-x,1/2+y,1/2+z
x,1/2-y,1/2+z
loop_
_atom_site_type_symbol
_atom_site_label
_atom_site_fract_x
_atom_site_fract_y
_atom_site_fract_z
Si Si1 0.831004 0.065051 0.010360
Si Si2 0.440870 0.785255 0.701254
Si Si3 0.589974 0.832537 0.182914
Si Si4 0.067429 0.861130 0.207031
Si Si5 0.577655 0.030332 0.441617
Si Si6 0.168058 0.044770 0.220727
Si Si7 0.039737 0.250805 0.441449
Si Si8 0.165810 0.902216 0.684852
O O1 0.750000 0.084036 0.057066
O O2 0.881915 0.119373 0.074298
O O3 0.851691 0.996186 0.077160
O O4 0.838592 0.061877 0.838078
O O5 0.414259 0.713039 0.738772
O O6 0.483914 0.787335 0.547545
O O7 0.495227 0.800604 0.837125
O O8 0.373406 0.833278 0.693453
O O9 0.514898 0.869857 0.154410
O O10 0.656413 0.881046 0.183546
O O11 0.584558 0.797258 0.338957
O O12 0.598934 0.785526 0.044287
O O13 0.077330 0.904593 0.348976
O O14 0.623514 0.048261 0.583251
O O15 0.500000 0.000000 0.484009
O O16 0.617814 0.974474 0.355006
O O17 0.250000 0.034058 0.269610
O O18 0.250000 0.891961 0.636918
#
# Coordination Sequence:
#
# PCOD8191238 Si02
#       8
#     8   8   8   8   8   8   8   8
#     4   9  20  36  51  74 112 145 180 228 267 319
#     4  10  18  33  53  78 112 143 180 223 277 318
#     4  10  17  34  55  79 105 136 174 224 277 322
#     4   9  18  34  56  80 105 142 193 225 262 328
#     4  11  21  37  56  83 111 147 193 235 269 326
#     4  10  21  38  59  77 103 145 185 224 274 332
#     4   8  18  32  54  79 108 133 176 232 266 326
#     4  11  22  36  51  79 121 151 182 232 285 331
#
# _framework density 18.049816
#
# number of rings (size 3 to 8) (size 9 to 14) (size 15 to 20)
#    0.000    2.500    1.250    3.375    0.000    1.000 
#    4.500    3.750    0.000    0.000    0.000    0.000 
#    0.000    0.000    0.000    0.000    0.000    0.000 
#
# Total GULP energy -396583.034704 kJ/mol
# GULP energy per Si atom -12393.219835 kJ/mol
# Density = 1.800873 g / cm^3
# Si number density = 18.049816 Si / 1000 Ang^3
#
#
#
# Elastic Constant Matrix: (Units=GPa)
#
#
# Indices 1 2 3 4 5 6 
#
# 1 65.5097 41.3192 31.5562 0.0000 0.0000 0.0000
# 2 41.3192 94.0406 40.2271 0.0000 0.0000 0.0000
# 3 31.5562 40.2271 102.7524 0.0000 0.0000 0.0000
# 4 0.0000 0.0000 0.0000 19.0052 0.0000 0.0000
# 5 0.0000 0.0000 0.0000 0.0000 20.4339 0.0000
# 6 0.0000 0.0000 0.0000 0.0000 0.0000 19.8613
#
#
#
# Elastic Compliance Matrix: (Units=1/GPa)
#
#
# Indices 1 2 3 4 5 6 
#
# 1 0.022172 -0.008203 -0.003598 0.000000 0.000000 0.000000
# 2 -0.008203 0.015807 -0.003669 0.000000 0.000000 0.000000
# 3 -0.003598 -0.003669 0.012274 0.000000 0.000000 0.000000
# 4 0.000000 0.000000 0.000000 0.052617 0.000000 0.000000
# 5 0.000000 0.000000 0.000000 0.000000 0.048938 0.000000
# 6 0.000000 0.000000 0.000000 0.000000 0.000000 0.050349
#
#
# Mechanical properties :
#
#
# Convention : Reuss Voigt Hill
#
# Bulk Modulus (GPa) = 51.77891 54.27863 53.02877
# Shear Modulus (GPa) = 20.87378 21.80675 21.34027
#
# Velocity S-wave (km/s) = 3.40436 3.47961 3.44219
# Velocity P-wave (km/s) = 6.64844 6.80297 6.72615
#
# Compressibility (1/GPa) = 0.01931288
#
# Stress axis : x y z
#
# Youngs Moduli (GPa) = 45.10250 63.26147 81.47561
#
# Poissons Ratio (x) = 0.51892 0.29313
# Poissons Ratio (y) = 0.36996 0.29897
# Poissons Ratio (z) = 0.16227 0.23213
#
# Static dielectric constant tensor:
#      x y z
#    x 3.235130 0.000000 0.000000 
#    y 0.000000 3.244180 0.000000 
#    z 0.000000 0.000000 3.489200 
# 
# 
# High freq. dielectric constant tensor:
#      x y z
#    x 1.681420 0.000000 0.000000 
#    y 0.000000 1.688500 0.000000 
#    z 0.000000 0.000000 1.709200 
# 
# From -- ./inp_files/6921.got.cif
#   From: 2010.03.12/outbox.cif.g09.slc.cpg/sg46_4_cif.got.tgz:6921.got - 2010.04.14 02:56:35.
