data_PCOD8191875
_publ_section_title
;
Structure prediction by ZEFSAII (Michael W. Deem and Ramdas Pophale) SiO2 
 PCOD8191875
Probable space group: I M A 2
;
_chemical_formula_sum "Si O2"
_cell_formula_units_Z 64
_cell_length_a 8.985443
_cell_length_b 20.780260
_cell_length_c 19.401477
_cell_angle_alpha 90.000000
_cell_angle_beta 90.000000
_cell_angle_gamma 90.000000
_cell_volume 3622.640715
_symmetry_space_group_name_H-M "I M A 2"
_symmetry_group_IT_number 46
_symmetry_cell_setting 'orthorhombic'
loop_
_space_group_symop_operation_xyz
x,y,z
-x,-y,z
1/2-x,y,z
1/2+x,-y,z
1/2+x,1/2+y,1/2+z
1/2-x,1/2-y,1/2+z
-x,1/2+y,1/2+z
x,1/2-y,1/2+z
loop_
_atom_site_type_symbol
_atom_site_label
_atom_site_fract_x
_atom_site_fract_y
_atom_site_fract_z
Si Si1 0.076584 0.375344 0.922160
Si Si2 0.425711 0.307370 0.706571
Si Si3 0.578307 0.632034 0.074691
Si Si4 0.424389 0.064034 0.285881
Si Si5 0.923946 0.265484 0.576816
Si Si6 0.080510 0.756648 0.923484
Si Si7 0.076924 0.066268 0.713896
Si Si8 0.577068 0.312995 0.280694
O O1 0.250000 0.368684 0.910357
O O2 0.016692 0.424965 0.864598
O O3 0.016113 0.305033 0.905959
O O4 0.037025 0.398239 0.999851
O O5 0.250000 0.295056 0.709452
O O6 0.471769 0.374642 0.740732
O O7 0.482230 0.310976 0.627674
O O8 0.507072 0.249137 0.744850
O O9 0.750000 0.655876 0.075414
O O10 0.471864 0.691844 0.090362
O O11 0.550910 0.578333 0.132466
O O12 0.250000 0.052926 0.282355
O O13 0.500000 0.000000 0.255902
O O14 0.750000 0.272348 0.593181
O O15 0.962980 0.286115 0.498196
O O16 0.250000 0.732624 0.926631
O O17 0.056725 0.808938 0.863521
O O18 0.250000 0.062046 0.732023
O O19 0.006138 0.122992 0.758108
O O20 0.000000 0.000000 0.735056
O O21 0.750000 0.316834 0.259951
#
# Coordination Sequence:
#
# PCOD8191875 Si02
#       8
#     8   8   8   8   8   8   8   8
#     4   9  17  32  51  74 105 144 181 215 257 310
#     4  11  21  35  54  80 109 141 181 223 267 319
#     4   9  18  32  51  74 106 144 181 216 257 311
#     4  10  22  36  52  75 107 143 182 223 265 316
#     4  10  19  32  53  81 109 138 175 220 269 317
#     4   9  19  33  52  81 110 136 173 220 268 319
#     4  11  23  37  53  77 110 146 185 225 268 320
#     4  11  21  35  57  82 108 140 179 224 271 320
#
# _framework density 17.66667
#
# number of rings (size 3 to 8) (size 9 to 14) (size 15 to 20)
#    0.000    2.000    2.500    1.500    0.000    3.500 
#    0.000    0.000    0.000    0.750    0.000    1.750 
#    0.000    0.000    0.000    0.000    0.000    0.000 
#
# Total GULP energy -396753.821244 kJ/mol
# GULP energy per Si atom -12398.556914 kJ/mol
# Density = 1.762646 g / cm^3
# Si number density = 17.666670 Si / 1000 Ang^3
#
#
#
# Elastic Constant Matrix: (Units=GPa)
#
#
# Indices 1 2 3 4 5 6 
#
# 1 73.5531 50.4111 42.5518 0.0000 0.0000 0.0000
# 2 50.4111 119.7330 59.9894 0.0000 0.0000 0.0000
# 3 42.5518 59.9894 102.8391 0.0000 0.0000 0.0000
# 4 0.0000 0.0000 0.0000 19.6097 0.0000 0.0000
# 5 0.0000 0.0000 0.0000 0.0000 25.7494 0.0000
# 6 0.0000 0.0000 0.0000 0.0000 0.0000 28.5131
#
#
#
# Elastic Compliance Matrix: (Units=1/GPa)
#
#
# Indices 1 2 3 4 5 6 
#
# 1 0.020739 -0.006263 -0.004928 0.000000 0.000000 0.000000
# 2 -0.006263 0.013692 -0.005396 0.000000 0.000000 0.000000
# 3 -0.004928 -0.005396 0.014910 0.000000 0.000000 0.000000
# 4 0.000000 0.000000 0.000000 0.050995 0.000000 0.000000
# 5 0.000000 0.000000 0.000000 0.000000 0.038836 0.000000
# 6 0.000000 0.000000 0.000000 0.000000 0.000000 0.035072
#
#
# Mechanical properties :
#
#
# Convention : Reuss Voigt Hill
#
# Bulk Modulus (GPa) = 61.84768 66.89219 64.36994
# Shear Modulus (GPa) = 23.49557 24.31927 23.90742
#
# Velocity S-wave (km/s) = 3.65079 3.71423 3.68265
# Velocity P-wave (km/s) = 7.27015 7.50598 7.38901
#
# Compressibility (1/GPa) = 0.01616876
#
# Stress axis : x y z
#
# Youngs Moduli (GPa) = 48.21906 73.03490 67.06702
#
# Poissons Ratio (x) = 0.45739 0.33050
# Poissons Ratio (y) = 0.30198 0.36188
# Poissons Ratio (z) = 0.23762 0.39408
#
# Static dielectric constant tensor:
#      x y z
#    x 3.346290 0.000000 0.000000 
#    y 0.000000 3.022530 0.000000 
#    z 0.000000 0.000000 3.695880 
# 
# 
# High freq. dielectric constant tensor:
#      x y z
#    x 1.691730 0.000000 0.000000 
#    y 0.000000 1.649950 0.000000 
#    z 0.000000 0.000000 1.693230 
# 
# From -- ./inp_files/21334.got.cif
#   From: 2010.03.12/outbox.cif.g09.slc.cpg/sg46_11_cif.got.tgz:21334.got - 2010.04.14 02:56:35.
