data_PCOD8191850
_publ_section_title
;
Structure prediction by ZEFSAII (Michael W. Deem and Ramdas Pophale) SiO2 
 PCOD8191850
Probable space group: I M A 2
;
_chemical_formula_sum "Si O2"
_cell_formula_units_Z 64
_cell_length_a 9.496442
_cell_length_b 15.964018
_cell_length_c 21.591816
_cell_angle_alpha 90.000000
_cell_angle_beta 90.000000
_cell_angle_gamma 90.000000
_cell_volume 3273.348908
_symmetry_space_group_name_H-M "I M A 2"
_symmetry_group_IT_number 46
_symmetry_cell_setting 'orthorhombic'
loop_
_space_group_symop_operation_xyz
x,y,z
-x,-y,z
1/2-x,y,z
1/2+x,-y,z
1/2+x,1/2+y,1/2+z
1/2-x,1/2-y,1/2+z
-x,1/2+y,1/2+z
x,1/2-y,1/2+z
loop_
_atom_site_type_symbol
_atom_site_label
_atom_site_fract_x
_atom_site_fract_y
_atom_site_fract_z
Si Si1 0.595406 0.888899 0.643630
Si Si2 0.591197 0.078893 0.971369
Si Si3 0.915944 0.234365 0.436064
Si Si4 0.904581 0.698912 0.683554
Si Si5 0.092766 0.574900 0.618116
Si Si6 0.089561 0.073293 0.781189
Si Si7 0.582356 0.080646 0.524937
Si Si8 0.586694 0.744407 0.819070
O O1 0.750000 0.913262 0.615709
O O2 0.597964 0.793061 0.661879
O O3 0.569466 0.937141 0.707517
O O4 0.471856 0.910210 0.595497
O O5 0.750000 0.067013 0.946657
O O6 0.531759 0.171000 0.952621
O O7 0.500000 0.000000 0.945657
O O8 0.588890 0.077444 0.044889
O O9 0.750000 0.233950 0.424916
O O10 0.956267 0.166335 0.488631
O O11 0.993993 0.204710 0.373734
O O12 0.750000 0.658788 0.669800
O O13 0.936622 0.690840 0.756767
O O14 0.028908 0.659408 0.644442
O O15 0.250000 0.564706 0.643376
O O16 0.000000 0.500000 0.645429
O O17 0.250000 0.061554 0.800774
O O18 0.032716 0.161274 0.806769
O O19 0.000000 0.000000 0.813890
O O20 0.750000 0.065112 0.524430
O O21 0.500000 0.000000 0.495591
O O22 0.750000 0.743714 0.838419
#
# Coordination Sequence:
#
# PCOD8191850 Si02
#       8
#     8   8   8   8   8   8   8   8
#     4   9  18  33  54  80 109 139 171 210 260 318
#     4   9  19  35  54  80 112 142 174 215 262 315
#     4  10  22  39  56  76 106 142 181 225 267 310
#     4   9  18  34  54  77 106 137 171 214 263 314
#     4  10  19  32  52  78 107 137 171 212 262 319
#     4   9  18  32  50  76 108 138 168 206 253 307
#     4  11  23  38  56  80 109 140 179 226 273 321
#     4   9  20  37  54  73 100 135 176 218 258 306
#
# _framework density 19.551843999999999
#
# number of rings (size 3 to 8) (size 9 to 14) (size 15 to 20)
#    0.000    2.500    0.000    3.375    0.000    6.500 
#    0.000    5.625    0.000    1.500    0.000    0.000 
#    0.000    0.000    0.000    0.000    0.000    0.000 
#
# Total GULP energy -396632.660732 kJ/mol
# GULP energy per Si atom -12394.770648 kJ/mol
# Density = 1.950734 g / cm^3
# Si number density = 19.551844 Si / 1000 Ang^3
#
#
#
# Elastic Constant Matrix: (Units=GPa)
#
#
# Indices 1 2 3 4 5 6 
#
# 1 93.2899 32.6307 28.3471 0.0000 0.0000 0.0000
# 2 32.6307 67.4575 10.6482 0.0000 0.0000 0.0000
# 3 28.3471 10.6482 36.3858 0.0000 0.0000 0.0000
# 4 0.0000 0.0000 0.0000 9.2197 0.0000 0.0000
# 5 0.0000 0.0000 0.0000 0.0000 32.5830 0.0000
# 6 0.0000 0.0000 0.0000 0.0000 0.0000 32.6851
#
#
#
# Elastic Compliance Matrix: (Units=1/GPa)
#
#
# Indices 1 2 3 4 5 6 
#
# 1 0.016129 -0.006100 -0.010780 0.000000 0.000000 0.000000
# 2 -0.006100 0.017849 -0.000471 0.000000 0.000000 0.000000
# 3 -0.010780 -0.000471 0.036020 0.000000 0.000000 0.000000
# 4 0.000000 0.000000 0.000000 0.108463 0.000000 0.000000
# 5 0.000000 0.000000 0.000000 0.000000 0.030691 0.000000
# 6 0.000000 0.000000 0.000000 0.000000 0.000000 0.030595
#
#
# Mechanical properties :
#
#
# Convention : Reuss Voigt Hill
#
# Bulk Modulus (GPa) = 28.33284 37.82060 33.07672
# Shear Modulus (GPa) = 17.46944 23.26471 20.36707
#
# Velocity S-wave (km/s) = 2.99238 3.45323 3.23103
# Velocity P-wave (km/s) = 5.14409 5.94016 5.55640
#
# Compressibility (1/GPa) = 0.03529473
#
# Stress axis : x y z
#
# Youngs Moduli (GPa) = 62.00150 56.02460 27.76263
#
# Poissons Ratio (x) = 0.34176 0.29929
# Poissons Ratio (y) = 0.37822 0.01308
# Poissons Ratio (z) = 0.66839 0.02639
#
# Static dielectric constant tensor:
#      x y z
#    x 3.536740 0.000000 0.000000 
#    y 0.000000 3.638430 0.000000 
#    z 0.000000 0.000000 3.401850 
# 
# 
# High freq. dielectric constant tensor:
#      x y z
#    x 1.762220 0.000000 0.000000 
#    y 0.000000 1.759620 0.000000 
#    z 0.000000 0.000000 1.748050 
# 
# From -- ./inp_files/23150.got.cif
#   From: 2010.03.12/outbox.cif.g09.slc.cpg/sg46_12_cif.got.tgz:23150.got - 2010.04.14 02:56:35.
