data_PCOD8191341
_publ_section_title
;
Structure prediction by ZEFSAII (Michael W. Deem and Ramdas Pophale) SiO2 
 PCOD8191341
Probable space group: I M A 2
;
_chemical_formula_sum "Si O2"
_cell_formula_units_Z 56
_cell_length_a 14.565363
_cell_length_b 24.404391
_cell_length_c 9.541935
_cell_angle_alpha 90.000000
_cell_angle_beta 90.000000
_cell_angle_gamma 90.000000
_cell_volume 3391.764896
_symmetry_space_group_name_H-M "I M A 2"
_symmetry_group_IT_number 46
_symmetry_cell_setting 'orthorhombic'
loop_
_space_group_symop_operation_xyz
x,y,z
-x,-y,z
1/2-x,y,z
1/2+x,-y,z
1/2+x,1/2+y,1/2+z
1/2-x,1/2-y,1/2+z
-x,1/2+y,1/2+z
x,1/2-y,1/2+z
loop_
_atom_site_type_symbol
_atom_site_label
_atom_site_fract_x
_atom_site_fract_y
_atom_site_fract_z
Si Si1 0.454315 0.392409 0.875000
Si Si2 0.858630 0.811565 0.811631
Si Si3 0.359008 0.289668 0.994490
Si Si4 0.646823 0.930486 0.862467
Si Si5 0.350823 0.934977 0.369363
Si Si6 0.097304 0.475293 0.653893
Si Si7 0.355188 0.027872 0.575233
O O1 0.414767 0.332468 0.898689
O O2 0.565972 0.391642 0.856905
O O3 0.409926 0.417715 0.734994
O O4 0.425969 0.431095 0.002807
O O5 0.750000 0.812233 0.809058
O O6 0.889734 0.768731 0.931115
O O7 0.892067 0.793821 0.655763
O O8 0.903151 0.870766 0.854013
O O9 0.250000 0.300423 0.978947
O O10 0.750000 0.914135 0.830075
O O11 0.614976 0.971526 0.738616
O O12 0.644514 0.962568 0.007572
O O13 0.250000 0.905827 0.368622
O O14 0.348002 0.980099 0.244965
O O15 0.366581 0.966780 0.515902
O O16 0.000000 0.500000 0.617269
O O17 0.250000 0.048240 0.551591
#
# Coordination Sequence:
#
# PCOD8191341 Si02
#       7
#     8   8   8   8   8   8   8
#     4  10  18  30  47  66  91 125 158 190 228 275
#     4   9  19  31  44  66  95 124 152 181 219 275
#     4  10  19  32  47  68  97 123 151 186 227 276
#     4  10  18  29  44  66  96 126 152 180 224 278
#     4   9  18  32  47  66  90 121 160 197 229 270
#     4   9  19  30  43  67  95 123 157 191 226 274
#     4   9  16  28  45  65  94 124 151 183 224 274
#
# _framework density 16.510577999999999
#
# number of rings (size 3 to 8) (size 9 to 14) (size 15 to 20)
#    0.000    2.571    1.429    2.143    2.000    2.857 
#    0.000    0.000    0.000    0.000    0.000    1.000 
#    0.000    0.000    0.000    0.000    0.000    0.000 
#
# Total GULP energy -346915.624013 kJ/mol
# GULP energy per Si atom -12389.843715 kJ/mol
# Density = 1.647300 g / cm^3
# Si number density = 16.510578 Si / 1000 Ang^3
#
#
#
# Elastic Constant Matrix: (Units=GPa)
#
#
# Indices 1 2 3 4 5 6 
#
# 1 56.0432 6.4029 5.5144 0.0008 -0.0002 -0.0006
# 2 6.4029 43.3443 24.3330 0.0021 0.0003 -0.0007
# 3 5.5144 24.3330 105.2021 -0.0001 0.0006 0.0002
# 4 0.0008 0.0021 -0.0001 14.0659 0.0001 0.0000
# 5 -0.0002 0.0003 0.0006 0.0001 14.8837 -0.0003
# 6 -0.0006 -0.0007 0.0002 0.0000 -0.0003 14.5626
#
#
#
# Elastic Compliance Matrix: (Units=1/GPa)
#
#
# Indices 1 2 3 4 5 6 
#
# 1 0.018163 -0.002469 -0.000381 -0.000001 0.000000 0.000001
# 2 -0.002469 0.026850 -0.006081 -0.000004 0.000000 0.000001
# 3 -0.000381 -0.006081 0.010932 0.000001 0.000000 0.000000
# 4 -0.000001 -0.000004 0.000001 0.071094 0.000000 0.000000
# 5 0.000000 0.000000 0.000000 0.000000 0.067188 0.000001
# 6 0.000001 0.000001 0.000000 0.000000 0.000001 0.068669
#
#
# Mechanical properties :
#
#
# Convention : Reuss Voigt Hill
#
# Bulk Modulus (GPa) = 26.25875 30.78780 28.52328
# Shear Modulus (GPa) = 17.03860 19.92505 18.48183
#
# Velocity S-wave (km/s) = 3.21593 3.47768 3.34936
# Velocity P-wave (km/s) = 5.45237 5.90029 5.68075
#
# Compressibility (1/GPa) = 0.03808254
#
# Stress axis : x y z
#
# Youngs Moduli (GPa) = 55.05710 37.24463 91.47502
#
# Poissons Ratio (x) = 0.09197 0.03484
# Poissons Ratio (y) = 0.13595 0.55624
# Poissons Ratio (z) = 0.02097 0.22648
#
# Static dielectric constant tensor:
#      x y z
#    x 2.961960 0.000000 0.000000 
#    y 0.000000 2.983120 -0.000010 
#    z 0.000000 -0.000010 3.231110 
# 
# 
# High freq. dielectric constant tensor:
#      x y z
#    x 1.605440 0.000000 0.000000 
#    y 0.000000 1.604040 0.000000 
#    z 0.000000 0.000000 1.645080 
# 
# From -- ./inp_files/6186.got.cif
#   From: 2010.03.12/outbox.cif.g09.slc.cpg/sg46_4_cif.got.tgz:6186.got - 2010.04.14 02:56:35.
