data_PCOD8191213
_publ_section_title
;
Structure prediction by ZEFSAII (Michael W. Deem and Ramdas Pophale) SiO2 
 PCOD8191213
Probable space group: I M A 2
;
_chemical_formula_sum "Si O2"
_cell_formula_units_Z 64
_cell_length_a 9.075474
_cell_length_b 23.257503
_cell_length_c 18.971806
_cell_angle_alpha 90.000000
_cell_angle_beta 90.000000
_cell_angle_gamma 90.000000
_cell_volume 4004.433424
_symmetry_space_group_name_H-M "I M A 2"
_symmetry_group_IT_number 46
_symmetry_cell_setting 'orthorhombic'
loop_
_space_group_symop_operation_xyz
x,y,z
-x,-y,z
1/2-x,y,z
1/2+x,-y,z
1/2+x,1/2+y,1/2+z
1/2-x,1/2-y,1/2+z
-x,1/2+y,1/2+z
x,1/2-y,1/2+z
loop_
_atom_site_type_symbol
_atom_site_label
_atom_site_fract_x
_atom_site_fract_y
_atom_site_fract_z
Si Si1 0.575393 0.117643 0.415340
Si Si2 0.918638 0.329359 0.134084
Si Si3 0.074317 0.938915 0.269920
Si Si4 0.918607 0.239766 0.766540
Si Si5 0.922592 0.841123 0.192203
Si Si6 0.922076 0.058515 0.557103
Si Si7 0.578489 0.771022 0.057280
Si Si8 0.420995 0.748131 0.922528
O O1 0.750000 0.119326 0.415353
O O2 0.519008 0.087195 0.344281
O O3 0.516165 0.081953 0.482398
O O4 0.516684 0.182902 0.419191
O O5 0.750000 0.317501 0.111826
O O6 0.944598 0.315754 0.216772
O O7 0.958815 0.395462 0.118544
O O8 0.017017 0.289081 0.085551
O O9 0.250000 0.944210 0.265642
O O10 0.015270 0.898420 0.207242
O O11 0.000000 0.000000 0.259188
O O12 0.750000 0.262573 0.759849
O O13 0.950839 0.221727 0.846994
O O14 0.026404 0.290932 0.744771
O O15 0.750000 0.852303 0.204200
O O16 0.956789 0.822383 0.111786
O O17 0.750000 0.046241 0.551192
O O18 0.000000 0.000000 0.578836
O O19 0.750000 0.763277 0.046323
O O20 0.505653 0.784875 0.981807
O O21 0.250000 0.748484 0.942282
#
# Coordination Sequence:
#
# PCOD8191213 Si02
#       8
#     8   8   8   8   8   8   8   8
#     4   9  17  30  45  66  95 125 159 194 223 267
#     4   9  17  31  49  67  90 122 157 197 239 276
#     4  11  21  34  50  69  96 130 169 203 237 280
#     4   9  17  30  50  71  91 120 157 196 240 288
#     4  10  20  33  47  68  97 126 158 199 241 284
#     4  10  19  31  45  63  91 125 159 191 224 264
#     4  10  20  31  46  70  97 123 156 196 240 287
#     4  10  17  30  49  70  95 124 158 193 233 286
#
# _framework density 15.982286999999999
#
# number of rings (size 3 to 8) (size 9 to 14) (size 15 to 20)
#    0.000    2.250    2.500    1.500    0.000    2.500 
#    0.000    0.625    0.000    0.000    0.000    0.875 
#    0.000    4.000    0.000    0.000    0.000    0.000 
#
# Total GULP energy -396775.024942 kJ/mol
# GULP energy per Si atom -12399.219529 kJ/mol
# Density = 1.594591 g / cm^3
# Si number density = 15.982287 Si / 1000 Ang^3
#
#
#
# Elastic Constant Matrix: (Units=GPa)
#
#
# Indices 1 2 3 4 5 6 
#
# 1 64.3722 40.7432 49.8568 0.0000 0.0000 0.0000
# 2 40.7432 92.7585 61.4222 0.0000 0.0000 0.0000
# 3 49.8568 61.4222 125.3032 0.0000 0.0000 0.0000
# 4 0.0000 0.0000 0.0000 23.8061 0.0000 0.0000
# 5 0.0000 0.0000 0.0000 0.0000 18.9896 0.0000
# 6 0.0000 0.0000 0.0000 0.0000 0.0000 24.4583
#
#
#
# Elastic Compliance Matrix: (Units=1/GPa)
#
#
# Indices 1 2 3 4 5 6 
#
# 1 0.024819 -0.006459 -0.006709 0.000000 0.000000 0.000000
# 2 -0.006459 0.017643 -0.006078 0.000000 0.000000 0.000000
# 3 -0.006709 -0.006078 0.013630 0.000000 0.000000 0.000000
# 4 0.000000 0.000000 0.000000 0.042006 0.000000 0.000000
# 5 0.000000 0.000000 0.000000 0.000000 0.052660 0.000000
# 6 0.000000 0.000000 0.000000 0.000000 0.000000 0.040886
#
#
# Mechanical properties :
#
#
# Convention : Reuss Voigt Hill
#
# Bulk Modulus (GPa) = 56.82268 65.16426 60.99347
# Shear Modulus (GPa) = 21.18625 22.14492 21.66558
#
# Velocity S-wave (km/s) = 3.64484 3.72639 3.68584
# Velocity P-wave (km/s) = 7.30369 7.70558 7.50732
#
# Compressibility (1/GPa) = 0.01759861
#
# Stress axis : x y z
#
# Youngs Moduli (GPa) = 40.29177 56.68122 73.36961
#
# Poissons Ratio (x) = 0.36610 0.49225
# Poissons Ratio (y) = 0.26024 0.44596
# Poissons Ratio (z) = 0.27032 0.34452
#
# Static dielectric constant tensor:
#      x y z
#    x 2.982130 0.000000 0.000000 
#    y 0.000000 2.888730 0.000000 
#    z 0.000000 0.000000 3.249250 
# 
# 
# High freq. dielectric constant tensor:
#      x y z
#    x 1.609160 0.000000 0.000000 
#    y 0.000000 1.585520 0.000000 
#    z 0.000000 0.000000 1.613400 
# 
# From -- ./inp_files/18629.got.cif
#   From: 2010.03.12/outbox.cif.g09.slc.cpg/sg46_10_cif.got.tgz:18629.got - 2010.04.14 02:56:35.
