data_PCOD8191531
_publ_section_title
;
Structure prediction by ZEFSAII (Michael W. Deem and Ramdas Pophale) SiO2 
 PCOD8191531
Probable space group: I M A 2
;
_chemical_formula_sum "Si O2"
_cell_formula_units_Z 64
_cell_length_a 13.386753
_cell_length_b 14.514490
_cell_length_c 17.944645
_cell_angle_alpha 90.000000
_cell_angle_beta 90.000000
_cell_angle_gamma 90.000000
_cell_volume 3486.678485
_symmetry_space_group_name_H-M "I M A 2"
_symmetry_group_IT_number 46
_symmetry_cell_setting 'orthorhombic'
loop_
_space_group_symop_operation_xyz
x,y,z
-x,-y,z
1/2-x,y,z
1/2+x,-y,z
1/2+x,1/2+y,1/2+z
1/2-x,1/2-y,1/2+z
-x,1/2+y,1/2+z
x,1/2-y,1/2+z
loop_
_atom_site_type_symbol
_atom_site_label
_atom_site_fract_x
_atom_site_fract_y
_atom_site_fract_z
Si Si1 0.360776 0.561463 0.280430
Si Si2 0.498631 0.785154 0.213145
Si Si3 0.435455 0.135705 0.810859
Si Si4 0.966674 0.104153 0.478359
Si Si5 0.636303 0.707042 0.907729
Si Si6 0.635313 0.164182 0.627263
Si Si7 0.634462 0.121565 0.324822
Si Si8 0.136453 0.423581 0.765326
O O1 0.250000 0.592227 0.307986
O O2 0.449030 0.607758 0.328813
O O3 0.368367 0.451578 0.289353
O O4 0.376006 0.590553 0.194155
O O5 0.570413 0.701022 0.237708
O O6 0.431219 0.756580 0.142431
O O7 0.423457 0.797462 0.283184
O O8 0.566000 0.877459 0.201038
O O9 0.390791 0.188942 0.882535
O O10 0.905991 0.117679 0.553563
O O11 0.890784 0.123738 0.411392
O O12 0.062796 0.172298 0.473316
O O13 0.000000 0.000000 0.474455
O O14 0.750000 0.704384 0.937286
O O15 0.621301 0.637026 0.839291
O O16 0.750000 0.194330 0.616248
O O17 0.750000 0.139906 0.314320
O O18 0.601719 0.026171 0.285030
O O19 0.250000 0.421881 0.736819
#
# Coordination Sequence:
#
# PCOD8191531 Si02
#       8
#     8   8   8   8   8   8   8   8
#     4   9  18  33  52  76 106 140 180 221 271 321
#     4  10  18  33  52  76 106 142 183 222 265 315
#     4   9  17  30  52  76 105 136 177 225 264 310
#     4  12  22  35  53  77 114 151 178 213 263 327
#     4  10  19  33  51  77 109 140 177 223 267 314
#     4  10  23  37  51  76 112 148 181 218 263 322
#     4  11  19  32  55  83 110 140 180 226 274 318
#     4   9  17  30  51  81 108 132 174 227 273 315
#
# _framework density 18.355578000000001
#
# number of rings (size 3 to 8) (size 9 to 14) (size 15 to 20)
#    0.000    2.000    3.750    1.500    3.500    1.500 
#    0.000    0.625    0.000    0.000    6.500    0.000 
#    0.000    0.000    0.000    0.000    0.000    0.000 
#
# Total GULP energy -396630.554525 kJ/mol
# GULP energy per Si atom -12394.704829 kJ/mol
# Density = 1.831380 g / cm^3
# Si number density = 18.355578 Si / 1000 Ang^3
#
#
#
# Elastic Constant Matrix: (Units=GPa)
#
#
# Indices 1 2 3 4 5 6 
#
# 1 84.7044 10.3650 9.2372 0.0000 0.0000 0.0000
# 2 10.3650 59.1630 13.9818 0.0000 0.0000 0.0000
# 3 9.2372 13.9818 36.2759 0.0000 0.0000 0.0000
# 4 0.0000 0.0000 0.0000 -22.1351 0.0000 0.0000
# 5 0.0000 0.0000 0.0000 0.0000 28.2466 0.0000
# 6 0.0000 0.0000 0.0000 0.0000 0.0000 26.4962
#
#
#
# Elastic Compliance Matrix: (Units=1/GPa)
#
#
# Indices 1 2 3 4 5 6 
#
# 1 0.012271 -0.001553 -0.002526 0.000000 0.000000 0.000000
# 2 -0.001553 0.018793 -0.006848 0.000000 0.000000 0.000000
# 3 -0.002526 -0.006848 0.030849 0.000000 0.000000 0.000000
# 4 0.000000 0.000000 0.000000 -0.045177 0.000000 0.000000
# 5 0.000000 0.000000 0.000000 0.000000 0.035403 0.000000
# 6 0.000000 0.000000 0.000000 0.000000 0.000000 0.037741
#
#
# Mechanical properties :
#
#
# Convention : Reuss Voigt Hill
#
# Bulk Modulus (GPa) = 24.96296 27.47904 26.22100
# Shear Modulus (GPa) = 39.97218 16.29215 28.13216
#
# Velocity S-wave (km/s) = 4.67160 2.98247 3.91912
# Velocity P-wave (km/s) = 6.53664 5.18296 5.89876
#
# Compressibility (1/GPa) = 0.04005935
#
# Stress axis : x y z
#
# Youngs Moduli (GPa) = 81.49120 53.21171 32.41578
#
# Poissons Ratio (x) = 0.08263 0.08189
# Poissons Ratio (y) = 0.12654 0.22198
# Poissons Ratio (z) = 0.20586 0.36439
#
# Static dielectric constant tensor:
#      x y z
#    x 3.723440 0.000000 0.000000 
#    y 0.000000 3.553570 0.000000 
#    z 0.000000 0.000000 2.913330 
# 
# 
# High freq. dielectric constant tensor:
#      x y z
#    x 1.736430 0.000000 0.000000 
#    y 0.000000 1.717430 0.000000 
#    z 0.000000 0.000000 1.645880 
# 
# From -- ./inp_files/19743.got.cif
#   From: 2010.03.12/outbox.cif.g09.slc.cpg/sg46_10_cif.got.tgz:19743.got - 2010.04.14 02:56:35.
