data_PCOD8191200
_publ_section_title
;
Structure prediction by ZEFSAII (Michael W. Deem and Ramdas Pophale) SiO2 
 PCOD8191200
Probable space group: I M A 2
;
_chemical_formula_sum "Si O2"
_cell_formula_units_Z 64
_cell_length_a 14.291030
_cell_length_b 15.846940
_cell_length_c 15.130327
_cell_angle_alpha 90.000000
_cell_angle_beta 90.000000
_cell_angle_gamma 90.000000
_cell_volume 3426.551462
_symmetry_space_group_name_H-M "I M A 2"
_symmetry_group_IT_number 46
_symmetry_cell_setting 'orthorhombic'
loop_
_space_group_symop_operation_xyz
x,y,z
-x,-y,z
1/2-x,y,z
1/2+x,-y,z
1/2+x,1/2+y,1/2+z
1/2-x,1/2-y,1/2+z
-x,1/2+y,1/2+z
x,1/2-y,1/2+z
loop_
_atom_site_type_symbol
_atom_site_label
_atom_site_fract_x
_atom_site_fract_y
_atom_site_fract_z
Si Si1 0.529590 0.756730 0.106220
Si Si2 0.647171 0.494141 0.789829
Si Si3 0.555009 0.084504 0.653088
Si Si4 0.145897 0.677906 0.308268
Si Si5 0.991301 0.746635 0.912774
Si Si6 0.420679 0.569678 0.961144
Si Si7 0.643918 0.335822 0.686304
Si Si8 0.138640 0.179431 0.266930
O O1 0.520061 0.658433 0.132845
O O2 0.428344 0.802731 0.113452
O O3 0.609801 0.795693 0.167802
O O4 0.560065 0.771298 0.004605
O O5 0.750000 0.509359 0.752904
O O6 0.655944 0.461196 0.890784
O O7 0.602726 0.423806 0.725123
O O8 0.597353 0.585062 0.784054
O O9 0.622507 0.107809 0.734109
O O10 0.616356 0.072479 0.562695
O O11 0.500000 0.000000 0.678969
O O12 0.250000 0.657801 0.345966
O O13 0.144090 0.770796 0.267027
O O14 0.066988 0.680938 0.384929
O O15 0.912684 0.740245 0.836885
O O16 0.044545 0.660155 0.930322
O O17 0.500000 0.500000 0.955625
O O18 0.750000 0.343543 0.647614
O O19 0.250000 0.187674 0.279676
#
# Coordination Sequence:
#
# PCOD8191200 Si02
#       8
#     8   8   8   8   8   8   8   8
#     4  10  21  36  56  81 109 149 186 227 279 328
#     4  10  19  30  52  83 114 141 175 223 278 338
#     4   9  19  34  54  77 111 148 182 225 272 334
#     4  10  19  34  56  82 111 145 183 225 276 337
#     4  11  20  34  57  82 110 146 186 226 277 337
#     4  10  17  28  51  82 114 142 172 220 281 338
#     4   9  17  32  53  81 113 141 171 216 279 342
#     4  11  22  37  56  81 113 149 191 232 274 329
#
# _framework density 18.677672000000001
#
# number of rings (size 3 to 8) (size 9 to 14) (size 15 to 20)
#    0.000    2.000    5.000    0.000    0.000    1.500 
#    0.000    3.125    2.750    0.000    0.000    0.000 
#    0.000    0.000    0.000    0.000    0.000    0.000 
#
# Total GULP energy -396497.348821 kJ/mol
# GULP energy per Si atom -12390.542151 kJ/mol
# Density = 1.863516 g / cm^3
# Si number density = 18.677672 Si / 1000 Ang^3
#
#
#
# Elastic Constant Matrix: (Units=GPa)
#
#
# Indices 1 2 3 4 5 6 
#
# 1 81.5186 29.4003 38.5734 0.0000 0.0000 0.0000
# 2 29.4003 76.5215 43.1497 0.0000 0.0000 0.0000
# 3 38.5734 43.1497 114.7984 0.0000 0.0000 0.0000
# 4 0.0000 0.0000 0.0000 23.5102 0.0000 0.0000
# 5 0.0000 0.0000 0.0000 0.0000 13.9401 0.0000
# 6 0.0000 0.0000 0.0000 0.0000 0.0000 16.1678
#
#
#
# Elastic Compliance Matrix: (Units=1/GPa)
#
#
# Indices 1 2 3 4 5 6 
#
# 1 0.015414 -0.003809 -0.003748 0.000000 0.000000 0.000000
# 2 -0.003809 0.017524 -0.005307 0.000000 0.000000 0.000000
# 3 -0.003748 -0.005307 0.011965 0.000000 0.000000 0.000000
# 4 0.000000 0.000000 0.000000 0.042535 0.000000 0.000000
# 5 0.000000 0.000000 0.000000 0.000000 0.071735 0.000000
# 6 0.000000 0.000000 0.000000 0.000000 0.000000 0.061851
#
#
# Mechanical properties :
#
#
# Convention : Reuss Voigt Hill
#
# Bulk Modulus (GPa) = 52.14842 55.00948 53.57895
# Shear Modulus (GPa) = 19.75159 21.50464 20.62811
#
# Velocity S-wave (km/s) = 3.25545 3.39684 3.32690
# Velocity P-wave (km/s) = 6.48933 6.70080 6.59591
#
# Compressibility (1/GPa) = 0.01917604
#
# Stress axis : x y z
#
# Youngs Moduli (GPa) = 64.87519 57.06366 83.57759
#
# Poissons Ratio (x) = 0.21736 0.31322
# Poissons Ratio (y) = 0.24711 0.44355
# Poissons Ratio (z) = 0.24313 0.30284
#
# Static dielectric constant tensor:
#      x y z
#    x 3.303080 0.000000 0.000000 
#    y 0.000000 3.522230 0.000000 
#    z 0.000000 0.000000 3.548880 
# 
# 
# High freq. dielectric constant tensor:
#      x y z
#    x 1.705310 0.000000 0.000000 
#    y 0.000000 1.713290 0.000000 
#    z 0.000000 0.000000 1.715810 
# 
# From -- ./inp_files/16179.got.cif
#   From: 2010.03.12/outbox.cif.g09.slc.cpg/sg46_9_cif.got.tgz:16179.got - 2010.04.14 02:56:35.
