data_PCOD8191005
_publ_section_title
;
Structure prediction by ZEFSAII (Michael W. Deem and Ramdas Pophale) SiO2 
 PCOD8191005
Probable space group: I B A 2
;
_chemical_formula_sum "Si O2"
_cell_formula_units_Z 64
_cell_length_a 18.755225
_cell_length_b 9.186125
_cell_length_c 18.551975
_cell_angle_alpha 90.000000
_cell_angle_beta 90.000000
_cell_angle_gamma 90.000000
_cell_volume 3196.279724
_symmetry_space_group_name_H-M "I B A 2"
_symmetry_group_IT_number 45
_symmetry_cell_setting 'orthorhombic'
loop_
_space_group_symop_operation_xyz
x,y,z
-x,-y,z
-x,y,1/2+z
x,-y,1/2+z
1/2+x,1/2+y,1/2+z
1/2-x,1/2-y,1/2+z
1/2-x,1/2+y,z
1/2+x,1/2-y,z
loop_
_atom_site_type_symbol
_atom_site_label
_atom_site_fract_x
_atom_site_fract_y
_atom_site_fract_z
Si Si1 0.390430 0.901616 0.598980
Si Si2 0.452650 0.788964 0.261909
Si Si3 0.087491 0.126099 0.966235
Si Si4 0.701327 0.824267 0.398095
Si Si5 0.388598 0.902302 0.762349
Si Si6 0.323815 0.861279 0.455354
Si Si7 0.439759 0.678428 0.406331
Si Si8 0.044975 0.717617 0.600689
O O1 0.361168 0.879476 0.680286
O O2 0.327300 0.853938 0.543330
O O3 0.460835 0.803672 0.587617
O O4 0.412219 0.069184 0.584921
O O5 0.535632 0.825710 0.273254
O O6 0.431137 0.664298 0.319462
O O7 0.440151 0.729197 0.181919
O O8 0.401357 0.927109 0.276532
O O9 0.157922 0.208682 0.944396
O O10 0.023082 0.193870 0.921185
O O11 0.095698 0.955697 0.948986
O O12 0.073271 0.151505 0.050866
O O13 0.672000 0.836167 0.315998
O O14 0.780638 0.761706 0.410098
O O15 0.701598 0.980938 0.433602
O O16 0.405293 0.830449 0.431905
#
# Coordination Sequence:
#
# PCOD8191005 Si02
#       8
#     8   8   8   8   8   8   8   8
#     4   9  18  35  62  94 121 154 207 258 308 366
#     4   9  17  34  63  95 120 154 204 259 310 361
#     4  11  22  37  59  93 127 155 202 255 306 371
#     4  12  24  40  61  87 124 164 209 251 309 373
#     4   9  18  35  62  94 121 154 207 258 308 366
#     4  12  24  40  61  87 124 164 209 251 309 373
#     4  11  22  37  59  93 127 155 202 255 306 371
#     4   9  17  34  63  95 120 154 204 259 310 361
#
# _framework density 20.023278999999999
#
# number of rings (size 3 to 8) (size 9 to 14) (size 15 to 20)
#    0.000    1.750    5.000    2.250    0.000    0.500 
#    0.000    6.250    0.000    0.000    0.000    0.000 
#    0.000    0.000    0.000    0.000    0.000    0.000 
#
# Total GULP energy -396538.012544 kJ/mol
# GULP energy per Si atom -12391.812892 kJ/mol
# Density = 1.997770 g / cm^3
# Si number density = 20.023279 Si / 1000 Ang^3
#
#
#
# Elastic Constant Matrix: (Units=GPa)
#
#
# Indices 1 2 3 4 5 6 
#
# 1 42.4619 6.2223 22.8157 0.0000 0.0000 0.0000
# 2 6.2223 51.8331 33.9444 0.0000 0.0000 0.0000
# 3 22.8157 33.9444 170.1203 0.0000 0.0000 0.0000
# 4 0.0000 0.0000 0.0000 34.1472 0.0000 0.0000
# 5 0.0000 0.0000 0.0000 0.0000 32.6471 0.0000
# 6 0.0000 0.0000 0.0000 0.0000 0.0000 29.7519
#
#
#
# Elastic Compliance Matrix: (Units=1/GPa)
#
#
# Indices 1 2 3 4 5 6 
#
# 1 0.025419 -0.000942 -0.003221 0.000000 0.000000 0.000000
# 2 -0.000942 0.022227 -0.004309 0.000000 0.000000 0.000000
# 3 -0.003221 -0.004309 0.007170 0.000000 0.000000 0.000000
# 4 0.000000 0.000000 0.000000 0.029285 0.000000 0.000000
# 5 0.000000 0.000000 0.000000 0.000000 0.030631 0.000000
# 6 0.000000 0.000000 0.000000 0.000000 0.000000 0.033611
#
#
# Mechanical properties :
#
#
# Convention : Reuss Voigt Hill
#
# Bulk Modulus (GPa) = 26.40406 43.37556 34.88981
# Shear Modulus (GPa) = 28.10383 32.73812 30.42097
#
# Velocity S-wave (km/s) = 3.75047 4.04790 3.90202
# Velocity P-wave (km/s) = 5.65421 6.59977 6.14520
#
# Compressibility (1/GPa) = 0.03787296
#
# Stress axis : x y z
#
# Youngs Moduli (GPa) = 39.34009 44.98936 139.47135
#
# Poissons Ratio (x) = 0.04238 0.44926
# Poissons Ratio (y) = 0.03706 0.60095
# Poissons Ratio (z) = 0.12672 0.19385
#
# Static dielectric constant tensor:
#      x y z
#    x 3.377700 0.000000 0.000000 
#    y 0.000000 3.421900 0.000000 
#    z 0.000000 0.000000 3.898910 
# 
# 
# High freq. dielectric constant tensor:
#      x y z
#    x 1.755460 0.000000 0.000000 
#    y 0.000000 1.761990 0.000000 
#    z 0.000000 0.000000 1.796310 
# 
# From -- ./inp_files/8466.got.cif
#   From: 2010.03.12/outbox.cif.g09.slc.cpg/sg45_5_cif.got.tgz:8466.got - 2010.04.14 02:50:11.
