data_PCOD8191022
_publ_section_title
;
Structure prediction by ZEFSAII (Michael W. Deem and Ramdas Pophale) SiO2 
 PCOD8191022
Probable space group: I B A 2
;
_chemical_formula_sum "Si O2"
_cell_formula_units_Z 48
_cell_length_a 9.158659
_cell_length_b 14.037128
_cell_length_c 16.214008
_cell_angle_alpha 90.000000
_cell_angle_beta 90.000000
_cell_angle_gamma 90.000000
_cell_volume 2084.493439
_symmetry_space_group_name_H-M "I B A 2"
_symmetry_group_IT_number 45
_symmetry_cell_setting 'orthorhombic'
loop_
_space_group_symop_operation_xyz
x,y,z
-x,-y,z
-x,y,1/2+z
x,-y,1/2+z
1/2+x,1/2+y,1/2+z
1/2-x,1/2-y,1/2+z
1/2-x,1/2+y,z
1/2+x,1/2-y,z
loop_
_atom_site_type_symbol
_atom_site_label
_atom_site_fract_x
_atom_site_fract_y
_atom_site_fract_z
Si Si1 0.831386 0.473975 0.700300
Si Si2 0.410952 0.804145 0.854811
Si Si3 0.596143 0.585933 0.635613
Si Si4 0.164060 0.267589 0.239567
Si Si5 0.937627 0.874724 0.950688
Si Si6 0.717074 0.468267 0.372735
O O1 0.761466 0.541626 0.628862
O O2 0.810057 0.360834 0.681613
O O3 0.729052 0.502171 0.777749
O O4 0.000000 0.500000 0.713881
O O5 0.312215 0.773316 0.777016
O O6 0.571775 0.808681 0.816855
O O7 0.401082 0.734080 0.932472
O O8 0.360584 0.905265 0.892706
O O9 0.500000 0.500000 0.674271
O O10 0.586675 0.682518 0.689318
O O11 0.528991 0.611911 0.546580
O O12 0.071933 0.905177 0.891221
O O13 0.793981 0.937368 0.928400
#
# Coordination Sequence:
#
# PCOD8191022 Si02
#       6
#     8   8   8   8   8   8
#     4  12  24  43  70 104 141 174 237 298 353 413
#     4  12  22  42  70  99 133 177 238 291 336 412
#     4  12  26  46  71 100 144 193 226 286 361 434
#     4  12  24  40  70 105 131 183 242 286 343 421
#     4  11  25  45  69 105 138 182 238 281 355 434
#     4  11  22  43  71  98 133 185 233 282 349 414
#
# _framework density 23.027176000000001
#
# number of rings (size 3 to 8) (size 9 to 14) (size 15 to 20)
#    0.000    0.333    8.333    1.000    2.333    1.333 
#    6.000    2.500    0.000    0.000    0.000    0.000 
#    0.000    0.000    0.000    0.000    0.000    0.000 
#
# Total GULP energy -297447.188077 kJ/mol
# GULP energy per Si atom -12393.632837 kJ/mol
# Density = 2.297477 g / cm^3
# Si number density = 23.027176 Si / 1000 Ang^3
#
#
#
# Elastic Constant Matrix: (Units=GPa)
#
#
# Indices 1 2 3 4 5 6 
#
# 1 70.5425 15.7494 29.6246 0.0000 0.0000 0.0000
# 2 15.7494 128.7818 16.5910 0.0000 0.0000 0.0000
# 3 29.6246 16.5910 63.1047 0.0000 0.0000 0.0000
# 4 0.0000 0.0000 0.0000 27.5796 0.0000 0.0000
# 5 0.0000 0.0000 0.0000 0.0000 21.0150 0.0000
# 6 0.0000 0.0000 0.0000 0.0000 0.0000 37.6082
#
#
#
# Elastic Compliance Matrix: (Units=1/GPa)
#
#
# Indices 1 2 3 4 5 6 
#
# 1 0.017817 -0.001140 -0.008065 0.000000 0.000000 0.000000
# 2 -0.001140 0.008110 -0.001597 0.000000 0.000000 0.000000
# 3 -0.008065 -0.001597 0.020052 0.000000 0.000000 0.000000
# 4 0.000000 0.000000 0.000000 0.036259 0.000000 0.000000
# 5 0.000000 0.000000 0.000000 0.000000 0.047585 0.000000
# 6 0.000000 0.000000 0.000000 0.000000 0.000000 0.026590
#
#
# Mechanical properties :
#
#
# Convention : Reuss Voigt Hill
#
# Bulk Modulus (GPa) = 41.02303 42.92876 41.97589
# Shear Modulus (GPa) = 26.86117 30.60483 28.73300
#
# Velocity S-wave (km/s) = 3.41911 3.64960 3.53623
# Velocity P-wave (km/s) = 5.78280 6.03677 5.91115
#
# Compressibility (1/GPa) = 0.02437655
#
# Stress axis : x y z
#
# Youngs Moduli (GPa) = 56.12584 123.30083 49.86916
#
# Poissons Ratio (x) = 0.14056 0.40217
# Poissons Ratio (y) = 0.06398 0.07965
# Poissons Ratio (z) = 0.45263 0.19693
#
# Static dielectric constant tensor:
#      x y z
#    x 4.120850 0.000000 0.000000 
#    y 0.000000 4.720020 0.000000 
#    z 0.000000 0.000000 3.722350 
# 
# 
# High freq. dielectric constant tensor:
#      x y z
#    x 1.904970 0.000000 0.000000 
#    y 0.000000 1.935950 0.000000 
#    z 0.000000 0.000000 1.869580 
# 
# From -- ./inp_files/7565.got.cif
#   From: 2010.03.12/outbox.cif.g09.slc.cpg/sg45_4_cif.got.tgz:7565.got - 2010.04.14 02:50:11.
