data_PCOD8191877
_publ_section_title
;
Structure prediction by ZEFSAII (Michael W. Deem and Ramdas Pophale) SiO2 
 PCOD8191877
Probable space group: I M A 2
;
_chemical_formula_sum "Si O2"
_cell_formula_units_Z 64
_cell_length_a 8.609869
_cell_length_b 16.444050
_cell_length_c 22.705795
_cell_angle_alpha 90.000000
_cell_angle_beta 90.000000
_cell_angle_gamma 90.000000
_cell_volume 3214.711803
_symmetry_space_group_name_H-M "I M A 2"
_symmetry_group_IT_number 46
_symmetry_cell_setting 'orthorhombic'
loop_
_space_group_symop_operation_xyz
x,y,z
-x,-y,z
1/2-x,y,z
1/2+x,-y,z
1/2+x,1/2+y,1/2+z
1/2-x,1/2-y,1/2+z
-x,1/2+y,1/2+z
x,1/2-y,1/2+z
loop_
_atom_site_type_symbol
_atom_site_label
_atom_site_fract_x
_atom_site_fract_y
_atom_site_fract_z
Si Si1 0.429322 0.241840 0.741280
Si Si2 0.433795 0.585968 0.775763
Si Si3 0.567067 0.913134 0.817117
Si Si4 0.430722 0.710810 0.997455
Si Si5 0.931131 0.869782 0.949492
Si Si6 0.927863 0.737227 0.610097
Si Si7 0.432324 0.577562 0.563975
Si Si8 0.933387 0.081497 0.408333
O O1 0.250000 0.253872 0.758022
O O2 0.510483 0.329902 0.746701
O O3 0.497384 0.166226 0.780433
O O4 0.453108 0.218698 0.672686
O O5 0.500000 0.500000 0.749187
O O6 0.250000 0.581322 0.769993
O O7 0.495704 0.594044 0.842452
O O8 0.750000 0.917334 0.808205
O O9 0.519475 0.903606 0.885578
O O10 0.500000 0.000000 0.794209
O O11 0.250000 0.697045 0.010191
O O12 0.522491 0.700295 0.058860
O O13 0.456300 0.796094 0.965915
O O14 0.502740 0.648797 0.951043
O O15 0.750000 0.845084 0.949364
O O16 0.970020 0.930695 0.002557
O O17 0.750000 0.710765 0.601588
O O18 0.033204 0.657097 0.602651
O O19 0.500000 0.500000 0.600244
O O20 0.250000 0.572848 0.552239
O O21 0.750000 0.082365 0.408284
O O22 0.000000 0.000000 0.435787
#
# Coordination Sequence:
#
# PCOD8191877 Si02
#       8
#     8   8   8   8   8   8   8   8
#     4  10  22  40  58  78 108 145 186 231 273 317
#     4  10  20  35  57  85 115 146 180 218 267 326
#     4  10  22  38  57  82 110 143 183 227 274 324
#     4  10  19  33  53  78 107 136 172 217 265 316
#     4  10  19  32  53  81 110 139 172 210 262 323
#     4  10  21  37  55  74 100 137 180 220 262 313
#     4  11  21  34  53  78 109 139 171 211 259 315
#     4   9  19  33  51  78 108 137 170 212 262 318
#
# _framework density 19.908473000000001
#
# number of rings (size 3 to 8) (size 9 to 14) (size 15 to 20)
#    0.000    2.000    0.000    5.250    0.000    5.500 
#    0.000    0.625    0.000    3.000    0.000    0.000 
#    0.000    0.000    0.000    0.000    0.000    0.000 
#
# Total GULP energy -396524.105748 kJ/mol
# GULP energy per Si atom -12391.378305 kJ/mol
# Density = 1.986316 g / cm^3
# Si number density = 19.908473 Si / 1000 Ang^3
#
#
#
# Elastic Constant Matrix: (Units=GPa)
#
#
# Indices 1 2 3 4 5 6 
#
# 1 60.1629 16.8648 26.3159 0.0000 0.0000 0.0000
# 2 16.8648 85.6482 35.9107 0.0000 0.0000 0.0000
# 3 26.3159 35.9107 83.4992 0.0000 0.0000 0.0000
# 4 0.0000 0.0000 0.0000 15.2260 0.0000 0.0000
# 5 0.0000 0.0000 0.0000 0.0000 23.9167 0.0000
# 6 0.0000 0.0000 0.0000 0.0000 0.0000 31.4214
#
#
#
# Elastic Compliance Matrix: (Units=1/GPa)
#
#
# Indices 1 2 3 4 5 6 
#
# 1 0.019444 -0.001536 -0.005467 0.000000 0.000000 0.000000
# 2 -0.001536 0.014366 -0.005694 0.000000 0.000000 0.000000
# 3 -0.005467 -0.005694 0.016148 0.000000 0.000000 0.000000
# 4 0.000000 0.000000 0.000000 0.065677 0.000000 0.000000
# 5 0.000000 0.000000 0.000000 0.000000 0.041812 0.000000
# 6 0.000000 0.000000 0.000000 0.000000 0.000000 0.031825
#
#
# Mechanical properties :
#
#
# Convention : Reuss Voigt Hill
#
# Bulk Modulus (GPa) = 40.71301 43.05477 41.88389
# Shear Modulus (GPa) = 22.43622 24.12742 23.28182
#
# Velocity S-wave (km/s) = 3.36068 3.48504 3.42342
# Velocity P-wave (km/s) = 5.96266 6.15364 6.05890
#
# Compressibility (1/GPa) = 0.02456217
#
# Stress axis : x y z
#
# Youngs Moduli (GPa) = 51.43081 69.61074 61.92690
#
# Poissons Ratio (x) = 0.10694 0.33857
# Poissons Ratio (y) = 0.07901 0.35261
# Poissons Ratio (z) = 0.28118 0.39637
#
# Static dielectric constant tensor:
#      x y z
#    x 3.501480 0.000000 0.000000 
#    y 0.000000 3.981920 0.000000 
#    z 0.000000 0.000000 3.795070 
# 
# 
# High freq. dielectric constant tensor:
#      x y z
#    x 1.774110 0.000000 0.000000 
#    y 0.000000 1.774030 0.000000 
#    z 0.000000 0.000000 1.770800 
# 
# From -- ./inp_files/23230.got.cif
#   From: 2010.03.12/outbox.cif.g09.slc.cpg/sg46_12_cif.got.tgz:23230.got - 2010.04.14 02:56:35.
