data_PCOD8191582
_publ_section_title
;
Structure prediction by ZEFSAII (Michael W. Deem and Ramdas Pophale) SiO2 
 PCOD8191582
Probable space group: I M A 2
;
_chemical_formula_sum "Si O2"
_cell_formula_units_Z 36
_cell_length_a 13.066991
_cell_length_b 9.522828
_cell_length_c 14.709232
_cell_angle_alpha 90.000000
_cell_angle_beta 90.000000
_cell_angle_gamma 90.000000
_cell_volume 1830.338985
_symmetry_space_group_name_H-M "I M A 2"
_symmetry_group_IT_number 46
_symmetry_cell_setting 'orthorhombic'
loop_
_space_group_symop_operation_xyz
x,y,z
-x,-y,z
1/2-x,y,z
1/2+x,-y,z
1/2+x,1/2+y,1/2+z
1/2-x,1/2-y,1/2+z
-x,1/2+y,1/2+z
x,1/2-y,1/2+z
loop_
_atom_site_type_symbol
_atom_site_label
_atom_site_fract_x
_atom_site_fract_y
_atom_site_fract_z
Si Si1 0.370363 0.245396 0.057050
Si Si2 0.632721 0.629295 0.745547
Si Si3 0.369081 0.888031 0.375144
Si Si4 0.500000 0.500000 0.029756
Si Si5 0.972730 0.841020 0.870852
O O1 0.250000 0.291191 0.050560
O O2 0.383874 0.129809 0.136816
O O3 0.449071 0.372246 0.086109
O O4 0.407050 0.175842 0.963188
O O5 0.750000 0.635028 0.772630
O O6 0.590991 0.484496 0.790458
O O7 0.587517 0.771342 0.787988
O O8 0.250000 0.862372 0.373585
O O9 0.418574 0.735451 0.374939
O O10 0.402341 0.963234 0.467589
O O11 0.000000 0.000000 0.849124
#
# Coordination Sequence:
#
# PCOD8191582 Si02
#       5
#     8   8   8   4   8
#     4  10  21  37  61  87 115 153 195 238 291 345
#     4  10  20  37  62  84 112 154 196 239 288 349
#     4  10  19  36  61  85 113 154 198 234 284 345
#     4  10  18  34  60  88 112 152 190 242 288 346
#     4  11  23  37  57  87 121 156 190 243 292 341
#
# _framework density 19.668486999999999
#
# number of rings (size 3 to 8) (size 9 to 14) (size 15 to 20)
#    0.000    1.778    4.444    1.333    1.556    3.556 
#    0.000    0.000    0.000    1.333    0.000    0.000 
#    0.000    0.000    0.000    0.000    0.000    0.000 
#
# Total GULP energy -223020.633010 kJ/mol
# GULP energy per Si atom -12390.035167 kJ/mol
# Density = 1.962372 g / cm^3
# Si number density = 19.668487 Si / 1000 Ang^3
#
#
#
# Elastic Constant Matrix: (Units=GPa)
#
#
# Indices 1 2 3 4 5 6 
#
# 1 99.2583 23.1842 34.3080 0.0000 0.0000 0.0000
# 2 23.1842 97.8281 23.1891 0.0000 0.0000 0.0000
# 3 34.3080 23.1891 89.4129 0.0000 0.0000 0.0000
# 4 0.0000 0.0000 0.0000 5.4653 0.0000 0.0000
# 5 0.0000 0.0000 0.0000 0.0000 36.7998 0.0000
# 6 0.0000 0.0000 0.0000 0.0000 0.0000 20.5846
#
#
#
# Elastic Compliance Matrix: (Units=1/GPa)
#
#
# Indices 1 2 3 4 5 6 
#
# 1 0.011923 -0.001855 -0.004094 0.000000 0.000000 0.000000
# 2 -0.001855 0.011180 -0.002188 0.000000 0.000000 0.000000
# 3 -0.004094 -0.002188 0.013322 0.000000 0.000000 0.000000
# 4 0.000000 0.000000 0.000000 0.182971 0.000000 0.000000
# 5 0.000000 0.000000 0.000000 0.000000 0.027174 0.000000
# 6 0.000000 0.000000 0.000000 0.000000 0.000000 0.048580
#
#
# Mechanical properties :
#
#
# Convention : Reuss Voigt Hill
#
# Bulk Modulus (GPa) = 49.62263 49.76244 49.69254
# Shear Modulus (GPa) = 15.71627 26.29114 21.00370
#
# Velocity S-wave (km/s) = 2.82983 3.66008 3.27140
# Velocity P-wave (km/s) = 5.99679 6.57397 6.29200
#
# Compressibility (1/GPa) = 0.02015209
#
# Stress axis : x y z
#
# Youngs Moduli (GPa) = 83.87118 89.44334 75.06243
#
# Poissons Ratio (x) = 0.16594 0.30729
# Poissons Ratio (y) = 0.15560 0.16422
# Poissons Ratio (z) = 0.34335 0.19568
#
# Static dielectric constant tensor:
#      x y z
#    x 3.503120 0.000000 0.000000 
#    y 0.000000 3.627850 0.000000 
#    z 0.000000 0.000000 3.514730 
# 
# 
# High freq. dielectric constant tensor:
#      x y z
#    x 1.785420 0.000000 0.000000 
#    y 0.000000 1.751930 0.000000 
#    z 0.000000 0.000000 1.757120 
# 
# From -- ./inp_files/15616.got.cif
#   From: 2010.03.12/outbox.cif.g09.slc.cpg/sg46_8_cif.got.tgz:15616.got - 2010.04.14 02:56:35.
