data_PCOD8191961
_publ_section_title
;
Structure prediction by ZEFSAII (Michael W. Deem and Ramdas Pophale) SiO2 
 PCOD8191961
Probable space group: I M A 2
;
_chemical_formula_sum "Si O2"
_cell_formula_units_Z 64
_cell_length_a 15.683299
_cell_length_b 8.688398
_cell_length_c 24.034766
_cell_angle_alpha 90.000000
_cell_angle_beta 90.000000
_cell_angle_gamma 90.000000
_cell_volume 3275.043159
_symmetry_space_group_name_H-M "I M A 2"
_symmetry_group_IT_number 46
_symmetry_cell_setting 'orthorhombic'
loop_
_space_group_symop_operation_xyz
x,y,z
-x,-y,z
1/2-x,y,z
1/2+x,-y,z
1/2+x,1/2+y,1/2+z
1/2-x,1/2-y,1/2+z
-x,1/2+y,1/2+z
x,1/2-y,1/2+z
loop_
_atom_site_type_symbol
_atom_site_label
_atom_site_fract_x
_atom_site_fract_y
_atom_site_fract_z
Si Si1 0.845307 0.674497 0.550100
Si Si2 0.652005 0.687105 0.930398
Si Si3 0.848497 0.186237 0.044918
Si Si4 0.148882 0.658937 0.931496
Si Si5 0.501223 0.317833 0.624065
Si Si6 0.920280 0.887860 0.835198
Si Si7 0.992195 0.182576 0.249722
Si Si8 0.345263 0.809563 0.819144
O O1 0.750000 0.704772 0.574219
O O2 0.858846 0.766650 0.493831
O O3 0.856917 0.495520 0.536348
O O4 0.915273 0.738808 0.593231
O O5 0.750000 0.695928 0.910951
O O6 0.615215 0.514863 0.924929
O O7 0.597485 0.800020 0.892241
O O8 0.750000 0.232516 0.058849
O O9 0.912072 0.241442 0.094085
O O10 0.883702 0.264960 0.988652
O O11 0.250000 0.662811 0.933566
O O12 0.115560 0.755135 0.878553
O O13 0.500000 0.500000 0.625117
O O14 0.498663 0.255604 0.686853
O O15 0.934653 0.763515 0.786439
O O16 0.844240 0.003752 0.817771
O O17 0.000000 0.000000 0.843517
O O18 0.899210 0.234158 0.269951
O O19 0.000000 0.000000 0.254476
O O20 0.250000 0.747513 0.811090
#
# Coordination Sequence:
#
# PCOD8191961 Si02
#       8
#     8   8   8   8   8   8   8   8
#     4   9  18  33  53  77 107 142 178 218 266 322
#     4  10  19  33  54  81 110 137 173 221 271 322
#     4   9  17  32  55  81 108 139 175 216 266 325
#     4   9  18  32  52  81 112 139 171 217 271 324
#     4   9  19  35  55  77 103 139 183 225 265 316
#     4  10  21  35  53  77 108 143 179 219 268 325
#     4  10  21  38  56  79 110 141 182 233 276 318
#     4  10  20  36  57  79 108 146 184 221 268 328
#
# _framework density 19.541727999999999
#
# number of rings (size 3 to 8) (size 9 to 14) (size 15 to 20)
#    0.000    2.500    0.000    1.875    0.000    6.000 
#    0.000   10.625    0.000    1.500    0.000    0.000 
#    0.000    0.000    0.000    0.000    0.000    0.000 
#
# Total GULP energy -396739.947482 kJ/mol
# GULP energy per Si atom -12398.123359 kJ/mol
# Density = 1.949725 g / cm^3
# Si number density = 19.541728 Si / 1000 Ang^3
#
#
#
# Elastic Constant Matrix: (Units=GPa)
#
#
# Indices 1 2 3 4 5 6 
#
# 1 88.4795 27.8152 60.3471 0.0000 0.0000 0.0000
# 2 27.8152 94.5134 51.3791 0.0000 0.0000 0.0000
# 3 60.3471 51.3791 134.7015 0.0000 0.0000 0.0000
# 4 0.0000 0.0000 0.0000 27.2133 0.0000 0.0000
# 5 0.0000 0.0000 0.0000 0.0000 30.2871 0.0000
# 6 0.0000 0.0000 0.0000 0.0000 0.0000 21.7941
#
#
#
# Elastic Compliance Matrix: (Units=1/GPa)
#
#
# Indices 1 2 3 4 5 6 
#
# 1 0.016357 -0.001047 -0.006928 0.000000 0.000000 0.000000
# 2 -0.001047 0.013415 -0.004648 0.000000 0.000000 0.000000
# 3 -0.006928 -0.004648 0.012301 0.000000 0.000000 0.000000
# 4 0.000000 0.000000 0.000000 0.036747 0.000000 0.000000
# 5 0.000000 0.000000 0.000000 0.000000 0.033017 0.000000
# 6 0.000000 0.000000 0.000000 0.000000 0.000000 0.045884
#
#
# Mechanical properties :
#
#
# Convention : Reuss Voigt Hill
#
# Bulk Modulus (GPa) = 59.43330 66.30859 62.87094
# Shear Modulus (GPa) = 26.51439 27.73575 27.12507
#
# Velocity S-wave (km/s) = 3.68748 3.77146 3.72971
# Velocity P-wave (km/s) = 6.97206 7.27809 7.12672
#
# Compressibility (1/GPa) = 0.01682558
#
# Stress axis : x y z
#
# Youngs Moduli (GPa) = 61.13646 74.54140 81.29662
#
# Poissons Ratio (x) = 0.07807 0.56326
# Poissons Ratio (y) = 0.06403 0.37785
# Poissons Ratio (z) = 0.42358 0.34645
#
# Static dielectric constant tensor:
#      x y z
#    x 3.676020 0.000000 0.000000 
#    y 0.000000 3.647260 0.000000 
#    z 0.000000 0.000000 3.622220 
# 
# 
# High freq. dielectric constant tensor:
#      x y z
#    x 1.759530 0.000000 0.000000 
#    y 0.000000 1.756350 0.000000 
#    z 0.000000 0.000000 1.753440 
# 
# From -- ./inp_files/22270.got.cif
#   From: 2010.03.12/outbox.cif.g09.slc.cpg/sg46_12_cif.got.tgz:22270.got - 2010.04.14 02:56:35.
