data_PCOD8191375
_publ_section_title
;
Structure prediction by ZEFSAII (Michael W. Deem and Ramdas Pophale) SiO2 
 PCOD8191375
Probable space group: I M A 2
;
_chemical_formula_sum "Si O2"
_cell_formula_units_Z 48
_cell_length_a 24.346518
_cell_length_b 21.044954
_cell_length_c 5.052566
_cell_angle_alpha 90.000000
_cell_angle_beta 90.000000
_cell_angle_gamma 90.000000
_cell_volume 2588.790069
_symmetry_space_group_name_H-M "I M A 2"
_symmetry_group_IT_number 46
_symmetry_cell_setting 'orthorhombic'
loop_
_space_group_symop_operation_xyz
x,y,z
-x,-y,z
1/2-x,y,z
1/2+x,-y,z
1/2+x,1/2+y,1/2+z
1/2-x,1/2-y,1/2+z
-x,1/2+y,1/2+z
x,1/2-y,1/2+z
loop_
_atom_site_type_symbol
_atom_site_label
_atom_site_fract_x
_atom_site_fract_y
_atom_site_fract_z
Si Si1 0.146502 0.079373 0.579190
Si Si2 0.187412 0.707088 0.575848
Si Si3 0.690042 0.523321 0.567181
Si Si4 0.939502 0.474081 0.123211
Si Si5 0.611027 0.087156 0.106629
Si Si6 0.812815 0.790229 0.682471
O O1 0.157426 0.067713 0.271278
O O2 0.142647 0.155051 0.619220
O O3 0.092932 0.040181 0.668077
O O4 0.193976 0.055788 0.779427
O O5 0.250000 0.678408 0.602514
O O6 0.179758 0.763215 0.786743
O O7 0.137262 0.657351 0.616225
O O8 0.750000 0.513550 0.684753
O O9 0.663756 0.454747 0.542097
O O10 0.933841 0.426895 0.375809
O O11 0.000000 0.500000 0.074306
O O12 0.917557 0.431993 0.880475
O O13 0.750000 0.815016 0.645649
O O14 0.823249 0.732601 0.480389
#
# Coordination Sequence:
#
# PCOD8191375 Si02
#       6
#     8   8   8   8   8   8
#     4  10  20  32  49  72  98 130 166 206 253 303
#     4  10  20  34  54  81 116 153 181 210 258 327
#     4  10  18  29  48  74 103 128 158 205 256 308
#     4  10  21  37  57  78  99 132 176 228 277 308
#     4  10  20  34  54  79 105 136 175 217 264 316
#     4  10  19  30  46  68  97 131 160 188 230 292
#
# _framework density 18.54148
#
# number of rings (size 3 to 8) (size 9 to 14) (size 15 to 20)
#    0.000    2.000    0.000    4.500    0.000    1.333 
#    0.000    5.000    0.000    6.000    0.000    0.000 
#    0.000    0.000    0.000    0.000    0.000    0.000 
#
# Total GULP energy -297420.649582 kJ/mol
# GULP energy per Si atom -12392.527066 kJ/mol
# Density = 1.849928 g / cm^3
# Si number density = 18.541480 Si / 1000 Ang^3
#
#
#
# Elastic Constant Matrix: (Units=GPa)
#
#
# Indices 1 2 3 4 5 6 
#
# 1 71.2434 33.8130 8.3823 0.0000 0.0000 0.0000
# 2 33.8130 82.9074 16.1461 0.0000 0.0000 0.0000
# 3 8.3823 16.1461 84.3510 0.0000 0.0000 0.0000
# 4 0.0000 0.0000 0.0000 22.6956 0.0000 0.0000
# 5 0.0000 0.0000 0.0000 0.0000 18.5177 0.0000
# 6 0.0000 0.0000 0.0000 0.0000 0.0000 25.8490
#
#
#
# Elastic Compliance Matrix: (Units=1/GPa)
#
#
# Indices 1 2 3 4 5 6 
#
# 1 0.017418 -0.007029 -0.000385 0.000000 0.000000 0.000000
# 2 -0.007029 0.015365 -0.002243 0.000000 0.000000 0.000000
# 3 -0.000385 -0.002243 0.012323 0.000000 0.000000 0.000000
# 4 0.000000 0.000000 0.000000 0.044061 0.000000 0.000000
# 5 0.000000 0.000000 0.000000 0.000000 0.054002 0.000000
# 6 0.000000 0.000000 0.000000 0.000000 0.000000 0.038686
#
#
# Mechanical properties :
#
#
# Convention : Reuss Voigt Hill
#
# Bulk Modulus (GPa) = 38.77171 39.46497 39.11834
# Shear Modulus (GPa) = 23.83612 25.42317 24.62965
#
# Velocity S-wave (km/s) = 3.58936 3.70692 3.64861
# Velocity P-wave (km/s) = 6.17529 6.29703 6.23646
#
# Compressibility (1/GPa) = 0.02579200
#
# Stress axis : x y z
#
# Youngs Moduli (GPa) = 57.41331 65.08336 81.15036
#
# Poissons Ratio (x) = 0.45744 0.03128
# Poissons Ratio (y) = 0.40353 0.18199
# Poissons Ratio (z) = 0.02213 0.14596
#
# Static dielectric constant tensor:
#      x y z
#    x 3.172430 0.000000 0.000000 
#    y 0.000000 3.277630 0.000000 
#    z 0.000000 0.000000 3.637330 
# 
# 
# High freq. dielectric constant tensor:
#      x y z
#    x 1.685160 0.000000 0.000000 
#    y 0.000000 1.708900 0.000000 
#    z 0.000000 0.000000 1.742230 
# 
# From -- ./inp_files/2347.got.cif
#   From: 2010.03.12/outbox.cif.g09.slc.cpg/sg46_2_cif.got.tgz:2347.got - 2010.04.14 02:56:35.
