data_PCOD8191143
_publ_section_title
;
Structure prediction by ZEFSAII (Michael W. Deem and Ramdas Pophale) SiO2 
 PCOD8191143
Probable space group: I M A 2
;
_chemical_formula_sum "Si O2"
_cell_formula_units_Z 36
_cell_length_a 20.550424
_cell_length_b 20.698844
_cell_length_c 5.285437
_cell_angle_alpha 90.000000
_cell_angle_beta 90.000000
_cell_angle_gamma 90.000000
_cell_volume 2248.266445
_symmetry_space_group_name_H-M "I M A 2"
_symmetry_group_IT_number 46
_symmetry_cell_setting 'orthorhombic'
loop_
_space_group_symop_operation_xyz
x,y,z
-x,-y,z
1/2-x,y,z
1/2+x,-y,z
1/2+x,1/2+y,1/2+z
1/2-x,1/2-y,1/2+z
-x,1/2+y,1/2+z
x,1/2-y,1/2+z
loop_
_atom_site_type_symbol
_atom_site_label
_atom_site_fract_x
_atom_site_fract_y
_atom_site_fract_z
Si Si1 0.550752 0.940723 0.582760
Si Si2 0.750000 0.291500 0.574051
Si Si3 0.501276 0.422218 0.582391
Si Si4 0.177811 0.519175 0.075845
Si Si5 0.350299 0.597991 0.575659
O O1 0.538953 0.898758 0.328867
O O2 0.500000 0.000000 0.570568
O O3 0.625211 0.962713 0.598046
O O4 0.534868 0.897169 0.828850
O O5 0.750000 0.260649 0.296371
O O6 0.684842 0.333650 0.603605
O O7 0.500000 0.500000 0.570243
O O8 0.572684 0.392123 0.593867
O O9 0.250000 0.488957 0.097807
O O10 0.167811 0.569397 0.302990
O O11 0.172202 0.552528 0.803644
#
# Coordination Sequence:
#
# PCOD8191143 Si02
#       5
#     8   4   8   8   8
#     4  10  16  26  42  62  93 107 134 190 220 280
#     4  12  26  40  46  62  90 130 178 214 232 256
#     4  10  16  28  45  68  84 102 142 192 237 282
#     4  12  19  28  43  69  88 116 151 187 229 285
#     4  12  20  32  50  61  82 119 156 207 236 268
#
# _framework density 16.012336000000001
#
# number of rings (size 3 to 8) (size 9 to 14) (size 15 to 20)
#    0.000    0.889   11.111    1.333    0.000    0.000 
#    0.000    0.000    0.000    0.000    0.000    0.000 
#    0.000    0.000    0.000    0.000    0.000   22.222 
#
# Total GULP energy -223095.250234 kJ/mol
# GULP energy per Si atom -12394.180569 kJ/mol
# Density = 1.597589 g / cm^3
# Si number density = 16.012336 Si / 1000 Ang^3
#
#
#
# Elastic Constant Matrix: (Units=GPa)
#
#
# Indices 1 2 3 4 5 6 
#
# 1 142.5543 31.0123 27.5001 0.0000 0.0000 0.0000
# 2 31.0123 25.2455 7.4356 0.0000 0.0000 0.0000
# 3 27.5001 7.4356 123.6283 0.0000 0.0000 0.0000
# 4 0.0000 0.0000 0.0000 11.8679 0.0000 0.0000
# 5 0.0000 0.0000 0.0000 0.0000 18.2218 0.0000
# 6 0.0000 0.0000 0.0000 0.0000 0.0000 14.4114
#
#
#
# Elastic Compliance Matrix: (Units=1/GPa)
#
#
# Indices 1 2 3 4 5 6 
#
# 1 0.009835 -0.011643 -0.001487 0.000000 0.000000 0.000000
# 2 -0.011643 0.054109 -0.000664 0.000000 0.000000 0.000000
# 3 -0.001487 -0.000664 0.008460 0.000000 0.000000 0.000000
# 4 0.000000 0.000000 0.000000 0.084261 0.000000 0.000000
# 5 0.000000 0.000000 0.000000 0.000000 0.054879 0.000000
# 6 0.000000 0.000000 0.000000 0.000000 0.000000 0.069390
#
#
# Mechanical properties :
#
#
# Convention : Reuss Voigt Hill
#
# Bulk Modulus (GPa) = 22.31458 47.03600 34.67529
# Shear Modulus (GPa) = 15.45777 23.93221 19.69499
#
# Velocity S-wave (km/s) = 3.11041 3.87021 3.51092
# Velocity P-wave (km/s) = 5.18321 7.02923 6.17558
#
# Compressibility (1/GPa) = 0.04481374
#
# Stress axis : x y z
#
# Youngs Moduli (GPa) = 101.68039 18.48106 118.20908
#
# Poissons Ratio (x) = 0.21518 0.17582
# Poissons Ratio (y) = 1.18388 0.07855
# Poissons Ratio (z) = 0.15124 0.01228
#
# Static dielectric constant tensor:
#      x y z
#    x 3.579770 0.000000 0.000000 
#    y 0.000000 2.363810 0.000000 
#    z 0.000000 0.000000 5.173790 
# 
# 
# High freq. dielectric constant tensor:
#      x y z
#    x 1.626010 0.000000 0.000000 
#    y 0.000000 1.516850 0.000000 
#    z 0.000000 0.000000 1.661480 
# 
# From -- ./inp_files/1632.got.cif
#   From: 2010.03.12/outbox.cif.g09.slc.cpg/sg46_1_cif.got.tgz:1632.got - 2010.04.14 02:56:35.
