data_PCOD8191521
_publ_section_title
;
Structure prediction by ZEFSAII (Michael W. Deem and Ramdas Pophale) SiO2 
 PCOD8191521
Probable space group: I M A 2
;
_chemical_formula_sum "Si O2"
_cell_formula_units_Z 64
_cell_length_a 14.441691
_cell_length_b 9.485440
_cell_length_c 22.096934
_cell_angle_alpha 90.000000
_cell_angle_beta 90.000000
_cell_angle_gamma 90.000000
_cell_volume 3026.966037
_symmetry_space_group_name_H-M "I M A 2"
_symmetry_group_IT_number 46
_symmetry_cell_setting 'orthorhombic'
loop_
_space_group_symop_operation_xyz
x,y,z
-x,-y,z
1/2-x,y,z
1/2+x,-y,z
1/2+x,1/2+y,1/2+z
1/2-x,1/2-y,1/2+z
-x,1/2+y,1/2+z
x,1/2-y,1/2+z
loop_
_atom_site_type_symbol
_atom_site_label
_atom_site_fract_x
_atom_site_fract_y
_atom_site_fract_z
Si Si1 0.981827 0.650154 0.018130
Si Si2 0.357956 0.401195 0.325518
Si Si3 0.140748 0.383713 0.460912
Si Si4 0.858977 0.825393 0.234052
Si Si5 0.642728 0.140707 0.048419
Si Si6 0.141886 0.618333 0.688486
Si Si7 0.408242 0.917488 0.719711
Si Si8 0.851257 0.879871 0.628613
O O1 0.930410 0.606696 0.079482
O O2 0.000000 0.500000 0.984541
O O3 0.079349 0.726447 0.031420
O O4 0.913649 0.743482 0.978299
O O5 0.250000 0.376026 0.328356
O O6 0.395198 0.420882 0.393393
O O7 0.402892 0.265312 0.290051
O O8 0.379628 0.543977 0.288444
O O9 0.250000 0.353245 0.463300
O O10 0.113878 0.509942 0.505941
O O11 0.750000 0.832213 0.243962
O O12 0.881561 0.748432 0.171450
O O13 0.896582 0.984685 0.226648
O O14 0.750000 0.183316 0.037639
O O15 0.625218 0.092987 0.117276
O O16 0.250000 0.645985 0.701354
O O17 0.082910 0.749645 0.713611
O O18 0.500000 0.000000 0.701662
O O19 0.337770 0.977665 0.669022
O O20 0.750000 0.849549 0.599083
#
# Coordination Sequence:
#
# PCOD8191521 Si02
#       8
#     8   8   8   8   8   8   8   8
#     4  12  24  37  58  88 119 150 194 249 304 355
#     4   9  19  39  61  79 105 148 196 237 285 348
#     4  10  22  42  64  83 111 157 206 246 293 357
#     4   8  16  31  55  84 111 142 182 229 279 333
#     4  10  22  39  60  87 120 158 196 238 291 357
#     4  10  18  32  55  84 114 141 179 232 287 336
#     4  11  21  33  52  83 120 156 193 233 286 348
#     4  10  19  35  57  82 118 160 196 230 282 354
#
# _framework density 21.143284000000001
#
# number of rings (size 3 to 8) (size 9 to 14) (size 15 to 20)
#    0.000    2.000    0.000    5.250    0.000    5.000 
#    0.000    7.500    0.000    4.500    0.000    0.000 
#    0.000    0.000    0.000    0.000    0.000    0.000 
#
# Total GULP energy -396663.472690 kJ/mol
# GULP energy per Si atom -12395.733522 kJ/mol
# Density = 2.109516 g / cm^3
# Si number density = 21.143284 Si / 1000 Ang^3
#
#
#
# Elastic Constant Matrix: (Units=GPa)
#
#
# Indices 1 2 3 4 5 6 
#
# 1 55.6976 24.5521 21.9203 0.0000 0.0000 0.0000
# 2 24.5521 168.0135 63.7438 0.0000 0.0000 0.0000
# 3 21.9203 63.7438 128.8413 0.0000 0.0000 0.0000
# 4 0.0000 0.0000 0.0000 11.2245 0.0000 0.0000
# 5 0.0000 0.0000 0.0000 0.0000 14.0102 0.0000
# 6 0.0000 0.0000 0.0000 0.0000 0.0000 30.2075
#
#
#
# Elastic Compliance Matrix: (Units=1/GPa)
#
#
# Indices 1 2 3 4 5 6 
#
# 1 0.019766 -0.001985 -0.002381 0.000000 0.000000 0.000000
# 2 -0.001985 0.007527 -0.003386 0.000000 0.000000 0.000000
# 3 -0.002381 -0.003386 0.009842 0.000000 0.000000 0.000000
# 4 0.000000 0.000000 0.000000 0.089091 0.000000 0.000000
# 5 0.000000 0.000000 0.000000 0.000000 0.071376 0.000000
# 6 0.000000 0.000000 0.000000 0.000000 0.000000 0.033104
#
#
# Mechanical properties :
#
#
# Convention : Reuss Voigt Hill
#
# Bulk Modulus (GPa) = 46.23076 63.66499 54.94788
# Shear Modulus (GPa) = 19.73003 27.24418 23.48710
#
# Velocity S-wave (km/s) = 3.05808 3.59353 3.33656
# Velocity P-wave (km/s) = 5.86362 6.88437 6.39440
#
# Compressibility (1/GPa) = 0.02163062
#
# Stress axis : x y z
#
# Youngs Moduli (GPa) = 50.59154 132.86106 101.60788
#
# Poissons Ratio (x) = 0.26376 0.24190
# Poissons Ratio (y) = 0.10044 0.34405
# Poissons Ratio (z) = 0.12044 0.44987
#
# Static dielectric constant tensor:
#      x y z
#    x 3.889640 0.000000 0.000000 
#    y 0.000000 4.147720 0.000000 
#    z 0.000000 0.000000 4.053610 
# 
# 
# High freq. dielectric constant tensor:
#      x y z
#    x 1.836620 0.000000 0.000000 
#    y 0.000000 1.827650 0.000000 
#    z 0.000000 0.000000 1.804200 
# 
# From -- ./inp_files/23680.got.cif
#   From: 2010.03.12/outbox.cif.g09.slc.cpg/sg46_12_cif.got.tgz:23680.got - 2010.04.14 02:56:35.
