data_PCOD8191274
_publ_section_title
;
Structure prediction by ZEFSAII (Michael W. Deem and Ramdas Pophale) SiO2 
 PCOD8191274
Probable space group: I M A 2
;
_chemical_formula_sum "Si O2"
_cell_formula_units_Z 64
_cell_length_a 8.988229
_cell_length_b 26.359973
_cell_length_c 18.349366
_cell_angle_alpha 90.000000
_cell_angle_beta 90.000000
_cell_angle_gamma 90.000000
_cell_volume 4347.505630
_symmetry_space_group_name_H-M "I M A 2"
_symmetry_group_IT_number 46
_symmetry_cell_setting 'orthorhombic'
loop_
_space_group_symop_operation_xyz
x,y,z
-x,-y,z
1/2-x,y,z
1/2+x,-y,z
1/2+x,1/2+y,1/2+z
1/2-x,1/2-y,1/2+z
-x,1/2+y,1/2+z
x,1/2-y,1/2+z
loop_
_atom_site_type_symbol
_atom_site_label
_atom_site_fract_x
_atom_site_fract_y
_atom_site_fract_z
Si Si1 0.923517 0.848347 0.575220
Si Si2 0.085144 0.200485 0.433437
Si Si3 0.074983 0.051411 0.659273
Si Si4 0.426652 0.744824 0.149569
Si Si5 0.917097 0.801659 0.028169
Si Si6 0.924882 0.253591 0.314039
Si Si7 0.075771 0.850511 0.903133
Si Si8 0.926294 0.051923 0.811717
O O1 0.750000 0.833660 0.585343
O O2 0.966862 0.844041 0.489123
O O3 0.956681 0.905418 0.599881
O O4 0.020073 0.810200 0.623397
O O5 0.250000 0.189667 0.403685
O O6 0.080549 0.250968 0.481279
O O7 0.980680 0.206263 0.363046
O O8 0.250000 0.042945 0.672254
O O9 0.998637 0.067525 0.734930
O O10 0.000000 0.000000 0.629389
O O11 0.250000 0.746827 0.143516
O O12 0.484576 0.752051 0.232104
O O13 0.494331 0.791044 0.102785
O O14 0.750000 0.818752 0.047302
O O15 0.995114 0.845990 0.981267
O O16 0.750000 0.251880 0.314151
O O17 0.981604 0.306946 0.347561
O O18 0.250000 0.844190 0.916666
O O19 0.035193 0.904887 0.869951
O O20 0.750000 0.045218 0.801446
O O21 0.000000 0.000000 0.840556
#
# Coordination Sequence:
#
# PCOD8191274 Si02
#       8
#     8   8   8   8   8   8   8   8
#     4   9  18  30  42  58  80 107 139 171 203 239
#     4   8  15  27  40  55  76 102 131 163 198 235
#     4  10  19  30  43  59  82 109 139 175 209 242
#     4  10  18  27  41  60  83 109 136 166 199 239
#     4   9  17  28  41  58  80 105 135 168 201 240
#     4   9  17  27  39  58  81 105 134 165 197 235
#     4   9  17  29  43  58  79 108 140 171 203 239
#     4  10  19  30  43  60  83 109 140 175 208 243
#
# _framework density 14.721085
#
# number of rings (size 3 to 8) (size 9 to 14) (size 15 to 20)
#    0.000    2.750    0.000    3.750    0.000    7.000 
#    0.000    2.500    0.000    0.000    0.000    0.000 
#    0.000    1.000    0.000    7.500    0.000    4.375 
#
# Total GULP energy -396684.677877 kJ/mol
# GULP energy per Si atom -12396.396184 kJ/mol
# Density = 1.468758 g / cm^3
# Si number density = 14.721085 Si / 1000 Ang^3
#
#
#
# Elastic Constant Matrix: (Units=GPa)
#
#
# Indices 1 2 3 4 5 6 
#
# 1 63.5317 34.5802 44.0058 -0.0001 0.0000 0.0000
# 2 34.5802 79.1938 55.0641 0.0001 0.0000 0.0000
# 3 44.0058 55.0641 109.9887 -0.0004 0.0000 0.0000
# 4 -0.0001 0.0001 -0.0004 28.1683 0.0000 0.0000
# 5 0.0000 0.0000 0.0000 0.0000 23.7138 0.0000
# 6 0.0000 0.0000 0.0000 0.0000 0.0000 19.6686
#
#
#
# Elastic Compliance Matrix: (Units=1/GPa)
#
#
# Indices 1 2 3 4 5 6 
#
# 1 0.023324 -0.005670 -0.006493 0.000000 0.000000 0.000000
# 2 -0.005670 0.020748 -0.008119 0.000000 0.000000 0.000000
# 3 -0.006493 -0.008119 0.015754 0.000000 0.000000 0.000000
# 4 0.000000 0.000000 0.000000 0.035501 0.000000 0.000000
# 5 0.000000 0.000000 0.000000 0.000000 0.042170 0.000000
# 6 0.000000 0.000000 0.000000 0.000000 0.000000 0.050842
#
#
# Mechanical properties :
#
#
# Convention : Reuss Voigt Hill
#
# Bulk Modulus (GPa) = 51.91372 57.77939 54.84656
# Shear Modulus (GPa) = 21.24739 22.24774 21.74757
#
# Velocity S-wave (km/s) = 3.80324 3.89174 3.84775
# Velocity P-wave (km/s) = 7.39105 7.71549 7.55501
#
# Compressibility (1/GPa) = 0.01926273
#
# Stress axis : x y z
#
# Youngs Moduli (GPa) = 42.87470 48.19765 63.47466
#
# Poissons Ratio (x) = 0.27326 0.41216
# Poissons Ratio (y) = 0.24308 0.51534
# Poissons Ratio (z) = 0.27840 0.39131
#
# Static dielectric constant tensor:
#      x y z
#    x 2.952190 0.000000 0.000000 
#    y 0.000000 2.725750 0.000000 
#    z 0.000000 0.000000 2.975220 
# 
# 
# High freq. dielectric constant tensor:
#      x y z
#    x 1.573860 0.000000 0.000000 
#    y 0.000000 1.529450 0.000000 
#    z 0.000000 0.000000 1.552470 
# 
# From -- ./inp_files/18673.got.cif
#   From: 2010.03.12/outbox.cif.g09.slc.cpg/sg46_10_cif.got.tgz:18673.got - 2010.04.14 02:56:35.
