data_PCOD8191884
_publ_section_title
;
Structure prediction by ZEFSAII (Michael W. Deem and Ramdas Pophale) SiO2 
 PCOD8191884
Probable space group: I M A 2
;
_chemical_formula_sum "Si O2"
_cell_formula_units_Z 64
_cell_length_a 14.465909
_cell_length_b 14.092200
_cell_length_c 16.635035
_cell_angle_alpha 90.000000
_cell_angle_beta 90.000000
_cell_angle_gamma 90.000000
_cell_volume 3391.159727
_symmetry_space_group_name_H-M "I M A 2"
_symmetry_group_IT_number 46
_symmetry_cell_setting 'orthorhombic'
loop_
_space_group_symop_operation_xyz
x,y,z
-x,-y,z
1/2-x,y,z
1/2+x,-y,z
1/2+x,1/2+y,1/2+z
1/2-x,1/2-y,1/2+z
-x,1/2+y,1/2+z
x,1/2-y,1/2+z
loop_
_atom_site_type_symbol
_atom_site_label
_atom_site_fract_x
_atom_site_fract_y
_atom_site_fract_z
Si Si1 0.144567 0.293920 0.617190
Si Si2 0.145280 0.365552 0.996839
Si Si3 0.641900 0.932786 0.810440
Si Si4 0.146091 0.889653 0.700354
Si Si5 0.446273 0.090730 0.978389
Si Si6 0.982639 0.222610 0.420270
Si Si7 0.354599 0.576817 0.014568
Si Si8 0.985250 0.735010 0.248384
O O1 0.250000 0.313062 0.645235
O O2 0.134723 0.185503 0.583910
O O3 0.119765 0.369002 0.547894
O O4 0.072397 0.306113 0.690793
O O5 0.250000 0.362606 0.967706
O O6 0.106809 0.472491 0.994577
O O7 0.088903 0.306745 0.931898
O O8 0.750000 0.910643 0.800075
O O9 0.616157 0.944723 0.903772
O O10 0.585194 0.846516 0.773832
O O11 0.614992 0.028331 0.762374
O O12 0.250000 0.855143 0.722134
O O13 0.142374 0.925086 0.609956
O O14 0.074812 0.803406 0.702592
O O15 0.523405 0.168368 0.950281
O O16 0.500000 0.000000 0.013409
O O17 0.968902 0.211695 0.324939
O O18 0.914559 0.157777 0.472296
O O19 0.250000 0.591367 0.983821
#
# Coordination Sequence:
#
# PCOD8191884 Si02
#       8
#     8   8   8   8   8   8   8   8
#     4  10  20  35  57  84 111 144 184 229 278 329
#     4   9  18  33  56  83 107 131 168 219 277 333
#     4  10  19  32  53  83 114 142 177 230 292 344
#     4  10  20  33  53  81 110 139 176 227 288 344
#     4  10  20  36  54  76 111 152 192 229 272 325
#     4  10  21  34  53  78 107 145 181 221 271 324
#     4  10  20  36  57  82 109 138 174 221 280 342
#     4  11  21  33  51  77 110 145 184 228 272 327
#
# _framework density 18.872599999999998
#
# number of rings (size 3 to 8) (size 9 to 14) (size 15 to 20)
#    0.000    2.000    0.000    5.250    0.000    7.000 
#    0.000    2.500    0.000    1.500    0.000    0.000 
#    0.000    0.000    0.000    0.000    0.000    0.000 
#
# Total GULP energy -396691.366099 kJ/mol
# GULP energy per Si atom -12396.605191 kJ/mol
# Density = 1.882964 g / cm^3
# Si number density = 18.872600 Si / 1000 Ang^3
#
#
#
# Elastic Constant Matrix: (Units=GPa)
#
#
# Indices 1 2 3 4 5 6 
#
# 1 78.1700 40.0497 33.8621 0.0000 0.0000 0.0000
# 2 40.0497 88.5356 37.1800 0.0000 0.0000 0.0000
# 3 33.8621 37.1800 79.3198 0.0000 0.0000 0.0000
# 4 0.0000 0.0000 0.0000 28.8573 0.0000 0.0000
# 5 0.0000 0.0000 0.0000 0.0000 30.4967 0.0000
# 6 0.0000 0.0000 0.0000 0.0000 0.0000 18.6023
#
#
#
# Elastic Compliance Matrix: (Units=1/GPa)
#
#
# Indices 1 2 3 4 5 6 
#
# 1 0.018020 -0.006127 -0.004821 0.000000 0.000000 0.000000
# 2 -0.006127 0.016146 -0.004953 0.000000 0.000000 0.000000
# 3 -0.004821 -0.004953 0.016987 0.000000 0.000000 0.000000
# 4 0.000000 0.000000 0.000000 0.034653 0.000000 0.000000
# 5 0.000000 0.000000 0.000000 0.000000 0.032790 0.000000
# 6 0.000000 0.000000 0.000000 0.000000 0.000000 0.053757
#
#
# Mechanical properties :
#
#
# Convention : Reuss Voigt Hill
#
# Bulk Modulus (GPa) = 51.67441 52.02320 51.84881
# Shear Modulus (GPa) = 23.74104 24.58682 24.16393
#
# Velocity S-wave (km/s) = 3.55063 3.61332 3.58211
# Velocity P-wave (km/s) = 6.65202 6.71069 6.68142
#
# Compressibility (1/GPa) = 0.01935194
#
# Stress axis : x y z
#
# Youngs Moduli (GPa) = 55.49358 61.93353 58.86925
#
# Poissons Ratio (x) = 0.37947 0.28381
# Poissons Ratio (y) = 0.34001 0.29156
# Poissons Ratio (z) = 0.26753 0.30674
#
# Static dielectric constant tensor:
#      x y z
#    x 3.579560 0.000000 0.000000 
#    y 0.000000 3.318040 0.000000 
#    z 0.000000 0.000000 3.439890 
# 
# 
# High freq. dielectric constant tensor:
#      x y z
#    x 1.741230 0.000000 0.000000 
#    y 0.000000 1.711180 0.000000 
#    z 0.000000 0.000000 1.726760 
# 
# From -- ./inp_files/19627.got.cif
#   From: 2010.03.12/outbox.cif.g09.slc.cpg/sg46_10_cif.got.tgz:19627.got - 2010.04.14 02:56:35.
