data_PCOD8191696
_publ_section_title
;
Structure prediction by ZEFSAII (Michael W. Deem and Ramdas Pophale) SiO2 
 PCOD8191696
Probable space group: I M A 2
;
_chemical_formula_sum "Si O2"
_cell_formula_units_Z 64
_cell_length_a 8.772496
_cell_length_b 33.423626
_cell_length_c 11.625248
_cell_angle_alpha 90.000000
_cell_angle_beta 90.000000
_cell_angle_gamma 90.000000
_cell_volume 3408.622986
_symmetry_space_group_name_H-M "I M A 2"
_symmetry_group_IT_number 46
_symmetry_cell_setting 'orthorhombic'
loop_
_space_group_symop_operation_xyz
x,y,z
-x,-y,z
1/2-x,y,z
1/2+x,-y,z
1/2+x,1/2+y,1/2+z
1/2-x,1/2-y,1/2+z
-x,1/2+y,1/2+z
x,1/2-y,1/2+z
loop_
_atom_site_type_symbol
_atom_site_label
_atom_site_fract_x
_atom_site_fract_y
_atom_site_fract_z
Si Si1 0.072400 0.457957 0.250000
Si Si2 0.427217 0.459131 0.981008
Si Si3 0.071106 0.624223 0.327417
Si Si4 0.926428 0.832362 0.618986
Si Si5 0.573061 0.733334 0.944231
Si Si6 0.578190 0.316500 0.749518
Si Si7 0.426514 0.177609 0.009676
Si Si8 0.422102 0.882514 0.429251
O O1 0.250000 0.459895 0.277995
O O2 0.000000 0.500000 0.292852
O O3 0.003037 0.419528 0.314165
O O4 0.040254 0.451888 0.115464
O O5 0.500000 0.500000 0.939074
O O6 0.250000 0.458188 0.951488
O O7 0.518288 0.426865 0.905828
O O8 0.250000 0.618244 0.321612
O O9 0.021263 0.656864 0.232147
O O10 0.023998 0.642617 0.450337
O O11 0.750000 0.834806 0.653986
O O12 0.969591 0.788800 0.565471
O O13 0.960686 0.864494 0.520885
O O14 0.750000 0.724888 0.917548
O O15 0.473707 0.717264 0.839135
O O16 0.535891 0.779894 0.951907
O O17 0.750000 0.306411 0.709345
O O18 0.465711 0.318684 0.643004
O O19 0.571459 0.359594 0.809299
O O20 0.250000 0.166871 0.996186
O O21 0.250000 0.882163 0.479635
#
# Coordination Sequence:
#
# PCOD8191696 Si02
#       8
#     8   8   8   8   8   8   8   8
#     4  10  20  35  56  84 118 155 191 236 289 349
#     4  10  19  30  50  80 115 148 183 226 277 337
#     4  12  24  37  56  85 119 155 192 240 292 346
#     4  10  19  34  55  81 111 146 189 232 279 341
#     4   9  21  39  60  82 109 148 191 235 285 339
#     4  10  22  39  58  83 112 145 187 234 286 339
#     4  11  24  41  60  82 111 152 197 241 285 341
#     4  10  19  33  54  79 111 147 182 226 278 334
#
# _framework density 18.77591
#
# number of rings (size 3 to 8) (size 9 to 14) (size 15 to 20)
#    0.000    1.750    1.250    3.375    1.750    4.000 
#    0.000    0.000    0.000    0.750    0.000    1.750 
#    0.000    0.000    0.000    0.000    0.000    0.000 
#
# Total GULP energy -396855.144695 kJ/mol
# GULP energy per Si atom -12401.723272 kJ/mol
# Density = 1.873317 g / cm^3
# Si number density = 18.775910 Si / 1000 Ang^3
#
#
#
# Elastic Constant Matrix: (Units=GPa)
#
#
# Indices 1 2 3 4 5 6 
#
# 1 97.2735 57.7294 32.4298 -0.0036 -0.0025 -0.0039
# 2 57.7294 115.9663 28.2162 -0.0068 -0.0040 -0.0046
# 3 32.4298 28.2162 63.9549 -0.0046 -0.0047 -0.0059
# 4 -0.0036 -0.0068 -0.0046 26.4036 -0.0004 -0.0007
# 5 -0.0025 -0.0040 -0.0047 -0.0004 28.7372 -0.0018
# 6 -0.0039 -0.0046 -0.0059 -0.0007 -0.0018 30.9193
#
#
#
# Elastic Compliance Matrix: (Units=1/GPa)
#
#
# Indices 1 2 3 4 5 6 
#
# 1 0.015971 -0.006699 -0.005143 0.000000 0.000000 0.000000
# 2 -0.006699 0.012470 -0.002105 0.000002 0.000001 0.000001
# 3 -0.005143 -0.002105 0.019172 0.000002 0.000002 0.000003
# 4 0.000000 0.000002 0.000002 0.037874 0.000000 0.000001
# 5 0.000000 0.000001 0.000002 0.000000 0.034798 0.000002
# 6 0.000000 0.000001 0.000003 0.000001 0.000002 0.032342
#
#
# Mechanical properties :
#
#
# Convention : Reuss Voigt Hill
#
# Bulk Modulus (GPa) = 50.70988 57.10503 53.90746
# Shear Modulus (GPa) = 26.72463 27.79998 27.26231
#
# Velocity S-wave (km/s) = 3.77682 3.85206 3.81462
# Velocity P-wave (km/s) = 6.78865 7.08974 6.94083
#
# Compressibility (1/GPa) = 0.01972002
#
# Stress axis : x y z
#
# Youngs Moduli (GPa) = 62.61544 80.19134 52.15846
#
# Poissons Ratio (x) = 0.53720 0.26823
# Poissons Ratio (y) = 0.41946 0.10978
# Poissons Ratio (z) = 0.32201 0.16879
#
# Static dielectric constant tensor:
#      x y z
#    x 3.531770 -0.000030 0.000000 
#    y -0.000030 3.223930 -0.000020 
#    z 0.000000 -0.000020 3.155880 
# 
# 
# High freq. dielectric constant tensor:
#      x y z
#    x 1.743400 0.000000 0.000000 
#    y 0.000000 1.736640 0.000000 
#    z 0.000000 0.000000 1.696450 
# 
# From -- ./inp_files/9776.got.cif
#   From: 2010.03.12/outbox.cif.g09.slc.cpg/sg46_5_cif.got.tgz:9776.got - 2010.04.14 02:56:35.
