data_PCOD8191458
_publ_section_title
;
Structure prediction by ZEFSAII (Michael W. Deem and Ramdas Pophale) SiO2 
 PCOD8191458
Probable space group: I M A 2
;
_chemical_formula_sum "Si O2"
_cell_formula_units_Z 64
_cell_length_a 22.395588
_cell_length_b 22.653952
_cell_length_c 7.474267
_cell_angle_alpha 90.000000
_cell_angle_beta 90.000000
_cell_angle_gamma 90.000000
_cell_volume 3792.058716
_symmetry_space_group_name_H-M "I M A 2"
_symmetry_group_IT_number 46
_symmetry_cell_setting 'orthorhombic'
loop_
_space_group_symop_operation_xyz
x,y,z
-x,-y,z
1/2-x,y,z
1/2+x,-y,z
1/2+x,1/2+y,1/2+z
1/2-x,1/2-y,1/2+z
-x,1/2+y,1/2+z
x,1/2-y,1/2+z
loop_
_atom_site_type_symbol
_atom_site_label
_atom_site_fract_x
_atom_site_fract_y
_atom_site_fract_z
Si Si1 0.097192 0.982106 0.955750
Si Si2 0.182282 0.936087 0.246702
Si Si3 0.637522 0.187135 0.248554
Si Si4 0.503256 0.185525 0.246474
Si Si5 0.137522 0.687136 0.162943
Si Si6 0.479818 0.404126 0.455749
Si Si7 0.003256 0.685525 0.165024
Si Si8 0.317718 0.563914 0.164798
O O1 0.137342 0.976072 0.777942
O O2 0.044751 0.934186 0.955752
O O3 0.071958 0.047749 0.955748
O O4 0.137342 0.976073 0.133558
O O5 0.250000 0.956247 0.210445
O O6 0.176140 0.868018 0.178318
O O7 0.165809 0.942681 0.455750
O O8 0.570867 0.186054 0.167605
O O9 0.669191 0.250000 0.205748
O O10 0.630029 0.179599 0.455749
O O11 0.475058 0.250000 0.205749
O O12 0.498311 0.169668 0.455749
O O13 0.469623 0.135340 0.133300
O O14 0.176140 0.631983 0.233180
O O15 0.070868 0.686054 0.243893
O O16 0.469624 0.364660 0.278198
O O17 0.250000 0.543753 0.201055
#
# Coordination Sequence:
#
# PCOD8191458 Si02
#       8
#     8   8   8   8   8   8   8   8
#     4  11  23  36  52  74 107 143 188 217 259 314
#     4  10  21  37  53  71 100 138 182 227 268 307
#     4   9  18  28  45  70  98 133 176 220 260 299
#     4  10  18  31  52  76 106 140 175 214 263 313
#     4   9  18  28  45  70  98 133 176 220 260 299
#     4  11  22  34  52  80 106 143 180 217 263 320
#     4  10  18  31  52  76 106 140 175 214 263 313
#     4  10  21  37  53  71 100 138 182 227 268 307
#
# _framework density 16.877376000000002
#
# number of rings (size 3 to 8) (size 9 to 14) (size 15 to 20)
#    0.000    2.000    3.750    0.375    3.500    1.500 
#    0.000    2.500    0.000    0.000    0.000    0.000 
#    0.000    4.000    0.000    0.000    0.000    0.000 
#
# Total GULP energy -396665.243082 kJ/mol
# GULP energy per Si atom -12395.788846 kJ/mol
# Density = 1.683896 g / cm^3
# Si number density = 16.877376 Si / 1000 Ang^3
#
#
#
# Elastic Constant Matrix: (Units=GPa)
#
#
# Indices 1 2 3 4 5 6 
#
# 1 71.0835 53.7917 43.1941 0.0000 0.0000 0.0000
# 2 53.7917 117.2556 58.3905 0.0000 0.0000 0.0000
# 3 43.1941 58.3905 104.8571 0.0000 0.0000 0.0000
# 4 0.0000 0.0000 0.0000 27.7237 0.0000 0.0000
# 5 0.0000 0.0000 0.0000 0.0000 13.2340 0.0000
# 6 0.0000 0.0000 0.0000 0.0000 0.0000 -34.4958
#
#
#
# Elastic Compliance Matrix: (Units=1/GPa)
#
#
# Indices 1 2 3 4 5 6 
#
# 1 0.023335 -0.008189 -0.005052 0.000000 0.000000 0.000000
# 2 -0.008189 0.014675 -0.004798 0.000000 0.000000 0.000000
# 3 -0.005052 -0.004798 0.014290 0.000000 0.000000 0.000000
# 4 0.000000 0.000000 0.000000 0.036070 0.000000 0.000000
# 5 0.000000 0.000000 0.000000 0.000000 0.075563 0.000000
# 6 0.000000 0.000000 0.000000 0.000000 0.000000 -0.028989
#
#
# Mechanical properties :
#
#
# Convention : Reuss Voigt Hill
#
# Bulk Modulus (GPa) = 61.65164 67.10540 64.37852
# Shear Modulus (GPa) = 28.33988 10.48038 19.41013
#
# Velocity S-wave (km/s) = 4.10221 2.49463 3.39494
# Velocity P-wave (km/s) = 7.68413 6.93862 7.32087
#
# Compressibility (1/GPa) = 0.01622017
#
# Stress axis : x y z
#
# Youngs Moduli (GPa) = 42.85392 68.14472 69.97925
#
# Poissons Ratio (x) = 0.55805 0.35355
# Poissons Ratio (y) = 0.35094 0.33578
# Poissons Ratio (z) = 0.21651 0.32698
#
# Static dielectric constant tensor:
#      x y z
#    x 2.824770 0.000000 0.000000 
#    y 0.000000 3.358940 0.000000 
#    z 0.000000 0.000000 3.216160 
# 
# 
# High freq. dielectric constant tensor:
#      x y z
#    x 1.600060 0.000000 0.000000 
#    y 0.000000 1.637680 0.000000 
#    z 0.000000 0.000000 1.665010 
# 
# From -- ./inp_files/7633.got.cif
#   From: 2010.03.12/outbox.cif.g09.slc.cpg/sg46_4_cif.got.tgz:7633.got - 2010.04.14 02:56:35.
