data_PCOD8191596
_publ_section_title
;
Structure prediction by ZEFSAII (Michael W. Deem and Ramdas Pophale) SiO2 
 PCOD8191596
Probable space group: I M A 2
;
_chemical_formula_sum "Si O2"
_cell_formula_units_Z 40
_cell_length_a 10.008713
_cell_length_b 8.604460
_cell_length_c 23.059262
_cell_angle_alpha 90.000000
_cell_angle_beta 90.000000
_cell_angle_gamma 90.000000
_cell_volume 1985.853743
_symmetry_space_group_name_H-M "I M A 2"
_symmetry_group_IT_number 46
_symmetry_cell_setting 'orthorhombic'
loop_
_space_group_symop_operation_xyz
x,y,z
-x,-y,z
1/2-x,y,z
1/2+x,-y,z
1/2+x,1/2+y,1/2+z
1/2-x,1/2-y,1/2+z
-x,1/2+y,1/2+z
x,1/2-y,1/2+z
loop_
_atom_site_type_symbol
_atom_site_label
_atom_site_fract_x
_atom_site_fract_y
_atom_site_fract_z
Si Si1 0.250000 0.684645 0.031891
Si Si2 0.250000 0.819620 0.152944
Si Si3 0.011812 0.817314 0.720813
Si Si4 0.250000 0.185299 0.533221
Si Si5 0.497693 0.816485 0.459127
Si Si6 0.750000 0.683282 0.663966
Si Si7 0.911469 0.152924 0.336540
O O1 0.250000 0.798373 0.085265
O O2 0.250000 0.499905 0.045220
O O3 0.123404 0.741414 0.996959
O O4 0.380458 0.733940 0.174596
O O5 0.250000 0.998859 0.169563
O O6 0.061794 0.767736 0.783894
O O7 0.874535 0.742917 0.700347
O O8 0.000000 0.000000 0.719924
O O9 0.371733 0.242482 0.492835
O O10 0.250000 0.264691 0.596474
O O11 0.472113 0.758654 0.393241
O O12 0.500000 0.000000 0.454090
O O13 0.750000 0.117300 0.342877
O O14 0.000000 0.000000 0.324561
#
# Coordination Sequence:
#
# PCOD8191596 Si02
#       7
#     4   4   8   4   8   4   8
#     4  10  18  35  60  89 123 170 212 260 319 384
#     4  12  24  43  66  95 131 174 218 274 333 394
#     4  12  26  44  66  95 132 173 220 273 334 396
#     4  10  20  37  60  93 129 168 216 264 317 390
#     4   9  19  34  61  92 126 166 215 262 316 385
#     4  12  26  43  66  99 133 172 220 272 333 396
#     4  11  23  41  67  99 134 174 222 272 328 393
#
# _framework density 20.142469999999999
#
# number of rings (size 3 to 8) (size 9 to 14) (size 15 to 20)
#    0.000    1.200    2.000    4.800    5.600    1.600 
#    0.000    2.000    0.000    0.000    0.000    0.000 
#    0.000    0.000    0.000    0.000    0.000    0.000 
#
# Total GULP energy -247877.524847 kJ/mol
# GULP energy per Si atom -12393.876242 kJ/mol
# Density = 2.009663 g / cm^3
# Si number density = 20.142470 Si / 1000 Ang^3
#
#
#
# Elastic Constant Matrix: (Units=GPa)
#
#
# Indices 1 2 3 4 5 6 
#
# 1 166.5163 27.9273 47.3947 0.0000 0.0000 0.0000
# 2 27.9273 93.4469 19.3760 0.0000 0.0000 0.0000
# 3 47.3947 19.3760 128.9701 0.0000 0.0000 0.0000
# 4 0.0000 0.0000 0.0000 30.5533 0.0000 0.0000
# 5 0.0000 0.0000 0.0000 0.0000 43.0199 0.0000
# 6 0.0000 0.0000 0.0000 0.0000 0.0000 15.2811
#
#
#
# Elastic Compliance Matrix: (Units=1/GPa)
#
#
# Indices 1 2 3 4 5 6 
#
# 1 0.006929 -0.001592 -0.002307 0.000000 0.000000 0.000000
# 2 -0.001592 0.011411 -0.001129 0.000000 0.000000 0.000000
# 3 -0.002307 -0.001129 0.008771 0.000000 0.000000 0.000000
# 4 0.000000 0.000000 0.000000 0.032730 0.000000 0.000000
# 5 0.000000 0.000000 0.000000 0.000000 0.023245 0.000000
# 6 0.000000 0.000000 0.000000 0.000000 0.000000 0.065440
#
#
# Mechanical properties :
#
#
# Convention : Reuss Voigt Hill
#
# Bulk Modulus (GPa) = 58.63673 64.25881 61.44777
# Shear Modulus (GPa) = 30.43783 37.38652 33.91218
#
# Velocity S-wave (km/s) = 3.89154 4.31293 4.10764
# Velocity P-wave (km/s) = 7.02611 7.53480 7.28490
#
# Compressibility (1/GPa) = 0.01705416
#
# Stress axis : x y z
#
# Youngs Moduli (GPa) = 144.31762 87.63226 114.00924
#
# Poissons Ratio (x) = 0.13955 0.26303
# Poissons Ratio (y) = 0.22982 0.12874
# Poissons Ratio (z) = 0.33296 0.09895
#
# Static dielectric constant tensor:
#      x y z
#    x 4.282980 0.000000 0.000000 
#    y 0.000000 3.363180 0.000000 
#    z 0.000000 0.000000 4.033920 
# 
# 
# High freq. dielectric constant tensor:
#      x y z
#    x 1.810970 0.000000 0.000000 
#    y 0.000000 1.756160 0.000000 
#    z 0.000000 0.000000 1.812130 
# 
# From -- ./inp_files/22790.got.cif
#   From: 2010.03.12/outbox.cif.g09.slc.cpg/sg46_12_cif.got.tgz:22790.got - 2010.04.14 02:56:35.
