data_PCOD8191397
_publ_section_title
;
Structure prediction by ZEFSAII (Michael W. Deem and Ramdas Pophale) SiO2 
 PCOD8191397
Probable space group: I M A 2
;
_chemical_formula_sum "Si O2"
_cell_formula_units_Z 56
_cell_length_a 17.249577
_cell_length_b 25.656256
_cell_length_c 7.787505
_cell_angle_alpha 90.000000
_cell_angle_beta 90.000000
_cell_angle_gamma 90.000000
_cell_volume 3446.434813
_symmetry_space_group_name_H-M "I M A 2"
_symmetry_group_IT_number 46
_symmetry_cell_setting 'orthorhombic'
loop_
_space_group_symop_operation_xyz
x,y,z
-x,-y,z
1/2-x,y,z
1/2+x,-y,z
1/2+x,1/2+y,1/2+z
1/2-x,1/2-y,1/2+z
-x,1/2+y,1/2+z
x,1/2-y,1/2+z
loop_
_atom_site_type_symbol
_atom_site_label
_atom_site_fract_x
_atom_site_fract_y
_atom_site_fract_z
Si Si1 0.663119 0.517236 0.208620
Si Si2 0.162759 0.092429 0.394109
Si Si3 0.046673 0.946354 0.561966
Si Si4 0.017240 0.441506 0.709994
Si Si5 0.339293 0.312505 0.405028
Si Si6 0.446515 0.407643 0.356097
Si Si7 0.162586 0.202255 0.303505
O O1 0.750000 0.506941 0.277247
O O2 0.633391 0.462968 0.121416
O O3 0.605681 0.538694 0.357146
O O4 0.661641 0.565345 0.077024
O O5 0.250000 0.092484 0.315416
O O6 0.132130 0.152542 0.413336
O O7 0.106982 0.061113 0.267140
O O8 0.039441 0.922427 0.368123
O O9 0.008947 0.907558 0.701083
O O10 0.000000 0.000000 0.553928
O O11 0.000000 0.500000 0.654527
O O12 0.007619 0.406079 0.538728
O O13 0.250000 0.320340 0.342068
O O14 0.391952 0.357961 0.328207
O O15 0.378031 0.257633 0.342339
O O16 0.344572 0.314889 0.608450
O O17 0.250000 0.213199 0.362476
#
# Coordination Sequence:
#
# PCOD8191397 Si02
#       7
#     8   8   8   8   8   8   8
#     4  10  19  32  49  67  92 125 164 200 233 280
#     4  10  18  30  47  65  89 123 162 196 225 268
#     4   9  18  33  44  66  91 118 157 192 236 282
#     4  11  18  31  47  64  92 122 157 196 233 277
#     4  10  20  31  44  63  89 123 164 199 228 265
#     4  11  20  30  48  68  91 126 162 192 236 281
#     4   9  19  31  42  63  90 119 161 203 231 259
#
# _framework density 16.248674999999999
#
# number of rings (size 3 to 8) (size 9 to 14) (size 15 to 20)
#    0.000    2.000    5.714    1.714    2.000    0.571 
#    0.000    0.000    0.000    0.000    0.000    0.000 
#    0.000    0.000    0.000    6.429    0.286    0.571 
#
# Total GULP energy -346900.885717 kJ/mol
# GULP energy per Si atom -12389.317347 kJ/mol
# Density = 1.621169 g / cm^3
# Si number density = 16.248675 Si / 1000 Ang^3
#
#
#
# Elastic Constant Matrix: (Units=GPa)
#
#
# Indices 1 2 3 4 5 6 
#
# 1 52.5986 39.0898 17.2183 0.0000 0.0000 0.0000
# 2 39.0898 79.3345 23.0155 0.0000 0.0000 0.0000
# 3 17.2183 23.0155 71.4749 0.0000 0.0000 0.0000
# 4 0.0000 0.0000 0.0000 22.4632 0.0000 0.0000
# 5 0.0000 0.0000 0.0000 0.0000 16.7530 0.0000
# 6 0.0000 0.0000 0.0000 0.0000 0.0000 22.8099
#
#
#
# Elastic Compliance Matrix: (Units=1/GPa)
#
#
# Indices 1 2 3 4 5 6 
#
# 1 0.030483 -0.014217 -0.002765 0.000000 0.000000 0.000000
# 2 -0.014217 0.020535 -0.003187 0.000000 0.000000 0.000000
# 3 -0.002765 -0.003187 0.015683 0.000000 0.000000 0.000000
# 4 0.000000 0.000000 0.000000 0.044517 0.000000 0.000000
# 5 0.000000 0.000000 0.000000 0.000000 0.059691 0.000000
# 6 0.000000 0.000000 0.000000 0.000000 0.000000 0.043841
#
#
# Mechanical properties :
#
#
# Convention : Reuss Voigt Hill
#
# Bulk Modulus (GPa) = 37.93459 40.22835 39.08147
# Shear Modulus (GPa) = 18.94818 20.67749 19.81283
#
# Velocity S-wave (km/s) = 3.41858 3.57117 3.49571
# Velocity P-wave (km/s) = 6.24333 6.46653 6.35591
#
# Compressibility (1/GPa) = 0.02636116
#
# Stress axis : x y z
#
# Youngs Moduli (GPa) = 32.80500 48.69782 63.76156
#
# Poissons Ratio (x) = 0.69236 0.17632
# Poissons Ratio (y) = 0.46640 0.20323
# Poissons Ratio (z) = 0.09071 0.15522
#
# Static dielectric constant tensor:
#      x y z
#    x 3.136120 0.000000 0.000000 
#    y 0.000000 3.064490 0.000000 
#    z 0.000000 0.000000 3.224190 
# 
# 
# High freq. dielectric constant tensor:
#      x y z
#    x 1.578970 0.000000 0.000000 
#    y 0.000000 1.599420 0.000000 
#    z 0.000000 0.000000 1.637330 
# 
# From -- ./inp_files/6985.got.cif
#   From: 2010.03.12/outbox.cif.g09.slc.cpg/sg46_4_cif.got.tgz:6985.got - 2010.04.14 02:56:35.
