data_PCOD8191925
_publ_section_title
;
Structure prediction by ZEFSAII (Michael W. Deem and Ramdas Pophale) SiO2 
 PCOD8191925
Probable space group: I M A 2
;
_chemical_formula_sum "Si O2"
_cell_formula_units_Z 64
_cell_length_a 8.962693
_cell_length_b 20.766119
_cell_length_c 19.275396
_cell_angle_alpha 90.000000
_cell_angle_beta 90.000000
_cell_angle_gamma 90.000000
_cell_volume 3587.543438
_symmetry_space_group_name_H-M "I M A 2"
_symmetry_group_IT_number 46
_symmetry_cell_setting 'orthorhombic'
loop_
_space_group_symop_operation_xyz
x,y,z
-x,-y,z
1/2-x,y,z
1/2+x,-y,z
1/2+x,1/2+y,1/2+z
1/2-x,1/2-y,1/2+z
-x,1/2+y,1/2+z
x,1/2-y,1/2+z
loop_
_atom_site_type_symbol
_atom_site_label
_atom_site_fract_x
_atom_site_fract_y
_atom_site_fract_z
Si Si1 0.926421 0.188990 0.346750
Si Si2 0.923073 0.126952 0.570646
Si Si3 0.575015 0.566205 0.354547
Si Si4 0.077262 0.119728 0.706906
Si Si5 0.921140 0.766319 0.216278
Si Si6 0.922505 0.065268 0.427636
Si Si7 0.923734 0.762624 0.059542
Si Si8 0.927256 0.314569 0.429805
O O1 0.750000 0.188075 0.348095
O O2 0.989867 0.125420 0.384579
O O3 0.983949 0.252094 0.387508
O O4 0.982133 0.189713 0.267570
O O5 0.750000 0.146414 0.576374
O O6 0.949467 0.076084 0.509393
O O7 0.979354 0.094377 0.642189
O O8 0.017290 0.190202 0.553666
O O9 0.500000 0.500000 0.378584
O O10 0.750000 0.565094 0.371035
O O11 0.544889 0.575106 0.272688
O O12 0.499547 0.622721 0.397182
O O13 0.250000 0.118951 0.684546
O O14 0.027585 0.192348 0.724963
O O15 0.750000 0.773707 0.238202
O O16 0.948066 0.789354 0.137458
O O17 0.750000 0.057973 0.410273
O O18 0.000000 0.000000 0.403120
O O19 0.750000 0.762871 0.039520
O O20 0.015555 0.808846 0.008610
O O21 0.750000 0.321232 0.428844
#
# Coordination Sequence:
#
# PCOD8191925 Si02
#       8
#     8   8   8   8   8   8   8   8
#     4  10  20  35  55  80 110 139 178 228 275 323
#     4  10  19  33  52  76 110 146 185 228 269 321
#     4  11  23  39  56  79 113 150 189 231 277 332
#     4   9  19  34  51  76 110 145 185 224 264 324
#     4   9  18  33  53  81 110 138 179 223 269 323
#     4  10  22  38  52  76 109 144 184 225 270 324
#     4  10  20  34  54  82 113 143 179 226 276 328
#     4  11  21  36  58  84 111 143 184 231 281 329
#
# _framework density 17.839507000000001
#
# number of rings (size 3 to 8) (size 9 to 14) (size 15 to 20)
#    0.000    2.000    2.500    2.250    0.000    6.000 
#    0.000    2.500    0.000    0.750    0.000    1.750 
#    0.000    0.000    0.000    0.000    0.000    0.000 
#
# Total GULP energy -396869.402541 kJ/mol
# GULP energy per Si atom -12402.168829 kJ/mol
# Density = 1.779890 g / cm^3
# Si number density = 17.839507 Si / 1000 Ang^3
#
#
#
# Elastic Constant Matrix: (Units=GPa)
#
#
# Indices 1 2 3 4 5 6 
#
# 1 68.5357 46.5565 43.4759 0.0000 0.0000 0.0000
# 2 46.5565 118.8796 53.2922 0.0000 0.0000 0.0000
# 3 43.4759 53.2922 88.7580 0.0000 0.0000 0.0000
# 4 0.0000 0.0000 0.0000 22.5243 0.0000 0.0000
# 5 0.0000 0.0000 0.0000 0.0000 34.1097 0.0000
# 6 0.0000 0.0000 0.0000 0.0000 0.0000 27.8406
#
#
#
# Elastic Compliance Matrix: (Units=1/GPa)
#
#
# Indices 1 2 3 4 5 6 
#
# 1 0.023571 -0.005549 -0.008214 0.000000 0.000000 0.000000
# 2 -0.005549 0.012816 -0.004977 0.000000 0.000000 0.000000
# 3 -0.008214 -0.004977 0.018278 0.000000 0.000000 0.000000
# 4 0.000000 0.000000 0.000000 0.044397 0.000000 0.000000
# 5 0.000000 0.000000 0.000000 0.000000 0.029317 0.000000
# 6 0.000000 0.000000 0.000000 0.000000 0.000000 0.035919
#
#
# Mechanical properties :
#
#
# Convention : Reuss Voigt Hill
#
# Bulk Modulus (GPa) = 58.18845 62.53583 60.36214
# Shear Modulus (GPa) = 24.09570 25.75150 24.92360
#
# Velocity S-wave (km/s) = 3.67916 3.80348 3.74184
# Velocity P-wave (km/s) = 7.12298 7.37695 7.25108
#
# Compressibility (1/GPa) = 0.01718554
#
# Stress axis : x y z
#
# Youngs Moduli (GPa) = 42.42544 78.02685 54.70944
#
# Poissons Ratio (x) = 0.43295 0.44938
# Poissons Ratio (y) = 0.23541 0.27230
# Poissons Ratio (z) = 0.34848 0.38835
#
# Static dielectric constant tensor:
#      x y z
#    x 3.304680 0.000000 0.000000 
#    y 0.000000 3.109380 0.000000 
#    z 0.000000 0.000000 3.441270 
# 
# 
# High freq. dielectric constant tensor:
#      x y z
#    x 1.695340 0.000000 0.000000 
#    y 0.000000 1.664880 0.000000 
#    z 0.000000 0.000000 1.691600 
# 
# From -- ./inp_files/18566.got.cif
#   From: 2010.03.12/outbox.cif.g09.slc.cpg/sg46_10_cif.got.tgz:18566.got - 2010.04.14 02:56:35.
