data_PCOD8191503
_publ_section_title
;
Structure prediction by ZEFSAII (Michael W. Deem and Ramdas Pophale) SiO2 
 PCOD8191503
Probable space group: I M A 2
;
_chemical_formula_sum "Si O2"
_cell_formula_units_Z 64
_cell_length_a 15.824026
_cell_length_b 9.582186
_cell_length_c 21.425683
_cell_angle_alpha 90.000000
_cell_angle_beta 90.000000
_cell_angle_gamma 90.000000
_cell_volume 3248.749754
_symmetry_space_group_name_H-M "I M A 2"
_symmetry_group_IT_number 46
_symmetry_cell_setting 'orthorhombic'
loop_
_space_group_symop_operation_xyz
x,y,z
-x,-y,z
1/2-x,y,z
1/2+x,-y,z
1/2+x,1/2+y,1/2+z
1/2-x,1/2-y,1/2+z
-x,1/2+y,1/2+z
x,1/2-y,1/2+z
loop_
_atom_site_type_symbol
_atom_site_label
_atom_site_fract_x
_atom_site_fract_y
_atom_site_fract_z
Si Si1 0.653895 0.160751 0.701100
Si Si2 0.348307 0.593853 0.618239
Si Si3 0.845946 0.888915 0.755063
Si Si4 0.583578 0.083445 0.983783
Si Si5 0.150423 0.146604 0.894615
Si Si6 0.076173 0.644992 0.786004
Si Si7 0.591625 0.610102 0.717158
Si Si8 0.000192 0.160059 0.422371
O O1 0.750000 0.134537 0.683692
O O2 0.616286 0.258412 0.645968
O O3 0.644023 0.236787 0.768872
O O4 0.609515 0.009344 0.712239
O O5 0.250000 0.576552 0.635914
O O6 0.358201 0.592859 0.544364
O O7 0.398467 0.465090 0.650073
O O8 0.750000 0.935302 0.765886
O O9 0.885374 0.874747 0.824300
O O10 0.849347 0.745108 0.717437
O O11 0.561417 0.241036 0.962644
O O12 0.500000 0.000000 0.001924
O O13 0.634079 0.998408 0.930721
O O14 0.250000 0.186416 0.897718
O O15 0.094949 0.274593 0.923050
O O16 0.119292 0.493477 0.774354
O O17 0.039094 0.658466 0.853841
O O18 0.004148 0.657239 0.731601
O O19 0.000000 0.000000 0.448446
#
# Coordination Sequence:
#
# PCOD8191503 Si02
#       8
#     8   8   8   8   8   8   8   8
#     4   9  20  33  51  79 115 151 187 238 291 346
#     4  10  21  39  58  79 112 155 202 242 284 347
#     4  10  18  32  53  84 117 143 183 239 299 348
#     4  10  23  37  61  80 112 160 207 243 289 355
#     4  10  20  37  59  88 121 156 199 248 299 359
#     4  10  18  33  56  81 115 147 184 232 295 362
#     4  10  19  32  57  84 111 150 183 239 290 354
#     4  11  20  39  60  88 121 155 195 254 306 359
#
# _framework density 19.699887
#
# number of rings (size 3 to 8) (size 9 to 14) (size 15 to 20)
#    0.000    2.000    2.500    1.500    3.500    1.000 
#    0.000    5.000    0.000    1.500    0.000    0.000 
#    0.000    0.000    0.000    0.000    0.000    0.000 
#
# Total GULP energy -396435.299001 kJ/mol
# GULP energy per Si atom -12388.603094 kJ/mol
# Density = 1.965505 g / cm^3
# Si number density = 19.699887 Si / 1000 Ang^3
#
#
#
# Elastic Constant Matrix: (Units=GPa)
#
#
# Indices 1 2 3 4 5 6 
#
# 1 31.6266 21.5819 20.0918 0.0000 0.0000 0.0000
# 2 21.5819 159.8430 57.6130 0.0000 0.0000 0.0000
# 3 20.0918 57.6130 98.2598 0.0000 0.0000 0.0000
# 4 0.0000 0.0000 0.0000 22.5712 0.0000 0.0000
# 5 0.0000 0.0000 0.0000 0.0000 26.0832 0.0000
# 6 0.0000 0.0000 0.0000 0.0000 0.0000 22.4679
#
#
#
# Elastic Compliance Matrix: (Units=1/GPa)
#
#
# Indices 1 2 3 4 5 6 
#
# 1 0.037374 -0.002906 -0.005938 0.000000 0.000000 0.000000
# 2 -0.002906 0.008159 -0.004189 0.000000 0.000000 0.000000
# 3 -0.005938 -0.004189 0.013848 0.000000 0.000000 0.000000
# 4 0.000000 0.000000 0.000000 0.044304 0.000000 0.000000
# 5 0.000000 0.000000 0.000000 0.000000 0.038339 0.000000
# 6 0.000000 0.000000 0.000000 0.000000 0.000000 0.044508
#
#
# Mechanical properties :
#
#
# Convention : Reuss Voigt Hill
#
# Bulk Modulus (GPa) = 30.01799 54.25585 42.13692
# Shear Modulus (GPa) = 22.35104 26.92066 24.63585
#
# Velocity S-wave (km/s) = 3.37200 3.70068 3.54016
# Velocity P-wave (km/s) = 5.51645 6.77208 6.17626
#
# Compressibility (1/GPa) = 0.03331335
#
# Stress axis : x y z
#
# Youngs Moduli (GPa) = 26.75629 122.57153 72.21392
#
# Poissons Ratio (x) = 0.35618 0.42883
# Poissons Ratio (y) = 0.07775 0.30253
# Poissons Ratio (z) = 0.15889 0.51350
#
# Static dielectric constant tensor:
#      x y z
#    x 3.477230 0.000000 0.000000 
#    y 0.000000 3.984350 0.000000 
#    z 0.000000 0.000000 3.383400 
# 
# 
# High freq. dielectric constant tensor:
#      x y z
#    x 1.755850 0.000000 0.000000 
#    y 0.000000 1.778580 0.000000 
#    z 0.000000 0.000000 1.740800 
# 
# From -- ./inp_files/22256.got.cif
#   From: 2010.03.12/outbox.cif.g09.slc.cpg/sg46_12_cif.got.tgz:22256.got - 2010.04.14 02:56:35.
