data_PCOD8191836
_publ_section_title
;
Structure prediction by ZEFSAII (Michael W. Deem and Ramdas Pophale) SiO2 
 PCOD8191836
Probable space group: I M A 2
;
_chemical_formula_sum "Si O2"
_cell_formula_units_Z 64
_cell_length_a 9.591060
_cell_length_b 14.038076
_cell_length_c 23.926079
_cell_angle_alpha 90.000000
_cell_angle_beta 90.000000
_cell_angle_gamma 90.000000
_cell_volume 3221.407975
_symmetry_space_group_name_H-M "I M A 2"
_symmetry_group_IT_number 46
_symmetry_cell_setting 'orthorhombic'
loop_
_space_group_symop_operation_xyz
x,y,z
-x,-y,z
1/2-x,y,z
1/2+x,-y,z
1/2+x,1/2+y,1/2+z
1/2-x,1/2-y,1/2+z
-x,1/2+y,1/2+z
x,1/2-y,1/2+z
loop_
_atom_site_type_symbol
_atom_site_label
_atom_site_fract_x
_atom_site_fract_y
_atom_site_fract_z
Si Si1 0.100539 0.127266 0.531910
Si Si2 0.587528 0.220318 0.907871
Si Si3 0.097179 0.078111 0.650148
Si Si4 0.907171 0.279505 0.198836
Si Si5 0.912140 0.588051 0.908861
Si Si6 0.089389 0.594372 0.304167
Si Si7 0.408952 0.911633 0.140653
Si Si8 0.089032 0.800847 0.033256
O O1 0.250000 0.182825 0.529140
O O2 0.107245 0.054626 0.584187
O O3 0.082807 0.068396 0.475173
O O4 0.977246 0.199074 0.543369
O O5 0.750000 0.252404 0.902554
O O6 0.488562 0.311441 0.896388
O O7 0.549331 0.137945 0.864184
O O8 0.559435 0.171381 0.968562
O O9 0.250000 0.076754 0.678370
O O10 0.022872 0.179293 0.657044
O O11 0.000000 0.000000 0.681002
O O12 0.750000 0.310712 0.181366
O O13 0.940933 0.319327 0.260605
O O14 0.921892 0.166088 0.190726
O O15 0.750000 0.589747 0.887457
O O16 0.000000 0.500000 0.881341
O O17 0.250000 0.563227 0.302194
O O18 0.000000 0.500000 0.292010
O O19 0.250000 0.945395 0.134560
O O20 0.465993 0.875536 0.079782
O O21 0.500000 0.000000 0.160537
O O22 0.250000 0.785826 0.045860
#
# Coordination Sequence:
#
# PCOD8191836 Si02
#       8
#     8   8   8   8   8   8   8   8
#     4   9  18  30  46  73 108 144 182 223 269 323
#     4   9  19  36  57  82 112 148 188 232 283 333
#     4  11  21  31  48  76 108 143 182 225 273 327
#     4  10  21  39  58  78 109 146 184 228 277 330
#     4  10  19  32  51  78 112 151 190 229 276 330
#     4  10  22  40  62  85 112 145 185 234 283 334
#     4  10  21  36  56  82 111 145 182 225 277 334
#     4   9  17  32  54  78 108 146 183 222 274 331
#
# _framework density 19.867089
#
# number of rings (size 3 to 8) (size 9 to 14) (size 15 to 20)
#    0.000    2.250    1.250    1.500    0.000    4.500 
#    0.000    0.625    0.000    1.500    0.000    0.000 
#    0.000    0.000    0.000    0.000    0.000    0.000 
#
# Total GULP energy -396469.198818 kJ/mol
# GULP energy per Si atom -12389.662463 kJ/mol
# Density = 1.982187 g / cm^3
# Si number density = 19.867089 Si / 1000 Ang^3
#
#
#
# Elastic Constant Matrix: (Units=GPa)
#
#
# Indices 1 2 3 4 5 6 
#
# 1 109.0382 60.7394 28.9097 0.0000 0.0000 0.0000
# 2 60.7394 103.3301 38.7269 0.0000 0.0000 0.0000
# 3 28.9097 38.7269 87.7269 0.0000 0.0000 0.0000
# 4 0.0000 0.0000 0.0000 21.1219 0.0000 0.0000
# 5 0.0000 0.0000 0.0000 0.0000 16.8772 0.0000
# 6 0.0000 0.0000 0.0000 0.0000 0.0000 35.7625
#
#
#
# Elastic Compliance Matrix: (Units=1/GPa)
#
#
# Indices 1 2 3 4 5 6 
#
# 1 0.013733 -0.007640 -0.001153 0.000000 0.000000 0.000000
# 2 -0.007640 0.015847 -0.004478 0.000000 0.000000 0.000000
# 3 -0.001153 -0.004478 0.013756 0.000000 0.000000 0.000000
# 4 0.000000 0.000000 0.000000 0.047344 0.000000 0.000000
# 5 0.000000 0.000000 0.000000 0.000000 0.059252 0.000000
# 6 0.000000 0.000000 0.000000 0.000000 0.000000 0.027962
#
#
# Mechanical properties :
#
#
# Convention : Reuss Voigt Hill
#
# Bulk Modulus (GPa) = 59.54630 61.87191 60.70910
# Shear Modulus (GPa) = 23.80576 26.20027 25.00301
#
# Velocity S-wave (km/s) = 3.46533 3.63544 3.55140
# Velocity P-wave (km/s) = 6.78592 6.98802 6.88771
#
# Compressibility (1/GPa) = 0.01679366
#
# Stress axis : x y z
#
# Youngs Moduli (GPa) = 72.81860 63.10292 72.69754
#
# Poissons Ratio (x) = 0.48213 0.08380
# Poissons Ratio (y) = 0.55636 0.32553
# Poissons Ratio (z) = 0.08394 0.28257
#
# Static dielectric constant tensor:
#      x y z
#    x 3.789720 0.000000 0.000000 
#    y 0.000000 3.250620 0.000000 
#    z 0.000000 0.000000 3.603820 
# 
# 
# High freq. dielectric constant tensor:
#      x y z
#    x 1.784100 0.000000 0.000000 
#    y 0.000000 1.747540 0.000000 
#    z 0.000000 0.000000 1.762680 
# 
# From -- ./inp_files/23206.got.cif
#   From: 2010.03.12/outbox.cif.g09.slc.cpg/sg46_12_cif.got.tgz:23206.got - 2010.04.14 02:56:35.
