data_PCOD8191410
_publ_section_title
;
Structure prediction by ZEFSAII (Michael W. Deem and Ramdas Pophale) SiO2 
 PCOD8191410
Probable space group: I M A 2
;
_chemical_formula_sum "Si O2"
_cell_formula_units_Z 64
_cell_length_a 9.031261
_cell_length_b 33.538718
_cell_length_c 11.860411
_cell_angle_alpha 90.000000
_cell_angle_beta 90.000000
_cell_angle_gamma 90.000000
_cell_volume 3592.481913
_symmetry_space_group_name_H-M "I M A 2"
_symmetry_group_IT_number 46
_symmetry_cell_setting 'orthorhombic'
loop_
_space_group_symop_operation_xyz
x,y,z
-x,-y,z
1/2-x,y,z
1/2+x,-y,z
1/2+x,1/2+y,1/2+z
1/2-x,1/2-y,1/2+z
-x,1/2+y,1/2+z
x,1/2-y,1/2+z
loop_
_atom_site_type_symbol
_atom_site_label
_atom_site_fract_x
_atom_site_fract_y
_atom_site_fract_z
Si Si1 0.916968 0.681710 0.625000
Si Si2 0.574970 0.126298 0.554321
Si Si3 0.418586 0.384863 0.454797
Si Si4 0.076549 0.177835 0.373295
Si Si5 0.574609 0.328844 0.278809
Si Si6 0.923787 0.732921 0.421433
Si Si7 0.422000 0.959468 0.637750
Si Si8 0.077617 0.960281 0.901086
O O1 0.750000 0.696662 0.645498
O O2 0.922100 0.637483 0.574150
O O3 0.994160 0.680473 0.747387
O O4 0.989816 0.712762 0.535694
O O5 0.750000 0.125725 0.540808
O O6 0.502542 0.142377 0.440039
O O7 0.528934 0.156833 0.653891
O O8 0.518917 0.080838 0.576708
O O9 0.250000 0.390311 0.412288
O O10 0.512086 0.361509 0.362858
O O11 0.498760 0.426543 0.474547
O O12 0.250000 0.167800 0.369537
O O13 0.045366 0.220315 0.431558
O O14 0.750000 0.326483 0.292230
O O15 0.503395 0.285942 0.310870
O O16 0.750000 0.722709 0.409158
O O17 0.250000 0.965482 0.614031
O O18 0.453785 0.952947 0.769437
O O19 0.500000 0.000000 0.593134
O O20 0.250000 0.961679 0.928969
O O21 0.000000 0.000000 0.943345
#
# Coordination Sequence:
#
# PCOD8191410 Si02
#       8
#     8   8   8   8   8   8   8   8
#     4   8  17  34  50  72 103 131 168 216 262 304
#     4  10  21  36  51  75 112 142 171 218 267 313
#     4  10  18  31  52  74 102 138 172 213 259 307
#     4  10  21  35  55  77 101 137 179 222 263 313
#     4  10  19  33  51  73 105 139 171 212 261 314
#     4   9  19  34  54  77 102 133 172 220 266 312
#     4   9  18  33  51  74 107 140 167 212 264 315
#     4  10  18  30  48  76 110 138 169 207 260 316
#
# _framework density 17.814983000000002
#
# number of rings (size 3 to 8) (size 9 to 14) (size 15 to 20)
#    0.000    2.500    1.250    1.875    1.750    2.500 
#    0.000    3.125    0.000    0.750    0.000    1.750 
#    0.000    0.000    0.000    0.000    0.000    0.000 
#
# Total GULP energy -396686.735598 kJ/mol
# GULP energy per Si atom -12396.460487 kJ/mol
# Density = 1.777443 g / cm^3
# Si number density = 17.814983 Si / 1000 Ang^3
#
#
#
# Elastic Constant Matrix: (Units=GPa)
#
#
# Indices 1 2 3 4 5 6 
#
# 1 42.0904 35.9772 25.5180 0.0003 0.0000 0.0001
# 2 35.9772 112.6116 39.0308 -0.0001 0.0000 0.0001
# 3 25.5180 39.0308 91.9168 0.0007 0.0000 0.0002
# 4 0.0003 -0.0001 0.0007 23.8331 0.0000 0.0001
# 5 0.0000 0.0000 0.0000 0.0000 21.7285 0.0002
# 6 0.0001 0.0001 0.0002 0.0001 0.0002 31.2153
#
#
#
# Elastic Compliance Matrix: (Units=1/GPa)
#
#
# Indices 1 2 3 4 5 6 
#
# 1 0.035181 -0.009210 -0.005856 0.000000 0.000000 0.000000
# 2 -0.009210 0.012824 -0.002888 0.000000 0.000000 0.000000
# 3 -0.005856 -0.002888 0.013732 0.000000 0.000000 0.000000
# 4 0.000000 0.000000 0.000000 0.041959 0.000000 0.000000
# 5 0.000000 0.000000 0.000000 0.000000 0.046022 0.000000
# 6 0.000000 0.000000 0.000000 0.000000 0.000000 0.032036
#
#
# Mechanical properties :
#
#
# Convention : Reuss Voigt Hill
#
# Bulk Modulus (GPa) = 38.71871 49.74120 44.22996
# Shear Modulus (GPa) = 22.09738 25.09490 23.59614
#
# Velocity S-wave (km/s) = 3.52573 3.75726 3.64333
# Velocity P-wave (km/s) = 6.19317 6.84136 6.52532
#
# Compressibility (1/GPa) = 0.02582731
#
# Stress axis : x y z
#
# Youngs Moduli (GPa) = 28.42435 77.98123 72.82405
#
# Poissons Ratio (x) = 0.71820 0.42647
# Poissons Ratio (y) = 0.26179 0.21035
# Poissons Ratio (z) = 0.16646 0.22524
#
# Static dielectric constant tensor:
#      x y z
#    x 3.198910 0.000000 0.000000 
#    y 0.000000 3.414590 0.000000 
#    z 0.000000 0.000000 3.224470 
# 
# 
# High freq. dielectric constant tensor:
#      x y z
#    x 1.677350 0.000000 0.000000 
#    y 0.000000 1.695690 0.000000 
#    z 0.000000 0.000000 1.662330 
# 
# From -- ./inp_files/9782.got.cif
#   From: 2010.03.12/outbox.cif.g09.slc.cpg/sg46_5_cif.got.tgz:9782.got - 2010.04.14 02:56:35.
