data_PCOD8191699
_publ_section_title
;
Structure prediction by ZEFSAII (Michael W. Deem and Ramdas Pophale) SiO2 
 PCOD8191699
Probable space group: I M A 2
;
_chemical_formula_sum "Si O2"
_cell_formula_units_Z 64
_cell_length_a 14.141981
_cell_length_b 16.845020
_cell_length_c 15.027868
_cell_angle_alpha 90.000000
_cell_angle_beta 90.000000
_cell_angle_gamma 90.000000
_cell_volume 3579.968061
_symmetry_space_group_name_H-M "I M A 2"
_symmetry_group_IT_number 46
_symmetry_cell_setting 'orthorhombic'
loop_
_space_group_symop_operation_xyz
x,y,z
-x,-y,z
1/2-x,y,z
1/2+x,-y,z
1/2+x,1/2+y,1/2+z
1/2-x,1/2-y,1/2+z
-x,1/2+y,1/2+z
x,1/2-y,1/2+z
loop_
_atom_site_type_symbol
_atom_site_label
_atom_site_fract_x
_atom_site_fract_y
_atom_site_fract_z
Si Si1 0.143046 0.931816 0.926070
Si Si2 0.043297 0.611615 0.254761
Si Si3 0.640921 0.773606 0.368227
Si Si4 0.523828 0.731308 0.695837
Si Si5 0.516328 0.412608 0.588628
Si Si6 0.141589 0.169914 0.557030
Si Si7 0.144109 0.390759 0.451442
Si Si8 0.359550 0.461312 0.191841
O O1 0.250000 0.901571 0.917430
O O2 0.077279 0.886352 0.856398
O O3 0.133032 0.024822 0.901387
O O4 0.107807 0.914513 0.025263
O O5 0.107959 0.553581 0.192578
O O6 0.053516 0.701081 0.218903
O O7 0.932536 0.586021 0.255416
O O8 0.750000 0.792569 0.348518
O O9 0.582031 0.797606 0.281814
O O10 0.604940 0.823287 0.455097
O O11 0.623133 0.679920 0.382840
O O12 0.467152 0.653206 0.664138
O O13 0.590205 0.766283 0.618905
O O14 0.500000 0.500000 0.630884
O O15 0.424125 0.386011 0.535088
O O16 0.250000 0.196683 0.557989
O O17 0.130068 0.079402 0.593950
O O18 0.250000 0.382384 0.489845
O O19 0.250000 0.453730 0.225320
#
# Coordination Sequence:
#
# PCOD8191699 Si02
#       8
#     8   8   8   8   8   8   8   8
#     4  10  21  36  54  79 109 142 177 227 279 336
#     4  10  21  32  53  83 113 143 182 218 282 336
#     4  10  19  30  51  83 114 147 175 214 284 344
#     4  11  21  33  53  78 112 143 186 232 267 322
#     4  10  21  36  56  76 106 142 186 228 273 324
#     4   9  18  32  51  80 116 148 174 212 276 342
#     4   9  18  31  53  83 112 136 165 212 283 348
#     4   9  19  33  51  78 116 146 174 218 266 329
#
# _framework density 17.877254000000001
#
# number of rings (size 3 to 8) (size 9 to 14) (size 15 to 20)
#    0.000    2.250    1.250    1.500   10.500    1.000 
#    0.000    1.250    5.500    0.000    0.000    0.000 
#    0.000    0.000    0.000    0.000    0.000    0.000 
#
# Total GULP energy -396631.570632 kJ/mol
# GULP energy per Si atom -12394.736582 kJ/mol
# Density = 1.783656 g / cm^3
# Si number density = 17.877254 Si / 1000 Ang^3
#
#
#
# Elastic Constant Matrix: (Units=GPa)
#
#
# Indices 1 2 3 4 5 6 
#
# 1 83.8150 37.9983 35.0433 0.0000 0.0000 0.0000
# 2 37.9983 106.6571 57.1315 0.0000 0.0000 0.0000
# 3 35.0433 57.1315 99.3752 -0.0001 0.0000 0.0000
# 4 0.0000 0.0000 -0.0001 34.5969 0.0000 0.0000
# 5 0.0000 0.0000 0.0000 0.0000 17.7092 0.0000
# 6 0.0000 0.0000 0.0000 0.0000 0.0000 18.3616
#
#
#
# Elastic Compliance Matrix: (Units=1/GPa)
#
#
# Indices 1 2 3 4 5 6 
#
# 1 0.014894 -0.003602 -0.003181 0.000000 0.000000 0.000000
# 2 -0.003602 0.014419 -0.007019 0.000000 0.000000 0.000000
# 3 -0.003181 -0.007019 0.015220 0.000000 0.000000 0.000000
# 4 0.000000 0.000000 0.000000 0.028904 0.000000 0.000000
# 5 0.000000 0.000000 0.000000 0.000000 0.056468 0.000000
# 6 0.000000 0.000000 0.000000 0.000000 0.000000 0.054461
#
#
# Mechanical properties :
#
#
# Convention : Reuss Voigt Hill
#
# Bulk Modulus (GPa) = 59.07456 61.13262 60.10359
# Shear Modulus (GPa) = 22.97629 24.77849 23.87739
#
# Velocity S-wave (km/s) = 3.58889 3.72699 3.65859
# Velocity P-wave (km/s) = 7.09153 7.26571 7.17915
#
# Compressibility (1/GPa) = 0.01692776
#
# Stress axis : x y z
#
# Youngs Moduli (GPa) = 67.13998 69.35207 65.70201
#
# Poissons Ratio (x) = 0.24982 0.20902
# Poissons Ratio (y) = 0.24185 0.46119
# Poissons Ratio (z) = 0.21359 0.48681
#
# Static dielectric constant tensor:
#      x y z
#    x 3.281130 0.000000 0.000000 
#    y 0.000000 3.380920 0.000000 
#    z 0.000000 0.000000 3.203140 
# 
# 
# High freq. dielectric constant tensor:
#      x y z
#    x 1.682350 0.000000 0.000000 
#    y 0.000000 1.676150 0.000000 
#    z 0.000000 0.000000 1.676390 
# 
# From -- ./inp_files/16198.got.cif
#   From: 2010.03.12/outbox.cif.g09.slc.cpg/sg46_9_cif.got.tgz:16198.got - 2010.04.14 02:56:35.
