data_PCOD8191792
_publ_section_title
;
Structure prediction by ZEFSAII (Michael W. Deem and Ramdas Pophale) SiO2 
 PCOD8191792
Probable space group: I M A 2
;
_chemical_formula_sum "Si O2"
_cell_formula_units_Z 64
_cell_length_a 9.275982
_cell_length_b 20.605481
_cell_length_c 19.407538
_cell_angle_alpha 90.000000
_cell_angle_beta 90.000000
_cell_angle_gamma 90.000000
_cell_volume 3709.480558
_symmetry_space_group_name_H-M "I M A 2"
_symmetry_group_IT_number 46
_symmetry_cell_setting 'orthorhombic'
loop_
_space_group_symop_operation_xyz
x,y,z
-x,-y,z
1/2-x,y,z
1/2+x,-y,z
1/2+x,1/2+y,1/2+z
1/2-x,1/2-y,1/2+z
-x,1/2+y,1/2+z
x,1/2-y,1/2+z
loop_
_atom_site_type_symbol
_atom_site_label
_atom_site_fract_x
_atom_site_fract_y
_atom_site_fract_z
Si Si1 0.418590 0.874978 0.493380
Si Si2 0.915666 0.881566 0.627355
Si Si3 0.414199 0.244792 0.987804
Si Si4 0.420953 0.691340 0.767609
Si Si5 0.914509 0.730299 0.639272
Si Si6 0.081317 0.063299 0.772062
Si Si7 0.416111 0.306224 0.342881
Si Si8 0.417310 0.563970 0.849946
O O1 0.250000 0.866437 0.505828
O O2 0.489235 0.904148 0.562459
O O3 0.482038 0.805057 0.474604
O O4 0.451865 0.922620 0.430055
O O5 0.750000 0.892057 0.607094
O O6 0.944249 0.806910 0.647098
O O7 0.960322 0.924685 0.692502
O O8 0.250000 0.271617 0.991556
O O9 0.449906 0.209519 0.060370
O O10 0.433347 0.194247 0.925620
O O11 0.250000 0.699863 0.767449
O O12 0.480029 0.690864 0.689534
O O13 0.489028 0.750491 0.809280
O O14 0.468452 0.624501 0.803655
O O15 0.750000 0.713760 0.658991
O O16 0.250000 0.052037 0.781173
O O17 0.028812 0.124051 0.817564
O O18 0.000000 0.000000 0.799428
O O19 0.250000 0.295120 0.320184
O O20 0.500000 0.500000 0.825265
O O21 0.250000 0.551036 0.838379
#
# Coordination Sequence:
#
# PCOD8191792 Si02
#       8
#     8   8   8   8   8   8   8   8
#     4  10  19  32  49  74 107 137 170 215 258 302
#     4   9  18  33  50  72 104 140 178 213 245 304
#     4   9  18  32  54  79 103 135 174 212 256 309
#     4  11  21  34  53  80 108 134 170 218 264 307
#     4   9  17  32  52  78 105 132 173 215 255 308
#     4  10  21  36  52  74 106 139 177 218 257 306
#     4  10  19  35  57  78 102 138 177 215 258 308
#     4  10  23  38  51  73 105 138 176 217 259 310
#
# _framework density 17.25309
#
# number of rings (size 3 to 8) (size 9 to 14) (size 15 to 20)
#    0.000    2.250    2.500    1.500    0.000    5.500 
#    0.000    2.500    0.000    0.750    0.000    3.500 
#    0.000    0.000    0.000    0.000    0.000    0.000 
#
# Total GULP energy -396819.287481 kJ/mol
# GULP energy per Si atom -12400.602734 kJ/mol
# Density = 1.721382 g / cm^3
# Si number density = 17.253090 Si / 1000 Ang^3
#
#
#
# Elastic Constant Matrix: (Units=GPa)
#
#
# Indices 1 2 3 4 5 6 
#
# 1 71.3647 52.0742 48.5409 0.0000 0.0000 0.0000
# 2 52.0742 113.9592 61.8459 0.0000 0.0000 0.0000
# 3 48.5409 61.8459 105.4428 0.0000 0.0000 0.0000
# 4 0.0000 0.0000 0.0000 22.1608 0.0000 0.0000
# 5 0.0000 0.0000 0.0000 0.0000 26.1348 0.0000
# 6 0.0000 0.0000 0.0000 0.0000 0.0000 28.1276
#
#
#
# Elastic Compliance Matrix: (Units=1/GPa)
#
#
# Indices 1 2 3 4 5 6 
#
# 1 0.023896 -0.007261 -0.006742 0.000000 0.000000 0.000000
# 2 -0.007261 0.015079 -0.005502 0.000000 0.000000 0.000000
# 3 -0.006742 -0.005502 0.015815 0.000000 0.000000 0.000000
# 4 0.000000 0.000000 0.000000 0.045125 0.000000 0.000000
# 5 0.000000 0.000000 0.000000 0.000000 0.038263 0.000000
# 6 0.000000 0.000000 0.000000 0.000000 0.000000 0.035552
#
#
# Mechanical properties :
#
#
# Convention : Reuss Voigt Hill
#
# Bulk Modulus (GPa) = 63.36889 68.40986 65.88937
# Shear Modulus (GPa) = 22.93588 23.83834 23.38711
#
# Velocity S-wave (km/s) = 3.65002 3.72113 3.68575
# Velocity P-wave (km/s) = 7.38730 7.62885 7.50905
#
# Compressibility (1/GPa) = 0.01578061
#
# Stress axis : x y z
#
# Youngs Moduli (GPa) = 41.84724 66.31902 63.23288
#
# Poissons Ratio (x) = 0.48151 0.42633
# Poissons Ratio (y) = 0.30384 0.34789
# Poissons Ratio (z) = 0.28214 0.36487
#
# Static dielectric constant tensor:
#      x y z
#    x 3.174160 0.000000 0.000000 
#    y 0.000000 2.972140 0.000000 
#    z 0.000000 0.000000 3.454130 
# 
# 
# High freq. dielectric constant tensor:
#      x y z
#    x 1.665620 0.000000 0.000000 
#    y 0.000000 1.637110 0.000000 
#    z 0.000000 0.000000 1.673800 
# 
# From -- ./inp_files/21319.got.cif
#   From: 2010.03.12/outbox.cif.g09.slc.cpg/sg46_11_cif.got.tgz:21319.got - 2010.04.14 02:56:35.
