data_PCOD8191449
_publ_section_title
;
Structure prediction by ZEFSAII (Michael W. Deem and Ramdas Pophale) SiO2 
 PCOD8191449
Probable space group: I M A 2
;
_chemical_formula_sum "Si O2"
_cell_formula_units_Z 64
_cell_length_a 8.736581
_cell_length_b 18.682059
_cell_length_c 21.503971
_cell_angle_alpha 90.000000
_cell_angle_beta 90.000000
_cell_angle_gamma 90.000000
_cell_volume 3509.820553
_symmetry_space_group_name_H-M "I M A 2"
_symmetry_group_IT_number 46
_symmetry_cell_setting 'orthorhombic'
loop_
_space_group_symop_operation_xyz
x,y,z
-x,-y,z
1/2-x,y,z
1/2+x,-y,z
1/2+x,1/2+y,1/2+z
1/2-x,1/2-y,1/2+z
-x,1/2+y,1/2+z
x,1/2-y,1/2+z
loop_
_atom_site_type_symbol
_atom_site_label
_atom_site_fract_x
_atom_site_fract_y
_atom_site_fract_z
Si Si1 0.432478 0.922594 0.187760
Si Si2 0.072049 0.680589 0.577949
Si Si3 0.430475 0.213164 0.496253
Si Si4 0.070015 0.782263 0.875682
Si Si5 0.929313 0.363898 0.817196
Si Si6 0.079961 0.431313 0.502968
Si Si7 0.079979 0.070789 0.857375
Si Si8 0.068249 0.925153 0.446082
O O1 0.250000 0.927893 0.186963
O O2 0.487917 0.862617 0.138222
O O3 0.500622 0.895911 0.253981
O O4 0.500000 0.000000 0.171068
O O5 0.250000 0.697805 0.582909
O O6 0.982347 0.754438 0.563396
O O7 0.033531 0.633518 0.517267
O O8 0.250000 0.205583 0.494066
O O9 0.482361 0.264392 0.439473
O O10 0.507790 0.135622 0.492343
O O11 0.250000 0.784882 0.890652
O O12 0.032227 0.720206 0.825301
O O13 0.016190 0.856906 0.845000
O O14 0.750000 0.375144 0.813435
O O15 0.992872 0.407809 0.876460
O O16 0.250000 0.419618 0.531706
O O17 0.094356 0.442065 0.430187
O O18 0.000000 0.500000 0.534278
O O19 0.250000 0.078932 0.828359
O O20 0.000000 0.000000 0.827645
O O21 0.250000 0.926491 0.448871
O O22 0.000000 0.000000 0.468617
#
# Coordination Sequence:
#
# PCOD8191449 Si02
#       8
#     8   8   8   8   8   8   8   8
#     4  10  21  36  52  73 102 136 176 213 248 291
#     4  11  21  32  48  68  96 133 170 209 248 293
#     4  11  21  33  49  71 100 132 167 208 252 304
#     4  10  18  31  51  72  98 130 166 209 257 306
#     4   8  17  33  52  74 101 134 170 209 252 298
#     4  10  19  29  42  61  90 127 163 201 238 285
#     4  10  19  29  43  66  96 129 162 200 244 296
#     4  10  19  33  54  79 105 133 165 205 255 307
#
# _framework density 18.234549000000001
#
# number of rings (size 3 to 8) (size 9 to 14) (size 15 to 20)
#    0.000    2.000    1.250    4.500    0.000    3.000 
#    0.000    3.125    0.000    0.000    0.000    0.875 
#    0.000    4.000    0.000    0.000    0.000    0.000 
#
# Total GULP energy -396639.619463 kJ/mol
# GULP energy per Si atom -12394.988108 kJ/mol
# Density = 1.819305 g / cm^3
# Si number density = 18.234549 Si / 1000 Ang^3
#
#
#
# Elastic Constant Matrix: (Units=GPa)
#
#
# Indices 1 2 3 4 5 6 
#
# 1 82.0277 38.6744 22.8512 0.0000 0.0000 0.0000
# 2 38.6744 146.9270 41.8403 0.0000 0.0000 0.0000
# 3 22.8512 41.8403 61.6134 0.0000 0.0000 0.0000
# 4 0.0000 0.0000 0.0000 18.0490 0.0000 0.0000
# 5 0.0000 0.0000 0.0000 0.0000 12.4550 0.0000
# 6 0.0000 0.0000 0.0000 0.0000 0.0000 33.0391
#
#
#
# Elastic Compliance Matrix: (Units=1/GPa)
#
#
# Indices 1 2 3 4 5 6 
#
# 1 0.014487 -0.002831 -0.003451 0.000000 0.000000 0.000000
# 2 -0.002831 0.008991 -0.005056 0.000000 0.000000 0.000000
# 3 -0.003451 -0.005056 0.020943 0.000000 0.000000 0.000000
# 4 0.000000 0.000000 0.000000 0.055405 0.000000 0.000000
# 5 0.000000 0.000000 0.000000 0.000000 0.080289 0.000000
# 6 0.000000 0.000000 0.000000 0.000000 0.000000 0.030267
#
#
# Mechanical properties :
#
#
# Convention : Reuss Voigt Hill
#
# Bulk Modulus (GPa) = 45.98335 55.25554 50.61945
# Shear Modulus (GPa) = 20.80692 25.18878 22.99785
#
# Velocity S-wave (km/s) = 3.38164 3.72072 3.55522
# Velocity P-wave (km/s) = 6.36551 6.98762 6.68381
#
# Compressibility (1/GPa) = 0.02174700
#
# Stress axis : x y z
#
# Youngs Moduli (GPa) = 69.02796 111.22381 47.74815
#
# Poissons Ratio (x) = 0.31483 0.16476
# Poissons Ratio (y) = 0.19539 0.24140
# Poissons Ratio (z) = 0.23819 0.56231
#
# Static dielectric constant tensor:
#      x y z
#    x 3.383460 0.000000 0.000000 
#    y 0.000000 3.582990 0.000000 
#    z 0.000000 0.000000 3.165370 
# 
# 
# High freq. dielectric constant tensor:
#      x y z
#    x 1.708280 0.000000 0.000000 
#    y 0.000000 1.715350 0.000000 
#    z 0.000000 0.000000 1.652870 
# 
# From -- ./inp_files/23279.got.cif
#   From: 2010.03.12/outbox.cif.g09.slc.cpg/sg46_12_cif.got.tgz:23279.got - 2010.04.14 02:56:35.
