data_PCOD8191440
_publ_section_title
;
Structure prediction by ZEFSAII (Michael W. Deem and Ramdas Pophale) SiO2 
 PCOD8191440
Probable space group: I M A 2
;
_chemical_formula_sum "Si O2"
_cell_formula_units_Z 64
_cell_length_a 13.698815
_cell_length_b 27.966265
_cell_length_c 9.915370
_cell_angle_alpha 90.000000
_cell_angle_beta 90.000000
_cell_angle_gamma 90.000000
_cell_volume 3798.624755
_symmetry_space_group_name_H-M "I M A 2"
_symmetry_group_IT_number 46
_symmetry_cell_setting 'orthorhombic'
loop_
_space_group_symop_operation_xyz
x,y,z
-x,-y,z
1/2-x,y,z
1/2+x,-y,z
1/2+x,1/2+y,1/2+z
1/2-x,1/2-y,1/2+z
-x,1/2+y,1/2+z
x,1/2-y,1/2+z
loop_
_atom_site_type_symbol
_atom_site_label
_atom_site_fract_x
_atom_site_fract_y
_atom_site_fract_z
Si Si1 0.133603 0.106175 0.386320
Si Si2 0.135072 0.039356 0.623896
Si Si3 0.141689 0.523368 0.563993
Si Si4 0.458805 0.389010 0.321081
Si Si5 0.639161 0.445828 0.262014
Si Si6 0.861627 0.790156 0.464521
Si Si7 0.952674 0.925082 0.114657
Si Si8 0.363453 0.289642 0.267972
O O1 0.250000 0.104146 0.368779
O O2 0.096776 0.062808 0.483733
O O3 0.096676 0.156110 0.451376
O O4 0.080371 0.104951 0.243149
O O5 0.250000 0.036866 0.618010
O O6 0.110408 0.072493 0.750736
O O7 0.099297 0.984360 0.650169
O O8 0.250000 0.537735 0.613636
O O9 0.131948 0.526621 0.403446
O O10 0.121214 0.469087 0.603131
O O11 0.064225 0.557860 0.636689
O O12 0.569345 0.399572 0.268144
O O13 0.447358 0.392530 0.481953
O O14 0.429977 0.335995 0.281551
O O15 0.750000 0.428921 0.231893
O O16 0.750000 0.793085 0.419833
O O17 0.909318 0.751365 0.363795
O O18 0.873965 0.770871 0.615681
O O19 0.250000 0.302078 0.301456
#
# Coordination Sequence:
#
# PCOD8191440 Si02
#       8
#     8   8   8   8   8   8   8   8
#     4  10  20  33  47  70 105 134 161 202 245 291
#     4  10  18  31  50  71 101 135 163 197 246 293
#     4   9  17  32  48  67  99 129 164 209 238 276
#     4  11  19  31  51  75  96 128 171 206 238 298
#     4   9  18  32  51  72  96 129 168 212 247 284
#     4   9  19  34  48  69 101 130 158 197 246 297
#     4  10  20  30  47  73  95 130 171 197 239 292
#     4  10  20  33  50  73  99 129 162 199 247 299
#
# _framework density 16.848203000000002
#
# number of rings (size 3 to 8) (size 9 to 14) (size 15 to 20)
#    0.000    2.250    2.500    1.125    1.750    1.500 
#    4.500    0.000    0.000    0.000    0.000    1.750 
#    0.000    0.000    0.000    0.000    0.000    0.000 
#
# Total GULP energy -396649.644101 kJ/mol
# GULP energy per Si atom -12395.301378 kJ/mol
# Density = 1.680986 g / cm^3
# Si number density = 16.848203 Si / 1000 Ang^3
#
#
#
# Elastic Constant Matrix: (Units=GPa)
#
#
# Indices 1 2 3 4 5 6 
#
# 1 47.8715 38.5847 38.2131 0.0006 0.0001 -0.0001
# 2 38.5847 81.9043 40.5819 -0.0002 0.0000 0.0000
# 3 38.2131 40.5819 87.4280 -0.0042 0.0001 0.0003
# 4 0.0006 -0.0002 -0.0042 28.4088 0.0000 0.0002
# 5 0.0001 0.0000 0.0001 0.0000 18.2309 -0.0001
# 6 -0.0001 0.0000 0.0003 0.0002 -0.0001 19.3683
#
#
#
# Elastic Compliance Matrix: (Units=1/GPa)
#
#
# Indices 1 2 3 4 5 6 
#
# 1 0.041189 -0.013615 -0.011683 -0.000003 0.000000 0.000000
# 2 -0.013615 0.020357 -0.003498 0.000000 0.000000 0.000000
# 3 -0.011683 -0.003498 0.018168 0.000003 0.000000 0.000000
# 4 -0.000003 0.000000 0.000003 0.035200 0.000000 0.000000
# 5 0.000000 0.000000 0.000000 0.000000 0.054852 0.000000
# 6 0.000000 0.000000 0.000000 0.000000 0.000000 0.051631
#
#
# Mechanical properties :
#
#
# Convention : Reuss Voigt Hill
#
# Bulk Modulus (GPa) = 45.20575 50.21814 47.71194
# Shear Modulus (GPa) = 17.46027 19.85652 18.65839
#
# Velocity S-wave (km/s) = 3.22270 3.43673 3.33143
# Velocity P-wave (km/s) = 6.38257 6.75419 6.57101
#
# Compressibility (1/GPa) = 0.02212108
#
# Stress axis : x y z
#
# Youngs Moduli (GPa) = 24.27810 49.12380 55.04117
#
# Poissons Ratio (x) = 0.66884 0.64306
# Poissons Ratio (y) = 0.33055 0.19254
# Poissons Ratio (z) = 0.28365 0.17184
#
# Static dielectric constant tensor:
#      x y z
#    x 3.133940 0.000000 0.000000 
#    y 0.000000 3.110330 0.000000 
#    z 0.000000 0.000000 3.213490 
# 
# 
# High freq. dielectric constant tensor:
#      x y z
#    x 1.625190 0.000000 0.000000 
#    y 0.000000 1.629520 0.000000 
#    z 0.000000 0.000000 1.650930 
# 
# From -- ./inp_files/6119.got.cif
#   From: 2010.03.12/outbox.cif.g09.slc.cpg/sg46_4_cif.got.tgz:6119.got - 2010.04.14 02:56:35.
