data_PCOD8191179
_publ_section_title
;
Structure prediction by ZEFSAII (Michael W. Deem and Ramdas Pophale) SiO2 
 PCOD8191179
Probable space group: I M A 2
;
_chemical_formula_sum "Si O2"
_cell_formula_units_Z 56
_cell_length_a 9.072533
_cell_length_b 22.309219
_cell_length_c 17.572105
_cell_angle_alpha 90.000000
_cell_angle_beta 90.000000
_cell_angle_gamma 90.000000
_cell_volume 3556.613831
_symmetry_space_group_name_H-M "I M A 2"
_symmetry_group_IT_number 46
_symmetry_cell_setting 'orthorhombic'
loop_
_space_group_symop_operation_xyz
x,y,z
-x,-y,z
1/2-x,y,z
1/2+x,-y,z
1/2+x,1/2+y,1/2+z
1/2-x,1/2-y,1/2+z
-x,1/2+y,1/2+z
x,1/2-y,1/2+z
loop_
_atom_site_type_symbol
_atom_site_label
_atom_site_fract_x
_atom_site_fract_y
_atom_site_fract_z
Si Si1 0.081013 0.216063 0.250000
Si Si2 0.424591 0.063282 0.835722
Si Si3 0.573596 0.350772 0.450850
Si Si4 0.583493 0.183733 0.559153
Si Si5 0.078257 0.153285 0.701733
Si Si6 0.923068 0.726129 0.919431
Si Si7 0.586799 0.179988 0.113523
O O1 0.250000 0.213106 0.229131
O O2 0.025195 0.284302 0.239235
O O3 0.050634 0.196204 0.336679
O O4 0.006511 0.170317 0.190223
O O5 0.250000 0.057473 0.849872
O O6 0.500311 0.093447 0.908671
O O7 0.460331 0.101067 0.760416
O O8 0.500000 0.000000 0.822647
O O9 0.750000 0.348706 0.438994
O O10 0.504726 0.289688 0.419109
O O11 0.533412 0.358634 0.540671
O O12 0.750000 0.161965 0.543812
O O13 0.509887 0.141512 0.623223
O O14 0.490482 0.180227 0.480967
O O15 0.579106 0.251414 0.587780
O O16 0.250000 0.154673 0.681856
O O17 0.750000 0.736926 0.935038
O O18 0.750000 0.160601 0.136065
#
# Coordination Sequence:
#
# PCOD8191179 Si02
#       7
#     8   8   8   8   8   8   8
#     4   9  16  26  41  62  86 115 149 178 213 262
#     4  11  22  35  49  67  88 116 155 193 231 269
#     4  10  19  31  45  62  85 116 151 188 227 265
#     4   9  17  27  40  62  85 112 148 181 219 265
#     4   9  17  31  45  59  83 115 149 184 223 265
#     4  10  17  27  42  63  90 120 150 181 218 265
#     4   8  16  27  39  59  84 111 144 178 217 262
#
# _framework density 15.745312999999999
#
# number of rings (size 3 to 8) (size 9 to 14) (size 15 to 20)
#    0.000    2.571    1.429    2.571    0.000    6.286 
#    0.000    0.000    0.000    0.000    0.000    0.000 
#    0.000    1.143    0.000    6.286    0.000    4.857 
#
# Total GULP energy -347064.157156 kJ/mol
# GULP energy per Si atom -12395.148470 kJ/mol
# Density = 1.570948 g / cm^3
# Si number density = 15.745313 Si / 1000 Ang^3
#
#
#
# Elastic Constant Matrix: (Units=GPa)
#
#
# Indices 1 2 3 4 5 6 
#
# 1 93.5995 30.3824 71.7135 0.0000 0.0000 0.0000
# 2 30.3824 43.2663 42.2457 0.0000 0.0000 0.0000
# 3 71.7135 42.2457 141.6246 -0.0001 0.0000 0.0000
# 4 0.0000 0.0000 -0.0001 15.9965 0.0000 0.0000
# 5 0.0000 0.0000 0.0000 0.0000 29.2851 0.0000
# 6 0.0000 0.0000 0.0000 0.0000 0.0000 17.7495
#
#
#
# Elastic Compliance Matrix: (Units=1/GPa)
#
#
# Indices 1 2 3 4 5 6 
#
# 1 0.018298 -0.005365 -0.007665 0.000000 0.000000 0.000000
# 2 -0.005365 0.034184 -0.007480 0.000000 0.000000 0.000000
# 3 -0.007665 -0.007480 0.013174 0.000000 0.000000 0.000000
# 4 0.000000 0.000000 0.000000 0.062514 0.000000 0.000000
# 5 0.000000 0.000000 0.000000 0.000000 0.034147 0.000000
# 6 0.000000 0.000000 0.000000 0.000000 0.000000 0.056340
#
#
# Mechanical properties :
#
#
# Convention : Reuss Voigt Hill
#
# Bulk Modulus (GPa) = 40.59286 63.01931 51.80608
# Shear Modulus (GPa) = 18.66451 21.54946 20.10698
#
# Velocity S-wave (km/s) = 3.44670 3.70351 3.57741
# Velocity P-wave (km/s) = 6.45574 7.64193 7.07374
#
# Compressibility (1/GPa) = 0.02463488
#
# Stress axis : x y z
#
# Youngs Moduli (GPa) = 54.65030 29.25366 75.90940
#
# Poissons Ratio (x) = 0.15694 0.58186
# Poissons Ratio (y) = 0.29319 0.56782
# Poissons Ratio (z) = 0.41891 0.21882
#
# Static dielectric constant tensor:
#      x y z
#    x 3.146060 0.000000 0.000000 
#    y 0.000000 2.502280 0.000000 
#    z 0.000000 0.000000 3.299400 
# 
# 
# High freq. dielectric constant tensor:
#      x y z
#    x 1.617980 0.000000 0.000000 
#    y 0.000000 1.531260 0.000000 
#    z 0.000000 0.000000 1.619030 
# 
# From -- ./inp_files/18437.got.cif
#   From: 2010.03.12/outbox.cif.g09.slc.cpg/sg46_10_cif.got.tgz:18437.got - 2010.04.14 02:56:35.
