data_PCOD8191186
_publ_section_title
;
Structure prediction by ZEFSAII (Michael W. Deem and Ramdas Pophale) SiO2 
 PCOD8191186
Probable space group: I M A 2
;
_chemical_formula_sum "Si O2"
_cell_formula_units_Z 64
_cell_length_a 8.676693
_cell_length_b 20.746882
_cell_length_c 22.086784
_cell_angle_alpha 90.000000
_cell_angle_beta 90.000000
_cell_angle_gamma 90.000000
_cell_volume 3975.937531
_symmetry_space_group_name_H-M "I M A 2"
_symmetry_group_IT_number 46
_symmetry_cell_setting 'orthorhombic'
loop_
_space_group_symop_operation_xyz
x,y,z
-x,-y,z
1/2-x,y,z
1/2+x,-y,z
1/2+x,1/2+y,1/2+z
1/2-x,1/2-y,1/2+z
-x,1/2+y,1/2+z
x,1/2-y,1/2+z
loop_
_atom_site_type_symbol
_atom_site_label
_atom_site_fract_x
_atom_site_fract_y
_atom_site_fract_z
Si Si1 0.422981 0.649974 0.709410
Si Si2 0.929929 0.764199 0.118108
Si Si3 0.429976 0.067701 0.306304
Si Si4 0.069763 0.676805 0.027969
Si Si5 0.427655 0.179669 0.399132
Si Si6 0.920996 0.237213 0.807167
Si Si7 0.068626 0.842999 0.701036
Si Si8 0.432838 0.431513 0.112252
O O1 0.250000 0.629480 0.693358
O O2 0.508050 0.668899 0.646725
O O3 0.504806 0.589480 0.741243
O O4 0.427133 0.710465 0.754033
O O5 0.750000 0.771052 0.105479
O O6 0.015660 0.745877 0.055306
O O7 0.963324 0.706362 0.163978
O O8 0.250000 0.060443 0.299193
O O9 0.473643 0.118686 0.358198
O O10 0.500000 0.000000 0.326542
O O11 0.250000 0.666619 0.039053
O O12 0.977767 0.618921 0.059929
O O13 0.035203 0.676894 0.957118
O O14 0.250000 0.179062 0.418500
O O15 0.460705 0.245004 0.360589
O O16 0.750000 0.234512 0.835673
O O17 0.961072 0.169205 0.773176
O O18 0.250000 0.832574 0.686367
O O19 0.010844 0.912578 0.677376
O O20 0.500000 0.500000 0.092230
O O21 0.250000 0.434805 0.118891
#
# Coordination Sequence:
#
# PCOD8191186 Si02
#       8
#     8   8   8   8   8   8   8   8
#     4   9  16  28  45  64  86 111 142 180 223 267
#     4  10  17  27  44  65  87 110 141 180 224 268
#     4  10  20  32  46  64  88 119 153 188 224 263
#     4  11  21  33  47  63  87 119 154 188 224 263
#     4  10  20  32  45  63  88 118 154 190 223 261
#     4   8  15  27  44  64  85 110 140 177 222 267
#     4   9  16  28  45  65  87 111 142 179 222 266
#     4  11  21  33  47  64  88 118 153 188 224 263
#
# _framework density 16.096831999999999
#
# number of rings (size 3 to 8) (size 9 to 14) (size 15 to 20)
#    0.000    2.250    0.000    7.125    0.000    5.500 
#    0.000    1.250    0.000    0.000    0.000    0.000 
#    0.000    1.000    0.000    7.000    0.000    6.000 
#
# Total GULP energy -396631.474766 kJ/mol
# GULP energy per Si atom -12394.733586 kJ/mol
# Density = 1.606019 g / cm^3
# Si number density = 16.096832 Si / 1000 Ang^3
#
#
#
# Elastic Constant Matrix: (Units=GPa)
#
#
# Indices 1 2 3 4 5 6 
#
# 1 96.7220 24.8065 41.8857 0.0000 0.0000 0.0000
# 2 24.8065 31.0758 47.7192 0.0000 0.0000 0.0000
# 3 41.8857 47.7192 78.2587 0.0000 0.0000 0.0000
# 4 0.0000 0.0000 0.0000 15.5076 0.0000 0.0000
# 5 0.0000 0.0000 0.0000 0.0000 26.4768 0.0000
# 6 0.0000 0.0000 0.0000 0.0000 0.0000 25.0345
#
#
#
# Elastic Compliance Matrix: (Units=1/GPa)
#
#
# Indices 1 2 3 4 5 6 
#
# 1 0.013508 0.005010 -0.010285 0.000000 0.000000 0.000000
# 2 0.005010 0.507304 -0.312016 0.000000 0.000000 0.000000
# 3 -0.010285 -0.312016 0.208538 0.000000 0.000000 0.000000
# 4 0.000000 0.000000 0.000000 0.064484 0.000000 0.000000
# 5 0.000000 0.000000 0.000000 0.000000 0.037769 0.000000
# 6 0.000000 0.000000 0.000000 0.000000 0.000000 0.039945
#
#
# Mechanical properties :
#
#
# Convention : Reuss Voigt Hill
#
# Bulk Modulus (GPa) = 10.55202 48.31990 29.43596
# Shear Modulus (GPa) = 3.25157 19.51346 11.38252
#
# Velocity S-wave (km/s) = 1.42281 3.48552 2.66207
# Velocity P-wave (km/s) = 3.04446 6.80308 5.27023
#
# Compressibility (1/GPa) = 0.09476860
#
# Stress axis : x y z
#
# Youngs Moduli (GPa) = 74.03176 1.97121 4.79529
#
# Poissons Ratio (x) = -0.00988 0.04932
# Poissons Ratio (y) = -0.37091 1.49621
# Poissons Ratio (z) = 0.76139 0.61505
#
# Static dielectric constant tensor:
#      x y z
#    x 3.137080 0.000000 0.000000 
#    y 0.000000 2.991020 0.000000 
#    z 0.000000 0.000000 3.073130 
# 
# 
# High freq. dielectric constant tensor:
#      x y z
#    x 1.637830 0.000000 0.000000 
#    y 0.000000 1.580720 0.000000 
#    z 0.000000 0.000000 1.597660 
# 
# From -- ./inp_files/21503.got.cif
#   From: 2010.03.12/outbox.cif.g09.slc.cpg/sg46_11_cif.got.tgz:21503.got - 2010.04.14 02:56:35.
