data_PCOD8191426
_publ_section_title
;
Structure prediction by ZEFSAII (Michael W. Deem and Ramdas Pophale) SiO2 
 PCOD8191426
Probable space group: I M A 2
;
_chemical_formula_sum "Si O2"
_cell_formula_units_Z 64
_cell_length_a 8.985977
_cell_length_b 19.598813
_cell_length_c 20.733410
_cell_angle_alpha 90.000000
_cell_angle_beta 90.000000
_cell_angle_gamma 90.000000
_cell_volume 3651.453780
_symmetry_space_group_name_H-M "I M A 2"
_symmetry_group_IT_number 46
_symmetry_cell_setting 'orthorhombic'
loop_
_space_group_symop_operation_xyz
x,y,z
-x,-y,z
1/2-x,y,z
1/2+x,-y,z
1/2+x,1/2+y,1/2+z
1/2-x,1/2-y,1/2+z
-x,1/2+y,1/2+z
x,1/2-y,1/2+z
loop_
_atom_site_type_symbol
_atom_site_label
_atom_site_fract_x
_atom_site_fract_y
_atom_site_fract_z
Si Si1 0.075553 0.932564 0.030140
Si Si2 0.923581 0.211839 0.597192
Si Si3 0.926258 0.290030 0.473345
Si Si4 0.075981 0.288579 0.340974
Si Si5 0.925266 0.567853 0.282968
Si Si6 0.925658 0.286603 0.724022
Si Si7 0.424932 0.932759 0.645821
Si Si8 0.076476 0.932798 0.176748
O O1 0.250000 0.943470 0.027599
O O2 0.027386 0.867790 0.988026
O O3 0.021088 0.920420 0.103503
O O4 0.000000 0.000000 0.000435
O O5 0.750000 0.229106 0.597613
O O6 0.989711 0.242637 0.531250
O O7 0.990405 0.248280 0.660684
O O8 0.955676 0.130958 0.598801
O O9 0.750000 0.281964 0.465312
O O10 0.004878 0.265944 0.408313
O O11 0.250000 0.274702 0.342954
O O12 0.040256 0.368216 0.328687
O O13 0.007206 0.241535 0.286208
O O14 0.750000 0.556188 0.273485
O O15 0.000000 0.500000 0.313797
O O16 0.000095 0.582725 0.214249
O O17 0.750000 0.273579 0.731059
O O18 0.964237 0.366705 0.718898
O O19 0.250000 0.944635 0.656228
O O20 0.500000 0.000000 0.614393
O O21 0.250000 0.946450 0.177384
O O22 0.000000 0.000000 0.206862
#
# Coordination Sequence:
#
# PCOD8191426 Si02
#       8
#     8   8   8   8   8   8   8   8
#     4   9  17  30  49  74 104 136 170 209 250 301
#     4   9  17  32  56  80 100 130 176 219 252 300
#     4  10  20  36  55  74 100 139 181 215 252 306
#     4  11  24  37  49  75 110 139 173 220 267 308
#     4  10  20  33  49  71 103 139 176 212 252 305
#     4  10  18  34  58  79 101 137 179 215 256 310
#     4  10  18  30  52  79 106 132 165 212 261 307
#     4   9  17  30  52  80 108 134 168 213 258 306
#
# _framework density 17.527265
#
# number of rings (size 3 to 8) (size 9 to 14) (size 15 to 20)
#    0.000    2.250    2.500    1.875    0.000    3.000 
#    0.000    4.375    0.000    0.750    0.000    1.750 
#    0.000    0.000    0.000    0.000    0.000    0.000 
#
# Total GULP energy -396772.053571 kJ/mol
# GULP energy per Si atom -12399.126674 kJ/mol
# Density = 1.748737 g / cm^3
# Si number density = 17.527265 Si / 1000 Ang^3
#
#
#
# Elastic Constant Matrix: (Units=GPa)
#
#
# Indices 1 2 3 4 5 6 
#
# 1 62.1749 49.2427 40.8663 0.0000 0.0000 0.0000
# 2 49.2427 116.9497 68.0683 0.0000 0.0000 0.0000
# 3 40.8663 68.0683 121.7564 0.0000 0.0000 0.0000
# 4 0.0000 0.0000 0.0000 23.2947 0.0000 0.0000
# 5 0.0000 0.0000 0.0000 0.0000 18.5369 0.0000
# 6 0.0000 0.0000 0.0000 0.0000 0.0000 29.4246
#
#
#
# Elastic Compliance Matrix: (Units=1/GPa)
#
#
# Indices 1 2 3 4 5 6 
#
# 1 0.025235 -0.008443 -0.003750 0.000000 0.000000 0.000000
# 2 -0.008443 0.015500 -0.005831 0.000000 0.000000 0.000000
# 3 -0.003750 -0.005831 0.012732 0.000000 0.000000 0.000000
# 4 0.000000 0.000000 0.000000 0.042928 0.000000 0.000000
# 5 0.000000 0.000000 0.000000 0.000000 0.053946 0.000000
# 6 0.000000 0.000000 0.000000 0.000000 0.000000 0.033985
#
#
# Mechanical properties :
#
#
# Convention : Reuss Voigt Hill
#
# Bulk Modulus (GPa) = 57.41093 68.58173 62.99633
# Shear Modulus (GPa) = 22.10619 23.76482 22.93550
#
# Velocity S-wave (km/s) = 3.55525 3.68622 3.62133
# Velocity P-wave (km/s) = 7.04836 7.57173 7.31473
#
# Compressibility (1/GPa) = 0.01741829
#
# Stress axis : x y z
#
# Youngs Moduli (GPa) = 39.62711 64.51728 78.54370
#
# Poissons Ratio (x) = 0.54472 0.29453
# Poissons Ratio (y) = 0.33457 0.45802
# Poissons Ratio (z) = 0.14860 0.37622
#
# Static dielectric constant tensor:
#      x y z
#    x 3.124340 0.000000 0.000000 
#    y 0.000000 3.451730 0.000000 
#    z 0.000000 0.000000 3.069360 
# 
# 
# High freq. dielectric constant tensor:
#      x y z
#    x 1.666550 0.000000 0.000000 
#    y 0.000000 1.684540 0.000000 
#    z 0.000000 0.000000 1.651970 
# 
# From -- ./inp_files/18589.got.cif
#   From: 2010.03.12/outbox.cif.g09.slc.cpg/sg46_10_cif.got.tgz:18589.got - 2010.04.14 02:56:35.
