data_PCOD8191664
_publ_section_title
;
Structure prediction by ZEFSAII (Michael W. Deem and Ramdas Pophale) SiO2 
 PCOD8191664
Probable space group: I M A 2
;
_chemical_formula_sum "Si O2"
_cell_formula_units_Z 64
_cell_length_a 8.926795
_cell_length_b 32.997527
_cell_length_c 11.668034
_cell_angle_alpha 90.000000
_cell_angle_beta 90.000000
_cell_angle_gamma 90.000000
_cell_volume 3436.961287
_symmetry_space_group_name_H-M "I M A 2"
_symmetry_group_IT_number 46
_symmetry_cell_setting 'orthorhombic'
loop_
_space_group_symop_operation_xyz
x,y,z
-x,-y,z
1/2-x,y,z
1/2+x,-y,z
1/2+x,1/2+y,1/2+z
1/2-x,1/2-y,1/2+z
-x,1/2+y,1/2+z
x,1/2-y,1/2+z
loop_
_atom_site_type_symbol
_atom_site_label
_atom_site_fract_x
_atom_site_fract_y
_atom_site_fract_z
Si Si1 0.077266 0.960276 0.562140
Si Si2 0.571848 0.457748 0.324203
Si Si3 0.577496 0.683300 0.814623
Si Si4 0.421636 0.326183 0.178898
Si Si5 0.572202 0.875769 0.899070
Si Si6 0.921663 0.229758 0.516119
Si Si7 0.084106 0.111999 0.474099
Si Si8 0.921385 0.179634 0.076339
O O1 0.250000 0.968623 0.558230
O O2 0.024228 0.951262 0.691902
O O3 0.036457 0.923574 0.478243
O O4 0.000000 0.000000 0.512324
O O5 0.500000 0.500000 0.369304
O O6 0.750000 0.459424 0.341069
O O7 0.504976 0.419777 0.393431
O O8 0.750000 0.693979 0.787471
O O9 0.562093 0.637131 0.858019
O O10 0.475978 0.687429 0.704274
O O11 0.521200 0.713907 0.911775
O O12 0.250000 0.312169 0.192688
O O13 0.482210 0.346193 0.296177
O O14 0.518292 0.287218 0.139069
O O15 0.441447 0.359399 0.081748
O O16 0.750000 0.881913 0.895659
O O17 0.522768 0.854569 0.016857
O O18 0.750000 0.215665 0.501772
O O19 0.936205 0.277988 0.510401
O O20 0.250000 0.092891 0.479592
O O21 0.750000 0.164732 0.077794
#
# Coordination Sequence:
#
# PCOD8191664 Si02
#       8
#     8   8   8   8   8   8   8   8
#     4  10  19  29  48  79 113 147 180 219 272 330
#     4  10  20  34  54  83 118 155 191 235 288 346
#     4  10  22  40  60  81 107 145 190 232 280 336
#     4   9  19  34  54  81 111 145 186 228 276 334
#     4  11  22  37  58  85 116 153 193 239 289 344
#     4  10  22  38  58  82 112 147 185 234 288 336
#     4   9  17  33  54  77 107 140 177 225 273 324
#     4  11  25  41  57  82 114 150 191 238 287 340
#
# _framework density 18.621099999999998
#
# number of rings (size 3 to 8) (size 9 to 14) (size 15 to 20)
#    0.000    2.000    1.250    3.000    1.750    6.500 
#    0.000    0.000    0.000    0.750    0.000    1.750 
#    0.000    0.000    0.000    0.000    0.000    0.000 
#
# Total GULP energy -396847.060838 kJ/mol
# GULP energy per Si atom -12401.470651 kJ/mol
# Density = 1.857872 g / cm^3
# Si number density = 18.621100 Si / 1000 Ang^3
#
#
#
# Elastic Constant Matrix: (Units=GPa)
#
#
# Indices 1 2 3 4 5 6 
#
# 1 83.8629 45.7595 19.1377 -0.0007 -0.0009 -0.0004
# 2 45.7595 96.9488 23.1544 0.0012 0.0008 0.0004
# 3 19.1377 23.1544 60.0561 0.0020 0.0015 0.0008
# 4 -0.0007 0.0012 0.0020 23.2319 0.0012 0.0005
# 5 -0.0009 0.0008 0.0015 0.0012 25.9344 0.0006
# 6 -0.0004 0.0004 0.0008 0.0005 0.0006 35.4989
#
#
#
# Elastic Compliance Matrix: (Units=1/GPa)
#
#
# Indices 1 2 3 4 5 6 
#
# 1 0.016386 -0.007145 -0.002467 0.000001 0.000001 0.000000
# 2 -0.007145 0.014476 -0.003304 -0.000001 -0.000001 0.000000
# 3 -0.002467 -0.003304 0.018711 -0.000002 -0.000001 0.000000
# 4 0.000001 -0.000001 -0.000002 0.043044 -0.000002 -0.000001
# 5 0.000001 -0.000001 -0.000001 -0.000002 0.038559 -0.000001
# 6 0.000000 0.000000 0.000000 -0.000001 -0.000001 0.028170
#
#
# Mechanical properties :
#
#
# Convention : Reuss Voigt Hill
#
# Bulk Modulus (GPa) = 42.12146 46.33010 44.22578
# Shear Modulus (GPa) = 25.89437 27.12078 26.50757
#
# Velocity S-wave (km/s) = 3.73311 3.82049 3.77705
# Velocity P-wave (km/s) = 6.42268 6.66303 6.54396
#
# Compressibility (1/GPa) = 0.02374087
#
# Stress axis : x y z
#
# Youngs Moduli (GPa) = 61.02874 69.07854 53.44385
#
# Poissons Ratio (x) = 0.49355 0.13184
# Poissons Ratio (y) = 0.43604 0.17660
# Poissons Ratio (z) = 0.15055 0.22827
#
# Static dielectric constant tensor:
#      x y z
#    x 3.474750 0.000000 0.000000 
#    y 0.000000 3.501960 0.000000 
#    z 0.000000 0.000000 3.227040 
# 
# 
# High freq. dielectric constant tensor:
#      x y z
#    x 1.733890 0.000000 0.000000 
#    y 0.000000 1.722760 0.000000 
#    z 0.000000 0.000000 1.694270 
# 
# From -- ./inp_files/9795.got.cif
#   From: 2010.03.12/outbox.cif.g09.slc.cpg/sg46_5_cif.got.tgz:9795.got - 2010.04.14 02:56:35.
