data_PCOD8191657
_publ_section_title
;
Structure prediction by ZEFSAII (Michael W. Deem and Ramdas Pophale) SiO2 
 PCOD8191657
Probable space group: I M A 2
;
_chemical_formula_sum "Si O2"
_cell_formula_units_Z 56
_cell_length_a 9.252053
_cell_length_b 18.205319
_cell_length_c 21.181603
_cell_angle_alpha 90.000000
_cell_angle_beta 90.000000
_cell_angle_gamma 90.000000
_cell_volume 3567.756689
_symmetry_space_group_name_H-M "I M A 2"
_symmetry_group_IT_number 46
_symmetry_cell_setting 'orthorhombic'
loop_
_space_group_symop_operation_xyz
x,y,z
-x,-y,z
1/2-x,y,z
1/2+x,-y,z
1/2+x,1/2+y,1/2+z
1/2-x,1/2-y,1/2+z
-x,1/2+y,1/2+z
x,1/2-y,1/2+z
loop_
_atom_site_type_symbol
_atom_site_label
_atom_site_fract_x
_atom_site_fract_y
_atom_site_fract_z
Si Si1 0.587335 0.719834 0.258230
Si Si2 0.415501 0.141504 0.188895
Si Si3 0.920421 0.576729 0.556309
Si Si4 0.580413 0.661863 0.432921
Si Si5 0.416351 0.781294 0.370867
Si Si6 0.919412 0.073206 0.305952
Si Si7 0.913779 0.572420 0.308891
O O1 0.750000 0.732436 0.286915
O O2 0.571075 0.769037 0.194967
O O3 0.464641 0.746863 0.304989
O O4 0.567164 0.631570 0.251133
O O5 0.250000 0.116609 0.200213
O O6 0.466947 0.120175 0.119189
O O7 0.513879 0.100502 0.239882
O O8 0.750000 0.562610 0.553007
O O9 0.974083 0.624614 0.497135
O O10 0.000000 0.500000 0.554625
O O11 0.750000 0.675282 0.433925
O O12 0.506261 0.742381 0.426966
O O13 0.533612 0.609947 0.374308
O O14 0.250000 0.763379 0.382712
O O15 0.443270 0.868729 0.363280
O O16 0.750000 0.058788 0.294565
O O17 0.000000 0.000000 0.328303
O O18 0.750000 0.546923 0.316611
O O19 0.000000 0.500000 0.291531
#
# Coordination Sequence:
#
# PCOD8191657 Si02
#       7
#     8   8   8   8   8   8   8
#     4   8  15  28  43  59  82 112 141 171 212 257
#     4   9  17  30  46  62  85 117 149 179 210 248
#     4  10  20  31  44  64  88 116 149 179 207 245
#     4   9  18  31  43  58  84 115 144 172 207 252
#     4   9  17  28  43  63  83 106 140 178 212 249
#     4  10  19  29  43  65  90 113 140 175 216 259
#     4   9  16  25  39  59  82 107 134 168 209 250
#
# _framework density 15.696137999999999
#
# number of rings (size 3 to 8) (size 9 to 14) (size 15 to 20)
#    0.000    2.857    0.000    2.571    0.000    6.286 
#    0.000    0.000    0.000    0.000    0.000    1.000 
#    0.000    4.571    0.000    0.000    0.000    0.571 
#
# Total GULP energy -346929.367007 kJ/mol
# GULP energy per Si atom -12390.334536 kJ/mol
# Density = 1.566041 g / cm^3
# Si number density = 15.696138 Si / 1000 Ang^3
#
#
#
# Elastic Constant Matrix: (Units=GPa)
#
#
# Indices 1 2 3 4 5 6 
#
# 1 59.2766 57.7023 30.2326 0.0000 0.0000 0.0000
# 2 57.7023 136.7301 61.5105 0.0000 0.0000 0.0000
# 3 30.2326 61.5105 76.3617 0.0000 0.0000 0.0000
# 4 0.0000 0.0000 0.0000 27.2122 0.0000 0.0000
# 5 0.0000 0.0000 0.0000 0.0000 15.6852 0.0000
# 6 0.0000 0.0000 0.0000 0.0000 0.0000 29.8606
#
#
#
# Elastic Compliance Matrix: (Units=1/GPa)
#
#
# Indices 1 2 3 4 5 6 
#
# 1 0.028943 -0.011072 -0.002541 0.000000 0.000000 0.000000
# 2 -0.011072 0.015705 -0.008267 0.000000 0.000000 0.000000
# 3 -0.002541 -0.008267 0.020761 0.000000 0.000000 0.000000
# 4 0.000000 0.000000 0.000000 0.036748 0.000000 0.000000
# 5 0.000000 0.000000 0.000000 0.000000 0.063754 0.000000
# 6 0.000000 0.000000 0.000000 0.000000 0.000000 0.033489
#
#
# Mechanical properties :
#
#
# Convention : Reuss Voigt Hill
#
# Bulk Modulus (GPa) = 46.18900 63.47324 54.83112
# Shear Modulus (GPa) = 19.96981 22.74648 21.35814
#
# Velocity S-wave (km/s) = 3.57077 3.81094 3.69280
# Velocity P-wave (km/s) = 6.81846 7.73892 7.29322
#
# Compressibility (1/GPa) = 0.02165018
#
# Stress axis : x y z
#
# Youngs Moduli (GPa) = 34.55011 63.67259 48.16705
#
# Poissons Ratio (x) = 0.70496 0.12238
# Poissons Ratio (y) = 0.38252 0.39822
# Poissons Ratio (z) = 0.08778 0.52641
#
# Static dielectric constant tensor:
#      x y z
#    x 3.014390 0.000000 0.000000 
#    y 0.000000 3.263010 0.000000 
#    z 0.000000 0.000000 2.859250 
# 
# 
# High freq. dielectric constant tensor:
#      x y z
#    x 1.608120 0.000000 0.000000 
#    y 0.000000 1.607320 0.000000 
#    z 0.000000 0.000000 1.558760 
# 
# From -- ./inp_files/21218.got.cif
#   From: 2010.03.12/outbox.cif.g09.slc.cpg/sg46_11_cif.got.tgz:21218.got - 2010.04.14 02:56:35.
