data_PCOD8191187
_publ_section_title
;
Structure prediction by ZEFSAII (Michael W. Deem and Ramdas Pophale) SiO2 
 PCOD8191187
Probable space group: I M A 2
;
_chemical_formula_sum "Si O2"
_cell_formula_units_Z 64
_cell_length_a 8.762185
_cell_length_b 24.664915
_cell_length_c 20.279358
_cell_angle_alpha 90.000000
_cell_angle_beta 90.000000
_cell_angle_gamma 90.000000
_cell_volume 4382.745410
_symmetry_space_group_name_H-M "I M A 2"
_symmetry_group_IT_number 46
_symmetry_cell_setting 'orthorhombic'
loop_
_space_group_symop_operation_xyz
x,y,z
-x,-y,z
1/2-x,y,z
1/2+x,-y,z
1/2+x,1/2+y,1/2+z
1/2-x,1/2-y,1/2+z
-x,1/2+y,1/2+z
x,1/2-y,1/2+z
loop_
_atom_site_type_symbol
_atom_site_label
_atom_site_fract_x
_atom_site_fract_y
_atom_site_fract_z
Si Si1 0.430003 0.946870 0.334510
Si Si2 0.425918 0.084386 0.202234
Si Si3 0.571017 0.329329 0.877235
Si Si4 0.923776 0.706510 0.748270
Si Si5 0.930766 0.056305 0.062602
Si Si6 0.929737 0.258087 0.624950
Si Si7 0.576128 0.724966 0.999590
Si Si8 0.925281 0.839167 0.037574
O O1 0.250000 0.951444 0.332674
O O2 0.495819 0.948339 0.260923
O O3 0.482086 0.891988 0.371873
O O4 0.500000 0.000000 0.371247
O O5 0.250000 0.066739 0.195687
O O6 0.442253 0.147402 0.217849
O O7 0.513458 0.068046 0.136271
O O8 0.750000 0.324174 0.867311
O O9 0.493450 0.292085 0.821519
O O10 0.524764 0.308141 0.948707
O O11 0.750000 0.725472 0.753259
O O12 0.011633 0.748964 0.700148
O O13 0.750000 0.054116 0.058492
O O14 0.995228 0.104714 0.015049
O O15 0.000000 0.000000 0.036332
O O16 0.750000 0.250429 0.621837
O O17 0.009370 0.215483 0.573864
O O18 0.981325 0.318523 0.602023
O O19 0.750000 0.704356 0.996775
O O20 0.567276 0.790293 0.983516
O O21 0.750000 0.850433 0.058691
#
# Coordination Sequence:
#
# PCOD8191187 Si02
#       8
#     8   8   8   8   8   8   8   8
#     4  10  20  31  41  55  77 106 139 175 212 250
#     4  10  18  28  40  53  75 106 141 177 210 246
#     4  10  20  31  45  64  85 108 145 184 216 255
#     4  10  18  28  43  61  85 112 142 179 218 254
#     4  12  22  29  40  56  79 108 141 179 214 247
#     4  10  17  27  45  63  82 108 140 174 214 254
#     4   9  18  31  47  63  82 108 140 175 216 261
#     4   9  18  31  44  59  79 104 139 173 211 254
#
# _framework density 14.602719
#
# number of rings (size 3 to 8) (size 9 to 14) (size 15 to 20)
#    0.750    1.250    1.250    4.500    0.000    2.500 
#    0.000    0.000    0.000    0.000    0.000    0.000 
#    0.000    0.000    0.000    1.125    0.000   17.250 
#
# Total GULP energy -396509.192680 kJ/mol
# GULP energy per Si atom -12390.912271 kJ/mol
# Density = 1.456948 g / cm^3
# Si number density = 14.602719 Si / 1000 Ang^3
#
#
#
# Elastic Constant Matrix: (Units=GPa)
#
#
# Indices 1 2 3 4 5 6 
#
# 1 88.2443 20.6499 20.6327 0.0000 0.0000 0.0000
# 2 20.6499 48.6513 25.5606 0.0000 0.0000 0.0000
# 3 20.6327 25.5606 58.0295 0.0000 0.0000 0.0000
# 4 0.0000 0.0000 0.0000 18.7270 0.0000 0.0000
# 5 0.0000 0.0000 0.0000 0.0000 22.3896 0.0000
# 6 0.0000 0.0000 0.0000 0.0000 0.0000 21.4392
#
#
#
# Elastic Compliance Matrix: (Units=1/GPa)
#
#
# Indices 1 2 3 4 5 6 
#
# 1 0.012931 -0.003998 -0.002837 0.000000 0.000000 0.000000
# 2 -0.003998 0.027980 -0.010903 0.000000 0.000000 0.000000
# 3 -0.002837 -0.010903 0.023044 0.000000 0.000000 0.000000
# 4 0.000000 0.000000 0.000000 0.053399 0.000000 0.000000
# 5 0.000000 0.000000 0.000000 0.000000 0.044664 0.000000
# 6 0.000000 0.000000 0.000000 0.000000 0.000000 0.046644
#
#
# Mechanical properties :
#
#
# Convention : Reuss Voigt Hill
#
# Bulk Modulus (GPa) = 35.11349 36.51238 35.81293
# Shear Modulus (GPa) = 19.71388 21.04995 20.38192
#
# Velocity S-wave (km/s) = 3.67824 3.80084 3.74004
# Velocity P-wave (km/s) = 6.49133 6.65732 6.57485
#
# Compressibility (1/GPa) = 0.02847908
#
# Stress axis : x y z
#
# Youngs Moduli (GPa) = 77.33344 35.74037 43.39612
#
# Poissons Ratio (x) = 0.14290 0.12310
# Poissons Ratio (y) = 0.30920 0.47314
# Poissons Ratio (z) = 0.21936 0.38967
#
# Static dielectric constant tensor:
#      x y z
#    x 2.934420 0.000000 0.000000 
#    y 0.000000 2.762530 0.000000 
#    z 0.000000 0.000000 2.574710 
# 
# 
# High freq. dielectric constant tensor:
#      x y z
#    x 1.580720 0.000000 0.000000 
#    y 0.000000 1.529390 0.000000 
#    z 0.000000 0.000000 1.515940 
# 
# From -- ./inp_files/21509.got.cif
#   From: 2010.03.12/outbox.cif.g09.slc.cpg/sg46_11_cif.got.tgz:21509.got - 2010.04.14 02:56:35.
