data_PCOD8191351
_publ_section_title
;
Structure prediction by ZEFSAII (Michael W. Deem and Ramdas Pophale) SiO2 
 PCOD8191351
Probable space group: I M A 2
;
_chemical_formula_sum "Si O2"
_cell_formula_units_Z 40
_cell_length_a 8.614111
_cell_length_b 15.418011
_cell_length_c 19.043426
_cell_angle_alpha 90.000000
_cell_angle_beta 90.000000
_cell_angle_gamma 90.000000
_cell_volume 2529.204219
_symmetry_space_group_name_H-M "I M A 2"
_symmetry_group_IT_number 46
_symmetry_cell_setting 'orthorhombic'
loop_
_space_group_symop_operation_xyz
x,y,z
-x,-y,z
1/2-x,y,z
1/2+x,-y,z
1/2+x,1/2+y,1/2+z
1/2-x,1/2-y,1/2+z
-x,1/2+y,1/2+z
x,1/2-y,1/2+z
loop_
_atom_site_type_symbol
_atom_site_label
_atom_site_fract_x
_atom_site_fract_y
_atom_site_fract_z
Si Si1 0.072959 0.417036 0.867850
Si Si2 0.067996 0.591651 0.264628
Si Si3 0.067853 0.821759 0.485280
Si Si4 0.433626 0.094391 0.615638
Si Si5 0.427392 0.228564 0.864344
O O1 0.250000 0.436821 0.886334
O O2 0.059620 0.324517 0.826775
O O3 0.000000 0.500000 0.826258
O O4 0.975563 0.408208 0.940701
O O5 0.250000 0.581998 0.250775
O O6 0.000000 0.500000 0.290291
O O7 0.984759 0.622455 0.193513
O O8 0.037314 0.661940 0.324643
O O9 0.250000 0.806156 0.489232
O O10 0.999911 0.832720 0.563223
O O11 0.987218 0.739634 0.445066
O O12 0.250000 0.091590 0.610627
O O13 0.500000 0.000000 0.596977
O O14 0.250000 0.195317 0.864114
#
# Coordination Sequence:
#
# PCOD8191351 Si02
#       5
#     8   8   8   8   8
#     4   9  17  27  43  65  94 124 155 191 236 282
#     4  11  21  34  51  71  97 131 166 204 245 292
#     4  10  18  29  45  67  96 126 159 195 237 287
#     4  11  20  31  46  68  98 130 161 198 244 297
#     4   9  19  33  47  68  96 128 164 202 241 288
#
# _framework density 15.815251
#
# number of rings (size 3 to 8) (size 9 to 14) (size 15 to 20)
#    1.200    0.800    0.000    7.800    0.000    0.000 
#    0.000    0.000    0.000    0.000    0.000    1.400 
#    0.000    3.200    0.000    0.000    0.000    0.000 
#
# Total GULP energy -247781.470118 kJ/mol
# GULP energy per Si atom -12389.073506 kJ/mol
# Density = 1.577925 g / cm^3
# Si number density = 15.815251 Si / 1000 Ang^3
#
#
#
# Elastic Constant Matrix: (Units=GPa)
#
#
# Indices 1 2 3 4 5 6 
#
# 1 115.4335 23.7595 20.0690 0.0000 0.0000 0.0000
# 2 23.7595 66.0296 38.2296 0.0000 0.0000 0.0000
# 3 20.0690 38.2296 70.0563 0.0000 0.0000 0.0000
# 4 0.0000 0.0000 0.0000 26.3349 0.0000 0.0000
# 5 0.0000 0.0000 0.0000 0.0000 25.4312 0.0000
# 6 0.0000 0.0000 0.0000 0.0000 0.0000 25.9307
#
#
#
# Elastic Compliance Matrix: (Units=1/GPa)
#
#
# Indices 1 2 3 4 5 6 
#
# 1 0.009429 -0.002674 -0.001242 0.000000 0.000000 0.000000
# 2 -0.002674 0.022898 -0.011729 0.000000 0.000000 0.000000
# 3 -0.001242 -0.011729 0.021031 0.000000 0.000000 0.000000
# 4 0.000000 0.000000 0.000000 0.037972 0.000000 0.000000
# 5 0.000000 0.000000 0.000000 0.000000 0.039322 0.000000
# 6 0.000000 0.000000 0.000000 0.000000 0.000000 0.038564
#
#
# Mechanical properties :
#
#
# Convention : Reuss Voigt Hill
#
# Bulk Modulus (GPa) = 45.31580 46.18174 45.74877
# Shear Modulus (GPa) = 24.05434 26.83678 25.44556
#
# Velocity S-wave (km/s) = 3.90418 4.12380 4.01549
# Velocity P-wave (km/s) = 7.00278 7.20684 7.10554
#
# Compressibility (1/GPa) = 0.02206736
#
# Stress axis : x y z
#
# Youngs Moduli (GPa) = 106.05253 43.67225 47.54942
#
# Poissons Ratio (x) = 0.11677 0.05906
# Poissons Ratio (y) = 0.28356 0.55772
# Poissons Ratio (z) = 0.13173 0.51225
#
# Static dielectric constant tensor:
#      x y z
#    x 3.089810 0.000000 0.000000 
#    y 0.000000 2.947880 0.000000 
#    z 0.000000 0.000000 2.762670 
# 
# 
# High freq. dielectric constant tensor:
#      x y z
#    x 1.633700 0.000000 0.000000 
#    y 0.000000 1.582800 0.000000 
#    z 0.000000 0.000000 1.569900 
# 
# From -- ./inp_files/13770.got.cif
#   From: 2010.03.12/outbox.cif.g09.slc.cpg/sg46_7_cif.got.tgz:13770.got - 2010.04.14 02:56:35.
