data_PCOD8191871
_publ_section_title
;
Structure prediction by ZEFSAII (Michael W. Deem and Ramdas Pophale) SiO2 
 PCOD8191871
Probable space group: I M A 2
;
_chemical_formula_sum "Si O2"
_cell_formula_units_Z 64
_cell_length_a 15.041110
_cell_length_b 11.013509
_cell_length_c 18.614777
_cell_angle_alpha 90.000000
_cell_angle_beta 90.000000
_cell_angle_gamma 90.000000
_cell_volume 3083.638336
_symmetry_space_group_name_H-M "I M A 2"
_symmetry_group_IT_number 46
_symmetry_cell_setting 'orthorhombic'
loop_
_space_group_symop_operation_xyz
x,y,z
-x,-y,z
1/2-x,y,z
1/2+x,-y,z
1/2+x,1/2+y,1/2+z
1/2-x,1/2-y,1/2+z
-x,1/2+y,1/2+z
x,1/2-y,1/2+z
loop_
_atom_site_type_symbol
_atom_site_label
_atom_site_fract_x
_atom_site_fract_y
_atom_site_fract_z
Si Si1 0.651568 0.824833 0.673990
Si Si2 0.650517 0.083764 0.894852
Si Si3 0.449422 0.877741 0.483375
Si Si4 0.532384 0.284851 0.675468
Si Si5 0.849483 0.416236 0.117112
Si Si6 0.967616 0.215149 0.336496
Si Si7 0.848432 0.675167 0.337974
Si Si8 0.550578 0.122259 0.028589
O O1 0.750000 0.768840 0.656904
O O2 0.573757 0.726968 0.660814
O O3 0.648008 0.870046 0.755982
O O4 0.633414 0.940930 0.624577
O O5 0.750000 0.118807 0.870952
O O6 0.580950 0.155256 0.844423
O O7 0.633414 0.940930 0.887386
O O8 0.638606 0.119529 0.978912
O O9 0.361394 0.880471 0.533051
O O10 0.429240 0.876455 0.397452
O O11 0.499729 0.750000 0.505982
O O12 0.500000 0.000000 0.504549
O O13 0.580950 0.155256 0.667541
O O14 0.549489 0.336246 0.755982
O O15 0.570760 0.376455 0.614512
O O16 0.750000 0.381193 0.141012
O O17 0.073757 0.226968 0.351150
O O18 0.750000 0.731160 0.355060
O O19 0.500000 0.000000 0.007415
#
# Coordination Sequence:
#
# PCOD8191871 Si02
#       8
#     8   8   8   8   8   8   8   8
#     4   9  17  31  54  83 111 140 178 226 278 327
#     4  10  19  32  53  80 110 145 185 228 272 318
#     4  10  21  37  57  79 109 145 184 226 271 320
#     4  10  20  33  52  78 110 145 180 221 271 328
#     4  10  19  32  53  80 110 145 185 228 272 318
#     4  10  20  33  52  78 110 145 180 221 271 328
#     4   9  17  31  54  83 111 140 178 226 278 327
#     4  10  21  37  57  79 109 145 184 226 271 320
#
# _framework density 20.754704
#
# number of rings (size 3 to 8) (size 9 to 14) (size 15 to 20)
#    0.000    2.250    0.000    4.500    0.000    8.500 
#    0.000    1.250    0.000   10.500    0.000    7.000 
#    0.000    0.000    0.000    0.000    0.000    0.000 
#
# Total GULP energy -396426.908274 kJ/mol
# GULP energy per Si atom -12388.340884 kJ/mol
# Density = 2.070747 g / cm^3
# Si number density = 20.754704 Si / 1000 Ang^3
#
#
#
# Elastic Constant Matrix: (Units=GPa)
#
#
# Indices 1 2 3 4 5 6 
#
# 1 70.5667 1.7635 17.0043 0.0000 0.0000 0.0000
# 2 1.7635 61.1608 9.0113 0.0000 0.0000 0.0000
# 3 17.0043 9.0113 138.4663 0.0000 0.0000 0.0000
# 4 0.0000 0.0000 0.0000 22.5238 0.0000 0.0000
# 5 0.0000 0.0000 0.0000 0.0000 25.4077 0.0000
# 6 0.0000 0.0000 0.0000 0.0000 0.0000 14.0869
#
#
#
# Elastic Compliance Matrix: (Units=1/GPa)
#
#
# Indices 1 2 3 4 5 6 
#
# 1 0.014605 -0.000158 -0.001783 0.000000 0.000000 0.000000
# 2 -0.000158 0.016510 -0.001055 0.000000 0.000000 0.000000
# 3 -0.001783 -0.001055 0.007510 0.000000 0.000000 0.000000
# 4 0.000000 0.000000 0.000000 0.044397 0.000000 0.000000
# 5 0.000000 0.000000 0.000000 0.000000 0.039358 0.000000
# 6 0.000000 0.000000 0.000000 0.000000 0.000000 0.070988
#
#
# Mechanical properties :
#
#
# Convention : Reuss Voigt Hill
#
# Bulk Modulus (GPa) = 30.64534 36.19467 33.42000
# Shear Modulus (GPa) = 23.78253 28.56466 26.17360
#
# Velocity S-wave (km/s) = 3.38877 3.71387 3.55504
# Velocity P-wave (km/s) = 5.48718 5.98896 5.74355
#
# Compressibility (1/GPa) = 0.03263139
#
# Stress axis : x y z
#
# Youngs Moduli (GPa) = 68.47134 60.56801 133.16244
#
# Poissons Ratio (x) = 0.00959 0.23746
# Poissons Ratio (y) = 0.01084 0.14049
# Poissons Ratio (z) = 0.12210 0.06390
#
# Static dielectric constant tensor:
#      x y z
#    x 3.798140 0.000000 0.000000 
#    y 0.000000 3.441890 0.000000 
#    z 0.000000 0.000000 3.934520 
# 
# 
# High freq. dielectric constant tensor:
#      x y z
#    x 1.793690 0.000000 0.000000 
#    y 0.000000 1.775120 0.000000 
#    z 0.000000 0.000000 1.823390 
# 
# From -- ./inp_files/19641.got.cif
#   From: 2010.03.12/outbox.cif.g09.slc.cpg/sg46_10_cif.got.tgz:19641.got - 2010.04.14 02:56:35.
