data_PCOD8191962
_publ_section_title
;
Structure prediction by ZEFSAII (Michael W. Deem and Ramdas Pophale) SiO2 
 PCOD8191962
Probable space group: I M A 2
;
_chemical_formula_sum "Si O2"
_cell_formula_units_Z 40
_cell_length_a 8.802530
_cell_length_b 9.172792
_cell_length_c 25.923205
_cell_angle_alpha 90.000000
_cell_angle_beta 90.000000
_cell_angle_gamma 90.000000
_cell_volume 2093.137478
_symmetry_space_group_name_H-M "I M A 2"
_symmetry_group_IT_number 46
_symmetry_cell_setting 'orthorhombic'
loop_
_space_group_symop_operation_xyz
x,y,z
-x,-y,z
1/2-x,y,z
1/2+x,-y,z
1/2+x,1/2+y,1/2+z
1/2-x,1/2-y,1/2+z
-x,1/2+y,1/2+z
x,1/2-y,1/2+z
loop_
_atom_site_type_symbol
_atom_site_label
_atom_site_fract_x
_atom_site_fract_y
_atom_site_fract_z
Si Si1 0.929931 0.160166 0.097680
Si Si2 0.926912 0.841087 0.882733
Si Si3 0.925697 0.843752 0.997025
Si Si4 0.429009 0.842302 0.695526
Si Si5 0.429779 0.842692 0.293903
O O1 0.750000 0.147723 0.096830
O O2 0.987999 0.257387 0.145110
O O3 0.000000 0.000000 0.103505
O O4 0.989030 0.237535 0.044458
O O5 0.750000 0.855795 0.868596
O O6 0.947454 0.772945 0.940453
O O7 0.008263 0.726875 0.846105
O O8 0.000000 0.000000 0.876510
O O9 0.750000 0.858208 0.011683
O O10 0.000000 0.000000 0.992628
O O11 0.250000 0.859026 0.694189
O O12 0.482560 0.755609 0.745993
O O13 0.500000 0.000000 0.697138
O O14 0.250000 0.856605 0.297465
O O15 0.500000 0.000000 0.285470
#
# Coordination Sequence:
#
# PCOD8191962 Si02
#       5
#     8   8   8   8   8
#     4  10  19  33  54  81 110 141 179 220 264 314
#     4  10  20  35  56  83 113 145 183 225 269 319
#     4   9  17  30  51  79 109 142 179 218 262 312
#     4  10  23  39  56  80 108 140 178 221 269 321
#     4  11  23  39  58  81 109 142 181 224 273 326
#
# _framework density 19.110067999999998
#
# number of rings (size 3 to 8) (size 9 to 14) (size 15 to 20)
#    0.000    2.000    0.000    4.800    0.000    7.200 
#    0.000    1.000    0.000    2.400    0.000    0.000 
#    0.000    0.000    0.000    0.000    0.000    0.000 
#
# Total GULP energy -247943.038167 kJ/mol
# GULP energy per Si atom -12397.151908 kJ/mol
# Density = 1.906657 g / cm^3
# Si number density = 19.110068 Si / 1000 Ang^3
#
#
#
# Elastic Constant Matrix: (Units=GPa)
#
#
# Indices 1 2 3 4 5 6 
#
# 1 94.4094 44.4044 61.4856 0.0000 0.0000 0.0000
# 2 44.4044 110.9271 72.5027 0.0000 0.0000 0.0000
# 3 61.4856 72.5027 174.1736 0.0000 0.0000 0.0000
# 4 0.0000 0.0000 0.0000 35.7998 0.0000 0.0000
# 5 0.0000 0.0000 0.0000 0.0000 46.3380 0.0000
# 6 0.0000 0.0000 0.0000 0.0000 0.0000 31.9735
#
#
#
# Elastic Compliance Matrix: (Units=1/GPa)
#
#
# Indices 1 2 3 4 5 6 
#
# 1 0.014636 -0.003410 -0.003748 0.000000 0.000000 0.000000
# 2 -0.003410 0.013179 -0.004282 0.000000 0.000000 0.000000
# 3 -0.003748 -0.004282 0.008847 0.000000 0.000000 0.000000
# 4 0.000000 0.000000 0.000000 0.027933 0.000000 0.000000
# 5 0.000000 0.000000 0.000000 0.000000 0.021581 0.000000
# 6 0.000000 0.000000 0.000000 0.000000 0.000000 0.031276
#
#
# Mechanical properties :
#
#
# Convention : Reuss Voigt Hill
#
# Bulk Modulus (GPa) = 72.55159 81.81064 77.18112
# Shear Modulus (GPa) = 34.50064 36.23009 35.36536
#
# Velocity S-wave (km/s) = 4.25357 4.35888 4.30654
# Velocity P-wave (km/s) = 7.88488 8.26052 8.07489
#
# Compressibility (1/GPa) = 0.01378329
#
# Stress axis : x y z
#
# Youngs Moduli (GPa) = 68.32237 75.88008 113.03407
#
# Poissons Ratio (x) = 0.25872 0.42360
# Poissons Ratio (y) = 0.23295 0.48404
# Poissons Ratio (z) = 0.25604 0.32494
#
# Static dielectric constant tensor:
#      x y z
#    x 3.598430 0.000000 0.000000 
#    y 0.000000 3.176480 0.000000 
#    z 0.000000 0.000000 4.396420 
# 
# 
# High freq. dielectric constant tensor:
#      x y z
#    x 1.755800 0.000000 0.000000 
#    y 0.000000 1.711570 0.000000 
#    z 0.000000 0.000000 1.771130 
# 
# From -- ./inp_files/22728.got.cif
#   From: 2010.03.12/outbox.cif.g09.slc.cpg/sg46_12_cif.got.tgz:22728.got - 2010.04.14 02:56:35.
