data_PCOD8191697
_publ_section_title
;
Structure prediction by ZEFSAII (Michael W. Deem and Ramdas Pophale) SiO2 
 PCOD8191697
Probable space group: I M A 2
;
_chemical_formula_sum "Si O2"
_cell_formula_units_Z 56
_cell_length_a 8.815267
_cell_length_b 20.858535
_cell_length_c 14.038837
_cell_angle_alpha 90.000000
_cell_angle_beta 90.000000
_cell_angle_gamma 90.000000
_cell_volume 2581.370871
_symmetry_space_group_name_H-M "I M A 2"
_symmetry_group_IT_number 46
_symmetry_cell_setting 'orthorhombic'
loop_
_space_group_symop_operation_xyz
x,y,z
-x,-y,z
1/2-x,y,z
1/2+x,-y,z
1/2+x,1/2+y,1/2+z
1/2-x,1/2-y,1/2+z
-x,1/2+y,1/2+z
x,1/2-y,1/2+z
loop_
_atom_site_type_symbol
_atom_site_label
_atom_site_fract_x
_atom_site_fract_y
_atom_site_fract_z
Si Si1 0.931068 0.932824 0.976330
Si Si2 0.077197 0.367721 0.907475
Si Si3 0.910880 0.444456 0.764318
Si Si4 0.581090 0.334483 0.616527
Si Si5 0.069951 0.245972 0.271720
Si Si6 0.427949 0.433407 0.097555
Si Si7 0.930228 0.383170 0.288856
O O1 0.750000 0.935535 0.984090
O O2 0.985817 0.925323 0.868325
O O3 0.000000 0.000000 0.016054
O O4 0.990378 0.869739 0.032381
O O5 0.250000 0.375538 0.878603
O O6 0.022871 0.300717 0.860052
O O7 0.992827 0.427843 0.862185
O O8 0.051070 0.375384 0.020655
O O9 0.750000 0.473391 0.792801
O O10 0.893359 0.383681 0.700058
O O11 0.000000 0.500000 0.708021
O O12 0.750000 0.311296 0.581914
O O13 0.484317 0.277750 0.666367
O O14 0.250000 0.257755 0.266663
O O15 0.983030 0.310284 0.297154
O O16 0.500000 0.500000 0.060194
O O17 0.250000 0.442504 0.120798
O O18 0.521422 0.412449 0.188975
O O19 0.750000 0.388006 0.302418
#
# Coordination Sequence:
#
# PCOD8191697 Si02
#       7
#     8   8   8   8   8   8   8
#     4  12  25  43  66  93 124 162 207 259 315 374
#     4   9  20  37  60  87 119 156 197 244 298 358
#     4  10  19  30  50  80 118 157 196 241 294 354
#     4  10  21  38  60  90 124 161 203 251 305 366
#     4  10  21  41  65  93 127 165 207 252 304 365
#     4  11  23  41  63  91 123 159 204 254 308 368
#     4  12  26  44  64  88 121 164 210 261 312 367
#
# _framework density 21.693898999999998
#
# number of rings (size 3 to 8) (size 9 to 14) (size 15 to 20)
#    0.000    1.429    0.000    5.571    0.000    6.857 
#    0.000    4.286    0.000    0.000    0.000    0.000 
#    0.000    0.000    0.000    0.000    0.000    0.000 
#
# Total GULP energy -347035.592816 kJ/mol
# GULP energy per Si atom -12394.128315 kJ/mol
# Density = 2.164452 g / cm^3
# Si number density = 21.693899 Si / 1000 Ang^3
#
#
#
# Elastic Constant Matrix: (Units=GPa)
#
#
# Indices 1 2 3 4 5 6 
#
# 1 135.0935 28.7721 30.8382 -0.0002 0.0000 0.0000
# 2 28.7721 77.3141 15.4083 0.0000 0.0000 0.0000
# 3 30.8382 15.4083 88.5627 -0.0003 0.0000 0.0000
# 4 -0.0002 0.0000 -0.0003 49.5350 -0.0001 0.0001
# 5 0.0000 0.0000 0.0000 -0.0001 38.8989 0.0000
# 6 0.0000 0.0000 0.0000 0.0001 0.0000 36.2447
#
#
#
# Elastic Compliance Matrix: (Units=1/GPa)
#
#
# Indices 1 2 3 4 5 6 
#
# 1 0.008546 -0.002680 -0.002509 0.000000 0.000000 0.000000
# 2 -0.002680 0.014239 -0.001544 0.000000 0.000000 0.000000
# 3 -0.002509 -0.001544 0.012434 0.000000 0.000000 0.000000
# 4 0.000000 0.000000 0.000000 0.020188 0.000000 0.000000
# 5 0.000000 0.000000 0.000000 0.000000 0.025708 0.000000
# 6 0.000000 0.000000 0.000000 0.000000 0.000000 0.027590
#
#
# Mechanical properties :
#
#
# Convention : Reuss Voigt Hill
#
# Bulk Modulus (GPa) = 45.97351 50.11196 48.04274
# Shear Modulus (GPa) = 38.63299 39.99916 39.31607
#
# Velocity S-wave (km/s) = 4.22456 4.29861 4.26174
# Velocity P-wave (km/s) = 6.71072 6.91282 6.81252
#
# Compressibility (1/GPa) = 0.02175166
#
# Stress axis : x y z
#
# Youngs Moduli (GPa) = 117.01438 70.22762 80.42530
#
# Poissons Ratio (x) = 0.18823 0.20182
# Poissons Ratio (y) = 0.31362 0.12419
# Poissons Ratio (z) = 0.29364 0.10844
#
# Static dielectric constant tensor:
#      x y z
#    x 4.395620 0.000000 0.000000 
#    y 0.000000 3.963900 0.000000 
#    z 0.000000 0.000000 3.902070 
# 
# 
# High freq. dielectric constant tensor:
#      x y z
#    x 1.867140 0.000000 0.000000 
#    y 0.000000 1.850380 0.000000 
#    z 0.000000 0.000000 1.849730 
# 
# From -- ./inp_files/14212.got.cif
#   From: 2010.03.12/outbox.cif.g09.slc.cpg/sg46_8_cif.got.tgz:14212.got - 2010.04.14 02:56:35.
