data_PCOD8191405
_publ_section_title
;
Structure prediction by ZEFSAII (Michael W. Deem and Ramdas Pophale) SiO2 
 PCOD8191405
Probable space group: I M A 2
;
_chemical_formula_sum "Si O2"
_cell_formula_units_Z 48
_cell_length_a 8.709410
_cell_length_b 13.744762
_cell_length_c 23.853661
_cell_angle_alpha 90.000000
_cell_angle_beta 90.000000
_cell_angle_gamma 90.000000
_cell_volume 2855.492361
_symmetry_space_group_name_H-M "I M A 2"
_symmetry_group_IT_number 46
_symmetry_cell_setting 'orthorhombic'
loop_
_space_group_symop_operation_xyz
x,y,z
-x,-y,z
1/2-x,y,z
1/2+x,-y,z
1/2+x,1/2+y,1/2+z
1/2-x,1/2-y,1/2+z
-x,1/2+y,1/2+z
x,1/2-y,1/2+z
loop_
_atom_site_type_symbol
_atom_site_label
_atom_site_fract_x
_atom_site_fract_y
_atom_site_fract_z
Si Si1 0.568217 0.602302 0.878990
Si Si2 0.567296 0.606000 0.550137
Si Si3 0.429158 0.712511 0.777986
Si Si4 0.568698 0.791953 0.939953
Si Si5 0.932048 0.603833 0.329323
Si Si6 0.571125 0.396340 0.665372
O O1 0.500000 0.500000 0.898676
O O2 0.750000 0.595043 0.873924
O O3 0.503470 0.632220 0.818541
O O4 0.516670 0.682094 0.925325
O O5 0.500000 0.500000 0.538822
O O6 0.750000 0.600949 0.550908
O O7 0.504442 0.675848 0.500423
O O8 0.506464 0.647078 0.609231
O O9 0.250000 0.719561 0.791773
O O10 0.507174 0.817488 0.784797
O O11 0.460079 0.679983 0.714508
O O12 0.750000 0.797634 0.940573
O O13 0.509423 0.864792 0.891262
O O14 0.750000 0.600378 0.325677
O O15 0.000000 0.500000 0.313155
O O16 0.500000 0.500000 0.681747
O O17 0.750000 0.412386 0.653969
#
# Coordination Sequence:
#
# PCOD8191405 Si02
#       6
#     8   8   8   8   8   8
#     4  10  19  32  49  71  98 125 157 194 236 283
#     4  10  18  30  48  69  94 123 155 190 232 279
#     4  10  20  33  49  70  96 126 160 196 235 279
#     4   8  17  31  47  69  96 125 155 191 231 275
#     4  10  19  32  50  72  99 127 157 193 234 280
#     4  10  20  32  47  69  96 124 156 194 234 278
#
# _framework density 16.809711
#
# number of rings (size 3 to 8) (size 9 to 14) (size 15 to 20)
#    0.000    2.333    0.000    5.500    0.000    4.000 
#    0.000    9.167    0.000    1.000    0.000    4.667 
#    0.000    0.000    0.000    0.000    0.000    0.000 
#
# Total GULP energy -297584.615206 kJ/mol
# GULP energy per Si atom -12399.358967 kJ/mol
# Density = 1.677145 g / cm^3
# Si number density = 16.809711 Si / 1000 Ang^3
#
#
#
# Elastic Constant Matrix: (Units=GPa)
#
#
# Indices 1 2 3 4 5 6 
#
# 1 91.2641 46.4821 50.8550 0.0000 0.0000 0.0000
# 2 46.4821 124.4263 69.0832 0.0000 0.0000 0.0000
# 3 50.8550 69.0832 124.6162 0.0000 0.0000 0.0000
# 4 0.0000 0.0000 0.0000 24.9435 0.0000 0.0000
# 5 0.0000 0.0000 0.0000 0.0000 21.8813 0.0000
# 6 0.0000 0.0000 0.0000 0.0000 0.0000 29.1316
#
#
#
# Elastic Compliance Matrix: (Units=1/GPa)
#
#
# Indices 1 2 3 4 5 6 
#
# 1 0.015009 -0.003187 -0.004358 0.000000 0.000000 0.000000
# 2 -0.003187 0.012287 -0.005511 0.000000 0.000000 0.000000
# 3 -0.004358 -0.005511 0.012858 0.000000 0.000000 0.000000
# 4 0.000000 0.000000 0.000000 0.040091 0.000000 0.000000
# 5 0.000000 0.000000 0.000000 0.000000 0.045701 0.000000
# 6 0.000000 0.000000 0.000000 0.000000 0.000000 0.034327
#
#
# Mechanical properties :
#
#
# Convention : Reuss Voigt Hill
#
# Bulk Modulus (GPa) = 71.21582 74.79412 73.00497
# Shear Modulus (GPa) = 26.16885 26.78370 26.47627
#
# Velocity S-wave (km/s) = 3.94987 3.99601 3.97301
# Velocity P-wave (km/s) = 7.95361 8.11677 8.03560
#
# Compressibility (1/GPa) = 0.01404182
#
# Stress axis : x y z
#
# Youngs Moduli (GPa) = 66.62671 81.38467 77.77073
#
# Poissons Ratio (x) = 0.25939 0.33894
# Poissons Ratio (y) = 0.21235 0.42860
# Poissons Ratio (z) = 0.29037 0.44851
#
# Static dielectric constant tensor:
#      x y z
#    x 3.181490 0.000000 0.000000 
#    y 0.000000 3.136320 0.000000 
#    z 0.000000 0.000000 3.323490 
# 
# 
# High freq. dielectric constant tensor:
#      x y z
#    x 1.655520 0.000000 0.000000 
#    y 0.000000 1.638560 0.000000 
#    z 0.000000 0.000000 1.639970 
# 
# From -- ./inp_files/20920.got.cif
#   From: 2010.03.12/outbox.cif.g09.slc.cpg/sg46_11_cif.got.tgz:20920.got - 2010.04.14 02:56:35.
