data_PCOD8191253
_publ_section_title
;
Structure prediction by ZEFSAII (Michael W. Deem and Ramdas Pophale) SiO2 
 PCOD8191253
Probable space group: I M A 2
;
_chemical_formula_sum "Si O2"
_cell_formula_units_Z 56
_cell_length_a 8.806294
_cell_length_b 21.662886
_cell_length_c 17.923341
_cell_angle_alpha 90.000000
_cell_angle_beta 90.000000
_cell_angle_gamma 90.000000
_cell_volume 3419.231156
_symmetry_space_group_name_H-M "I M A 2"
_symmetry_group_IT_number 46
_symmetry_cell_setting 'orthorhombic'
loop_
_space_group_symop_operation_xyz
x,y,z
-x,-y,z
1/2-x,y,z
1/2+x,-y,z
1/2+x,1/2+y,1/2+z
1/2-x,1/2-y,1/2+z
-x,1/2+y,1/2+z
x,1/2-y,1/2+z
loop_
_atom_site_type_symbol
_atom_site_label
_atom_site_fract_x
_atom_site_fract_y
_atom_site_fract_z
Si Si1 0.580168 0.849728 0.800760
Si Si2 0.575204 0.697808 0.450759
Si Si3 0.070020 0.142411 0.558801
Si Si4 0.926295 0.723130 0.608929
Si Si5 0.571994 0.434913 0.186050
Si Si6 0.073568 0.823018 0.413335
Si Si7 0.076576 0.205126 0.268504
O O1 0.750000 0.872061 0.779069
O O2 0.552057 0.857542 0.890840
O O3 0.459549 0.888823 0.754798
O O4 0.561970 0.777743 0.784038
O O5 0.750000 0.723077 0.444363
O O6 0.545235 0.678018 0.537265
O O7 0.459215 0.752004 0.432025
O O8 0.250000 0.137054 0.560353
O O9 0.010756 0.208385 0.590429
O O10 0.000113 0.088874 0.609294
O O11 0.012140 0.133915 0.473753
O O12 0.750000 0.731595 0.626627
O O13 0.995690 0.694571 0.685221
O O14 0.500000 0.500000 0.207402
O O15 0.750000 0.441769 0.175206
O O16 0.250000 0.837671 0.418045
O O17 0.016031 0.835374 0.328747
O O18 0.250000 0.182895 0.273791
#
# Coordination Sequence:
#
# PCOD8191253 Si02
#       7
#     8   8   8   8   8   8   8
#     4   9  16  29  45  62  86 117 152 188 225 262
#     4   8  15  27  43  61  83 117 152 180 216 265
#     4  10  18  33  49  61  82 115 151 188 227 267
#     4   8  13  24  44  65  85 114 151 181 210 258
#     4  12  24  35  48  66  87 115 153 193 232 270
#     4  10  18  26  38  62  89 115 147 182 220 263
#     4   9  15  26  43  63  88 121 153 178 212 261
#
# _framework density 16.377950999999999
#
# number of rings (size 3 to 8) (size 9 to 14) (size 15 to 20)
#    0.000    2.571    1.429    4.714    0.000    2.286 
#    0.000    0.714    0.000    0.000    0.000    0.000 
#    0.000    1.143    0.000    5.714    0.000    4.286 
#
# Total GULP energy -346917.983973 kJ/mol
# GULP energy per Si atom -12389.927999 kJ/mol
# Density = 1.634067 g / cm^3
# Si number density = 16.377951 Si / 1000 Ang^3
#
#
#
# Elastic Constant Matrix: (Units=GPa)
#
#
# Indices 1 2 3 4 5 6 
#
# 1 84.1841 16.6049 36.4425 0.0000 0.0000 0.0000
# 2 16.6049 25.2680 17.6103 0.0000 0.0000 0.0000
# 3 36.4425 17.6103 152.2721 -0.0001 0.0000 0.0000
# 4 0.0000 0.0000 -0.0001 11.1603 0.0000 0.0000
# 5 0.0000 0.0000 0.0000 0.0000 22.7868 0.0000
# 6 0.0000 0.0000 0.0000 0.0000 0.0000 15.6851
#
#
#
# Elastic Compliance Matrix: (Units=1/GPa)
#
#
# Indices 1 2 3 4 5 6 
#
# 1 0.014523 -0.007746 -0.002580 0.000000 0.000000 0.000000
# 2 -0.007746 0.047177 -0.003602 0.000000 0.000000 0.000000
# 3 -0.002580 -0.003602 0.007601 0.000000 0.000000 0.000000
# 4 0.000000 0.000000 0.000000 0.089604 0.000000 0.000000
# 5 0.000000 0.000000 0.000000 0.000000 0.043885 0.000000
# 6 0.000000 0.000000 0.000000 0.000000 0.000000 0.063755
#
#
# Mechanical properties :
#
#
# Convention : Reuss Voigt Hill
#
# Bulk Modulus (GPa) = 24.12842 44.78218 34.45530
# Shear Modulus (GPa) = 16.22239 22.66420 19.44329
#
# Velocity S-wave (km/s) = 3.15064 3.72401 3.44926
# Velocity P-wave (km/s) = 5.29147 6.77446 6.07836
#
# Compressibility (1/GPa) = 0.04144490
#
# Stress axis : x y z
#
# Youngs Moduli (GPa) = 68.85423 21.19698 131.55741
#
# Poissons Ratio (x) = 0.16419 0.33942
# Poissons Ratio (y) = 0.53334 0.47389
# Poissons Ratio (z) = 0.17764 0.07636
#
# Static dielectric constant tensor:
#      x y z
#    x 2.928910 0.000000 0.000000 
#    y 0.000000 2.515970 0.000000 
#    z 0.000000 0.000000 3.818810 
# 
# 
# High freq. dielectric constant tensor:
#      x y z
#    x 1.619170 0.000000 0.000000 
#    y 0.000000 1.545900 0.000000 
#    z 0.000000 0.000000 1.659320 
# 
# From -- ./inp_files/18605.got.cif
#   From: 2010.03.12/outbox.cif.g09.slc.cpg/sg46_10_cif.got.tgz:18605.got - 2010.04.14 02:56:35.
