data_PCOD8191329
_publ_section_title
;
Structure prediction by ZEFSAII (Michael W. Deem and Ramdas Pophale) SiO2 
 PCOD8191329
Probable space group: I M A 2
;
_chemical_formula_sum "Si O2"
_cell_formula_units_Z 64
_cell_length_a 8.611422
_cell_length_b 18.623744
_cell_length_c 26.302993
_cell_angle_alpha 90.000000
_cell_angle_beta 90.000000
_cell_angle_gamma 90.000000
_cell_volume 4218.392973
_symmetry_space_group_name_H-M "I M A 2"
_symmetry_group_IT_number 46
_symmetry_cell_setting 'orthorhombic'
loop_
_space_group_symop_operation_xyz
x,y,z
-x,-y,z
1/2-x,y,z
1/2+x,-y,z
1/2+x,1/2+y,1/2+z
1/2-x,1/2-y,1/2+z
-x,1/2+y,1/2+z
x,1/2-y,1/2+z
loop_
_atom_site_type_symbol
_atom_site_label
_atom_site_fract_x
_atom_site_fract_y
_atom_site_fract_z
Si Si1 0.065906 0.422642 0.648680
Si Si2 0.566514 0.076223 0.039631
Si Si3 0.434001 0.077427 0.845457
Si Si4 0.063603 0.343932 0.446578
Si Si5 0.431991 0.843210 0.240830
Si Si6 0.079125 0.287530 0.288587
Si Si7 0.935920 0.922562 0.336429
Si Si8 0.080771 0.292531 0.894557
O O1 0.250000 0.426329 0.649212
O O2 0.000000 0.500000 0.665125
O O3 0.007568 0.400734 0.592933
O O4 0.005712 0.361738 0.686630
O O5 0.750000 0.070529 0.045632
O O6 0.500000 0.000000 0.021247
O O7 0.520259 0.135158 0.998334
O O8 0.250000 0.075213 0.844788
O O9 0.490250 0.102509 0.901443
O O10 0.490459 0.133255 0.801313
O O11 0.500000 0.000000 0.831981
O O12 0.250000 0.344780 0.452203
O O13 0.000218 0.262718 0.433997
O O14 0.250000 0.855861 0.239388
O O15 0.467240 0.759421 0.252585
O O16 0.504753 0.897453 0.281696
O O17 0.250000 0.293081 0.262773
O O18 0.099953 0.249136 0.342071
O O19 0.750000 0.921820 0.335265
O O20 0.002230 0.868344 0.380678
O O21 0.000000 0.000000 0.350359
O O22 0.250000 0.310805 0.916940
#
# Coordination Sequence:
#
# PCOD8191329 Si02
#       8
#     8   8   8   8   8   8   8   8
#     4  11  21  34  48  62  82 110 141 176 211 248
#     4  11  21  32  44  62  85 110 140 177 212 246
#     4   9  17  27  42  62  87 115 146 178 210 248
#     4   9  16  29  45  61  81 112 146 175 208 248
#     4  11  20  30  44  63  84 110 142 177 212 251
#     4   8  15  29  43  58  81 112 143 174 209 248
#     4  10  18  29  43  62  86 114 144 175 208 248
#     4   7  13  26  43  58  79 109 141 172 205 243
#
# _framework density 15.171654999999999
#
# number of rings (size 3 to 8) (size 9 to 14) (size 15 to 20)
#    0.000    2.500    0.000    7.500    0.000    2.000 
#    0.000    5.625    0.000    0.000    0.000    0.000 
#    0.000    1.000    0.000    6.250    0.000    4.250 
#
# Total GULP energy -396521.900746 kJ/mol
# GULP energy per Si atom -12391.309398 kJ/mol
# Density = 1.513712 g / cm^3
# Si number density = 15.171655 Si / 1000 Ang^3
#
#
#
# Elastic Constant Matrix: (Units=GPa)
#
#
# Indices 1 2 3 4 5 6 
#
# 1 84.4622 35.8570 31.8307 0.0000 0.0000 0.0000
# 2 35.8570 125.9798 57.1896 0.0000 0.0000 0.0000
# 3 31.8307 57.1896 76.5703 0.0000 0.0000 0.0000
# 4 0.0000 0.0000 0.0000 25.2947 0.0000 0.0000
# 5 0.0000 0.0000 0.0000 0.0000 16.8521 0.0000
# 6 0.0000 0.0000 0.0000 0.0000 0.0000 20.7901
#
#
#
# Elastic Compliance Matrix: (Units=1/GPa)
#
#
# Indices 1 2 3 4 5 6 
#
# 1 0.014393 -0.002089 -0.004423 0.000000 0.000000 0.000000
# 2 -0.002089 0.012313 -0.008328 0.000000 0.000000 0.000000
# 3 -0.004423 -0.008328 0.021119 0.000000 0.000000 0.000000
# 4 0.000000 0.000000 0.000000 0.039534 0.000000 0.000000
# 5 0.000000 0.000000 0.000000 0.000000 0.059340 0.000000
# 6 0.000000 0.000000 0.000000 0.000000 0.000000 0.048100
#
#
# Mechanical properties :
#
#
# Convention : Reuss Voigt Hill
#
# Bulk Modulus (GPa) = 55.11220 59.64077 57.37649
# Shear Modulus (GPa) = 21.68943 23.39639 22.54291
#
# Velocity S-wave (km/s) = 3.78511 3.93123 3.85886
# Velocity P-wave (km/s) = 7.45033 7.74610 7.59965
#
# Compressibility (1/GPa) = 0.01814480
#
# Stress axis : x y z
#
# Youngs Moduli (GPa) = 69.47653 81.21580 47.35102
#
# Poissons Ratio (x) = 0.16963 0.20945
# Poissons Ratio (y) = 0.14511 0.39434
# Poissons Ratio (z) = 0.30732 0.67637
#
# Static dielectric constant tensor:
#      x y z
#    x 2.861850 0.000000 0.000000 
#    y 0.000000 3.447090 0.000000 
#    z 0.000000 0.000000 2.817950 
# 
# 
# High freq. dielectric constant tensor:
#      x y z
#    x 1.580010 0.000000 0.000000 
#    y 0.000000 1.576330 0.000000 
#    z 0.000000 0.000000 1.547370 
# 
# From -- ./inp_files/23302.got.cif
#   From: 2010.03.12/outbox.cif.g09.slc.cpg/sg46_12_cif.got.tgz:23302.got - 2010.04.14 02:56:35.
