data_PCOD8191562
_publ_section_title
;
Structure prediction by ZEFSAII (Michael W. Deem and Ramdas Pophale) SiO2 
 PCOD8191562
Probable space group: I M A 2
;
_chemical_formula_sum "Si O2"
_cell_formula_units_Z 56
_cell_length_a 20.235606
_cell_length_b 16.598158
_cell_length_c 9.369229
_cell_angle_alpha 90.000000
_cell_angle_beta 90.000000
_cell_angle_gamma 90.000000
_cell_volume 3146.878413
_symmetry_space_group_name_H-M "I M A 2"
_symmetry_group_IT_number 46
_symmetry_cell_setting 'orthorhombic'
loop_
_space_group_symop_operation_xyz
x,y,z
-x,-y,z
1/2-x,y,z
1/2+x,-y,z
1/2+x,1/2+y,1/2+z
1/2-x,1/2-y,1/2+z
-x,1/2+y,1/2+z
x,1/2-y,1/2+z
loop_
_atom_site_type_symbol
_atom_site_label
_atom_site_fract_x
_atom_site_fract_y
_atom_site_fract_z
Si Si1 0.676121 0.251835 0.005470
Si Si2 0.126181 0.911976 0.036723
Si Si3 0.929051 0.541503 0.354958
Si Si4 0.997249 0.321609 0.475002
Si Si5 0.947018 0.298429 0.174050
Si Si6 0.069113 0.524898 0.064030
Si Si7 0.174631 0.912940 0.351154
O O1 0.750000 0.262117 0.067696
O O2 0.666249 0.159235 0.952554
O O3 0.624640 0.262579 0.134915
O O4 0.663010 0.318021 0.882611
O O5 0.159351 0.931088 0.187587
O O6 0.050031 0.885014 0.057620
O O7 0.127308 0.993511 0.942728
O O8 0.909716 0.540193 0.186494
O O9 0.000000 0.500000 0.370120
O O10 0.936154 0.632759 0.420228
O O11 0.958564 0.283027 0.340506
O O12 0.006084 0.246330 0.583497
O O13 0.947279 0.393166 0.147989
O O14 0.000000 0.500000 0.987434
O O15 0.127093 0.532396 0.949144
O O16 0.250000 0.937820 0.384571
#
# Coordination Sequence:
#
# PCOD8191562 Si02
#       7
#     8   8   8   8   8   8   8
#     4   9  20  31  45  68 102 143 181 216 251 312
#     4  10  19  31  48  67  99 145 184 216 257 309
#     4   9  17  35  50  70 101 140 178 226 279 320
#     4  10  20  32  51  74 105 136 181 232 270 322
#     4  10  19  32  50  75 103 141 178 221 270 323
#     4  10  18  34  57  74 103 143 183 217 273 336
#     4  10  22  35  47  74 109 142 186 228 266 320
#
# _framework density 17.795411999999999
#
# number of rings (size 3 to 8) (size 9 to 14) (size 15 to 20)
#    0.000    2.286    4.286    0.429   12.000    1.714 
#    0.000    2.143    0.000    0.000    0.000    0.000 
#    0.000    5.714    0.000    0.000    0.000    0.000 
#
# Total GULP energy -346891.436711 kJ/mol
# GULP energy per Si atom -12388.979883 kJ/mol
# Density = 1.775491 g / cm^3
# Si number density = 17.795412 Si / 1000 Ang^3
#
#
#
# Elastic Constant Matrix: (Units=GPa)
#
#
# Indices 1 2 3 4 5 6 
#
# 1 80.6478 36.6967 44.0030 0.0000 0.0000 0.0000
# 2 36.6967 46.9281 19.6554 0.0000 0.0000 0.0000
# 3 44.0030 19.6554 81.5032 0.0000 0.0000 0.0000
# 4 0.0000 0.0000 0.0000 27.3489 0.0000 0.0000
# 5 0.0000 0.0000 0.0000 0.0000 20.6463 0.0000
# 6 0.0000 0.0000 0.0000 0.0000 0.0000 28.0679
#
#
#
# Elastic Compliance Matrix: (Units=1/GPa)
#
#
# Indices 1 2 3 4 5 6 
#
# 1 0.024532 -0.015168 -0.009587 0.000000 0.000000 0.000000
# 2 -0.015168 0.033082 0.000211 0.000000 0.000000 0.000000
# 3 -0.009587 0.000211 0.017394 0.000000 0.000000 0.000000
# 4 0.000000 0.000000 0.000000 0.036565 0.000000 0.000000
# 5 0.000000 0.000000 0.000000 0.000000 0.048435 0.000000
# 6 0.000000 0.000000 0.000000 0.000000 0.000000 0.035628
#
#
# Mechanical properties :
#
#
# Convention : Reuss Voigt Hill
#
# Bulk Modulus (GPa) = 38.57911 45.53214 42.05562
# Shear Modulus (GPa) = 19.73445 22.46087 21.09766
#
# Velocity S-wave (km/s) = 3.33372 3.55656 3.44694
# Velocity P-wave (km/s) = 6.04521 6.51978 6.28697
#
# Compressibility (1/GPa) = 0.02592077
#
# Stress axis : x y z
#
# Youngs Moduli (GPa) = 40.76268 30.22795 57.48992
#
# Poissons Ratio (x) = 0.45851 0.55114
# Poissons Ratio (y) = 0.61830 -0.01214
# Poissons Ratio (z) = 0.39078 -0.00638
#
# Static dielectric constant tensor:
#      x y z
#    x 3.138290 0.000000 0.000000 
#    y 0.000000 3.557890 0.000000 
#    z 0.000000 0.000000 3.284330 
# 
# 
# High freq. dielectric constant tensor:
#      x y z
#    x 1.644770 0.000000 0.000000 
#    y 0.000000 1.663930 0.000000 
#    z 0.000000 0.000000 1.690870 
# 
# From -- ./inp_files/7504.got.cif
#   From: 2010.03.12/outbox.cif.g09.slc.cpg/sg46_4_cif.got.tgz:7504.got - 2010.04.14 02:56:35.
