data_PCOD8191474
_publ_section_title
;
Structure prediction by ZEFSAII (Michael W. Deem and Ramdas Pophale) SiO2 
 PCOD8191474
Probable space group: I M A 2
;
_chemical_formula_sum "Si O2"
_cell_formula_units_Z 64
_cell_length_a 8.889410
_cell_length_b 33.416835
_cell_length_c 11.828100
_cell_angle_alpha 90.000000
_cell_angle_beta 90.000000
_cell_angle_gamma 90.000000
_cell_volume 3513.607449
_symmetry_space_group_name_H-M "I M A 2"
_symmetry_group_IT_number 46
_symmetry_cell_setting 'orthorhombic'
loop_
_space_group_symop_operation_xyz
x,y,z
-x,-y,z
1/2-x,y,z
1/2+x,-y,z
1/2+x,1/2+y,1/2+z
1/2-x,1/2-y,1/2+z
-x,1/2+y,1/2+z
x,1/2-y,1/2+z
loop_
_atom_site_type_symbol
_atom_site_label
_atom_site_fract_x
_atom_site_fract_y
_atom_site_fract_z
Si Si1 0.074901 0.458133 0.534550
Si Si2 0.421055 0.684065 0.048037
Si Si3 0.075330 0.459383 0.269720
Si Si4 0.925395 0.376440 0.603106
Si Si5 0.921433 0.116328 0.717766
Si Si6 0.924971 0.183919 0.293343
Si Si7 0.426729 0.332590 0.401404
Si Si8 0.426998 0.235233 0.734508
O O1 0.250000 0.460643 0.564421
O O2 0.047225 0.451495 0.402138
O O3 0.000000 0.500000 0.574892
O O4 0.005781 0.419541 0.597596
O O5 0.250000 0.699641 0.049167
O O6 0.432298 0.640084 0.101142
O O7 0.518221 0.715358 0.118561
O O8 0.484014 0.679699 0.921391
O O9 0.250000 0.459156 0.238672
O O10 0.000000 0.500000 0.231018
O O11 0.984202 0.427625 0.194770
O O12 0.750000 0.383253 0.579534
O O13 0.955881 0.357431 0.726678
O O14 0.985860 0.342919 0.515796
O O15 0.750000 0.115859 0.763843
O O16 0.034040 0.133761 0.810742
O O17 0.750000 0.194620 0.290139
O O18 0.011958 0.220208 0.235682
O O19 0.250000 0.333623 0.426999
O O20 0.478346 0.289996 0.346357
O O21 0.250000 0.236168 0.729134
#
# Coordination Sequence:
#
# PCOD8191474 Si02
#       8
#     8   8   8   8   8   8   8   8
#     4  10  20  34  54  80 114 149 180 223 276 332
#     4   9  20  39  58  77 104 142 185 224 269 325
#     4  10  19  30  48  77 112 143 173 214 267 323
#     4  11  22  35  55  82 111 146 185 228 275 329
#     4  10  18  31  54  78 103 138 176 218 266 318
#     4  10  23  40  57  79 108 145 188 230 273 326
#     4  10  20  34  51  76 109 142 177 219 269 326
#     4  10  22  37  56  81 109 141 181 230 280 325
#
# _framework density 18.214897000000001
#
# number of rings (size 3 to 8) (size 9 to 14) (size 15 to 20)
#    0.000    2.000    1.250    2.250    1.750    4.500 
#    0.000    0.000    0.000    0.750    0.000    0.000 
#    0.000    0.000    0.000    0.000    0.000    0.000 
#
# Total GULP energy -396783.184438 kJ/mol
# GULP energy per Si atom -12399.474514 kJ/mol
# Density = 1.817344 g / cm^3
# Si number density = 18.214897 Si / 1000 Ang^3
#
#
#
# Elastic Constant Matrix: (Units=GPa)
#
#
# Indices 1 2 3 4 5 6 
#
# 1 79.8997 52.6140 35.7385 -0.0006 0.0012 0.0004
# 2 52.6140 125.0858 41.6226 -0.0021 0.0011 0.0000
# 3 35.7385 41.6226 90.4274 -0.0051 0.0015 -0.0001
# 4 -0.0006 -0.0021 -0.0051 23.3092 0.0013 -0.0001
# 5 0.0012 0.0011 0.0015 0.0013 12.6413 -0.0008
# 6 0.0004 0.0000 -0.0001 -0.0001 -0.0008 34.4194
#
#
#
# Elastic Compliance Matrix: (Units=1/GPa)
#
#
# Indices 1 2 3 4 5 6 
#
# 1 0.018717 -0.006390 -0.004456 -0.000001 -0.000001 0.000000
# 2 -0.006390 0.011622 -0.002824 0.000000 0.000000 0.000000
# 3 -0.004456 -0.002824 0.014120 0.000003 -0.000001 0.000000
# 4 -0.000001 0.000000 0.000003 0.042902 -0.000004 0.000000
# 5 -0.000001 0.000000 -0.000001 -0.000004 0.079106 0.000002
# 6 0.000000 0.000000 0.000000 0.000000 0.000002 0.029053
#
#
# Mechanical properties :
#
#
# Convention : Reuss Voigt Hill
#
# Bulk Modulus (GPa) = 58.41700 61.70703 60.06202
# Shear Modulus (GPa) = 21.87565 25.10315 23.48940
#
# Velocity S-wave (km/s) = 3.46927 3.71639 3.59496
# Velocity P-wave (km/s) = 6.94179 7.23645 7.09065
#
# Compressibility (1/GPa) = 0.01711830
#
# Stress axis : x y z
#
# Youngs Moduli (GPa) = 53.42866 86.04402 70.82388
#
# Poissons Ratio (x) = 0.54981 0.31559
# Poissons Ratio (y) = 0.34140 0.20001
# Poissons Ratio (z) = 0.23807 0.24299
#
# Static dielectric constant tensor:
#      x y z
#    x 3.408080 0.000000 0.000000 
#    y 0.000000 3.408120 0.000000 
#    z 0.000000 0.000000 3.249130 
# 
# 
# High freq. dielectric constant tensor:
#      x y z
#    x 1.716730 0.000000 0.000000 
#    y 0.000000 1.711680 0.000000 
#    z 0.000000 0.000000 1.675790 
# 
# From -- ./inp_files/9657.got.cif
#   From: 2010.03.12/outbox.cif.g09.slc.cpg/sg46_5_cif.got.tgz:9657.got - 2010.04.14 02:56:35.
