data_PCOD8191999
_publ_section_title
;
Structure prediction by ZEFSAII (Michael W. Deem and Ramdas Pophale) SiO2 
 PCOD8191999
Probable space group: I M A 2
;
_chemical_formula_sum "Si O2"
_cell_formula_units_Z 64
_cell_length_a 8.664673
_cell_length_b 24.743810
_cell_length_c 15.166315
_cell_angle_alpha 90.000000
_cell_angle_beta 90.000000
_cell_angle_gamma 90.000000
_cell_volume 3251.612777
_symmetry_space_group_name_H-M "I M A 2"
_symmetry_group_IT_number 46
_symmetry_cell_setting 'orthorhombic'
loop_
_space_group_symop_operation_xyz
x,y,z
-x,-y,z
1/2-x,y,z
1/2+x,-y,z
1/2+x,1/2+y,1/2+z
1/2-x,1/2-y,1/2+z
-x,1/2+y,1/2+z
x,1/2-y,1/2+z
loop_
_atom_site_type_symbol
_atom_site_label
_atom_site_fract_x
_atom_site_fract_y
_atom_site_fract_z
Si Si1 0.432050 0.352739 0.037350
Si Si2 0.071930 0.836890 0.355390
Si Si3 0.571627 0.398936 0.342010
Si Si4 0.932228 0.941429 0.022788
Si Si5 0.570348 0.137108 0.162576
Si Si6 0.070098 0.266831 0.570881
Si Si7 0.068077 0.443216 0.168247
Si Si8 0.927020 0.282694 0.391919
O O1 0.250000 0.353176 0.041178
O O2 0.492309 0.294737 0.071988
O O3 0.501108 0.398544 0.101336
O O4 0.480243 0.363257 0.936416
O O5 0.250000 0.842937 0.378832
O O6 0.031567 0.869445 0.266367
O O7 0.030945 0.773123 0.342358
O O8 0.750000 0.415287 0.333339
O O9 0.512734 0.416866 0.437216
O O10 0.477333 0.430271 0.268129
O O11 0.547194 0.334400 0.328637
O O12 0.750000 0.944667 0.007733
O O13 0.966870 0.904151 0.107328
O O14 0.000000 0.000000 0.043538
O O15 0.750000 0.126351 0.143107
O O16 0.528870 0.198978 0.139999
O O17 0.250000 0.271183 0.594356
O O18 0.041173 0.291166 0.474005
O O19 0.250000 0.445801 0.161551
O O20 0.000000 0.500000 0.137842
O O21 0.750000 0.282164 0.426042
#
# Coordination Sequence:
#
# PCOD8191999 Si02
#       8
#     8   8   8   8   8   8   8   8
#     4   9  21  40  60  85 118 154 196 248 302 353
#     4   9  20  37  59  87 120 157 196 242 292 348
#     4  11  22  37  60  89 122 158 197 240 293 352
#     4  12  25  42  63  86 118 158 201 245 296 351
#     4  11  22  37  58  88 123 157 197 243 291 348
#     4  10  19  33  55  85 117 154 193 234 291 350
#     4  11  24  42  61  85 117 154 202 252 299 352
#     4   9  18  34  55  83 119 156 193 233 283 344
#
# _framework density 19.682538999999998
#
# number of rings (size 3 to 8) (size 9 to 14) (size 15 to 20)
#    0.000    1.750    1.250    3.000    1.750    3.000 
#    0.000    0.625    0.000    1.500    0.000    0.000 
#    0.000    0.000    0.000    0.000    0.000    0.000 
#
# Total GULP energy -396839.302776 kJ/mol
# GULP energy per Si atom -12401.228212 kJ/mol
# Density = 1.963774 g / cm^3
# Si number density = 19.682539 Si / 1000 Ang^3
#
#
#
# Elastic Constant Matrix: (Units=GPa)
#
#
# Indices 1 2 3 4 5 6 
#
# 1 49.7047 23.6600 13.5723 0.0002 0.0000 0.0000
# 2 23.6600 113.1587 51.7409 0.0000 0.0000 0.0000
# 3 13.5723 51.7409 89.1177 0.0003 0.0000 0.0000
# 4 0.0002 0.0000 0.0003 29.0346 0.0000 0.0000
# 5 0.0000 0.0000 0.0000 0.0000 29.6026 0.0000
# 6 0.0000 0.0000 0.0000 0.0000 0.0000 29.8551
#
#
#
# Elastic Compliance Matrix: (Units=1/GPa)
#
#
# Indices 1 2 3 4 5 6 
#
# 1 0.022401 -0.004253 -0.000942 0.000000 0.000000 0.000000
# 2 -0.004253 0.012838 -0.006806 0.000000 0.000000 0.000000
# 3 -0.000942 -0.006806 0.015316 0.000000 0.000000 0.000000
# 4 0.000000 0.000000 0.000000 0.034442 0.000000 0.000000
# 5 0.000000 0.000000 0.000000 0.000000 0.033781 0.000000
# 6 0.000000 0.000000 0.000000 0.000000 0.000000 0.033495
#
#
# Mechanical properties :
#
#
# Convention : Reuss Voigt Hill
#
# Bulk Modulus (GPa) = 37.66124 47.76970 42.71547
# Shear Modulus (GPa) = 27.00860 28.56566 27.78713
#
# Velocity S-wave (km/s) = 3.70836 3.81375 3.76142
# Velocity P-wave (km/s) = 6.12468 6.61179 6.37289
#
# Compressibility (1/GPa) = 0.02655250
#
# Stress axis : x y z
#
# Youngs Moduli (GPa) = 44.64186 77.89128 65.29020
#
# Poissons Ratio (x) = 0.33125 0.06153
# Poissons Ratio (y) = 0.18985 0.44438
# Poissons Ratio (z) = 0.04207 0.53014
#
# Static dielectric constant tensor:
#      x y z
#    x 3.552710 0.000000 0.000000 
#    y 0.000000 3.816540 0.000000 
#    z 0.000000 0.000000 3.487390 
# 
# 
# High freq. dielectric constant tensor:
#      x y z
#    x 1.768550 0.000000 0.000000 
#    y 0.000000 1.766010 0.000000 
#    z 0.000000 0.000000 1.758510 
# 
# From -- ./inp_files/14488.got.cif
#   From: 2010.03.12/outbox.cif.g09.slc.cpg/sg46_8_cif.got.tgz:14488.got - 2010.04.14 02:56:35.
