data_PCOD8191863
_publ_section_title
;
Structure prediction by ZEFSAII (Michael W. Deem and Ramdas Pophale) SiO2 
 PCOD8191863
Probable space group: I M A 2
;
_chemical_formula_sum "Si O2"
_cell_formula_units_Z 48
_cell_length_a 8.885694
_cell_length_b 9.577853
_cell_length_c 30.679279
_cell_angle_alpha 90.000000
_cell_angle_beta 90.000000
_cell_angle_gamma 90.000000
_cell_volume 2610.986759
_symmetry_space_group_name_H-M "I M A 2"
_symmetry_group_IT_number 46
_symmetry_cell_setting 'orthorhombic'
loop_
_space_group_symop_operation_xyz
x,y,z
-x,-y,z
1/2-x,y,z
1/2+x,-y,z
1/2+x,1/2+y,1/2+z
1/2-x,1/2-y,1/2+z
-x,1/2+y,1/2+z
x,1/2-y,1/2+z
loop_
_atom_site_type_symbol
_atom_site_label
_atom_site_fract_x
_atom_site_fract_y
_atom_site_fract_z
Si Si1 0.427230 0.349177 0.354020
Si Si2 0.424737 0.850723 0.189854
Si Si3 0.571709 0.652749 0.774849
Si Si4 0.074882 0.850160 0.094239
Si Si5 0.427081 0.355653 0.027548
Si Si6 0.926408 0.855787 0.428289
O O1 0.500000 0.500000 0.351060
O O2 0.250000 0.370142 0.354130
O O3 0.479226 0.254545 0.313520
O O4 0.482303 0.271264 0.398008
O O5 0.250000 0.866225 0.201791
O O6 0.509625 0.774785 0.230054
O O7 0.445062 0.778308 0.142328
O O8 0.500000 0.000000 0.185970
O O9 0.500000 0.500000 0.782036
O O10 0.750000 0.636701 0.772643
O O11 0.250000 0.864151 0.082466
O O12 0.991631 0.762871 0.057915
O O13 0.000000 0.000000 0.093930
O O14 0.500000 0.500000 0.042431
O O15 0.250000 0.366777 0.033645
O O16 0.472132 0.319840 0.977837
O O17 0.750000 0.877748 0.423176
O O18 0.000000 0.000000 0.412557
#
# Coordination Sequence:
#
# PCOD8191863 Si02
#       6
#     8   8   8   8   8   8
#     4  10  22  37  52  75 106 136 168 207 254 305
#     4   9  17  30  50  75 102 133 170 211 253 299
#     4  10  19  32  53  78 102 132 171 212 252 299
#     4  10  20  34  53  78 107 139 175 215 260 308
#     4  10  20  35  55  78 106 138 173 215 259 307
#     4   9  19  36  56  78 102 132 172 212 252 302
#
# _framework density 18.383853999999999
#
# number of rings (size 3 to 8) (size 9 to 14) (size 15 to 20)
#    0.000    2.333    0.000    3.500    0.000    5.333 
#    0.000    2.500    0.000    2.000    0.000    0.000 
#    0.000    0.000    0.000    0.000    0.000    0.000 
#
# Total GULP energy -297498.975861 kJ/mol
# GULP energy per Si atom -12395.790661 kJ/mol
# Density = 1.834201 g / cm^3
# Si number density = 18.383854 Si / 1000 Ang^3
#
#
#
# Elastic Constant Matrix: (Units=GPa)
#
#
# Indices 1 2 3 4 5 6 
#
# 1 78.0025 41.5075 48.3161 0.0000 0.0000 0.0000
# 2 41.5075 105.6781 74.8534 0.0000 0.0000 0.0000
# 3 48.3161 74.8534 134.1194 0.0000 0.0000 0.0000
# 4 0.0000 0.0000 0.0000 28.0657 0.0000 0.0000
# 5 0.0000 0.0000 0.0000 0.0000 30.8621 0.0000
# 6 0.0000 0.0000 0.0000 0.0000 0.0000 33.3784
#
#
#
# Elastic Compliance Matrix: (Units=1/GPa)
#
#
# Indices 1 2 3 4 5 6 
#
# 1 0.017456 -0.003972 -0.004071 0.000000 0.000000 0.000000
# 2 -0.003972 0.016553 -0.007807 0.000000 0.000000 0.000000
# 3 -0.004071 -0.007807 0.013280 0.000000 0.000000 0.000000
# 4 0.000000 0.000000 0.000000 0.035631 0.000000 0.000000
# 5 0.000000 0.000000 0.000000 0.000000 0.032402 0.000000
# 6 0.000000 0.000000 0.000000 0.000000 0.000000 0.029960
#
#
# Mechanical properties :
#
#
# Convention : Reuss Voigt Hill
#
# Bulk Modulus (GPa) = 64.15722 71.90600 68.03161
# Shear Modulus (GPa) = 27.44552 28.66944 28.05748
#
# Velocity S-wave (km/s) = 3.86802 3.95332 3.91090
# Velocity P-wave (km/s) = 7.41102 7.74835 7.58156
#
# Compressibility (1/GPa) = 0.01558671
#
# Stress axis : x y z
#
# Youngs Moduli (GPa) = 57.28764 60.41198 75.30047
#
# Poissons Ratio (x) = 0.23998 0.30658
# Poissons Ratio (y) = 0.22757 0.58790
# Poissons Ratio (z) = 0.23324 0.47166
#
# Static dielectric constant tensor:
#      x y z
#    x 3.461600 0.000000 0.000000 
#    y 0.000000 3.155930 0.000000 
#    z 0.000000 0.000000 4.038990 
# 
# 
# High freq. dielectric constant tensor:
#      x y z
#    x 1.723100 0.000000 0.000000 
#    y 0.000000 1.682250 0.000000 
#    z 0.000000 0.000000 1.734070 
# 
# From -- ./inp_files/24989.got.cif
#   From: 2010.03.12/outbox.cif.g09.slc.cpg/sg46_13_cif.got.tgz:24989.got - 2010.04.14 02:56:35.
