data_PCOD8191152
_publ_section_title
;
Structure prediction by ZEFSAII (Michael W. Deem and Ramdas Pophale) SiO2 
 PCOD8191152
Probable space group: I M A 2
;
_chemical_formula_sum "Si O2"
_cell_formula_units_Z 40
_cell_length_a 13.220726
_cell_length_b 19.421647
_cell_length_c 8.536255
_cell_angle_alpha 90.000000
_cell_angle_beta 90.000000
_cell_angle_gamma 90.000000
_cell_volume 2191.839458
_symmetry_space_group_name_H-M "I M A 2"
_symmetry_group_IT_number 46
_symmetry_cell_setting 'orthorhombic'
loop_
_space_group_symop_operation_xyz
x,y,z
-x,-y,z
1/2-x,y,z
1/2+x,-y,z
1/2+x,1/2+y,1/2+z
1/2-x,1/2-y,1/2+z
-x,1/2+y,1/2+z
x,1/2-y,1/2+z
loop_
_atom_site_type_symbol
_atom_site_label
_atom_site_fract_x
_atom_site_fract_y
_atom_site_fract_z
Si Si1 0.539913 0.176139 0.615310
Si Si2 0.250000 0.856677 0.961288
Si Si3 0.750000 0.226390 0.645970
Si Si4 0.575591 0.722374 0.830844
Si Si5 0.857822 0.843473 0.033390
Si Si6 0.463010 0.922318 0.887399
O O1 0.653930 0.191447 0.562607
O O2 0.509892 0.239375 0.728696
O O3 0.474197 0.171446 0.458347
O O4 0.527586 0.105007 0.709825
O O5 0.250000 0.797099 0.828262
O O6 0.349304 0.906251 0.951038
O O7 0.250000 0.810162 0.120421
O O8 0.643983 0.677435 0.715742
O O9 0.644257 0.776959 0.921858
O O10 0.750000 0.882176 0.002488
O O11 0.957120 0.887466 0.003380
O O12 0.500000 0.000000 0.884373
#
# Coordination Sequence:
#
# PCOD8191152 Si02
#       6
#     8   4   4   8   8   8
#     4   9  17  30  51  78 110 137 173 229 274 324
#     4  10  20  34  58  82 110 136 178 232 278 322
#     4  10  16  28  52  84 102 130 176 230 286 308
#     4   9  17  31  50  79 107 131 172 220 281 313
#     4  10  19  32  54  79 107 140 173 224 265 318
#     4  10  22  36  52  77 108 150 184 215 261 332
#
# _framework density 18.249510999999998
#
# number of rings (size 3 to 8) (size 9 to 14) (size 15 to 20)
#    0.000    2.400    0.000    5.400    1.400    0.000 
#    0.000    2.000    0.000    0.000    5.200    0.000 
#    0.000    0.000    0.000    0.000    0.000    0.000 
#
# Total GULP energy -247809.096387 kJ/mol
# GULP energy per Si atom -12390.454819 kJ/mol
# Density = 1.820797 g / cm^3
# Si number density = 18.249511 Si / 1000 Ang^3
#
#
#
# Elastic Constant Matrix: (Units=GPa)
#
#
# Indices 1 2 3 4 5 6 
#
# 1 151.7687 50.5072 39.8162 0.0000 0.0000 0.0000
# 2 50.5072 99.1515 33.8747 0.0000 0.0000 0.0000
# 3 39.8162 33.8747 88.8963 0.0000 0.0000 0.0000
# 4 0.0000 0.0000 0.0000 17.6963 0.0000 0.0000
# 5 0.0000 0.0000 0.0000 0.0000 10.2958 0.0000
# 6 0.0000 0.0000 0.0000 0.0000 0.0000 21.2551
#
#
#
# Elastic Compliance Matrix: (Units=1/GPa)
#
#
# Indices 1 2 3 4 5 6 
#
# 1 0.008371 -0.003430 -0.002442 0.000000 0.000000 0.000000
# 2 -0.003430 0.013000 -0.003418 0.000000 0.000000 0.000000
# 3 -0.002442 -0.003418 0.013645 0.000000 0.000000 0.000000
# 4 0.000000 0.000000 0.000000 0.056509 0.000000 0.000000
# 5 0.000000 0.000000 0.000000 0.000000 0.097127 0.000000
# 6 0.000000 0.000000 0.000000 0.000000 0.000000 0.047047
#
#
# Mechanical properties :
#
#
# Convention : Reuss Voigt Hill
#
# Bulk Modulus (GPa) = 60.83842 65.35698 63.09770
# Shear Modulus (GPa) = 19.24857 24.22399 21.73628
#
# Velocity S-wave (km/s) = 3.25121 3.64727 3.45492
# Velocity P-wave (km/s) = 6.89225 7.32308 7.11093
#
# Compressibility (1/GPa) = 0.01643698
#
# Stress axis : x y z
#
# Youngs Moduli (GPa) = 119.45806 76.92119 73.28494
#
# Poissons Ratio (x) = 0.26382 0.17899
# Poissons Ratio (y) = 0.40971 0.25047
# Poissons Ratio (z) = 0.29177 0.26289
#
# Static dielectric constant tensor:
#      x y z
#    x 3.521900 0.000000 0.000000 
#    y 0.000000 3.076560 0.000000 
#    z 0.000000 0.000000 3.429290 
# 
# 
# High freq. dielectric constant tensor:
#      x y z
#    x 1.727880 0.000000 0.000000 
#    y 0.000000 1.659170 0.000000 
#    z 0.000000 0.000000 1.704440 
# 
# From -- ./inp_files/4593.got.cif
#   From: 2010.03.12/outbox.cif.g09.slc.cpg/sg46_3_cif.got.tgz:4593.got - 2010.04.14 02:56:35.
