data_PCOD8191264
_publ_section_title
;
Structure prediction by ZEFSAII (Michael W. Deem and Ramdas Pophale) SiO2 
 PCOD8191264
Probable space group: I M A 2
;
_chemical_formula_sum "Si O2"
_cell_formula_units_Z 64
_cell_length_a 8.820473
_cell_length_b 26.625674
_cell_length_c 18.532491
_cell_angle_alpha 90.000000
_cell_angle_beta 90.000000
_cell_angle_gamma 90.000000
_cell_volume 4352.374760
_symmetry_space_group_name_H-M "I M A 2"
_symmetry_group_IT_number 46
_symmetry_cell_setting 'orthorhombic'
loop_
_space_group_symop_operation_xyz
x,y,z
-x,-y,z
1/2-x,y,z
1/2+x,-y,z
1/2+x,1/2+y,1/2+z
1/2-x,1/2-y,1/2+z
-x,1/2+y,1/2+z
x,1/2-y,1/2+z
loop_
_atom_site_type_symbol
_atom_site_label
_atom_site_fract_x
_atom_site_fract_y
_atom_site_fract_z
Si Si1 0.928689 0.745249 0.620550
Si Si2 0.928439 0.448727 0.619936
Si Si3 0.928652 0.350077 0.379512
Si Si4 0.424998 0.257485 0.458230
Si Si5 0.930353 0.150820 0.201146
Si Si6 0.072961 0.796554 0.741615
Si Si7 0.573103 0.795865 0.319698
Si Si8 0.429155 0.948844 0.955541
O O1 0.750000 0.737762 0.627592
O O2 0.980695 0.755723 0.538521
O O3 0.011161 0.695461 0.649654
O O4 0.980369 0.794645 0.666344
O O5 0.750000 0.454467 0.623719
O O6 0.984115 0.401909 0.667613
O O7 0.982559 0.439568 0.537751
O O8 0.000000 0.500000 0.650913
O O9 0.750000 0.348084 0.389183
O O10 0.972100 0.342880 0.294566
O O11 0.992753 0.403358 0.406614
O O12 0.990409 0.306204 0.429757
O O13 0.250000 0.272268 0.458719
O O14 0.451515 0.208553 0.406274
O O15 0.750000 0.154085 0.207248
O O16 0.007487 0.153868 0.281452
O O17 0.250000 0.796837 0.723446
O O18 0.029693 0.747020 0.785125
O O19 0.750000 0.788897 0.299830
O O20 0.250000 0.952945 0.950195
O O21 0.500000 0.000000 0.924773
#
# Coordination Sequence:
#
# PCOD8191264 Si02
#       8
#     8   8   8   8   8   8   8   8
#     4  10  18  27  39  57  80 106 132 161 192 227
#     4   9  18  29  41  56  77 102 130 162 193 223
#     4   9  17  28  42  57  77 104 133 162 195 229
#     4   9  18  28  39  57  80 104 133 162 191 227
#     4  10  18  28  41  58  78 103 133 163 193 229
#     4   9  16  26  39  56  76 101 130 160 192 229
#     4   9  16  27  40  55  76 102 129 160 193 228
#     4   9  17  29  41  56  77 102 130 162 194 224
#
# _framework density 14.704616
#
# number of rings (size 3 to 8) (size 9 to 14) (size 15 to 20)
#    0.000    2.750    0.000    3.750    0.000    4.500 
#    0.000    2.500    0.000    0.000    0.000    0.000 
#    0.000    1.000    0.000    4.500    0.000    4.000 
#
# Total GULP energy -396500.143594 kJ/mol
# GULP energy per Si atom -12390.629487 kJ/mol
# Density = 1.467115 g / cm^3
# Si number density = 14.704616 Si / 1000 Ang^3
#
#
#
# Elastic Constant Matrix: (Units=GPa)
#
#
# Indices 1 2 3 4 5 6 
#
# 1 27.3292 24.1627 31.7378 0.0000 0.0000 0.0000
# 2 24.1627 92.4616 63.5991 0.0000 0.0000 0.0000
# 3 31.7378 63.5991 123.2833 0.0000 0.0000 0.0000
# 4 0.0000 0.0000 0.0000 25.9475 0.0000 0.0000
# 5 0.0000 0.0000 0.0000 0.0000 18.8696 0.0000
# 6 0.0000 0.0000 0.0000 0.0000 0.0000 20.1495
#
#
#
# Elastic Compliance Matrix: (Units=1/GPa)
#
#
# Indices 1 2 3 4 5 6 
#
# 1 0.055123 -0.007198 -0.010477 0.000000 0.000000 0.000000
# 2 -0.007198 0.017704 -0.007280 0.000000 0.000000 0.000000
# 3 -0.010477 -0.007280 0.014564 0.000000 0.000000 0.000000
# 4 0.000000 0.000000 0.000000 0.038539 0.000000 0.000000
# 5 0.000000 0.000000 0.000000 0.000000 0.052995 0.000000
# 6 0.000000 0.000000 0.000000 0.000000 0.000000 0.049629
#
#
# Mechanical properties :
#
#
# Convention : Reuss Voigt Hill
#
# Bulk Modulus (GPa) = 26.68109 53.56368 40.12239
# Shear Modulus (GPa) = 17.18459 21.23161 19.20810
#
# Velocity S-wave (km/s) = 3.42226 3.80396 3.61815
# Velocity P-wave (km/s) = 5.81377 7.46987 6.69324
#
# Compressibility (1/GPa) = 0.03747973
#
# Stress axis : x y z
#
# Youngs Moduli (GPa) = 18.14139 56.48489 68.66180
#
# Poissons Ratio (x) = 0.40660 0.71938
# Poissons Ratio (y) = 0.13059 0.49985
# Poissons Ratio (z) = 0.19007 0.41120
#
# Static dielectric constant tensor:
#      x y z
#    x 2.870220 0.000000 0.000000 
#    y 0.000000 2.867250 0.000000 
#    z 0.000000 0.000000 3.361970 
# 
# 
# High freq. dielectric constant tensor:
#      x y z
#    x 1.571400 0.000000 0.000000 
#    y 0.000000 1.526330 0.000000 
#    z 0.000000 0.000000 1.556950 
# 
# From -- ./inp_files/21511.got.cif
#   From: 2010.03.12/outbox.cif.g09.slc.cpg/sg46_11_cif.got.tgz:21511.got - 2010.04.14 02:56:35.
