data_PCOD8191990
_publ_section_title
;
Structure prediction by ZEFSAII (Michael W. Deem and Ramdas Pophale) SiO2 
 PCOD8191990
Probable space group: I M A 2
;
_chemical_formula_sum "Si O2"
_cell_formula_units_Z 64
_cell_length_a 8.503009
_cell_length_b 20.802884
_cell_length_c 19.642942
_cell_angle_alpha 90.000000
_cell_angle_beta 90.000000
_cell_angle_gamma 90.000000
_cell_volume 3474.583240
_symmetry_space_group_name_H-M "I M A 2"
_symmetry_group_IT_number 46
_symmetry_cell_setting 'orthorhombic'
loop_
_space_group_symop_operation_xyz
x,y,z
-x,-y,z
1/2-x,y,z
1/2+x,-y,z
1/2+x,1/2+y,1/2+z
1/2-x,1/2-y,1/2+z
-x,1/2+y,1/2+z
x,1/2-y,1/2+z
loop_
_atom_site_type_symbol
_atom_site_label
_atom_site_fract_x
_atom_site_fract_y
_atom_site_fract_z
Si Si1 0.562807 0.432940 0.302280
Si Si2 0.064433 0.812585 0.717749
Si Si3 0.564232 0.118612 0.074704
Si Si4 0.063673 0.736054 0.078276
Si Si5 0.933579 0.690503 0.793806
Si Si6 0.565110 0.232289 0.428463
Si Si7 0.564134 0.566707 0.710629
Si Si8 0.565691 0.872829 0.932493
O O1 0.500000 0.500000 0.271962
O O2 0.750000 0.432402 0.308019
O O3 0.498237 0.377015 0.252246
O O4 0.485047 0.424085 0.376019
O O5 0.250000 0.816504 0.714302
O O6 0.995801 0.806737 0.640498
O O7 0.022137 0.750411 0.761268
O O8 0.750000 0.113736 0.064803
O O9 0.507111 0.191052 0.090823
O O10 0.509129 0.073539 0.135739
O O11 0.480543 0.096479 0.005069
O O12 0.250000 0.735168 0.078595
O O13 0.006224 0.711107 0.004206
O O14 0.750000 0.700126 0.782488
O O15 0.992820 0.624481 0.759523
O O16 0.974125 0.688308 0.874017
O O17 0.750000 0.221764 0.419081
O O18 0.528931 0.307374 0.417808
O O19 0.500000 0.500000 0.741981
O O20 0.750000 0.564888 0.705170
O O21 0.750000 0.858395 0.928854
#
# Coordination Sequence:
#
# PCOD8191990 Si02
#       8
#     8   8   8   8   8   8   8   8
#     4  11  23  37  55  79 110 148 189 228 275 333
#     4  10  19  35  59  82 106 142 184 225 274 330
#     4  10  19  34  56  80 110 147 186 223 270 332
#     4   8  16  31  54  83 108 136 178 224 265 321
#     4  11  22  35  55  84 113 142 183 232 280 327
#     4  10  19  33  55  83 112 145 185 224 274 331
#     4  11  24  39  55  80 112 148 189 231 280 334
#     4  11  21  34  53  79 114 148 184 230 274 322
#
# _framework density 18.419474000000001
#
# number of rings (size 3 to 8) (size 9 to 14) (size 15 to 20)
#    0.000    1.750    2.500    3.750    0.000    2.500 
#    0.000    3.125    0.000    0.750    0.000    3.500 
#    0.000    0.000    0.000    0.000    0.000    0.000 
#
# Total GULP energy -396808.446775 kJ/mol
# GULP energy per Si atom -12400.263962 kJ/mol
# Density = 1.837755 g / cm^3
# Si number density = 18.419474 Si / 1000 Ang^3
#
#
#
# Elastic Constant Matrix: (Units=GPa)
#
#
# Indices 1 2 3 4 5 6 
#
# 1 35.4048 11.1200 9.0755 0.0000 0.0000 0.0000
# 2 11.1200 109.8629 59.0241 0.0000 0.0000 0.0000
# 3 9.0755 59.0241 120.6502 0.0000 0.0000 0.0000
# 4 0.0000 0.0000 0.0000 -11.8146 0.0000 0.0000
# 5 0.0000 0.0000 0.0000 0.0000 19.9458 0.0000
# 6 0.0000 0.0000 0.0000 0.0000 0.0000 23.9635
#
#
#
# Elastic Compliance Matrix: (Units=1/GPa)
#
#
# Indices 1 2 3 4 5 6 
#
# 1 0.029264 -0.002414 -0.001020 0.000000 0.000000 0.000000
# 2 -0.002414 0.012547 -0.005956 0.000000 0.000000 0.000000
# 3 -0.001020 -0.005956 0.011279 0.000000 0.000000 0.000000
# 4 0.000000 0.000000 0.000000 -0.084641 0.000000 0.000000
# 5 0.000000 0.000000 0.000000 0.000000 0.050136 0.000000
# 6 0.000000 0.000000 0.000000 0.000000 0.000000 0.041730
#
#
# Mechanical properties :
#
#
# Convention : Reuss Voigt Hill
#
# Bulk Modulus (GPa) = 29.14701 47.15079 38.14890
# Shear Modulus (GPa) = 55.22844 18.86549 37.04696
#
# Velocity S-wave (km/s) = 5.48168 3.20381 4.48961
# Velocity P-wave (km/s) = 7.47820 6.27214 6.90157
#
# Compressibility (1/GPa) = 0.03430883
#
# Stress axis : x y z
#
# Youngs Moduli (GPa) = 34.17117 79.70219 88.65885
#
# Poissons Ratio (x) = 0.19239 0.09047
# Poissons Ratio (y) = 0.08248 0.52809
# Poissons Ratio (z) = 0.03487 0.47474
#
# Static dielectric constant tensor:
#      x y z
#    x 3.263890 0.000000 0.000000 
#    y 0.000000 3.858350 0.000000 
#    z 0.000000 0.000000 3.859040 
# 
# 
# High freq. dielectric constant tensor:
#      x y z
#    x 1.711870 0.000000 0.000000 
#    y 0.000000 1.687750 0.000000 
#    z 0.000000 0.000000 1.721340 
# 
# From -- ./inp_files/21467.got.cif
#   From: 2010.03.12/outbox.cif.g09.slc.cpg/sg46_11_cif.got.tgz:21467.got - 2010.04.14 02:56:35.
