data_PCOD8191880
_publ_section_title
;
Structure prediction by ZEFSAII (Michael W. Deem and Ramdas Pophale) SiO2 
 PCOD8191880
Probable space group: I M A 2
;
_chemical_formula_sum "Si O2"
_cell_formula_units_Z 56
_cell_length_a 8.926465
_cell_length_b 14.354886
_cell_length_c 22.200251
_cell_angle_alpha 90.000000
_cell_angle_beta 90.000000
_cell_angle_gamma 90.000000
_cell_volume 2844.704364
_symmetry_space_group_name_H-M "I M A 2"
_symmetry_group_IT_number 46
_symmetry_cell_setting 'orthorhombic'
loop_
_space_group_symop_operation_xyz
x,y,z
-x,-y,z
1/2-x,y,z
1/2+x,-y,z
1/2+x,1/2+y,1/2+z
1/2-x,1/2-y,1/2+z
-x,1/2+y,1/2+z
x,1/2-y,1/2+z
loop_
_atom_site_type_symbol
_atom_site_label
_atom_site_fract_x
_atom_site_fract_y
_atom_site_fract_z
Si Si1 0.072849 0.595921 0.513430
Si Si2 0.923326 0.407617 0.377425
Si Si3 0.426376 0.094499 0.438784
Si Si4 0.924928 0.722746 0.049055
Si Si5 0.924933 0.406563 0.812175
Si Si6 0.926066 0.600469 0.161288
Si Si7 0.578256 0.288427 0.265004
O O1 0.250000 0.588815 0.519897
O O2 0.018759 0.615585 0.444687
O O3 0.000000 0.500000 0.536847
O O4 0.013716 0.680356 0.554506
O O5 0.750000 0.430424 0.380760
O O6 0.959294 0.323178 0.332538
O O7 0.000000 0.500000 0.351200
O O8 0.250000 0.079091 0.431312
O O9 0.463392 0.176276 0.485245
O O10 0.498410 0.120778 0.375058
O O11 0.500000 0.000000 0.464126
O O12 0.750000 0.743941 0.056055
O O13 0.980878 0.653864 0.101569
O O14 0.750000 0.424204 0.824005
O O15 0.949653 0.322738 0.764906
O O16 0.000000 0.500000 0.785084
O O17 0.750000 0.585175 0.160950
O O18 0.000000 0.500000 0.165010
O O19 0.969054 0.662886 0.218346
O O20 0.750000 0.312150 0.248187
#
# Coordination Sequence:
#
# PCOD8191880 Si02
#       7
#     8   8   8   8   8   8   8
#     4  10  20  35  57  83 112 145 180 222 271 324
#     4   9  18  32  51  79 111 141 175 217 267 321
#     4  10  19  32  53  81 113 146 181 223 272 326
#     4  10  22  38  55  79 110 145 185 227 270 319
#     4  10  20  35  55  81 113 144 179 224 272 325
#     4  11  24  41  60  82 110 142 180 225 269 318
#     4  10  21  37  56  79 109 145 185 226 270 321
#
# _framework density 19.685701999999999
#
# number of rings (size 3 to 8) (size 9 to 14) (size 15 to 20)
#    0.000    2.000    0.000    4.286    0.000    6.857 
#    0.000    0.714    0.000    1.714    0.000    0.000 
#    0.000    0.000    0.000    0.000    0.000    0.000 
#
# Total GULP energy -347254.245584 kJ/mol
# GULP energy per Si atom -12401.937342 kJ/mol
# Density = 1.964090 g / cm^3
# Si number density = 19.685702 Si / 1000 Ang^3
#
#
#
# Elastic Constant Matrix: (Units=GPa)
#
#
# Indices 1 2 3 4 5 6 
#
# 1 82.8047 58.2201 34.1119 0.0000 0.0000 0.0000
# 2 58.2201 150.8946 50.8774 0.0000 0.0000 0.0000
# 3 34.1119 50.8774 61.1532 0.0000 0.0000 0.0000
# 4 0.0000 0.0000 0.0000 29.6081 0.0000 0.0000
# 5 0.0000 0.0000 0.0000 0.0000 24.7843 0.0000
# 6 0.0000 0.0000 0.0000 0.0000 0.0000 34.4175
#
#
#
# Elastic Compliance Matrix: (Units=1/GPa)
#
#
# Indices 1 2 3 4 5 6 
#
# 1 0.017994 -0.004946 -0.005922 0.000000 0.000000 0.000000
# 2 -0.004946 0.010570 -0.006035 0.000000 0.000000 0.000000
# 3 -0.005922 -0.006035 0.024677 0.000000 0.000000 0.000000
# 4 0.000000 0.000000 0.000000 0.033775 0.000000 0.000000
# 5 0.000000 0.000000 0.000000 0.000000 0.040348 0.000000
# 6 0.000000 0.000000 0.000000 0.000000 0.000000 0.029055
#
#
# Mechanical properties :
#
#
# Convention : Reuss Voigt Hill
#
# Bulk Modulus (GPa) = 51.45564 64.58571 58.02067
# Shear Modulus (GPa) = 25.41892 27.87153 26.64523
#
# Velocity S-wave (km/s) = 3.59728 3.76683 3.68303
# Velocity P-wave (km/s) = 6.59160 7.19711 6.90100
#
# Compressibility (1/GPa) = 0.01943421
#
# Stress axis : x y z
#
# Youngs Moduli (GPa) = 55.57501 94.60458 40.52326
#
# Poissons Ratio (x) = 0.46788 0.24000
# Poissons Ratio (y) = 0.27486 0.24457
# Poissons Ratio (z) = 0.32914 0.57098
#
# Static dielectric constant tensor:
#      x y z
#    x 3.553420 0.000000 0.000000 
#    y 0.000000 3.717550 0.000000 
#    z 0.000000 0.000000 3.442770 
# 
# 
# High freq. dielectric constant tensor:
#      x y z
#    x 1.770830 0.000000 0.000000 
#    y 0.000000 1.779880 0.000000 
#    z 0.000000 0.000000 1.744560 
# 
# From -- ./inp_files/21113.got.cif
#   From: 2010.03.12/outbox.cif.g09.slc.cpg/sg46_11_cif.got.tgz:21113.got - 2010.04.14 02:56:35.
