data_PCOD8191270
_publ_section_title
;
Structure prediction by ZEFSAII (Michael W. Deem and Ramdas Pophale) SiO2 
 PCOD8191270
Probable space group: I M A 2
;
_chemical_formula_sum "Si O2"
_cell_formula_units_Z 64
_cell_length_a 9.143266
_cell_length_b 18.320025
_cell_length_c 26.174014
_cell_angle_alpha 90.000000
_cell_angle_beta 90.000000
_cell_angle_gamma 90.000000
_cell_volume 4384.274595
_symmetry_space_group_name_H-M "I M A 2"
_symmetry_group_IT_number 46
_symmetry_cell_setting 'orthorhombic'
loop_
_space_group_symop_operation_xyz
x,y,z
-x,-y,z
1/2-x,y,z
1/2+x,-y,z
1/2+x,1/2+y,1/2+z
1/2-x,1/2-y,1/2+z
-x,1/2+y,1/2+z
x,1/2-y,1/2+z
loop_
_atom_site_type_symbol
_atom_site_label
_atom_site_fract_x
_atom_site_fract_y
_atom_site_fract_z
Si Si1 0.580714 0.072463 0.225020
Si Si2 0.081436 0.700737 0.376619
Si Si3 0.585136 0.716622 0.959792
Si Si4 0.919276 0.340549 0.821961
Si Si5 0.417405 0.073265 0.409561
Si Si6 0.580582 0.576296 0.423191
Si Si7 0.585720 0.840076 0.028776
Si Si8 0.921777 0.425674 0.609778
O O1 0.750000 0.052786 0.225641
O O2 0.543264 0.138441 0.263504
O O3 0.532673 0.094775 0.167708
O O4 0.500000 0.000000 0.243957
O O5 0.250000 0.677148 0.379684
O O6 0.049809 0.753351 0.327706
O O7 0.041483 0.751127 0.424613
O O8 0.983751 0.627531 0.377719
O O9 0.750000 0.738385 0.939822
O O10 0.569711 0.628755 0.958171
O O11 0.566201 0.753378 0.015841
O O12 0.750000 0.357109 0.835107
O O13 0.017613 0.389599 0.858997
O O14 0.250000 0.053782 0.397731
O O15 0.500000 0.000000 0.425035
O O16 0.500000 0.500000 0.422312
O O17 0.750000 0.563341 0.412323
O O18 0.551329 0.614270 0.477551
O O19 0.750000 0.856685 0.047756
O O20 0.473946 0.860341 0.073417
O O21 0.750000 0.436458 0.603256
O O22 0.000000 0.500000 0.592123
#
# Coordination Sequence:
#
# PCOD8191270 Si02
#       8
#     8   8   8   8   8   8   8   8
#     4   9  18  30  41  56  79 105 134 166 197 228
#     4   9  16  26  41  59  78 101 130 163 197 232
#     4   8  16  29  41  54  76 105 132 160 195 233
#     4   9  17  29  43  58  78 106 137 165 195 232
#     4  10  18  27  40  59  82 106 133 163 195 232
#     4  10  19  29  41  58  81 107 134 163 195 233
#     4   9  17  29  43  57  75 102 134 164 195 231
#     4  10  19  29  41  57  78 104 133 166 199 229
#
# _framework density 14.597625000000001
#
# number of rings (size 3 to 8) (size 9 to 14) (size 15 to 20)
#    0.000    2.750    0.000    3.000    0.000    6.500 
#    0.000    0.000    0.000    0.000    0.000    0.000 
#    0.000    1.000    0.000    7.500    0.000    2.500 
#
# Total GULP energy -396571.886527 kJ/mol
# GULP energy per Si atom -12392.871454 kJ/mol
# Density = 1.456440 g / cm^3
# Si number density = 14.597625 Si / 1000 Ang^3
#
#
#
# Elastic Constant Matrix: (Units=GPa)
#
#
# Indices 1 2 3 4 5 6 
#
# 1 76.5823 47.3550 34.5198 0.0000 0.0000 0.0000
# 2 47.3550 93.4393 43.2530 0.0000 0.0000 0.0000
# 3 34.5198 43.2530 65.4687 0.0000 0.0000 0.0000
# 4 0.0000 0.0000 0.0000 23.8792 0.0000 0.0000
# 5 0.0000 0.0000 0.0000 0.0000 15.9597 0.0000
# 6 0.0000 0.0000 0.0000 0.0000 0.0000 24.6324
#
#
#
# Elastic Compliance Matrix: (Units=1/GPa)
#
#
# Indices 1 2 3 4 5 6 
#
# 1 0.020371 -0.007710 -0.005647 0.000000 0.000000 0.000000
# 2 -0.007710 0.018335 -0.008048 0.000000 0.000000 0.000000
# 3 -0.005647 -0.008048 0.023569 0.000000 0.000000 0.000000
# 4 0.000000 0.000000 0.000000 0.041878 0.000000 0.000000
# 5 0.000000 0.000000 0.000000 0.000000 0.062658 0.000000
# 6 0.000000 0.000000 0.000000 0.000000 0.000000 0.040597
#
#
# Mechanical properties :
#
#
# Convention : Reuss Voigt Hill
#
# Bulk Modulus (GPa) = 51.37555 53.97176 52.67365
# Shear Modulus (GPa) = 19.47754 20.25176 19.86465
#
# Velocity S-wave (km/s) = 3.65676 3.72873 3.69292
# Velocity P-wave (km/s) = 7.28698 7.45595 7.37195
#
# Compressibility (1/GPa) = 0.01946451
#
# Stress axis : x y z
#
# Youngs Moduli (GPa) = 49.09002 54.54082 42.42802
#
# Poissons Ratio (x) = 0.42049 0.23961
# Poissons Ratio (y) = 0.37847 0.34147
# Poissons Ratio (z) = 0.27723 0.43895
#
# Static dielectric constant tensor:
#      x y z
#    x 2.957550 0.000000 0.000000 
#    y 0.000000 2.982820 0.000000 
#    z 0.000000 0.000000 2.718600 
# 
# 
# High freq. dielectric constant tensor:
#      x y z
#    x 1.573490 0.000000 0.000000 
#    y 0.000000 1.549300 0.000000 
#    z 0.000000 0.000000 1.518040 
# 
# From -- ./inp_files/23289.got.cif
#   From: 2010.03.12/outbox.cif.g09.slc.cpg/sg46_12_cif.got.tgz:23289.got - 2010.04.14 02:56:35.
