data_PCOD8191199
_publ_section_title
;
Structure prediction by ZEFSAII (Michael W. Deem and Ramdas Pophale) SiO2 
 PCOD8191199
Probable space group: I M A 2
;
_chemical_formula_sum "Si O2"
_cell_formula_units_Z 60
_cell_length_a 14.941767
_cell_length_b 12.648827
_cell_length_c 19.497779
_cell_angle_alpha 90.000000
_cell_angle_beta 90.000000
_cell_angle_gamma 90.000000
_cell_volume 3684.998844
_symmetry_space_group_name_H-M "I M A 2"
_symmetry_group_IT_number 46
_symmetry_cell_setting 'orthorhombic'
loop_
_space_group_symop_operation_xyz
x,y,z
-x,-y,z
1/2-x,y,z
1/2+x,-y,z
1/2+x,1/2+y,1/2+z
1/2-x,1/2-y,1/2+z
-x,1/2+y,1/2+z
x,1/2-y,1/2+z
loop_
_atom_site_type_symbol
_atom_site_label
_atom_site_fract_x
_atom_site_fract_y
_atom_site_fract_z
Si Si1 0.146997 0.336489 0.570590
Si Si2 0.500000 0.837444 0.725835
Si Si3 0.000000 0.500000 0.343547
Si Si4 0.646427 0.500000 0.456649
Si Si5 0.851717 0.884613 0.618207
Si Si6 0.646997 0.336488 0.570590
Si Si7 0.000000 0.114350 0.179118
Si Si8 0.351717 0.615386 0.118208
O O1 0.250000 0.361179 0.588821
O O2 0.121457 0.394969 0.500140
O O3 0.128919 0.209614 0.563547
O O4 0.088006 0.380523 0.632221
O O5 0.587676 0.873317 0.685062
O O6 0.499999 0.709596 0.734372
O O7 0.412324 0.873319 0.685062
O O8 0.500001 0.893046 0.799139
O O9 0.089230 0.500001 0.388273
O O10 0.750000 0.500001 0.435248
O O11 0.621459 0.394967 0.500139
O O12 0.750000 0.876420 0.644456
O O13 0.869467 1.000000 0.583674
O O14 0.750000 0.361177 0.588822
O O15 0.588004 0.380524 0.632220
O O16 0.628919 0.209613 0.563548
O O17 0.000000 0.000000 0.216891
O O18 0.250000 0.623579 0.144457
#
# Coordination Sequence:
#
# PCOD8191199 Si02
#       8
#     8   8   4   8   8   8   8   8
#     4   9  17  29  46  72  97 115 148 192 236 281
#     4  10  20  31  43  66  96 123 159 189 219 274
#     4  12  22  34  46  62  94 136 164 188 216 264
#     4  10  20  32  48  68  94 126 159 192 226 270
#     4   9  16  28  48  71  96 120 143 187 243 283
#     4   9  17  29  46  72  97 115 148 192 236 281
#     4  10  17  28  50  71  91 119 144 190 249 282
#     4   9  16  28  48  71  96 120 143 187 243 283
#
# _framework density 16.282229999999998
#
# number of rings (size 3 to 8) (size 9 to 14) (size 15 to 20)
#    0.000    2.400    2.667    0.800    0.000    1.067 
#    0.000    0.000    0.000    1.600    0.000    0.000 
#    0.000    0.000    0.000    0.000    0.000    0.000 
#
# Total GULP energy -371747.345693 kJ/mol
# GULP energy per Si atom -12391.578190 kJ/mol
# Density = 1.624517 g / cm^3
# Si number density = 16.282230 Si / 1000 Ang^3
#
#
#
# Elastic Constant Matrix: (Units=GPa)
#
#
# Indices 1 2 3 4 5 6 
#
# 1 75.9480 38.8577 37.3376 0.0000 0.0000 0.0000
# 2 38.8577 186.0854 61.7205 0.0000 0.0000 0.0000
# 3 37.3376 61.7205 83.6562 0.0000 0.0000 0.0000
# 4 0.0000 0.0000 0.0000 27.1997 0.0000 0.0000
# 5 0.0000 0.0000 0.0000 0.0000 14.1149 0.0000
# 6 0.0000 0.0000 0.0000 0.0000 0.0000 18.4133
#
#
#
# Elastic Compliance Matrix: (Units=1/GPa)
#
#
# Indices 1 2 3 4 5 6 
#
# 1 0.017131 -0.001379 -0.006629 0.000000 0.000000 0.000000
# 2 -0.001379 0.007226 -0.004716 0.000000 0.000000 0.000000
# 3 -0.006629 -0.004716 0.018392 0.000000 0.000000 0.000000
# 4 0.000000 0.000000 0.000000 0.036765 0.000000 0.000000
# 5 0.000000 0.000000 0.000000 0.000000 0.070847 0.000000
# 6 0.000000 0.000000 0.000000 0.000000 0.000000 0.054309
#
#
# Mechanical properties :
#
#
# Convention : Reuss Voigt Hill
#
# Bulk Modulus (GPa) = 57.79703 69.05790 63.42746
# Shear Modulus (GPa) = 21.19687 25.79714 23.49701
#
# Velocity S-wave (km/s) = 3.61202 3.98474 3.80295
# Velocity P-wave (km/s) = 7.27802 7.97972 7.63694
#
# Compressibility (1/GPa) = 0.01730193
#
# Stress axis : x y z
#
# Youngs Moduli (GPa) = 58.37320 138.39093 54.37258
#
# Poissons Ratio (x) = 0.19079 0.36043
# Poissons Ratio (y) = 0.08047 0.25641
# Poissons Ratio (z) = 0.38695 0.65263
#
# Static dielectric constant tensor:
#      x y z
#    x 3.294140 0.000000 0.000000 
#    y 0.000000 3.690560 0.000000 
#    z 0.000000 0.000000 2.539730 
# 
# 
# High freq. dielectric constant tensor:
#      x y z
#    x 1.650730 0.000000 0.000000 
#    y 0.000000 1.652430 0.000000 
#    z 0.000000 0.000000 1.553500 
# 
# From -- ./inp_files/22103.got.cif
#   From: 2010.03.12/outbox.cif.g09.slc.cpg/sg46_12_cif.got.tgz:22103.got - 2010.04.14 02:56:35.
