data_PCOD8191157
_publ_section_title
;
Structure prediction by ZEFSAII (Michael W. Deem and Ramdas Pophale) SiO2 
 PCOD8191157
Probable space group: I M A 2
;
_chemical_formula_sum "Si O2"
_cell_formula_units_Z 52
_cell_length_a 21.836326
_cell_length_b 11.343019
_cell_length_c 12.246870
_cell_angle_alpha 90.000000
_cell_angle_beta 90.000000
_cell_angle_gamma 90.000000
_cell_volume 3033.425524
_symmetry_space_group_name_H-M "I M A 2"
_symmetry_group_IT_number 46
_symmetry_cell_setting 'orthorhombic'
loop_
_space_group_symop_operation_xyz
x,y,z
-x,-y,z
1/2-x,y,z
1/2+x,-y,z
1/2+x,1/2+y,1/2+z
1/2-x,1/2-y,1/2+z
-x,1/2+y,1/2+z
x,1/2-y,1/2+z
loop_
_atom_site_type_symbol
_atom_site_label
_atom_site_fract_x
_atom_site_fract_y
_atom_site_fract_z
Si Si1 0.493312 0.777932 0.679200
Si Si2 0.386325 0.426291 0.928944
Si Si3 0.402506 0.369105 0.568734
Si Si4 0.321358 0.158193 0.628223
Si Si5 0.000000 0.500000 0.055881
Si Si6 0.567404 0.445762 0.738404
Si Si7 0.400164 0.176593 0.830629
O O1 0.536907 0.706586 0.595567
O O2 0.437154 0.693533 0.714724
O O3 0.531126 0.815352 0.785974
O O4 0.466438 0.898382 0.627584
O O5 0.387418 0.535117 0.843051
O O6 0.377119 0.308479 0.858067
O O7 0.335938 0.430512 0.026125
O O8 0.452085 0.425534 0.986576
O O9 0.343379 0.290067 0.597974
O O10 0.402103 0.491093 0.634175
O O11 0.400679 0.401688 0.440337
O O12 0.250000 0.157588 0.652051
O O13 0.356047 0.118033 0.739148
O O14 0.500000 0.500000 0.763403
#
# Coordination Sequence:
#
# PCOD8191157 Si02
#       7
#     8   8   8   8   4   8   8
#     4  10  19  30  48  77 105 142 171 217 264 325
#     4  11  18  32  53  71 110 143 180 217 265 333
#     4   9  18  32  47  71 106 136 178 213 256 325
#     4  10  20  32  50  78 104 136 181 232 278 313
#     4  12  18  32  50  78 114 138 180 224 274 330
#     4  10  17  32  50  71 105 150 174 206 266 329
#     4  10  16  33  46  71 106 138 170 217 263 320
#
# _framework density 17.142337000000001
#
# number of rings (size 3 to 8) (size 9 to 14) (size 15 to 20)
#    0.000    1.846   10.000    0.000    0.000    2.462 
#    4.154    0.000    0.000    0.000    0.000    2.154 
#    0.000    0.000    0.000    0.000    0.000    0.000 
#
# Total GULP energy -322146.811737 kJ/mol
# GULP energy per Si atom -12390.261990 kJ/mol
# Density = 1.710332 g / cm^3
# Si number density = 17.142337 Si / 1000 Ang^3
#
#
#
# Elastic Constant Matrix: (Units=GPa)
#
#
# Indices 1 2 3 4 5 6 
#
# 1 48.9926 19.1462 34.2101 0.0000 0.0000 0.0000
# 2 19.1462 77.1472 39.9112 0.0000 0.0000 0.0000
# 3 34.2101 39.9112 144.9910 0.0000 0.0000 0.0000
# 4 0.0000 0.0000 0.0000 10.5667 0.0000 0.0000
# 5 0.0000 0.0000 0.0000 0.0000 11.6586 0.0000
# 6 0.0000 0.0000 0.0000 0.0000 0.0000 13.3700
#
#
#
# Elastic Compliance Matrix: (Units=1/GPa)
#
#
# Indices 1 2 3 4 5 6 
#
# 1 0.025323 -0.003724 -0.004950 0.000000 0.000000 0.000000
# 2 -0.003724 0.015662 -0.003433 0.000000 0.000000 0.000000
# 3 -0.004950 -0.003433 0.009010 0.000000 0.000000 0.000000
# 4 0.000000 0.000000 0.000000 0.094637 0.000000 0.000000
# 5 0.000000 0.000000 0.000000 0.000000 0.085774 0.000000
# 6 0.000000 0.000000 0.000000 0.000000 0.000000 0.074794
#
#
# Mechanical properties :
#
#
# Convention : Reuss Voigt Hill
#
# Bulk Modulus (GPa) = 38.78641 50.85176 44.81908
# Shear Modulus (GPa) = 14.79263 18.97661 16.88462
#
# Velocity S-wave (km/s) = 2.94075 3.33077 3.14182
# Velocity P-wave (km/s) = 5.84858 6.67240 6.27403
#
# Compressibility (1/GPa) = 0.02578223
#
# Stress axis : x y z
#
# Youngs Moduli (GPa) = 39.49010 63.84771 110.99074
#
# Poissons Ratio (x) = 0.23776 0.54938
# Poissons Ratio (y) = 0.14706 0.38099
# Poissons Ratio (z) = 0.19547 0.21917
#
# Static dielectric constant tensor:
#      x y z
#    x 2.751090 0.000000 0.000000 
#    y 0.000000 3.155740 0.000000 
#    z 0.000000 0.000000 3.667140 
# 
# 
# High freq. dielectric constant tensor:
#      x y z
#    x 1.600560 0.000000 0.000000 
#    y 0.000000 1.625130 0.000000 
#    z 0.000000 0.000000 1.688650 
# 
# From -- ./inp_files/13080.got.cif
#   From: 2010.03.12/outbox.cif.g09.slc.cpg/sg46_7_cif.got.tgz:13080.got - 2010.04.14 02:56:35.
