data_PCOD8191044
_publ_section_title
;
Structure prediction by ZEFSAII (Michael W. Deem and Ramdas Pophale) SiO2 
 PCOD8191044
Probable space group: I B A 2
;
_chemical_formula_sum "Si O2"
_cell_formula_units_Z 48
_cell_length_a 17.231419
_cell_length_b 13.204137
_cell_length_c 9.003491
_cell_angle_alpha 90.000000
_cell_angle_beta 90.000000
_cell_angle_gamma 90.000000
_cell_volume 2048.528448
_symmetry_space_group_name_H-M "I B A 2"
_symmetry_group_IT_number 45
_symmetry_cell_setting 'orthorhombic'
loop_
_space_group_symop_operation_xyz
x,y,z
-x,-y,z
-x,y,1/2+z
x,-y,1/2+z
1/2+x,1/2+y,1/2+z
1/2-x,1/2-y,1/2+z
1/2-x,1/2+y,z
1/2+x,1/2-y,z
loop_
_atom_site_type_symbol
_atom_site_label
_atom_site_fract_x
_atom_site_fract_y
_atom_site_fract_z
Si Si1 0.048299 0.289407 0.921590
Si Si2 0.151511 0.409850 0.120496
Si Si3 0.586082 0.120545 0.610228
Si Si4 0.866460 0.891660 0.835869
Si Si5 0.795091 0.695038 0.411183
Si Si6 0.680342 0.413594 0.506506
O O1 0.058638 0.350490 0.771231
O O2 0.055553 0.168347 0.888434
O O3 0.118631 0.315300 0.031240
O O4 0.966200 0.322356 0.987879
O O5 0.086839 0.498226 0.106849
O O6 0.160672 0.372242 0.288515
O O7 0.232992 0.448080 0.052380
O O8 0.673887 0.157702 0.572806
O O9 0.795850 0.822235 0.893359
O O10 0.868656 0.896686 0.656972
O O11 0.862362 0.002304 0.907502
O O12 0.814152 0.814499 0.402350
#
# Coordination Sequence:
#
# PCOD8191044 Si02
#       6
#     8   8   8   8   8   8
#     4  12  26  45  69 102 145 190 246 301 377 445
#     4  11  24  40  72 108 147 190 233 305 372 437
#     4  12  25  46  68 104 144 194 242 301 372 447
#     4  11  25  43  74 109 141 190 247 307 374 438
#     4  11  23  44  72 107 147 187 243 308 368 442
#     4  11  24  42  73 110 145 187 244 307 368 438
#
# _framework density 23.431453999999999
#
# number of rings (size 3 to 8) (size 9 to 14) (size 15 to 20)
#    0.000    0.667    5.000    2.500    4.667    1.333 
#    0.000    0.833    0.000    0.000    0.000    0.000 
#    0.000    0.000    0.000    0.000    0.000    0.000 
#
# Total GULP energy -297565.443387 kJ/mol
# GULP energy per Si atom -12398.560141 kJ/mol
# Density = 2.337812 g / cm^3
# Si number density = 23.431454 Si / 1000 Ang^3
#
#
#
# Elastic Constant Matrix: (Units=GPa)
#
#
# Indices 1 2 3 4 5 6 
#
# 1 45.8230 28.9646 22.2356 0.0000 0.0000 0.0000
# 2 28.9646 156.0609 17.4118 0.0000 0.0000 0.0000
# 3 22.2356 17.4118 66.2706 0.0000 0.0000 0.0000
# 4 0.0000 0.0000 0.0000 37.6074 0.0000 0.0000
# 5 0.0000 0.0000 0.0000 0.0000 26.0366 0.0000
# 6 0.0000 0.0000 0.0000 0.0000 0.0000 44.0737
#
#
#
# Elastic Compliance Matrix: (Units=1/GPa)
#
#
# Indices 1 2 3 4 5 6 
#
# 1 0.028708 -0.004382 -0.008481 0.000000 0.000000 0.000000
# 2 -0.004382 0.007270 -0.000440 0.000000 0.000000 0.000000
# 3 -0.008481 -0.000440 0.018051 0.000000 0.000000 0.000000
# 4 0.000000 0.000000 0.000000 0.026591 0.000000 0.000000
# 5 0.000000 0.000000 0.000000 0.000000 0.038408 0.000000
# 6 0.000000 0.000000 0.000000 0.000000 0.000000 0.022689
#
#
# Mechanical properties :
#
#
# Convention : Reuss Voigt Hill
#
# Bulk Modulus (GPa) = 36.46519 45.04208 40.75363
# Shear Modulus (GPa) = 28.17474 34.84635 31.51055
#
# Velocity S-wave (km/s) = 3.47137 3.86056 3.67113
# Velocity P-wave (km/s) = 5.62703 6.25592 5.94979
#
# Compressibility (1/GPa) = 0.02742342
#
# Stress axis : x y z
#
# Youngs Moduli (GPa) = 34.83297 137.54934 55.39894
#
# Poissons Ratio (x) = 0.60274 0.46985
# Poissons Ratio (y) = 0.15264 0.02437
# Poissons Ratio (z) = 0.29542 0.06050
#
# Static dielectric constant tensor:
#      x y z
#    x 4.052060 0.000000 0.000000 
#    y 0.000000 4.225170 0.000000 
#    z 0.000000 0.000000 4.224810 
# 
# 
# High freq. dielectric constant tensor:
#      x y z
#    x 1.909210 0.000000 0.000000 
#    y 0.000000 1.936700 0.000000 
#    z 0.000000 0.000000 1.932840 
# 
# From -- ./inp_files/2076.got.cif
#   From: 2010.03.12/outbox.cif.g09.slc.cpg/sg45_2_cif.got.tgz:2076.got - 2010.04.14 02:50:11.
