data_PCOD8191910
_publ_section_title
;
Structure prediction by ZEFSAII (Michael W. Deem and Ramdas Pophale) SiO2 
 PCOD8191910
Probable space group: I M A 2
;
_chemical_formula_sum "Si O2"
_cell_formula_units_Z 64
_cell_length_a 9.316479
_cell_length_b 19.505835
_cell_length_c 20.308147
_cell_angle_alpha 90.000000
_cell_angle_beta 90.000000
_cell_angle_gamma 90.000000
_cell_volume 3690.512273
_symmetry_space_group_name_H-M "I M A 2"
_symmetry_group_IT_number 46
_symmetry_cell_setting 'orthorhombic'
loop_
_space_group_symop_operation_xyz
x,y,z
-x,-y,z
1/2-x,y,z
1/2+x,-y,z
1/2+x,1/2+y,1/2+z
1/2-x,1/2-y,1/2+z
-x,1/2+y,1/2+z
x,1/2-y,1/2+z
loop_
_atom_site_type_symbol
_atom_site_label
_atom_site_fract_x
_atom_site_fract_y
_atom_site_fract_z
Si Si1 0.081241 0.932628 0.977210
Si Si2 0.416134 0.064993 0.213938
Si Si3 0.583094 0.785495 0.395696
Si Si4 0.415247 0.934636 0.824972
Si Si5 0.585437 0.787297 0.167118
Si Si6 0.914078 0.695550 0.519897
Si Si7 0.419560 0.713243 0.277890
Si Si8 0.585014 0.564245 0.865764
O O1 0.250000 0.940240 0.990168
O O2 0.044305 0.920395 0.900708
O O3 0.000000 0.000000 0.003133
O O4 0.020589 0.868450 0.017105
O O5 0.250000 0.048940 0.204508
O O6 0.461867 0.133648 0.175892
O O7 0.458350 0.075902 0.289933
O O8 0.500000 0.000000 0.183761
O O9 0.750000 0.775826 0.376496
O O10 0.543643 0.750630 0.464659
O O11 0.488392 0.754056 0.338029
O O12 0.546706 0.865919 0.404135
O O13 0.250000 0.953415 0.817986
O O14 0.456203 0.867249 0.783826
O O15 0.500000 0.000000 0.796590
O O16 0.750000 0.778107 0.191053
O O17 0.567620 0.767889 0.090540
O O18 0.483741 0.737761 0.208765
O O19 0.750000 0.670038 0.510344
O O20 0.250000 0.726222 0.279623
O O21 0.500000 0.500000 0.896627
O O22 0.750000 0.545160 0.872897
#
# Coordination Sequence:
#
# PCOD8191910 Si02
#       8
#     8   8   8   8   8   8   8   8
#     4  10  19  33  51  74 108 143 178 218 261 312
#     4   9  17  30  47  68  99 133 169 207 245 296
#     4  10  19  34  55  78 103 135 172 215 263 310
#     4   9  19  33  51  78 106 133 170 216 261 312
#     4  10  21  37  52  74 106 141 178 214 258 315
#     4  10  21  35  54  77 104 140 180 218 262 316
#     4  11  21  34  54  81 106 134 175 220 262 308
#     4   9  17  30  49  74 101 129 164 208 254 301
#
# _framework density 17.341766
#
# number of rings (size 3 to 8) (size 9 to 14) (size 15 to 20)
#    0.000    2.250    2.500    0.750    0.000    3.500 
#    0.000    1.250    0.000    0.750    0.000    3.500 
#    0.000    0.000    0.000    0.000    0.000    0.000 
#
# Total GULP energy -396856.321222 kJ/mol
# GULP energy per Si atom -12401.760038 kJ/mol
# Density = 1.730230 g / cm^3
# Si number density = 17.341766 Si / 1000 Ang^3
#
#
#
# Elastic Constant Matrix: (Units=GPa)
#
#
# Indices 1 2 3 4 5 6 
#
# 1 78.2741 60.8186 39.2201 0.0000 0.0000 0.0000
# 2 60.8186 117.5714 49.3312 0.0000 0.0000 0.0000
# 3 39.2201 49.3312 77.5194 0.0000 0.0000 0.0000
# 4 0.0000 0.0000 0.0000 20.5336 0.0000 0.0000
# 5 0.0000 0.0000 0.0000 0.0000 16.2122 0.0000
# 6 0.0000 0.0000 0.0000 0.0000 0.0000 34.4798
#
#
#
# Elastic Compliance Matrix: (Units=1/GPa)
#
#
# Indices 1 2 3 4 5 6 
#
# 1 0.022984 -0.009564 -0.005542 0.000000 0.000000 0.000000
# 2 -0.009564 0.015583 -0.005078 0.000000 0.000000 0.000000
# 3 -0.005542 -0.005078 0.018936 0.000000 0.000000 0.000000
# 4 0.000000 0.000000 0.000000 0.048701 0.000000 0.000000
# 5 0.000000 0.000000 0.000000 0.000000 0.061682 0.000000
# 6 0.000000 0.000000 0.000000 0.000000 0.000000 0.029003
#
#
# Mechanical properties :
#
#
# Convention : Reuss Voigt Hill
#
# Bulk Modulus (GPa) = 58.36220 63.56719 60.96470
# Shear Modulus (GPa) = 20.57889 22.51145 21.54517
#
# Velocity S-wave (km/s) = 3.44854 3.60683 3.52857
# Velocity P-wave (km/s) = 7.04157 7.35396 7.19946
#
# Compressibility (1/GPa) = 0.01713438
#
# Stress axis : x y z
#
# Youngs Moduli (GPa) = 43.50931 64.17059 52.81049
#
# Poissons Ratio (x) = 0.61371 0.29269
# Poissons Ratio (y) = 0.41611 0.26818
# Poissons Ratio (z) = 0.24114 0.32587
#
# Static dielectric constant tensor:
#      x y z
#    x 3.253050 0.000000 0.000000 
#    y 0.000000 3.347690 0.000000 
#    z 0.000000 0.000000 3.051220 
# 
# 
# High freq. dielectric constant tensor:
#      x y z
#    x 1.671040 0.000000 0.000000 
#    y 0.000000 1.671100 0.000000 
#    z 0.000000 0.000000 1.643340 
# 
# From -- ./inp_files/18558.got.cif
#   From: 2010.03.12/outbox.cif.g09.slc.cpg/sg46_10_cif.got.tgz:18558.got - 2010.04.14 02:56:35.
