data_PCOD8191757
_publ_section_title
;
Structure prediction by ZEFSAII (Michael W. Deem and Ramdas Pophale) SiO2 
 PCOD8191757
Probable space group: I M A 2
;
_chemical_formula_sum "Si O2"
_cell_formula_units_Z 64
_cell_length_a 14.227888
_cell_length_b 13.676573
_cell_length_c 18.495705
_cell_angle_alpha 90.000000
_cell_angle_beta 90.000000
_cell_angle_gamma 90.000000
_cell_volume 3599.056095
_symmetry_space_group_name_H-M "I M A 2"
_symmetry_group_IT_number 46
_symmetry_cell_setting 'orthorhombic'
loop_
_space_group_symop_operation_xyz
x,y,z
-x,-y,z
1/2-x,y,z
1/2+x,-y,z
1/2+x,1/2+y,1/2+z
1/2-x,1/2-y,1/2+z
-x,1/2+y,1/2+z
x,1/2-y,1/2+z
loop_
_atom_site_type_symbol
_atom_site_label
_atom_site_fract_x
_atom_site_fract_y
_atom_site_fract_z
Si Si1 0.476042 0.230780 0.657080
Si Si2 0.354728 0.903289 0.682741
Si Si3 0.027427 0.350783 0.521251
Si Si4 0.645114 0.688344 0.947109
Si Si5 0.139450 0.532686 0.471477
Si Si6 0.641272 0.749917 0.793030
Si Si7 0.141157 0.469111 0.312177
Si Si8 0.404251 0.051271 0.567867
O O1 0.580678 0.191844 0.673455
O O2 0.482704 0.322999 0.604587
O O3 0.424715 0.278148 0.726297
O O4 0.415287 0.143005 0.622227
O O5 0.250000 0.866383 0.702825
O O6 0.403531 0.968462 0.746443
O O7 0.345013 0.969203 0.610213
O O8 0.065260 0.258895 0.476944
O O9 0.101096 0.439306 0.515055
O O10 0.921798 0.374012 0.494446
O O11 0.750000 0.734749 0.955655
O O12 0.626050 0.675782 0.860945
O O13 0.642883 0.586734 0.992397
O O14 0.250000 0.548324 0.487388
O O15 0.117295 0.520459 0.387137
O O16 0.750000 0.748745 0.768182
O O17 0.606109 0.857934 0.816791
O O18 0.250000 0.467534 0.295352
O O19 0.500000 0.000000 0.544916
#
# Coordination Sequence:
#
# PCOD8191757 Si02
#       8
#     8   8   8   8   8   8   8   8
#     4  10  21  32  48  75 104 132 169 208 257 300
#     4  10  19  31  50  76 106 137 166 201 250 310
#     4  10  21  33  50  77 103 136 174 210 258 308
#     4  10  19  32  52  77 105 137 173 211 257 305
#     4  10  20  35  54  75 104 136 170 212 257 310
#     4  10  19  31  50  77 104 130 164 209 255 300
#     4   9  17  29  48  78 103 129 163 193 252 314
#     4   9  18  32  49  74 104 136 173 207 253 302
#
# _framework density 17.782440000000001
#
# number of rings (size 3 to 8) (size 9 to 14) (size 15 to 20)
#    0.000    2.250    2.500    0.750    1.750    3.000 
#    0.000    0.000    2.750    0.000    0.000    0.000 
#    0.000    0.000    0.000    0.000    0.000    0.000 
#
# Total GULP energy -396614.190669 kJ/mol
# GULP energy per Si atom -12394.193458 kJ/mol
# Density = 1.774197 g / cm^3
# Si number density = 17.782440 Si / 1000 Ang^3
#
#
#
# Elastic Constant Matrix: (Units=GPa)
#
#
# Indices 1 2 3 4 5 6 
#
# 1 99.7645 27.4653 51.4983 0.0000 0.0000 0.0000
# 2 27.4653 44.9864 46.8021 0.0000 0.0000 0.0000
# 3 51.4983 46.8021 138.6360 0.0000 0.0000 0.0000
# 4 0.0000 0.0000 0.0000 22.7684 0.0000 0.0000
# 5 0.0000 0.0000 0.0000 0.0000 25.0024 0.0000
# 6 0.0000 0.0000 0.0000 0.0000 0.0000 21.1851
#
#
#
# Elastic Compliance Matrix: (Units=1/GPa)
#
#
# Indices 1 2 3 4 5 6 
#
# 1 0.012961 -0.004476 -0.003303 0.000000 0.000000 0.000000
# 2 -0.004476 0.035808 -0.010426 0.000000 0.000000 0.000000
# 3 -0.003303 -0.010426 0.011960 0.000000 0.000000 0.000000
# 4 0.000000 0.000000 0.000000 0.043921 0.000000 0.000000
# 5 0.000000 0.000000 0.000000 0.000000 0.039996 0.000000
# 6 0.000000 0.000000 0.000000 0.000000 0.000000 0.047203
#
#
# Mechanical properties :
#
#
# Convention : Reuss Voigt Hill
#
# Bulk Modulus (GPa) = 41.12114 59.43537 50.27826
# Shear Modulus (GPa) = 21.15358 24.29924 22.72641
#
# Velocity S-wave (km/s) = 3.45277 3.70059 3.57883
# Velocity P-wave (km/s) = 6.25062 7.19412 6.73890
#
# Compressibility (1/GPa) = 0.02431839
#
# Stress axis : x y z
#
# Youngs Moduli (GPa) = 77.15340 27.92638 83.61286
#
# Poissons Ratio (x) = 0.12501 0.27621
# Poissons Ratio (y) = 0.34537 0.87173
# Poissons Ratio (z) = 0.25487 0.29115
#
# Static dielectric constant tensor:
#      x y z
#    x 3.305610 0.000000 0.000000 
#    y 0.000000 3.062310 0.000000 
#    z 0.000000 0.000000 3.433830 
# 
# 
# High freq. dielectric constant tensor:
#      x y z
#    x 1.690980 0.000000 0.000000 
#    y 0.000000 1.644930 0.000000 
#    z 0.000000 0.000000 1.689960 
# 
# From -- ./inp_files/19722.got.cif
#   From: 2010.03.12/outbox.cif.g09.slc.cpg/sg46_10_cif.got.tgz:19722.got - 2010.04.14 02:56:35.
