data_PCOD8191371
_publ_section_title
;
Structure prediction by ZEFSAII (Michael W. Deem and Ramdas Pophale) SiO2 
 PCOD8191371
Probable space group: I M A 2
;
_chemical_formula_sum "Si O2"
_cell_formula_units_Z 56
_cell_length_a 9.333341
_cell_length_b 20.916335
_cell_length_c 14.246308
_cell_angle_alpha 90.000000
_cell_angle_beta 90.000000
_cell_angle_gamma 90.000000
_cell_volume 2781.154091
_symmetry_space_group_name_H-M "I M A 2"
_symmetry_group_IT_number 46
_symmetry_cell_setting 'orthorhombic'
loop_
_space_group_symop_operation_xyz
x,y,z
-x,-y,z
1/2-x,y,z
1/2+x,-y,z
1/2+x,1/2+y,1/2+z
1/2-x,1/2-y,1/2+z
-x,1/2+y,1/2+z
x,1/2-y,1/2+z
loop_
_atom_site_type_symbol
_atom_site_label
_atom_site_fract_x
_atom_site_fract_y
_atom_site_fract_z
Si Si1 0.085154 0.063622 0.043730
Si Si2 0.093423 0.663620 0.012039
Si Si3 0.916917 0.736989 0.868823
Si Si4 0.094884 0.947479 0.367311
Si Si5 0.418842 0.117915 0.843265
Si Si6 0.085595 0.125792 0.231563
Si Si7 0.422766 0.564913 0.167760
O O1 0.250000 0.043615 0.041710
O O2 0.060346 0.121201 0.119481
O O3 0.036585 0.090872 0.944060
O O4 0.000000 0.000000 0.070450
O O5 0.250000 0.693623 0.035907
O O6 0.032029 0.625393 0.102276
O O7 0.114917 0.613167 0.930622
O O8 0.989747 0.717470 0.968543
O O9 0.750000 0.733118 0.890897
O O10 0.962749 0.807899 0.840079
O O11 0.960795 0.693333 0.778825
O O12 0.250000 0.975809 0.340487
O O13 0.009635 0.930971 0.272966
O O14 0.000000 0.000000 0.422441
O O15 0.250000 0.108167 0.821253
O O16 0.516868 0.079623 0.770617
O O17 0.250000 0.112962 0.257770
O O18 0.500000 0.500000 0.131630
O O19 0.250000 0.555750 0.167758
#
# Coordination Sequence:
#
# PCOD8191371 Si02
#       7
#     8   8   8   8   8   8   8
#     4  10  21  36  54  77 107 140 178 222 268 318
#     4   9  20  36  54  79 112 145 180 224 275 331
#     4   9  19  36  59  85 112 144 182 222 273 331
#     4  10  18  29  47  73 105 139 174 217 267 322
#     4  10  22  39  58  82 111 146 188 234 278 328
#     4   9  18  33  52  76 106 139 175 218 266 323
#     4  11  23  39  59  84 113 149 191 237 287 337
#
# _framework density 20.135525999999999
#
# number of rings (size 3 to 8) (size 9 to 14) (size 15 to 20)
#    0.000    2.286    0.000    2.143    0.000    6.857 
#    0.000    2.857    0.000    0.000    0.000    0.000 
#    0.000    0.000    0.000    0.000    0.000    0.000 
#
# Total GULP energy -347002.751089 kJ/mol
# GULP energy per Si atom -12392.955396 kJ/mol
# Density = 2.008970 g / cm^3
# Si number density = 20.135526 Si / 1000 Ang^3
#
#
#
# Elastic Constant Matrix: (Units=GPa)
#
#
# Indices 1 2 3 4 5 6 
#
# 1 77.3359 27.0763 25.2633 0.0001 0.0000 0.0000
# 2 27.0763 76.4841 18.1927 0.0001 0.0000 0.0000
# 3 25.2633 18.1927 105.7290 0.0000 -0.0003 0.0000
# 4 0.0001 0.0001 0.0000 18.7919 -0.0001 0.0000
# 5 0.0000 0.0000 -0.0003 -0.0001 46.0462 0.0000
# 6 0.0000 0.0000 0.0000 0.0000 0.0000 25.9391
#
#
#
# Elastic Compliance Matrix: (Units=1/GPa)
#
#
# Indices 1 2 3 4 5 6 
#
# 1 0.015563 -0.004822 -0.002889 0.000000 0.000000 0.000000
# 2 -0.004822 0.015127 -0.001451 0.000000 0.000000 0.000000
# 3 -0.002889 -0.001451 0.010398 0.000000 0.000000 0.000000
# 4 0.000000 0.000000 0.000000 0.053214 0.000000 0.000000
# 5 0.000000 0.000000 0.000000 0.000000 0.021717 0.000000
# 6 0.000000 0.000000 0.000000 0.000000 0.000000 0.038552
#
#
# Mechanical properties :
#
#
# Convention : Reuss Voigt Hill
#
# Bulk Modulus (GPa) = 43.92884 44.51263 44.22073
# Shear Modulus (GPa) = 27.70354 30.75656 29.23005
#
# Velocity S-wave (km/s) = 3.71327 3.91254 3.81421
# Velocity P-wave (km/s) = 6.34417 6.52419 6.43481
#
# Compressibility (1/GPa) = 0.02276409
#
# Stress axis : x y z
#
# Youngs Moduli (GPa) = 64.25652 66.10796 96.17217
#
# Poissons Ratio (x) = 0.31879 0.27783
# Poissons Ratio (y) = 0.30986 0.13951
# Poissons Ratio (z) = 0.18563 0.09590
#
# Static dielectric constant tensor:
#      x y z
#    x 3.817580 0.000000 0.000000 
#    y 0.000000 3.756900 0.000000 
#    z 0.000000 0.000000 3.689820 
# 
# 
# High freq. dielectric constant tensor:
#      x y z
#    x 1.783970 0.000000 0.000000 
#    y 0.000000 1.778070 0.000000 
#    z 0.000000 0.000000 1.784260 
# 
# From -- ./inp_files/14143.got.cif
#   From: 2010.03.12/outbox.cif.g09.slc.cpg/sg46_8_cif.got.tgz:14143.got - 2010.04.14 02:56:35.
