data_PCOD8191797
_publ_section_title
;
Structure prediction by ZEFSAII (Michael W. Deem and Ramdas Pophale) SiO2 
 PCOD8191797
Probable space group: I M A 2
;
_chemical_formula_sum "Si O2"
_cell_formula_units_Z 64
_cell_length_a 8.756237
_cell_length_b 30.214128
_cell_length_c 14.328367
_cell_angle_alpha 90.000000
_cell_angle_beta 90.000000
_cell_angle_gamma 90.000000
_cell_volume 3790.742369
_symmetry_space_group_name_H-M "I M A 2"
_symmetry_group_IT_number 46
_symmetry_cell_setting 'orthorhombic'
loop_
_space_group_symop_operation_xyz
x,y,z
-x,-y,z
1/2-x,y,z
1/2+x,-y,z
1/2+x,1/2+y,1/2+z
1/2-x,1/2-y,1/2+z
-x,1/2+y,1/2+z
x,1/2-y,1/2+z
loop_
_atom_site_type_symbol
_atom_site_label
_atom_site_fract_x
_atom_site_fract_y
_atom_site_fract_z
Si Si1 0.423614 0.132214 0.942550
Si Si2 0.931222 0.954533 0.847676
Si Si3 0.428313 0.717973 0.981048
Si Si4 0.930572 0.954279 0.631933
Si Si5 0.928189 0.366710 0.101007
Si Si6 0.923096 0.815223 0.757900
Si Si7 0.068789 0.199638 0.088518
Si Si8 0.072114 0.725042 0.770452
O O1 0.250000 0.120053 0.964476
O O2 0.501695 0.086163 0.909167
O O3 0.434509 0.169342 0.863515
O O4 0.496659 0.156320 0.033183
O O5 0.750000 0.955899 0.855269
O O6 0.979304 0.948236 0.740114
O O7 0.000000 0.000000 0.888117
O O8 0.250000 0.729838 0.981950
O O9 0.491005 0.716948 0.874806
O O10 0.461205 0.669161 0.020791
O O11 0.511711 0.754709 0.042704
O O12 0.750000 0.953898 0.617511
O O13 0.008318 0.914909 0.571491
O O14 0.000000 0.000000 0.593358
O O15 0.750000 0.369121 0.125086
O O16 0.025432 0.355163 0.192627
O O17 0.750000 0.800545 0.733588
O O18 0.039284 0.775304 0.740499
O O19 0.250000 0.200250 0.083333
O O20 0.013391 0.194143 0.195198
O O21 0.250000 0.714900 0.763579
#
# Coordination Sequence:
#
# PCOD8191797 Si02
#       8
#     8   8   8   8   8   8   8   8
#     4   9  18  32  48  70 100 131 165 206 246 288
#     4   9  17  31  47  68  98 128 160 198 242 292
#     4  10  22  36  50  70 100 135 169 209 254 299
#     4  10  19  32  50  73 102 134 166 204 248 301
#     4  11  21  33  49  73 101 134 172 209 253 300
#     4  11  19  31  49  71  99 135 172 207 247 294
#     4  11  21  33  52  74  97 131 172 211 251 296
#     4  11  22  36  49  69 102 136 169 212 256 296
#
# _framework density 16.883236
#
# number of rings (size 3 to 8) (size 9 to 14) (size 15 to 20)
#    0.000    1.750    3.750    1.875    0.000    1.500 
#    0.000    1.250    0.000    0.000    0.000    0.875 
#    0.000    4.000    0.000    0.000    0.000    0.000 
#
# Total GULP energy -396712.906319 kJ/mol
# GULP energy per Si atom -12397.278322 kJ/mol
# Density = 1.684481 g / cm^3
# Si number density = 16.883236 Si / 1000 Ang^3
#
#
#
# Elastic Constant Matrix: (Units=GPa)
#
#
# Indices 1 2 3 4 5 6 
#
# 1 49.6838 24.1127 25.6238 0.0001 0.0000 0.0000
# 2 24.1127 99.3021 25.8053 0.0002 0.0000 0.0000
# 3 25.6238 25.8053 71.7657 0.0011 -0.0001 -0.0001
# 4 0.0001 0.0002 0.0011 21.5743 -0.0001 0.0000
# 5 0.0000 0.0000 -0.0001 -0.0001 20.6046 0.0001
# 6 0.0000 0.0000 -0.0001 0.0000 0.0001 25.8102
#
#
#
# Elastic Compliance Matrix: (Units=1/GPa)
#
#
# Indices 1 2 3 4 5 6 
#
# 1 0.026268 -0.004347 -0.007816 0.000000 0.000000 0.000000
# 2 -0.004347 0.011828 -0.002701 0.000000 0.000000 0.000000
# 3 -0.007816 -0.002701 0.017696 -0.000001 0.000000 0.000000
# 4 0.000000 0.000000 -0.000001 0.046352 0.000000 0.000000
# 5 0.000000 0.000000 0.000000 0.000000 0.048533 0.000000
# 6 0.000000 0.000000 0.000000 0.000000 0.000000 0.038744
#
#
# Mechanical properties :
#
#
# Convention : Reuss Voigt Hill
#
# Bulk Modulus (GPa) = 38.36712 41.31502 39.84107
# Shear Modulus (GPa) = 21.94558 23.27846 22.61202
#
# Velocity S-wave (km/s) = 3.60925 3.71724 3.66364
# Velocity P-wave (km/s) = 6.33587 6.55347 6.44559
#
# Compressibility (1/GPa) = 0.02606399
#
# Stress axis : x y z
#
# Youngs Moduli (GPa) = 38.06906 84.54684 56.51016
#
# Poissons Ratio (x) = 0.36756 0.44167
# Poissons Ratio (y) = 0.16550 0.15262
# Poissons Ratio (z) = 0.29754 0.22834
#
# Static dielectric constant tensor:
#      x y z
#    x 3.082030 0.000000 0.000000 
#    y 0.000000 3.291510 0.000000 
#    z 0.000000 0.000000 3.170640 
# 
# 
# High freq. dielectric constant tensor:
#      x y z
#    x 1.648190 0.000000 0.000000 
#    y 0.000000 1.646090 0.000000 
#    z 0.000000 0.000000 1.623370 
# 
# From -- ./inp_files/14747.got.cif
#   From: 2010.03.12/outbox.cif.g09.slc.cpg/sg46_8_cif.got.tgz:14747.got - 2010.04.14 02:56:35.
