data_PCOD8191523
_publ_section_title
;
Structure prediction by ZEFSAII (Michael W. Deem and Ramdas Pophale) SiO2 
 PCOD8191523
Probable space group: I M A 2
;
_chemical_formula_sum "Si O2"
_cell_formula_units_Z 64
_cell_length_a 8.701967
_cell_length_b 31.094085
_cell_length_c 12.016499
_cell_angle_alpha 90.000000
_cell_angle_beta 90.000000
_cell_angle_gamma 90.000000
_cell_volume 3251.420713
_symmetry_space_group_name_H-M "I M A 2"
_symmetry_group_IT_number 46
_symmetry_cell_setting 'orthorhombic'
loop_
_space_group_symop_operation_xyz
x,y,z
-x,-y,z
1/2-x,y,z
1/2+x,-y,z
1/2+x,1/2+y,1/2+z
1/2-x,1/2-y,1/2+z
-x,1/2+y,1/2+z
x,1/2-y,1/2+z
loop_
_atom_site_type_symbol
_atom_site_label
_atom_site_fract_x
_atom_site_fract_y
_atom_site_fract_z
Si Si1 0.933029 0.374297 0.634940
Si Si2 0.568965 0.043573 0.270191
Si Si3 0.568054 0.954531 0.738683
Si Si4 0.927372 0.161826 0.499154
Si Si5 0.567322 0.377908 0.380734
Si Si6 0.070694 0.428472 0.992853
Si Si7 0.568395 0.299780 0.232634
Si Si8 0.571769 0.205944 0.271363
O O1 0.750000 0.373866 0.643323
O O2 0.996930 0.415746 0.701497
O O3 0.988959 0.376430 0.508004
O O4 0.001131 0.331122 0.692604
O O5 0.750000 0.041695 0.260721
O O6 0.521427 0.045772 0.399258
O O7 0.500000 0.000000 0.217424
O O8 0.750000 0.955677 0.746272
O O9 0.506030 0.918852 0.822220
O O10 0.512478 0.944235 0.613356
O O11 0.500000 0.000000 0.776929
O O12 0.750000 0.146222 0.504999
O O13 0.980211 0.185397 0.610488
O O14 0.952564 0.195177 0.400119
O O15 0.036626 0.121685 0.479319
O O16 0.750000 0.381868 0.371339
O O17 0.506180 0.334370 0.321879
O O18 0.250000 0.437153 0.976261
O O19 0.750000 0.296695 0.245902
O O20 0.494008 0.252613 0.251754
O O21 0.750000 0.209051 0.240291
#
# Coordination Sequence:
#
# PCOD8191523 Si02
#       8
#     8   8   8   8   8   8   8   8
#     4   9  19  34  54  81 115 149 185 232 281 327
#     4  11  22  38  58  84 113 147 186 231 284 338
#     4  11  24  40  59  83 111 145 183 230 282 335
#     4  10  18  32  56  84 114 151 188 232 285 335
#     4  10  20  36  57  83 114 148 187 231 276 331
#     4  11  22  37  58  85 115 148 185 232 283 334
#     4   9  18  29  51  86 116 146 186 231 279 327
#     4   9  17  30  51  84 118 145 182 235 281 325
#
# _framework density 19.683705
#
# number of rings (size 3 to 8) (size 9 to 14) (size 15 to 20)
#    0.000    2.000    2.500    1.500    1.750    3.000 
#    0.000    2.500    0.000    1.500    0.000    0.000 
#    0.000    0.000    0.000    0.000    0.000    0.000 
#
# Total GULP energy -396830.724231 kJ/mol
# GULP energy per Si atom -12400.960132 kJ/mol
# Density = 1.963890 g / cm^3
# Si number density = 19.683705 Si / 1000 Ang^3
#
#
#
# Elastic Constant Matrix: (Units=GPa)
#
#
# Indices 1 2 3 4 5 6 
#
# 1 32.4174 22.7487 21.0274 0.0002 -0.0001 -0.0001
# 2 22.7487 178.9236 68.4085 0.0029 0.0005 0.0000
# 3 21.0274 68.4085 143.4457 0.0065 0.0005 -0.0001
# 4 0.0002 0.0029 0.0065 33.6800 0.0006 0.0003
# 5 -0.0001 0.0005 0.0005 0.0006 13.2066 0.0002
# 6 -0.0001 0.0000 -0.0001 0.0003 0.0002 23.3486
#
#
#
# Elastic Compliance Matrix: (Units=1/GPa)
#
#
# Indices 1 2 3 4 5 6 
#
# 1 0.035425 -0.003080 -0.003724 0.000001 0.000000 0.000000
# 2 -0.003080 0.007103 -0.002936 0.000000 0.000000 0.000000
# 3 -0.003724 -0.002936 0.008917 -0.000001 0.000000 0.000000
# 4 0.000001 0.000000 -0.000001 0.029691 -0.000001 0.000000
# 5 0.000000 0.000000 0.000000 -0.000001 0.075719 -0.000001
# 6 0.000000 0.000000 0.000000 0.000000 -0.000001 0.042829
#
#
# Mechanical properties :
#
#
# Convention : Reuss Voigt Hill
#
# Bulk Modulus (GPa) = 31.28420 64.35066 47.81743
# Shear Modulus (GPa) = 21.75617 30.22051 25.98834
#
# Velocity S-wave (km/s) = 3.32819 3.92255 3.63753
# Velocity P-wave (km/s) = 5.54050 7.29921 6.47980
#
# Compressibility (1/GPa) = 0.03196502
#
# Stress axis : x y z
#
# Youngs Moduli (GPa) = 28.22895 140.78361 112.14183
#
# Poissons Ratio (x) = 0.43364 0.41760
# Poissons Ratio (y) = 0.08695 0.32924
# Poissons Ratio (z) = 0.10512 0.41333
#
# Static dielectric constant tensor:
#      x y z
#    x 3.133460 0.000000 0.000000 
#    y 0.000000 3.857390 0.000000 
#    z 0.000000 0.000000 3.721310 
# 
# 
# High freq. dielectric constant tensor:
#      x y z
#    x 1.719840 0.000000 0.000000 
#    y 0.000000 1.785130 0.000000 
#    z 0.000000 0.000000 1.773320 
# 
# From -- ./inp_files/9763.got.cif
#   From: 2010.03.12/outbox.cif.g09.slc.cpg/sg46_5_cif.got.tgz:9763.got - 2010.04.14 02:56:35.
