data_PCOD8191368
_publ_section_title
;
Structure prediction by ZEFSAII (Michael W. Deem and Ramdas Pophale) SiO2 
 PCOD8191368
Probable space group: I M A 2
;
_chemical_formula_sum "Si O2"
_cell_formula_units_Z 64
_cell_length_a 8.615973
_cell_length_b 14.536670
_cell_length_c 27.822093
_cell_angle_alpha 90.000000
_cell_angle_beta 90.000000
_cell_angle_gamma 90.000000
_cell_volume 3484.649157
_symmetry_space_group_name_H-M "I M A 2"
_symmetry_group_IT_number 46
_symmetry_cell_setting 'orthorhombic'
loop_
_space_group_symop_operation_xyz
x,y,z
-x,-y,z
1/2-x,y,z
1/2+x,-y,z
1/2+x,1/2+y,1/2+z
1/2-x,1/2-y,1/2+z
-x,1/2+y,1/2+z
x,1/2-y,1/2+z
loop_
_atom_site_type_symbol
_atom_site_label
_atom_site_fract_x
_atom_site_fract_y
_atom_site_fract_z
Si Si1 0.068732 0.902447 0.710140
Si Si2 0.567538 0.718691 0.401300
Si Si3 0.428457 0.287482 0.128233
Si Si4 0.070710 0.335444 0.024860
Si Si5 0.932547 0.908643 0.087886
Si Si6 0.929743 0.348234 0.493294
Si Si7 0.565974 0.091534 0.436138
Si Si8 0.932654 0.598244 0.311952
O O1 0.250000 0.914688 0.716593
O O2 0.034069 0.824863 0.670803
O O3 0.997716 0.870030 0.760577
O O4 0.000000 0.000000 0.693213
O O5 0.750000 0.734824 0.405629
O O6 0.513611 0.644470 0.441493
O O7 0.483490 0.817052 0.407265
O O8 0.519846 0.676374 0.350061
O O9 0.250000 0.286389 0.145111
O O10 0.448417 0.354820 0.081745
O O11 0.486018 0.184153 0.115206
O O12 0.250000 0.306633 0.014762
O O13 0.952189 0.255235 0.011135
O O14 0.016179 0.415893 0.989221
O O15 0.750000 0.912475 0.086862
O O16 0.000000 0.000000 0.114313
O O17 0.994100 0.913625 0.033136
O O18 0.750000 0.372737 0.487488
O O19 0.750000 0.088404 0.440429
O O20 0.500000 0.000000 0.409233
O O21 0.750000 0.587375 0.308155
O O22 0.000000 0.500000 0.327854
#
# Coordination Sequence:
#
# PCOD8191368 Si02
#       8
#     8   8   8   8   8   8   8   8
#     4  11  22  36  57  80 105 133 166 210 259 313
#     4  10  20  35  54  77 105 138 175 217 261 307
#     4   9  19  35  54  76 105 138 173 214 260 307
#     4   9  17  31  49  70  99 134 172 214 253 295
#     4  10  20  34  52  75 106 143 179 218 257 302
#     4  10  18  29  47  71 101 136 172 211 251 298
#     4  11  21  33  51  75 106 143 179 217 257 306
#     4  10  21  37  58  80 105 133 165 209 260 312
#
# _framework density 18.366268999999999
#
# number of rings (size 3 to 8) (size 9 to 14) (size 15 to 20)
#    0.000    2.000    0.000    7.875    0.000    6.000 
#    0.000    1.250    0.000    0.750    0.000    3.500 
#    0.000    0.000    0.000    0.000    0.000    0.000 
#
# Total GULP energy -396619.448329 kJ/mol
# GULP energy per Si atom -12394.357760 kJ/mol
# Density = 1.832447 g / cm^3
# Si number density = 18.366269 Si / 1000 Ang^3
#
#
#
# Elastic Constant Matrix: (Units=GPa)
#
#
# Indices 1 2 3 4 5 6 
#
# 1 102.2457 43.6813 47.9458 0.0000 0.0000 0.0000
# 2 43.6813 104.2958 60.9349 0.0000 0.0000 0.0000
# 3 47.9458 60.9349 111.7217 0.0000 0.0000 0.0000
# 4 0.0000 0.0000 0.0000 22.4480 0.0000 0.0000
# 5 0.0000 0.0000 0.0000 0.0000 26.8552 0.0000
# 6 0.0000 0.0000 0.0000 0.0000 0.0000 30.5651
#
#
#
# Elastic Compliance Matrix: (Units=1/GPa)
#
#
# Indices 1 2 3 4 5 6 
#
# 1 0.012929 -0.003190 -0.003809 0.000000 0.000000 0.000000
# 2 -0.003190 0.014859 -0.006736 0.000000 0.000000 0.000000
# 3 -0.003809 -0.006736 0.014259 0.000000 0.000000 0.000000
# 4 0.000000 0.000000 0.000000 0.044547 0.000000 0.000000
# 5 0.000000 0.000000 0.000000 0.000000 0.037237 0.000000
# 6 0.000000 0.000000 0.000000 0.000000 0.000000 0.032717
#
#
# Mechanical properties :
#
#
# Convention : Reuss Voigt Hill
#
# Bulk Modulus (GPa) = 68.59098 69.26527 68.92812
# Shear Modulus (GPa) = 26.47224 27.02040 26.74632
#
# Velocity S-wave (km/s) = 3.80063 3.83978 3.82026
# Velocity P-wave (km/s) = 7.52908 7.57982 7.55449
#
# Compressibility (1/GPa) = 0.01457918
#
# Stress axis : x y z
#
# Youngs Moduli (GPa) = 77.34470 67.29778 70.13026
#
# Poissons Ratio (x) = 0.21466 0.26712
# Poissons Ratio (y) = 0.24670 0.47238
# Poissons Ratio (z) = 0.29460 0.45330
#
# Static dielectric constant tensor:
#      x y z
#    x 3.394760 0.000000 0.000000 
#    y 0.000000 3.410630 0.000000 
#    z 0.000000 0.000000 3.383960 
# 
# 
# High freq. dielectric constant tensor:
#      x y z
#    x 1.726250 0.000000 0.000000 
#    y 0.000000 1.704130 0.000000 
#    z 0.000000 0.000000 1.689880 
# 
# From -- ./inp_files/25295.got.cif
#   From: 2010.03.12/outbox.cif.g09.slc.cpg/sg46_13_cif.got.tgz:25295.got - 2010.04.14 02:56:35.
