data_PCOD8191552
_publ_section_title
;
Structure prediction by ZEFSAII (Michael W. Deem and Ramdas Pophale) SiO2 
 PCOD8191552
Probable space group: I M A 2
;
_chemical_formula_sum "Si O2"
_cell_formula_units_Z 64
_cell_length_a 21.075054
_cell_length_b 15.400771
_cell_length_c 9.768924
_cell_angle_alpha 90.000000
_cell_angle_beta 90.000000
_cell_angle_gamma 90.000000
_cell_volume 3170.719987
_symmetry_space_group_name_H-M "I M A 2"
_symmetry_group_IT_number 46
_symmetry_cell_setting 'orthorhombic'
loop_
_space_group_symop_operation_xyz
x,y,z
-x,-y,z
1/2-x,y,z
1/2+x,-y,z
1/2+x,1/2+y,1/2+z
1/2-x,1/2-y,1/2+z
-x,1/2+y,1/2+z
x,1/2-y,1/2+z
loop_
_atom_site_type_symbol
_atom_site_label
_atom_site_fract_x
_atom_site_fract_y
_atom_site_fract_z
Si Si1 0.176775 0.939606 0.559380
Si Si2 0.175676 0.463032 0.322656
Si Si3 0.882430 0.665572 0.728281
Si Si4 0.321920 0.618351 0.505148
Si Si5 0.593807 0.224839 0.552315
Si Si6 0.174456 0.215367 0.948531
Si Si7 0.969954 0.169641 0.286298
Si Si8 0.131623 0.531356 0.760256
O O1 0.250000 0.913783 0.575600
O O2 0.136338 0.855777 0.598721
O O3 0.162203 0.973092 0.409054
O O4 0.159292 0.017663 0.664150
O O5 0.250000 0.460194 0.350354
O O6 0.147327 0.540804 0.415250
O O7 0.148461 0.369562 0.367117
O O8 0.845454 0.700669 0.861325
O O9 0.859638 0.719537 0.595940
O O10 0.867062 0.565200 0.700919
O O11 0.956730 0.671087 0.753001
O O12 0.250000 0.638244 0.461390
O O13 0.362017 0.704513 0.477645
O O14 0.324346 0.591005 0.664515
O O15 0.540283 0.196861 0.443636
O O16 0.561993 0.260145 0.688312
O O17 0.250000 0.215483 0.971062
O O18 0.938894 0.074079 0.263589
#
# Coordination Sequence:
#
# PCOD8191552 Si02
#       8
#     8   8   8   8   8   8   8   8
#     4  10  20  34  57  89 124 159 191 241 304 356
#     4   9  19  36  54  81 121 154 188 235 294 360
#     4  12  24  43  64  85 117 157 199 252 301 351
#     4  10  18  33  59  87 121 161 194 241 300 354
#     4  10  20  36  58  88 123 154 203 247 284 351
#     4  11  25  41  63  91 117 150 198 250 311 370
#     4  10  22  40  61  87 117 162 203 240 290 345
#     4  10  22  37  60  87 120 158 204 244 288 352
#
# _framework density 20.18469
#
# number of rings (size 3 to 8) (size 9 to 14) (size 15 to 20)
#    0.000    1.750    1.250    3.000    1.750    1.500 
#    0.000    3.750    0.000    0.000    0.000    0.000 
#    0.000    0.000    0.000    0.000    0.000    0.000 
#
# Total GULP energy -396834.097119 kJ/mol
# GULP energy per Si atom -12401.065535 kJ/mol
# Density = 2.013875 g / cm^3
# Si number density = 20.184690 Si / 1000 Ang^3
#
#
#
# Elastic Constant Matrix: (Units=GPa)
#
#
# Indices 1 2 3 4 5 6 
#
# 1 49.7500 24.0865 2.1625 0.0000 0.0000 0.0000
# 2 24.0865 71.9679 13.2050 0.0000 0.0000 0.0000
# 3 2.1625 13.2050 91.9778 0.0000 0.0000 0.0000
# 4 0.0000 0.0000 0.0000 36.3525 0.0000 0.0000
# 5 0.0000 0.0000 0.0000 0.0000 28.1204 0.0000
# 6 0.0000 0.0000 0.0000 0.0000 0.0000 18.9845
#
#
#
# Elastic Compliance Matrix: (Units=1/GPa)
#
#
# Indices 1 2 3 4 5 6 
#
# 1 0.024020 -0.008150 0.000605 0.000000 0.000000 0.000000
# 2 -0.008150 0.017036 -0.002254 0.000000 0.000000 0.000000
# 3 0.000605 -0.002254 0.011182 0.000000 0.000000 0.000000
# 4 0.000000 0.000000 0.000000 0.027508 0.000000 0.000000
# 5 0.000000 0.000000 0.000000 0.000000 0.035561 0.000000
# 6 0.000000 0.000000 0.000000 0.000000 0.000000 0.052675
#
#
# Mechanical properties :
#
#
# Convention : Reuss Voigt Hill
#
# Bulk Modulus (GPa) = 30.63733 32.51154 31.57444
# Shear Modulus (GPa) = 25.19390 28.30759 26.75075
#
# Velocity S-wave (km/s) = 3.53678 3.74896 3.64441
# Velocity P-wave (km/s) = 5.64711 5.90607 5.77804
#
# Compressibility (1/GPa) = 0.03263992
#
# Stress axis : x y z
#
# Youngs Moduli (GPa) = 41.63175 58.69768 89.43270
#
# Poissons Ratio (x) = 0.47840 -0.05414
# Poissons Ratio (y) = 0.33931 0.20160
# Poissons Ratio (z) = -0.02520 0.13232
#
# Static dielectric constant tensor:
#      x y z
#    x 3.455840 0.000000 0.000000 
#    y 0.000000 3.814790 0.000000 
#    z 0.000000 0.000000 3.671380 
# 
# 
# High freq. dielectric constant tensor:
#      x y z
#    x 1.767960 0.000000 0.000000 
#    y 0.000000 1.792770 0.000000 
#    z 0.000000 0.000000 1.800760 
# 
# From -- ./inp_files/7965.got.cif
#   From: 2010.03.12/outbox.cif.g09.slc.cpg/sg46_4_cif.got.tgz:7965.got - 2010.04.14 02:56:35.
