data_PCOD8191476
_publ_section_title
;
Structure prediction by ZEFSAII (Michael W. Deem and Ramdas Pophale) SiO2 
 PCOD8191476
Probable space group: I M A 2
;
_chemical_formula_sum "Si O2"
_cell_formula_units_Z 40
_cell_length_a 8.560180
_cell_length_b 9.127981
_cell_length_c 25.874027
_cell_angle_alpha 90.000000
_cell_angle_beta 90.000000
_cell_angle_gamma 90.000000
_cell_volume 2021.722998
_symmetry_space_group_name_H-M "I M A 2"
_symmetry_group_IT_number 46
_symmetry_cell_setting 'orthorhombic'
loop_
_space_group_symop_operation_xyz
x,y,z
-x,-y,z
1/2-x,y,z
1/2+x,-y,z
1/2+x,1/2+y,1/2+z
1/2-x,1/2-y,1/2+z
-x,1/2+y,1/2+z
x,1/2-y,1/2+z
loop_
_atom_site_type_symbol
_atom_site_label
_atom_site_fract_x
_atom_site_fract_y
_atom_site_fract_z
Si Si1 0.068396 0.159284 0.913650
Si Si2 0.434274 0.837384 0.809779
Si Si3 0.432867 0.339212 0.015970
Si Si4 0.933805 0.339633 0.609473
Si Si5 0.433994 0.337519 0.203979
O O1 0.250000 0.140923 0.902079
O O2 0.988814 0.237635 0.863438
O O3 0.033683 0.262219 0.961791
O O4 0.000000 0.000000 0.926199
O O5 0.250000 0.834878 0.804541
O O6 0.506993 0.766290 0.758076
O O7 0.500000 0.000000 0.813752
O O8 0.500000 0.500000 0.011773
O O9 0.250000 0.340417 0.030015
O O10 0.527818 0.256623 0.059904
O O11 0.750000 0.346277 0.618185
O O12 0.000000 0.500000 0.599773
O O13 0.013067 0.270703 0.659468
O O14 0.500000 0.500000 0.194639
O O15 0.250000 0.350166 0.204736
#
# Coordination Sequence:
#
# PCOD8191476 Si02
#       5
#     8   8   8   8   8
#     4  10  20  35  57  85 116 151 192 236 285 339
#     4  10  18  31  54  84 116 151 192 235 283 337
#     4  11  24  41  61  86 116 152 193 238 289 343
#     4  12  25  42  62  86 116 150 191 237 289 345
#     4  11  21  37  60  87 119 154 194 238 286 338
#
# _framework density 19.785105999999999
#
# number of rings (size 3 to 8) (size 9 to 14) (size 15 to 20)
#    0.000    1.200    0.000   10.200    0.000    4.800 
#    0.000    1.000    0.000    2.400    0.000    0.000 
#    0.000    0.000    0.000    0.000    0.000    0.000 
#
# Total GULP energy -248028.993174 kJ/mol
# GULP energy per Si atom -12401.449659 kJ/mol
# Density = 1.974007 g / cm^3
# Si number density = 19.785106 Si / 1000 Ang^3
#
#
#
# Elastic Constant Matrix: (Units=GPa)
#
#
# Indices 1 2 3 4 5 6 
#
# 1 173.7749 40.1390 65.8496 0.0000 0.0000 0.0000
# 2 40.1390 96.4595 51.3038 0.0000 0.0000 0.0000
# 3 65.8496 51.3038 142.8398 0.0000 0.0000 0.0000
# 4 0.0000 0.0000 0.0000 34.8131 0.0000 0.0000
# 5 0.0000 0.0000 0.0000 0.0000 37.4696 0.0000
# 6 0.0000 0.0000 0.0000 0.0000 0.0000 28.8144
#
#
#
# Elastic Compliance Matrix: (Units=1/GPa)
#
#
# Indices 1 2 3 4 5 6 
#
# 1 0.007146 -0.001510 -0.002752 0.000000 0.000000 0.000000
# 2 -0.001510 0.013134 -0.004021 0.000000 0.000000 0.000000
# 3 -0.002752 -0.004021 0.009714 0.000000 0.000000 0.000000
# 4 0.000000 0.000000 0.000000 0.028725 0.000000 0.000000
# 5 0.000000 0.000000 0.000000 0.000000 0.026688 0.000000
# 6 0.000000 0.000000 0.000000 0.000000 0.000000 0.034705
#
#
# Mechanical properties :
#
#
# Convention : Reuss Voigt Hill
#
# Bulk Modulus (GPa) = 74.47356 80.85100 77.66228
# Shear Modulus (GPa) = 35.42206 37.27152 36.34679
#
# Velocity S-wave (km/s) = 4.23583 4.34500 4.29076
# Velocity P-wave (km/s) = 7.85149 8.13175 7.99285
#
# Compressibility (1/GPa) = 0.01342758
#
# Stress axis : x y z
#
# Youngs Moduli (GPa) = 139.93433 76.13715 102.94507
#
# Poissons Ratio (x) = 0.11496 0.28331
# Poissons Ratio (y) = 0.21129 0.41398
# Poissons Ratio (z) = 0.38511 0.30617
#
# Static dielectric constant tensor:
#      x y z
#    x 3.817260 0.000000 0.000000 
#    y 0.000000 3.365300 0.000000 
#    z 0.000000 0.000000 4.369410 
# 
# 
# High freq. dielectric constant tensor:
#      x y z
#    x 1.795740 0.000000 0.000000 
#    y 0.000000 1.742520 0.000000 
#    z 0.000000 0.000000 1.800500 
# 
# From -- ./inp_files/22743.got.cif
#   From: 2010.03.12/outbox.cif.g09.slc.cpg/sg46_12_cif.got.tgz:22743.got - 2010.04.14 02:56:35.
