data_PCOD8191571
_publ_section_title
;
Structure prediction by ZEFSAII (Michael W. Deem and Ramdas Pophale) SiO2 
 PCOD8191571
Probable space group: I M A 2
;
_chemical_formula_sum "Si O2"
_cell_formula_units_Z 60
_cell_length_a 13.880099
_cell_length_b 17.344298
_cell_length_c 12.686901
_cell_angle_alpha 90.000000
_cell_angle_beta 90.000000
_cell_angle_gamma 90.000000
_cell_volume 3054.251820
_symmetry_space_group_name_H-M "I M A 2"
_symmetry_group_IT_number 46
_symmetry_cell_setting 'orthorhombic'
loop_
_space_group_symop_operation_xyz
x,y,z
-x,-y,z
1/2-x,y,z
1/2+x,-y,z
1/2+x,1/2+y,1/2+z
1/2-x,1/2-y,1/2+z
-x,1/2+y,1/2+z
x,1/2-y,1/2+z
loop_
_atom_site_type_symbol
_atom_site_label
_atom_site_fract_x
_atom_site_fract_y
_atom_site_fract_z
Si Si1 0.517544 0.343080 0.120430
Si Si2 0.141906 0.018673 0.912900
Si Si3 0.142975 0.687925 0.924280
Si Si4 0.520053 0.799512 0.273890
Si Si5 0.500000 0.500000 0.235697
Si Si6 0.440594 0.369467 0.572639
Si Si7 0.353864 0.647309 0.490279
Si Si8 0.139112 0.219595 0.477011
O O1 0.512202 0.277297 0.210207
O O2 0.534644 0.428699 0.165113
O O3 0.607998 0.330072 0.042836
O O4 0.419731 0.339860 0.050671
O O5 0.250000 0.052101 0.905178
O O6 0.083392 0.038973 0.807743
O O7 0.089175 0.049954 0.019355
O O8 0.140258 0.926934 0.916568
O O9 0.250000 0.652809 0.907669
O O10 0.070821 0.659607 0.832508
O O11 0.143759 0.780498 0.911632
O O12 0.571592 0.863824 0.198812
O O13 0.601283 0.778211 0.357991
O O14 0.554411 0.349432 0.565760
O O15 0.374013 0.306346 0.517325
O O16 0.250000 0.646608 0.552473
O O17 0.250000 0.194721 0.480006
#
# Coordination Sequence:
#
# PCOD8191571 Si02
#       8
#     8   8   8   8   4   8   8   8
#     4  10  22  37  58  87 114 149 194 238 292 342
#     4  11  23  36  58  91 121 151 186 233 292 353
#     4  10  20  37  59  86 118 149 191 241 284 342
#     4  10  19  34  59  85 114 149 197 234 285 339
#     4  12  22  38  66  82 116 154 186 244 294 348
#     4  11  19  36  57  85 124 152 190 235 290 339
#     4  10  18  34  58  83 118 151 180 232 290 338
#     4  10  21  37  56  82 118 155 197 243 281 337
#
# _framework density 19.644745
#
# number of rings (size 3 to 8) (size 9 to 14) (size 15 to 20)
#    0.000    1.600    5.333    2.000    0.000    4.800 
#    0.000    0.000   11.733    0.000    0.000    0.000 
#    0.000    0.000    0.000    0.000    0.000    0.000 
#
# Total GULP energy -371770.680349 kJ/mol
# GULP energy per Si atom -12392.356012 kJ/mol
# Density = 1.960003 g / cm^3
# Si number density = 19.644745 Si / 1000 Ang^3
#
#
#
# Elastic Constant Matrix: (Units=GPa)
#
#
# Indices 1 2 3 4 5 6 
#
# 1 142.5361 8.3858 49.3514 0.0000 0.0000 0.0000
# 2 8.3858 66.5738 30.2141 0.0000 0.0000 0.0000
# 3 49.3514 30.2141 124.7279 0.0000 0.0000 0.0000
# 4 0.0000 0.0000 0.0000 21.9820 0.0000 0.0000
# 5 0.0000 0.0000 0.0000 0.0000 15.5356 0.0000
# 6 0.0000 0.0000 0.0000 0.0000 0.0000 21.2188
#
#
#
# Elastic Compliance Matrix: (Units=1/GPa)
#
#
# Indices 1 2 3 4 5 6 
#
# 1 0.008144 0.000491 -0.003341 0.000000 0.000000 0.000000
# 2 0.000491 0.016906 -0.004289 0.000000 0.000000 0.000000
# 3 -0.003341 -0.004289 0.010378 0.000000 0.000000 0.000000
# 4 0.000000 0.000000 0.000000 0.045492 0.000000 0.000000
# 5 0.000000 0.000000 0.000000 0.000000 0.064368 0.000000
# 6 0.000000 0.000000 0.000000 0.000000 0.000000 0.047128
#
#
# Mechanical properties :
#
#
# Convention : Reuss Voigt Hill
#
# Bulk Modulus (GPa) = 47.28531 56.63781 51.96156
# Shear Modulus (GPa) = 23.39232 28.13972 25.76602
#
# Velocity S-wave (km/s) = 3.45449 3.78885 3.62553
# Velocity P-wave (km/s) = 6.32723 6.93067 6.63581
#
# Compressibility (1/GPa) = 0.02114822
#
# Stress axis : x y z
#
# Youngs Moduli (GPa) = 122.79412 59.15120 96.35323
#
# Poissons Ratio (x) = -0.02902 0.32192
# Poissons Ratio (y) = -0.06023 0.41329
# Poissons Ratio (z) = 0.41026 0.25372
#
# Static dielectric constant tensor:
#      x y z
#    x 3.839190 0.000000 0.000000 
#    y 0.000000 3.359530 0.000000 
#    z 0.000000 0.000000 3.543700 
# 
# 
# High freq. dielectric constant tensor:
#      x y z
#    x 1.774930 0.000000 0.000000 
#    y 0.000000 1.738500 0.000000 
#    z 0.000000 0.000000 1.756620 
# 
# From -- ./inp_files/11263.got.cif
#   From: 2010.03.12/outbox.cif.g09.slc.cpg/sg46_6_cif.got.tgz:11263.got - 2010.04.14 02:56:35.
