data_PCOD8191878
_publ_section_title
;
Structure prediction by ZEFSAII (Michael W. Deem and Ramdas Pophale) SiO2 
 PCOD8191878
Probable space group: I M A 2
;
_chemical_formula_sum "Si O2"
_cell_formula_units_Z 56
_cell_length_a 8.977931
_cell_length_b 14.478128
_cell_length_c 21.956354
_cell_angle_alpha 90.000000
_cell_angle_beta 90.000000
_cell_angle_gamma 90.000000
_cell_volume 2853.966687
_symmetry_space_group_name_H-M "I M A 2"
_symmetry_group_IT_number 46
_symmetry_cell_setting 'orthorhombic'
loop_
_space_group_symop_operation_xyz
x,y,z
-x,-y,z
1/2-x,y,z
1/2+x,-y,z
1/2+x,1/2+y,1/2+z
1/2-x,1/2-y,1/2+z
-x,1/2+y,1/2+z
x,1/2-y,1/2+z
loop_
_atom_site_type_symbol
_atom_site_label
_atom_site_fract_x
_atom_site_fract_y
_atom_site_fract_z
Si Si1 0.073183 0.094294 0.630290
Si Si2 0.925697 0.208617 0.530347
Si Si3 0.578790 0.589938 0.270199
Si Si4 0.573487 0.599775 0.920732
Si Si5 0.923207 0.789684 0.300322
Si Si6 0.425564 0.907222 0.202835
Si Si7 0.577721 0.090619 0.064288
O O1 0.250000 0.093077 0.618952
O O2 0.029531 0.108061 0.700622
O O3 0.996255 0.177545 0.594214
O O4 0.000000 0.000000 0.605145
O O5 0.750000 0.187189 0.529479
O O6 0.956439 0.318520 0.524200
O O7 0.007979 0.156114 0.476662
O O8 0.500000 0.500000 0.298501
O O9 0.750000 0.565254 0.272299
O O10 0.541027 0.680901 0.309761
O O11 0.500000 0.500000 0.917051
O O12 0.750000 0.589584 0.928726
O O13 0.529418 0.655581 0.860370
O O14 0.750000 0.803819 0.284836
O O15 0.017864 0.822261 0.242755
O O16 0.250000 0.915724 0.209429
O O17 0.477772 0.891638 0.133367
O O18 0.500000 0.000000 0.229324
O O19 0.750000 0.067551 0.065137
O O20 0.500000 0.000000 0.035639
#
# Coordination Sequence:
#
# PCOD8191878 Si02
#       7
#     8   8   8   8   8   8   8
#     4  10  19  32  53  81 112 144 177 216 266 320
#     4  11  22  37  56  79 108 141 181 224 267 315
#     4   9  19  35  55  81 111 142 177 218 264 317
#     4  11  24  41  59  79 106 140 179 222 266 314
#     4  10  21  37  56  79 108 142 181 223 266 314
#     4  10  19  32  53  82 113 143 176 215 265 320
#     4   9  20  36  55  81 111 142 176 218 264 316
#
# _framework density 19.621815000000002
#
# number of rings (size 3 to 8) (size 9 to 14) (size 15 to 20)
#    0.000    2.000    0.000    3.429    0.000    5.143 
#    0.000    0.714    0.000    3.429    0.000    0.000 
#    0.000    0.000    0.000    0.000    0.000    0.000 
#
# Total GULP energy -347242.826502 kJ/mol
# GULP energy per Si atom -12401.529518 kJ/mol
# Density = 1.957715 g / cm^3
# Si number density = 19.621815 Si / 1000 Ang^3
#
#
#
# Elastic Constant Matrix: (Units=GPa)
#
#
# Indices 1 2 3 4 5 6 
#
# 1 76.0112 58.8628 35.6665 0.0000 0.0000 0.0000
# 2 58.8628 157.7028 58.0549 0.0000 0.0000 0.0000
# 3 35.6665 58.0549 64.7154 0.0000 0.0000 0.0000
# 4 0.0000 0.0000 0.0000 32.7746 0.0000 0.0000
# 5 0.0000 0.0000 0.0000 0.0000 18.8628 0.0000
# 6 0.0000 0.0000 0.0000 0.0000 0.0000 36.5032
#
#
#
# Elastic Compliance Matrix: (Units=1/GPa)
#
#
# Indices 1 2 3 4 5 6 
#
# 1 0.020194 -0.005137 -0.006521 0.000000 0.000000 0.000000
# 2 -0.005137 0.010774 -0.006834 0.000000 0.000000 0.000000
# 3 -0.006521 -0.006834 0.025177 0.000000 0.000000 0.000000
# 4 0.000000 0.000000 0.000000 0.030511 0.000000 0.000000
# 5 0.000000 0.000000 0.000000 0.000000 0.053014 0.000000
# 6 0.000000 0.000000 0.000000 0.000000 0.000000 0.027395
#
#
# Mechanical properties :
#
#
# Convention : Reuss Voigt Hill
#
# Bulk Modulus (GPa) = 52.19053 67.06642 59.62848
# Shear Modulus (GPa) = 23.75998 27.35112 25.55555
#
# Velocity S-wave (km/s) = 3.48357 3.73757 3.61280
# Velocity P-wave (km/s) = 6.54494 7.27184 6.91794
#
# Compressibility (1/GPa) = 0.01916056
#
# Stress axis : x y z
#
# Youngs Moduli (GPa) = 49.52023 92.81383 39.71816
#
# Poissons Ratio (x) = 0.47675 0.25902
# Poissons Ratio (y) = 0.25437 0.27145
# Poissons Ratio (z) = 0.32294 0.63433
#
# Static dielectric constant tensor:
#      x y z
#    x 3.581620 0.000000 0.000000 
#    y 0.000000 3.790190 0.000000 
#    z 0.000000 0.000000 3.396770 
# 
# 
# High freq. dielectric constant tensor:
#      x y z
#    x 1.769000 0.000000 0.000000 
#    y 0.000000 1.779650 0.000000 
#    z 0.000000 0.000000 1.739540 
# 
# From -- ./inp_files/21098.got.cif
#   From: 2010.03.12/outbox.cif.g09.slc.cpg/sg46_11_cif.got.tgz:21098.got - 2010.04.14 02:56:35.
