data_PCOD8191081
_publ_section_title
;
Structure prediction by ZEFSAII (Michael W. Deem and Ramdas Pophale) SiO2 
 PCOD8191081
Probable space group: I B A 2
;
_chemical_formula_sum "Si O2"
_cell_formula_units_Z 48
_cell_length_a 8.666340
_cell_length_b 24.805806
_cell_length_c 9.247498
_cell_angle_alpha 90.000000
_cell_angle_beta 90.000000
_cell_angle_gamma 90.000000
_cell_volume 1987.985957
_symmetry_space_group_name_H-M "I B A 2"
_symmetry_group_IT_number 45
_symmetry_cell_setting 'orthorhombic'
loop_
_space_group_symop_operation_xyz
x,y,z
-x,-y,z
-x,y,1/2+z
x,-y,1/2+z
1/2+x,1/2+y,1/2+z
1/2-x,1/2-y,1/2+z
1/2-x,1/2+y,z
1/2+x,1/2-y,z
loop_
_atom_site_type_symbol
_atom_site_label
_atom_site_fract_x
_atom_site_fract_y
_atom_site_fract_z
Si Si1 0.841481 0.979330 0.204800
Si Si2 0.945829 0.354545 0.987027
Si Si3 0.880635 0.287389 0.265089
Si Si4 0.886910 0.116465 0.497323
Si Si5 0.360434 0.958570 0.982868
Si Si6 0.452410 0.679623 0.269378
O O1 0.734502 0.954019 0.331060
O O2 0.906649 0.938600 0.083604
O O3 0.000000 0.000000 0.279515
O O4 0.745658 0.024852 0.118507
O O5 0.996110 0.320421 0.852799
O O6 0.073139 0.399902 0.025824
O O7 0.788958 0.384773 0.943234
O O8 0.907888 0.310435 0.107016
O O9 0.709135 0.296602 0.327712
O O10 0.912401 0.223721 0.276992
O O11 0.927281 0.165878 0.602446
O O12 0.999593 0.125656 0.359577
O O13 0.500000 0.000000 0.959618
#
# Coordination Sequence:
#
# PCOD8191081 Si02
#       6
#     8   8   8   8   8   8
#     4  12  29  47  73 111 154 199 256 317 387 453
#     4  11  25  45  74 105 144 190 251 303 377 450
#     4  11  25  45  72 107 143 192 246 312 378 461
#     4  11  26  46  71 106 145 194 245 310 376 447
#     4  12  26  48  76 108 152 203 258 314 377 461
#     4  11  25  46  72 106 147 189 250 307 384 455
#
# _framework density 24.145040000000002
#
# number of rings (size 3 to 8) (size 9 to 14) (size 15 to 20)
#    0.000    0.667    1.667    5.000    9.333    5.333 
#    0.000    0.000    0.000    0.000    0.000    0.000 
#    0.000    0.000    0.000    0.000    0.000    0.000 
#
# Total GULP energy -297562.781695 kJ/mol
# GULP energy per Si atom -12398.449237 kJ/mol
# Density = 2.409009 g / cm^3
# Si number density = 24.145040 Si / 1000 Ang^3
#
#
#
# Elastic Constant Matrix: (Units=GPa)
#
#
# Indices 1 2 3 4 5 6 
#
# 1 140.9239 21.7715 38.7724 0.0028 0.0005 0.0001
# 2 21.7715 80.4648 1.3460 0.0054 0.0009 0.0003
# 3 38.7724 1.3460 78.3103 0.0033 0.0019 0.0000
# 4 0.0028 0.0054 0.0033 37.0243 0.0014 0.0000
# 5 0.0005 0.0009 0.0019 0.0014 19.6685 0.0004
# 6 0.0001 0.0003 0.0000 0.0000 0.0004 51.2848
#
#
#
# Elastic Compliance Matrix: (Units=1/GPa)
#
#
# Indices 1 2 3 4 5 6 
#
# 1 0.008607 -0.002258 -0.004222 0.000000 0.000000 0.000000
# 2 -0.002258 0.013024 0.000894 -0.000002 -0.000001 0.000000
# 3 -0.004222 0.000894 0.014845 -0.000001 -0.000001 0.000000
# 4 0.000000 -0.000002 -0.000001 0.027009 -0.000002 0.000000
# 5 0.000000 -0.000001 -0.000001 -0.000002 0.050843 0.000000
# 6 0.000000 0.000000 0.000000 0.000000 0.000000 0.019499
#
#
# Mechanical properties :
#
#
# Convention : Reuss Voigt Hill
#
# Bulk Modulus (GPa) = 39.52160 47.05319 43.28740
# Shear Modulus (GPa) = 32.58749 37.44947 35.01848
#
# Velocity S-wave (km/s) = 3.67775 3.94257 3.81246
# Velocity P-wave (km/s) = 5.86843 6.34470 6.11120
#
# Compressibility (1/GPa) = 0.02530262
#
# Stress axis : x y z
#
# Youngs Moduli (GPa) = 116.19000 76.78252 67.36313
#
# Poissons Ratio (x) = 0.17338 0.28444
# Poissons Ratio (y) = 0.26236 -0.06023
# Poissons Ratio (z) = 0.49060 -0.06865
#
# Static dielectric constant tensor:
#      x y z
#    x 4.716750 0.000000 0.000000 
#    y 0.000000 3.801590 0.000000 
#    z 0.000000 0.000000 4.155280 
# 
# 
# High freq. dielectric constant tensor:
#      x y z
#    x 1.977030 0.000000 0.000000 
#    y 0.000000 1.962380 0.000000 
#    z 0.000000 0.000000 1.955340 
# 
# From -- ./inp_files/1066.got.cif
#   From: 2010.03.12/outbox.cif.g09.slc.cpg/sg45_1_cif.got.tgz:1066.got - 2010.04.14 02:50:11.
