data_PCOD8191468
_publ_section_title
;
Structure prediction by ZEFSAII (Michael W. Deem and Ramdas Pophale) SiO2 
 PCOD8191468
Probable space group: I M A 2
;
_chemical_formula_sum "Si O2"
_cell_formula_units_Z 48
_cell_length_a 8.853461
_cell_length_b 28.143499
_cell_length_c 10.406013
_cell_angle_alpha 90.000000
_cell_angle_beta 90.000000
_cell_angle_gamma 90.000000
_cell_volume 2592.838900
_symmetry_space_group_name_H-M "I M A 2"
_symmetry_group_IT_number 46
_symmetry_cell_setting 'orthorhombic'
loop_
_space_group_symop_operation_xyz
x,y,z
-x,-y,z
1/2-x,y,z
1/2+x,-y,z
1/2+x,1/2+y,1/2+z
1/2-x,1/2-y,1/2+z
-x,1/2+y,1/2+z
x,1/2-y,1/2+z
loop_
_atom_site_type_symbol
_atom_site_label
_atom_site_fract_x
_atom_site_fract_y
_atom_site_fract_z
Si Si1 0.571872 0.810547 0.799240
Si Si2 0.073069 0.851944 0.049717
Si Si3 0.572354 0.047848 0.161391
Si Si4 0.572923 0.547151 0.936966
Si Si5 0.426691 0.147270 0.535232
Si Si6 0.927963 0.799338 0.286263
O O1 0.750000 0.818899 0.811108
O O2 0.505228 0.831410 0.665895
O O3 0.530021 0.755412 0.805370
O O4 0.491933 0.838651 0.912309
O O5 0.250000 0.843173 0.051797
O O6 0.033319 0.907281 0.072381
O O7 0.002317 0.818465 0.157437
O O8 0.750000 0.040379 0.177407
O O9 0.501059 0.057733 0.300025
O O10 0.500000 0.000000 0.100340
O O11 0.500000 0.500000 0.999866
O O12 0.750000 0.539555 0.916527
O O13 0.538527 0.591125 0.030920
O O14 0.250000 0.158136 0.533476
O O15 0.495814 0.172936 0.409539
O O16 0.750000 0.807134 0.271740
#
# Coordination Sequence:
#
# PCOD8191468 Si02
#       6
#     8   8   8   8   8   8
#     4  10  21  37  58  81 109 147 189 228 267 320
#     4  11  23  37  54  83 118 147 179 224 282 335
#     4  10  20  34  54  80 108 140 181 226 272 325
#     4  10  18  31  53  79 108 137 175 226 274 322
#     4   9  18  33  54  82 108 136 178 228 273 314
#     4  10  19  36  61  83 105 141 190 234 268 316
#
# _framework density 18.512528
#
# number of rings (size 3 to 8) (size 9 to 14) (size 15 to 20)
#    0.000    2.000    1.667    3.500    0.000    5.333 
#    0.000    3.333    0.000    4.000    0.000    0.000 
#    0.000    0.000    0.000    0.000    0.000    0.000 
#
# Total GULP energy -297613.924104 kJ/mol
# GULP energy per Si atom -12400.580171 kJ/mol
# Density = 1.847039 g / cm^3
# Si number density = 18.512528 Si / 1000 Ang^3
#
#
#
# Elastic Constant Matrix: (Units=GPa)
#
#
# Indices 1 2 3 4 5 6 
#
# 1 65.3788 51.8005 27.1067 -0.0013 -0.0004 0.0000
# 2 51.8005 130.4156 56.4010 -0.0001 -0.0015 0.0001
# 3 27.1067 56.4010 113.9618 -0.0037 -0.0035 -0.0001
# 4 -0.0013 -0.0001 -0.0037 13.9936 -0.0020 0.0005
# 5 -0.0004 -0.0015 -0.0035 -0.0020 20.1766 -0.0015
# 6 0.0000 0.0001 -0.0001 0.0005 -0.0015 27.2677
#
#
#
# Elastic Compliance Matrix: (Units=1/GPa)
#
#
# Indices 1 2 3 4 5 6 
#
# 1 0.022443 -0.008405 -0.001179 0.000002 0.000000 0.000000
# 2 -0.008405 0.012903 -0.004387 -0.000002 0.000000 0.000000
# 3 -0.001179 -0.004387 0.011226 0.000003 0.000002 0.000000
# 4 0.000002 -0.000002 0.000003 0.071461 0.000007 -0.000001
# 5 0.000000 0.000000 0.000002 0.000007 0.049562 0.000003
# 6 0.000000 0.000000 0.000000 -0.000001 0.000003 0.036673
#
#
# Mechanical properties :
#
#
# Convention : Reuss Voigt Hill
#
# Bulk Modulus (GPa) = 53.66985 64.48582 59.07784
# Shear Modulus (GPa) = 20.97128 23.91745 22.44437
#
# Velocity S-wave (km/s) = 3.36938 3.59828 3.48571
# Velocity P-wave (km/s) = 6.64763 7.22307 6.94132
#
# Compressibility (1/GPa) = 0.01863243
#
# Stress axis : x y z
#
# Youngs Moduli (GPa) = 44.55674 77.49977 89.07602
#
# Poissons Ratio (x) = 0.65135 0.10500
# Poissons Ratio (y) = 0.37448 0.39077
# Poissons Ratio (z) = 0.05252 0.33998
#
# Static dielectric constant tensor:
#      x y z
#    x 3.294980 0.000000 0.000000 
#    y 0.000000 3.715740 0.000000 
#    z 0.000000 0.000000 3.378970 
# 
# 
# High freq. dielectric constant tensor:
#      x y z
#    x 1.705370 0.000000 0.000000 
#    y 0.000000 1.737450 0.000000 
#    z 0.000000 0.000000 1.704650 
# 
# From -- ./inp_files/3912.got.cif
#   From: 2010.03.12/outbox.cif.g09.slc.cpg/sg46_2_cif.got.tgz:3912.got - 2010.04.14 02:56:35.
