data_PCOD8191202
_publ_section_title
;
Structure prediction by ZEFSAII (Michael W. Deem and Ramdas Pophale) SiO2 
 PCOD8191202
Probable space group: I M A 2
;
_chemical_formula_sum "Si O2"
_cell_formula_units_Z 56
_cell_length_a 8.602417
_cell_length_b 22.621636
_cell_length_c 17.846725
_cell_angle_alpha 90.000000
_cell_angle_beta 90.000000
_cell_angle_gamma 90.000000
_cell_volume 3472.986000
_symmetry_space_group_name_H-M "I M A 2"
_symmetry_group_IT_number 46
_symmetry_cell_setting 'orthorhombic'
loop_
_space_group_symop_operation_xyz
x,y,z
-x,-y,z
1/2-x,y,z
1/2+x,-y,z
1/2+x,1/2+y,1/2+z
1/2-x,1/2-y,1/2+z
-x,1/2+y,1/2+z
x,1/2-y,1/2+z
loop_
_atom_site_type_symbol
_atom_site_label
_atom_site_fract_x
_atom_site_fract_y
_atom_site_fract_z
Si Si1 0.432500 0.435348 0.423880
Si Si2 0.431315 0.153196 0.044571
Si Si3 0.931805 0.806490 0.198874
Si Si4 0.434049 0.283240 0.001593
Si Si5 0.931803 0.184212 0.650144
Si Si6 0.933364 0.280824 0.844801
Si Si7 0.566954 0.844371 0.798006
O O1 0.500000 0.500000 0.420216
O O2 0.250000 0.441272 0.432550
O O3 0.504645 0.399997 0.495805
O O4 0.478228 0.400351 0.348717
O O5 0.250000 0.154390 0.026892
O O6 0.462987 0.144171 0.134143
O O7 0.496434 0.216884 0.018465
O O8 0.750000 0.789116 0.199129
O O9 0.033933 0.750071 0.177762
O O10 0.989681 0.824577 0.281755
O O11 0.250000 0.286106 0.994672
O O12 0.489282 0.326265 0.069055
O O13 0.511335 0.305418 0.924843
O O14 0.750000 0.172249 0.643568
O O15 0.004541 0.141590 0.714172
O O16 0.750000 0.284484 0.838152
O O17 0.989529 0.213678 0.833843
O O18 0.750000 0.833134 0.796729
#
# Coordination Sequence:
#
# PCOD8191202 Si02
#       7
#     8   8   8   8   8   8   8
#     4  10  20  33  47  65  86 114 155 195 227 262
#     4   8  15  29  45  59  79 111 150 185 214 255
#     4   9  16  27  43  59  80 116 151 175 212 266
#     4  10  17  29  45  61  85 119 152 175 211 268
#     4  10  18  27  40  63  88 109 142 184 223 259
#     4  11  19  26  40  65  92 114 143 184 223 257
#     4  10  18  31  46  58  82 120 154 181 219 271
#
# _framework density 16.124452999999999
#
# number of rings (size 3 to 8) (size 9 to 14) (size 15 to 20)
#    0.000    2.286    1.429    6.429    0.000    1.143 
#    0.000    1.429    0.000    0.000    0.000    0.000 
#    0.000    1.143    0.000    7.143    0.000    4.857 
#
# Total GULP energy -346974.840671 kJ/mol
# GULP energy per Si atom -12391.958595 kJ/mol
# Density = 1.608775 g / cm^3
# Si number density = 16.124453 Si / 1000 Ang^3
#
#
#
# Elastic Constant Matrix: (Units=GPa)
#
#
# Indices 1 2 3 4 5 6 
#
# 1 69.9769 21.7381 42.2369 0.0000 0.0000 0.0000
# 2 21.7381 53.2826 49.4661 0.0000 0.0000 0.0000
# 3 42.2369 49.4661 170.7900 -0.0001 0.0000 0.0000
# 4 0.0000 0.0000 -0.0001 15.3412 0.0000 0.0000
# 5 0.0000 0.0000 0.0000 0.0000 26.4544 0.0000
# 6 0.0000 0.0000 0.0000 0.0000 0.0000 14.8636
#
#
#
# Elastic Compliance Matrix: (Units=1/GPa)
#
#
# Indices 1 2 3 4 5 6 
#
# 1 0.017479 -0.004265 -0.003087 0.000000 0.000000 0.000000
# 2 -0.004265 0.026711 -0.006682 0.000000 0.000000 0.000000
# 3 -0.003087 -0.006682 0.008554 0.000000 0.000000 0.000000
# 4 0.000000 0.000000 0.000000 0.065184 0.000000 0.000000
# 5 0.000000 0.000000 0.000000 0.000000 0.037801 0.000000
# 6 0.000000 0.000000 0.000000 0.000000 0.000000 0.067279
#
#
# Mechanical properties :
#
#
# Convention : Reuss Voigt Hill
#
# Bulk Modulus (GPa) = 40.52517 57.88130 49.20323
# Shear Modulus (GPa) = 19.28275 23.37241 21.32758
#
# Velocity S-wave (km/s) = 3.46189 3.81136 3.64082
# Velocity P-wave (km/s) = 6.41614 7.43930 6.94658
#
# Compressibility (1/GPa) = 0.02467602
#
# Stress axis : x y z
#
# Youngs Moduli (GPa) = 57.21244 37.43810 116.90645
#
# Poissons Ratio (x) = 0.15966 0.36093
# Poissons Ratio (y) = 0.24400 0.78112
# Poissons Ratio (z) = 0.17663 0.25015
#
# Static dielectric constant tensor:
#      x y z
#    x 2.983000 0.000000 0.000000 
#    y 0.000000 2.709950 0.000000 
#    z 0.000000 0.000000 3.779100 
# 
# 
# High freq. dielectric constant tensor:
#      x y z
#    x 1.622690 0.000000 0.000000 
#    y 0.000000 1.537150 0.000000 
#    z 0.000000 0.000000 1.646760 
# 
# From -- ./inp_files/18454.got.cif
#   From: 2010.03.12/outbox.cif.g09.slc.cpg/sg46_10_cif.got.tgz:18454.got - 2010.04.14 02:56:35.
