data_PCOD8191130
_publ_section_title
;
Structure prediction by ZEFSAII (Michael W. Deem and Ramdas Pophale) SiO2 
 PCOD8191130
Probable space group: I B A 2
;
_chemical_formula_sum "Si O2"
_cell_formula_units_Z 32
_cell_length_a 8.869361
_cell_length_b 15.323032
_cell_length_c 8.863359
_cell_angle_alpha 90.000000
_cell_angle_beta 90.000000
_cell_angle_gamma 90.000000
_cell_volume 1204.579258
_symmetry_space_group_name_H-M "I B A 2"
_symmetry_group_IT_number 45
_symmetry_cell_setting 'orthorhombic'
loop_
_space_group_symop_operation_xyz
x,y,z
-x,-y,z
-x,y,1/2+z
x,-y,1/2+z
1/2+x,1/2+y,1/2+z
1/2-x,1/2-y,1/2+z
1/2-x,1/2+y,z
1/2+x,1/2-y,z
loop_
_atom_site_type_symbol
_atom_site_label
_atom_site_fract_x
_atom_site_fract_y
_atom_site_fract_z
Si Si1 0.049424 0.267216 0.361890
Si Si2 0.368644 0.937696 0.949129
Si Si3 0.672618 0.688819 0.555529
Si Si4 0.177339 0.003045 0.185083
O O1 0.177288 0.270191 0.487660
O O2 0.111475 0.249516 0.194232
O O3 0.934315 0.350379 0.371749
O O4 0.949535 0.185382 0.419295
O O5 0.268881 0.996705 0.838522
O O6 0.500000 0.000000 0.011379
O O7 0.251061 0.922389 0.089007
O O8 0.713805 0.592607 0.601529
O O9 0.000000 0.000000 0.214848
#
# Coordination Sequence:
#
# PCOD8191130 Si02
#       4
#     8   8   8   8
#     4  12  28  50  82 114 160 208 271 334 416 486
#     4  12  27  51  78 113 155 214 265 330 412 497
#     4  12  28  50  77 116 155 209 267 339 404 494
#     4  12  29  48  79 114 159 209 270 335 407 492
#
# _framework density 26.565291999999999
#
# number of rings (size 3 to 8) (size 9 to 14) (size 15 to 20)
#    0.000    0.000    2.500    6.000   14.000    0.000 
#    0.000    0.000    0.000    0.000    0.000    0.000 
#    0.000    0.000    0.000    0.000    0.000    0.000 
#
# Total GULP energy -198285.240331 kJ/mol
# GULP energy per Si atom -12392.827521 kJ/mol
# Density = 2.650483 g / cm^3
# Si number density = 26.565292 Si / 1000 Ang^3
#
#
#
# Elastic Constant Matrix: (Units=GPa)
#
#
# Indices 1 2 3 4 5 6 
#
# 1 168.1948 21.9955 58.1206 0.0003 -0.0002 -0.0001
# 2 21.9955 40.4313 10.6787 0.0015 -0.0022 -0.0003
# 3 58.1206 10.6787 126.2112 0.0027 -0.0023 -0.0006
# 4 0.0003 0.0015 0.0027 34.4162 -0.0017 -0.0003
# 5 -0.0002 -0.0022 -0.0023 -0.0017 29.1081 0.0004
# 6 -0.0001 -0.0003 -0.0006 -0.0003 0.0004 53.1584
#
#
#
# Elastic Compliance Matrix: (Units=1/GPa)
#
#
# Indices 1 2 3 4 5 6 
#
# 1 0.007460 -0.003223 -0.003163 0.000000 0.000000 0.000000
# 2 -0.003223 0.026691 -0.000774 -0.000001 0.000002 0.000000
# 3 -0.003163 -0.000774 0.009445 -0.000001 0.000001 0.000000
# 4 0.000000 -0.000001 -0.000001 0.029056 0.000002 0.000000
# 5 0.000000 0.000002 0.000001 0.000002 0.034355 0.000000
# 6 0.000000 0.000000 0.000000 0.000000 0.000000 0.018812
#
#
# Mechanical properties :
#
#
# Convention : Reuss Voigt Hill
#
# Bulk Modulus (GPa) = 34.15691 57.38078 45.76884
# Shear Modulus (GPa) = 33.35627 39.60605 36.48116
#
# Velocity S-wave (km/s) = 3.54734 3.86540 3.70978
# Velocity P-wave (km/s) = 5.44644 6.44737 5.96793
#
# Compressibility (1/GPa) = 0.02927666
#
# Stress axis : x y z
#
# Youngs Moduli (GPa) = 134.05162 37.46559 105.87508
#
# Poissons Ratio (x) = 0.12075 0.33484
# Poissons Ratio (y) = 0.43205 0.08196
# Poissons Ratio (z) = 0.42395 0.02900
#
# Static dielectric constant tensor:
#      x y z
#    x 5.289320 0.000010 0.000000 
#    y 0.000010 5.108490 -0.000010 
#    z 0.000000 -0.000010 5.033990 
# 
# 
# High freq. dielectric constant tensor:
#      x y z
#    x 2.099340 0.000000 0.000000 
#    y 0.000000 2.053300 0.000000 
#    z 0.000000 0.000000 2.076330 
# 
# From -- ./inp_files/902.got.cif
#   From: 2010.03.12/outbox.cif.g09.slc.cpg/sg45_1_cif.got.tgz:902.got - 2010.04.14 02:50:11.
