data_PCOD8191263
_publ_section_title
;
Structure prediction by ZEFSAII (Michael W. Deem and Ramdas Pophale) SiO2 
 PCOD8191263
Probable space group: I M A 2
;
_chemical_formula_sum "Si O2"
_cell_formula_units_Z 64
_cell_length_a 8.550969
_cell_length_b 26.559057
_cell_length_c 18.647064
_cell_angle_alpha 90.000000
_cell_angle_beta 90.000000
_cell_angle_gamma 90.000000
_cell_volume 4234.854021
_symmetry_space_group_name_H-M "I M A 2"
_symmetry_group_IT_number 46
_symmetry_cell_setting 'orthorhombic'
loop_
_space_group_symop_operation_xyz
x,y,z
-x,-y,z
1/2-x,y,z
1/2+x,-y,z
1/2+x,1/2+y,1/2+z
1/2-x,1/2-y,1/2+z
-x,1/2+y,1/2+z
x,1/2-y,1/2+z
loop_
_atom_site_type_symbol
_atom_site_label
_atom_site_fract_x
_atom_site_fract_y
_atom_site_fract_z
Si Si1 0.066084 0.946981 0.582640
Si Si2 0.930512 0.302539 0.872819
Si Si3 0.563904 0.749631 0.745128
Si Si4 0.435261 0.446547 0.238192
Si Si5 0.068290 0.242885 0.586784
Si Si6 0.568658 0.648514 0.319539
Si Si7 0.069100 0.209537 0.947215
Si Si8 0.066041 0.144848 0.501033
O O1 0.250000 0.951518 0.593611
O O2 0.988328 0.932876 0.658279
O O3 0.025027 0.904763 0.524873
O O4 0.000000 0.000000 0.554086
O O5 0.750000 0.317542 0.870666
O O6 0.995001 0.296753 0.791569
O O7 0.953999 0.249471 0.911980
O O8 0.023648 0.345045 0.917717
O O9 0.750000 0.745437 0.747644
O O10 0.493198 0.745860 0.664329
O O11 0.503741 0.802990 0.776786
O O12 0.500000 0.500000 0.264601
O O13 0.250000 0.449142 0.240318
O O14 0.506296 0.403525 0.291294
O O15 0.250000 0.234919 0.600237
O O16 0.036802 0.290616 0.532956
O O17 0.005275 0.191628 0.549979
O O18 0.750000 0.644515 0.301833
O O19 0.539616 0.656439 0.405813
O O20 0.250000 0.226930 0.933686
O O21 0.250000 0.136359 0.509123
#
# Coordination Sequence:
#
# PCOD8191263 Si02
#       8
#     8   8   8   8   8   8   8   8
#     4  11  21  32  44  61  83 108 137 173 208 243
#     4  10  18  27  38  58  83 107 133 165 200 239
#     4   9  15  26  41  58  78 105 135 164 197 240
#     4  10  18  29  42  58  80 109 141 176 210 244
#     4   8  14  24  43  63  79 102 137 171 201 238
#     4   8  14  24  40  56  76 106 140 169 201 243
#     4   8  14  27  42  57  76 104 137 169 202 242
#     4  10  18  31  47  61  79 109 142 173 205 241
#
# _framework density 15.112679999999999
#
# number of rings (size 3 to 8) (size 9 to 14) (size 15 to 20)
#    0.000    2.750    0.000    6.000    0.000    2.000 
#    0.000   10.625    0.000    0.000    0.000    0.000 
#    0.000    1.000    0.000    6.500    0.000    2.125 
#
# Total GULP energy -396477.153449 kJ/mol
# GULP energy per Si atom -12389.911045 kJ/mol
# Density = 1.507828 g / cm^3
# Si number density = 15.112680 Si / 1000 Ang^3
#
#
#
# Elastic Constant Matrix: (Units=GPa)
#
#
# Indices 1 2 3 4 5 6 
#
# 1 46.8485 15.3722 16.3752 0.0000 0.0000 0.0000
# 2 15.3722 84.6244 57.8788 0.0000 0.0000 0.0000
# 3 16.3752 57.8788 121.0534 0.0000 0.0000 0.0000
# 4 0.0000 0.0000 0.0000 27.6647 0.0000 0.0000
# 5 0.0000 0.0000 0.0000 0.0000 13.4086 0.0000
# 6 0.0000 0.0000 0.0000 0.0000 0.0000 17.6291
#
#
#
# Elastic Compliance Matrix: (Units=1/GPa)
#
#
# Indices 1 2 3 4 5 6 
#
# 1 0.022918 -0.003035 -0.001649 0.000000 0.000000 0.000000
# 2 -0.003035 0.017961 -0.008177 0.000000 0.000000 0.000000
# 3 -0.001649 -0.008177 0.012394 0.000000 0.000000 0.000000
# 4 0.000000 0.000000 0.000000 0.036147 0.000000 0.000000
# 5 0.000000 0.000000 0.000000 0.000000 0.074579 0.000000
# 6 0.000000 0.000000 0.000000 0.000000 0.000000 0.056724
#
#
# Mechanical properties :
#
#
# Convention : Reuss Voigt Hill
#
# Bulk Modulus (GPa) = 36.29791 47.97542 42.13666
# Shear Modulus (GPa) = 19.55963 22.60047 21.08005
#
# Velocity S-wave (km/s) = 3.60148 3.87132 3.73883
# Velocity P-wave (km/s) = 6.43152 7.19700 6.82500
#
# Compressibility (1/GPa) = 0.02754980
#
# Stress axis : x y z
#
# Youngs Moduli (GPa) = 43.63439 55.67636 80.68734
#
# Poissons Ratio (x) = 0.16899 0.13305
# Poissons Ratio (y) = 0.13244 0.65978
# Poissons Ratio (z) = 0.07195 0.45527
#
# Static dielectric constant tensor:
#      x y z
#    x 2.731080 0.000000 0.000000 
#    y 0.000000 2.856110 0.000000 
#    z 0.000000 0.000000 3.206910 
# 
# 
# High freq. dielectric constant tensor:
#      x y z
#    x 1.567900 0.000000 0.000000 
#    y 0.000000 1.542860 0.000000 
#    z 0.000000 0.000000 1.573070 
# 
# From -- ./inp_files/18687.got.cif
#   From: 2010.03.12/outbox.cif.g09.slc.cpg/sg46_10_cif.got.tgz:18687.got - 2010.04.14 02:56:35.
