data_PCOD8191547
_publ_section_title
;
Structure prediction by ZEFSAII (Michael W. Deem and Ramdas Pophale) SiO2 
 PCOD8191547
Probable space group: I M A 2
;
_chemical_formula_sum "Si O2"
_cell_formula_units_Z 48
_cell_length_a 17.258871
_cell_length_b 13.075955
_cell_length_c 11.565170
_cell_angle_alpha 90.000000
_cell_angle_beta 90.000000
_cell_angle_gamma 90.000000
_cell_volume 2609.983856
_symmetry_space_group_name_H-M "I M A 2"
_symmetry_group_IT_number 46
_symmetry_cell_setting 'orthorhombic'
loop_
_space_group_symop_operation_xyz
x,y,z
-x,-y,z
1/2-x,y,z
1/2+x,-y,z
1/2+x,1/2+y,1/2+z
1/2-x,1/2-y,1/2+z
-x,1/2+y,1/2+z
x,1/2-y,1/2+z
loop_
_atom_site_type_symbol
_atom_site_label
_atom_site_fract_x
_atom_site_fract_y
_atom_site_fract_z
Si Si1 0.338854 0.067615 0.397660
Si Si2 0.337287 0.593129 0.097001
Si Si3 0.474343 0.289287 0.889902
Si Si4 0.567774 0.064819 0.235758
Si Si5 0.048743 0.899274 0.812057
Si Si6 0.404013 0.794999 0.029301
O O1 0.250000 0.098997 0.385779
O O2 0.386247 0.174308 0.405653
O O3 0.354960 0.999581 0.510341
O O4 0.363326 0.006584 0.282281
O O5 0.250000 0.582451 0.145818
O O6 0.400168 0.587458 0.198295
O O7 0.342484 0.702161 0.030443
O O8 0.526941 0.382883 0.845573
O O9 0.485856 0.193926 0.800116
O O10 0.509503 0.254851 0.014650
O O11 0.605160 0.145185 0.148682
O O12 0.500000 0.000000 0.170998
O O13 0.107520 0.870945 0.918817
O O14 0.000000 0.000000 0.840255
#
# Coordination Sequence:
#
# PCOD8191547 Si02
#       6
#     8   8   8   8   8   8
#     4  10  21  37  57  85 114 147 186 231 282 326
#     4  11  23  36  56  85 118 145 180 235 283 330
#     4   9  20  35  57  85 104 151 191 229 267 331
#     4  10  18  33  57  83 112 143 189 231 273 331
#     4  10  22  36  59  87 107 149 186 230 280 333
#     4  10  19  36  54  87 109 146 184 229 279 329
#
# _framework density 18.390917999999999
#
# number of rings (size 3 to 8) (size 9 to 14) (size 15 to 20)
#    1.000    1.000    3.333    0.500    2.333    1.333 
#    0.000    0.833    0.000    6.000    0.000    0.000 
#    0.000    0.000    0.000    0.000    0.000    0.000 
#
# Total GULP energy -297344.865931 kJ/mol
# GULP energy per Si atom -12389.369414 kJ/mol
# Density = 1.834906 g / cm^3
# Si number density = 18.390918 Si / 1000 Ang^3
#
#
#
# Elastic Constant Matrix: (Units=GPa)
#
#
# Indices 1 2 3 4 5 6 
#
# 1 100.2220 44.6282 38.5454 0.0000 0.0000 0.0000
# 2 44.6282 84.2628 17.9773 0.0000 0.0000 0.0000
# 3 38.5454 17.9773 73.4908 0.0000 0.0000 0.0000
# 4 0.0000 0.0000 0.0000 24.4755 0.0000 0.0000
# 5 0.0000 0.0000 0.0000 0.0000 21.3463 0.0000
# 6 0.0000 0.0000 0.0000 0.0000 0.0000 18.3016
#
#
#
# Elastic Compliance Matrix: (Units=1/GPa)
#
#
# Indices 1 2 3 4 5 6 
#
# 1 0.015506 -0.006834 -0.006461 0.000000 0.000000 0.000000
# 2 -0.006834 0.015533 -0.000215 0.000000 0.000000 0.000000
# 3 -0.006461 -0.000215 0.017049 0.000000 0.000000 0.000000
# 4 0.000000 0.000000 0.000000 0.040857 0.000000 0.000000
# 5 0.000000 0.000000 0.000000 0.000000 0.046846 0.000000
# 6 0.000000 0.000000 0.000000 0.000000 0.000000 0.054640
#
#
# Mechanical properties :
#
#
# Convention : Reuss Voigt Hill
#
# Bulk Modulus (GPa) = 47.46777 51.14193 49.30485
# Shear Modulus (GPa) = 22.27430 23.27967 22.77698
#
# Velocity S-wave (km/s) = 3.48394 3.56170 3.52304
# Velocity P-wave (km/s) = 6.48462 6.69200 6.58913
#
# Compressibility (1/GPa) = 0.02106693
#
# Stress axis : x y z
#
# Youngs Moduli (GPa) = 64.49178 64.37884 58.65598
#
# Poissons Ratio (x) = 0.43996 0.37898
# Poissons Ratio (y) = 0.44073 0.01263
# Poissons Ratio (z) = 0.41668 0.01386
#
# Static dielectric constant tensor:
#      x y z
#    x 3.167660 0.000000 0.000000 
#    y 0.000000 3.528080 0.000000 
#    z 0.000000 0.000000 3.137740 
# 
# 
# High freq. dielectric constant tensor:
#      x y z
#    x 1.686690 0.000000 0.000000 
#    y 0.000000 1.717110 0.000000 
#    z 0.000000 0.000000 1.702030 
# 
# From -- ./inp_files/11090.got.cif
#   From: 2010.03.12/outbox.cif.g09.slc.cpg/sg46_6_cif.got.tgz:11090.got - 2010.04.14 02:56:35.
