data_PCOD8191402
_publ_section_title
;
Structure prediction by ZEFSAII (Michael W. Deem and Ramdas Pophale) SiO2 
 PCOD8191402
Probable space group: I M A 2
;
_chemical_formula_sum "Si O2"
_cell_formula_units_Z 64
_cell_length_a 9.337131
_cell_length_b 23.051957
_cell_length_c 18.979345
_cell_angle_alpha 90.000000
_cell_angle_beta 90.000000
_cell_angle_gamma 90.000000
_cell_volume 4085.097940
_symmetry_space_group_name_H-M "I M A 2"
_symmetry_group_IT_number 46
_symmetry_cell_setting 'orthorhombic'
loop_
_space_group_symop_operation_xyz
x,y,z
-x,-y,z
1/2-x,y,z
1/2+x,-y,z
1/2+x,1/2+y,1/2+z
1/2-x,1/2-y,1/2+z
-x,1/2+y,1/2+z
x,1/2-y,1/2+z
loop_
_atom_site_type_symbol
_atom_site_label
_atom_site_fract_x
_atom_site_fract_y
_atom_site_fract_z
Si Si1 0.917111 0.058766 0.246010
Si Si2 0.583363 0.883663 0.373368
Si Si3 0.582163 0.230282 0.020488
Si Si4 0.085227 0.057319 0.519932
Si Si5 0.415183 0.329169 0.096927
Si Si6 0.087036 0.833398 0.157499
Si Si7 0.585344 0.763264 0.732453
Si Si8 0.084606 0.248177 0.887186
O O1 0.750000 0.045895 0.260755
O O2 0.937047 0.099416 0.177134
O O3 0.982816 0.090275 0.313552
O O4 0.000000 0.000000 0.229139
O O5 0.750000 0.892689 0.353492
O O6 0.541498 0.916969 0.444519
O O7 0.548505 0.816289 0.384375
O O8 0.750000 0.239006 0.009226
O O9 0.510022 0.215552 0.945769
O O10 0.516215 0.289780 0.049271
O O11 0.547121 0.178298 0.075612
O O12 0.250000 0.040179 0.520289
O O13 0.049994 0.104062 0.580947
O O14 0.000000 0.000000 0.538568
O O15 0.250000 0.315128 0.076695
O O16 0.445279 0.316789 0.179603
O O17 0.250000 0.814532 0.170562
O O18 0.995481 0.794441 0.209773
O O19 0.750000 0.744595 0.731398
O O20 0.542727 0.780715 0.812021
O O21 0.250000 0.238041 0.906127
#
# Coordination Sequence:
#
# PCOD8191402 Si02
#       8
#     8   8   8   8   8   8   8   8
#     4  11  22  34  48  66  92 126 161 197 231 271
#     4  10  19  32  46  66  95 125 158 193 222 264
#     4  10  19  30  47  69  93 122 153 187 231 281
#     4  10  20  32  45  62  90 123 156 189 220 258
#     4   9  17  32  48  66  90 119 152 194 235 266
#     4   9  19  33  46  66  94 121 153 193 233 273
#     4   9  17  29  50  70  89 118 152 188 232 278
#     4  10  18  30  47  71  97 122 152 187 227 277
#
# _framework density 15.666698999999999
#
# number of rings (size 3 to 8) (size 9 to 14) (size 15 to 20)
#    0.000    2.250    2.500    1.125    0.000    4.000 
#    0.000    0.000    0.000    0.000    0.000    0.875 
#    0.000    6.000    0.000    0.000    0.000    0.000 
#
# Total GULP energy -396753.453970 kJ/mol
# GULP energy per Si atom -12398.545437 kJ/mol
# Density = 1.563104 g / cm^3
# Si number density = 15.666699 Si / 1000 Ang^3
#
#
#
# Elastic Constant Matrix: (Units=GPa)
#
#
# Indices 1 2 3 4 5 6 
#
# 1 72.5155 39.3171 58.3693 0.0000 0.0000 0.0000
# 2 39.3171 71.0947 54.0649 0.0000 0.0000 0.0000
# 3 58.3693 54.0649 126.0141 0.0000 0.0000 0.0000
# 4 0.0000 0.0000 0.0000 19.9618 0.0000 0.0000
# 5 0.0000 0.0000 0.0000 0.0000 17.5992 0.0000
# 6 0.0000 0.0000 0.0000 0.0000 0.0000 21.7072
#
#
#
# Elastic Compliance Matrix: (Units=1/GPa)
#
#
# Indices 1 2 3 4 5 6 
#
# 1 0.024257 -0.007229 -0.008134 0.000000 0.000000 0.000000
# 2 -0.007229 0.023032 -0.006533 0.000000 0.000000 0.000000
# 3 -0.008134 -0.006533 0.014506 0.000000 0.000000 0.000000
# 4 0.000000 0.000000 0.000000 0.050096 0.000000 0.000000
# 5 0.000000 0.000000 0.000000 0.000000 0.056821 0.000000
# 6 0.000000 0.000000 0.000000 0.000000 0.000000 0.046068
#
#
# Mechanical properties :
#
#
# Convention : Reuss Voigt Hill
#
# Bulk Modulus (GPa) = 55.54784 63.68077 59.61430
# Shear Modulus (GPa) = 18.89842 19.71186 19.30514
#
# Velocity S-wave (km/s) = 3.47692 3.55096 3.51414
# Velocity P-wave (km/s) = 7.18691 7.58603 7.38916
#
# Compressibility (1/GPa) = 0.01800250
#
# Stress axis : x y z
#
# Youngs Moduli (GPa) = 41.22504 43.41850 68.93541
#
# Poissons Ratio (x) = 0.31387 0.56074
# Poissons Ratio (y) = 0.29801 0.45036
# Poissons Ratio (z) = 0.33534 0.28365
#
# Static dielectric constant tensor:
#      x y z
#    x 3.060410 0.000000 0.000000 
#    y 0.000000 2.843560 0.000000 
#    z 0.000000 0.000000 3.250680 
# 
# 
# High freq. dielectric constant tensor:
#      x y z
#    x 1.608050 0.000000 0.000000 
#    y 0.000000 1.571280 0.000000 
#    z 0.000000 0.000000 1.601590 
# 
# From -- ./inp_files/18620.got.cif
#   From: 2010.03.12/outbox.cif.g09.slc.cpg/sg46_10_cif.got.tgz:18620.got - 2010.04.14 02:56:35.
