data_PCOD8191327
_publ_section_title
;
Structure prediction by ZEFSAII (Michael W. Deem and Ramdas Pophale) SiO2 
 PCOD8191327
Probable space group: I M A 2
;
_chemical_formula_sum "Si O2"
_cell_formula_units_Z 64
_cell_length_a 9.086266
_cell_length_b 18.698325
_cell_length_c 21.070547
_cell_angle_alpha 90.000000
_cell_angle_beta 90.000000
_cell_angle_gamma 90.000000
_cell_volume 3579.842840
_symmetry_space_group_name_H-M "I M A 2"
_symmetry_group_IT_number 46
_symmetry_cell_setting 'orthorhombic'
loop_
_space_group_symop_operation_xyz
x,y,z
-x,-y,z
1/2-x,y,z
1/2+x,-y,z
1/2+x,1/2+y,1/2+z
1/2-x,1/2-y,1/2+z
-x,1/2+y,1/2+z
x,1/2-y,1/2+z
loop_
_atom_site_type_symbol
_atom_site_label
_atom_site_fract_x
_atom_site_fract_y
_atom_site_fract_z
Si Si1 0.912760 0.434774 0.854510
Si Si2 0.577074 0.925864 0.536031
Si Si3 0.576522 0.821097 0.423232
Si Si4 0.423645 0.074470 0.799699
Si Si5 0.076216 0.775184 0.217211
Si Si6 0.423811 0.792256 0.852156
Si Si7 0.578737 0.643240 0.166258
Si Si8 0.410968 0.933696 0.206977
O O1 0.750000 0.426231 0.885664
O O2 0.892501 0.449821 0.780920
O O3 0.000000 0.500000 0.887795
O O4 0.012613 0.365597 0.864167
O O5 0.750000 0.939665 0.534108
O O6 0.532607 0.862311 0.487641
O O7 0.523247 0.900525 0.605233
O O8 0.500000 0.000000 0.517620
O O9 0.750000 0.810210 0.416628
O O10 0.494419 0.744906 0.414984
O O11 0.250000 0.070368 0.812703
O O12 0.498287 0.131222 0.846631
O O13 0.458256 0.095165 0.727104
O O14 0.500000 0.000000 0.814932
O O15 0.250000 0.774175 0.207963
O O16 0.037769 0.754244 0.289518
O O17 0.015365 0.854805 0.199600
O O18 0.004256 0.718984 0.168985
O O19 0.250000 0.801782 0.861388
O O20 0.750000 0.661202 0.161098
O O21 0.250000 0.933808 0.174758
O O22 0.500000 0.000000 0.175537
#
# Coordination Sequence:
#
# PCOD8191327 Si02
#       8
#     8   8   8   8   8   8   8   8
#     4  10  18  29  42  61  90 126 163 200 237 281
#     4  10  22  37  51  71 101 135 174 213 247 288
#     4  11  21  32  47  68  96 132 169 206 245 292
#     4  10  19  32  52  78 103 130 164 204 253 307
#     4   9  17  31  48  69  96 126 162 205 253 300
#     4  10  19  33  50  70  99 131 163 205 252 302
#     4   9  19  34  51  72  98 130 170 211 251 296
#     4   9  17  28  41  63  93 124 157 194 237 287
#
# _framework density 17.877880999999999
#
# number of rings (size 3 to 8) (size 9 to 14) (size 15 to 20)
#    0.000    2.250    1.250    2.250    0.000    4.500 
#    0.000    0.000    0.000    0.000    0.000    0.875 
#    0.000    2.000    0.000    0.000    0.000    0.000 
#
# Total GULP energy -396642.519148 kJ/mol
# GULP energy per Si atom -12395.078723 kJ/mol
# Density = 1.783719 g / cm^3
# Si number density = 17.877881 Si / 1000 Ang^3
#
#
#
# Elastic Constant Matrix: (Units=GPa)
#
#
# Indices 1 2 3 4 5 6 
#
# 1 80.0802 63.8589 29.2933 0.0000 0.0000 0.0000
# 2 63.8589 160.1372 39.3713 0.0000 0.0000 0.0000
# 3 29.2933 39.3713 53.1763 0.0000 0.0000 0.0000
# 4 0.0000 0.0000 0.0000 21.4516 0.0000 0.0000
# 5 0.0000 0.0000 0.0000 0.0000 16.0913 0.0000
# 6 0.0000 0.0000 0.0000 0.0000 0.0000 37.0035
#
#
#
# Elastic Compliance Matrix: (Units=1/GPa)
#
#
# Indices 1 2 3 4 5 6 
#
# 1 0.019854 -0.006392 -0.006205 0.000000 0.000000 0.000000
# 2 -0.006392 0.009692 -0.003655 0.000000 0.000000 0.000000
# 3 -0.006205 -0.003655 0.024929 0.000000 0.000000 0.000000
# 4 0.000000 0.000000 0.000000 0.046616 0.000000 0.000000
# 5 0.000000 0.000000 0.000000 0.000000 0.062145 0.000000
# 6 0.000000 0.000000 0.000000 0.000000 0.000000 0.027024
#
#
# Mechanical properties :
#
#
# Convention : Reuss Voigt Hill
#
# Bulk Modulus (GPa) = 45.51046 62.04896 53.77971
# Shear Modulus (GPa) = 21.73068 25.63397 23.68233
#
# Velocity S-wave (km/s) = 3.49019 3.79071 3.64355
# Velocity P-wave (km/s) = 6.46169 7.34451 6.91720
#
# Compressibility (1/GPa) = 0.02197297
#
# Stress axis : x y z
#
# Youngs Moduli (GPa) = 50.36692 103.17573 40.11333
#
# Poissons Ratio (x) = 0.65950 0.24889
# Poissons Ratio (y) = 0.32194 0.14661
# Poissons Ratio (z) = 0.31251 0.37710
#
# Static dielectric constant tensor:
#      x y z
#    x 3.485960 0.000000 0.000000 
#    y 0.000000 3.576110 0.000000 
#    z 0.000000 0.000000 2.979300 
# 
# 
# High freq. dielectric constant tensor:
#      x y z
#    x 1.698160 0.000000 0.000000 
#    y 0.000000 1.699230 0.000000 
#    z 0.000000 0.000000 1.638370 
# 
# From -- ./inp_files/21285.got.cif
#   From: 2010.03.12/outbox.cif.g09.slc.cpg/sg46_11_cif.got.tgz:21285.got - 2010.04.14 02:56:35.
