data_PCOD8191556
_publ_section_title
;
Structure prediction by ZEFSAII (Michael W. Deem and Ramdas Pophale) SiO2 
 PCOD8191556
Probable space group: I M A 2
;
_chemical_formula_sum "Si O2"
_cell_formula_units_Z 40
_cell_length_a 13.691531
_cell_length_b 18.101683
_cell_length_c 7.519803
_cell_angle_alpha 90.000000
_cell_angle_beta 90.000000
_cell_angle_gamma 90.000000
_cell_volume 1863.706125
_symmetry_space_group_name_H-M "I M A 2"
_symmetry_group_IT_number 46
_symmetry_cell_setting 'orthorhombic'
loop_
_space_group_symop_operation_xyz
x,y,z
-x,-y,z
1/2-x,y,z
1/2+x,-y,z
1/2+x,1/2+y,1/2+z
1/2-x,1/2-y,1/2+z
-x,1/2+y,1/2+z
x,1/2-y,1/2+z
loop_
_atom_site_type_symbol
_atom_site_label
_atom_site_fract_x
_atom_site_fract_y
_atom_site_fract_z
Si Si1 0.536386 0.083071 0.069980
Si Si2 0.143386 0.169556 0.551392
Si Si3 0.863446 0.177498 0.784446
Si Si4 0.939739 0.165284 0.400595
Si Si5 0.144920 0.337458 0.459263
O O1 0.595054 0.106196 0.250434
O O2 0.500000 0.000000 0.054572
O O3 0.602390 0.107679 0.902687
O O4 0.436531 0.128238 0.082972
O O5 0.250000 0.132371 0.504785
O O6 0.157068 0.255322 0.524523
O O7 0.113549 0.154354 0.754494
O O8 0.052998 0.142894 0.433130
O O9 0.750000 0.194449 0.822077
O O10 0.876676 0.155470 0.578657
O O11 0.927200 0.250384 0.830518
O O12 0.250000 0.377375 0.487477
#
# Coordination Sequence:
#
# PCOD8191556 Si02
#       5
#     8   8   8   8   8
#     4  12  27  44  67  98 142 181 226 293 365 425
#     4  10  18  33  64  99 127 161 212 274 331 402
#     4  12  25  44  73 103 140 187 248 303 345 418
#     4  12  22  42  71 105 133 181 243 296 351 416
#     4  10  19  35  60  93 128 164 206 261 333 404
#
# _framework density 21.462612
#
# number of rings (size 3 to 8) (size 9 to 14) (size 15 to 20)
#    0.000    0.800    6.000    1.800    0.000    4.800 
#    0.000    0.000    0.000    0.000    0.000    0.000 
#    0.000    0.000    0.000    0.000    0.000    0.000 
#
# Total GULP energy -247839.421117 kJ/mol
# GULP energy per Si atom -12391.971056 kJ/mol
# Density = 2.141376 g / cm^3
# Si number density = 21.462612 Si / 1000 Ang^3
#
#
#
# Elastic Constant Matrix: (Units=GPa)
#
#
# Indices 1 2 3 4 5 6 
#
# 1 89.3941 -6.5864 25.1655 0.0000 0.0000 0.0000
# 2 -6.5864 54.0997 33.6036 0.0000 0.0000 0.0000
# 3 25.1655 33.6036 136.1061 0.0000 0.0000 0.0000
# 4 0.0000 0.0000 0.0000 15.5900 0.0000 0.0000
# 5 0.0000 0.0000 0.0000 0.0000 55.4031 0.0000
# 6 0.0000 0.0000 0.0000 0.0000 0.0000 8.2055
#
#
#
# Elastic Compliance Matrix: (Units=1/GPa)
#
#
# Indices 1 2 3 4 5 6 
#
# 1 0.012321 0.003443 -0.003128 0.000000 0.000000 0.000000
# 2 0.003443 0.022795 -0.006264 0.000000 0.000000 0.000000
# 3 -0.003128 -0.006264 0.009472 0.000000 0.000000 0.000000
# 4 0.000000 0.000000 0.000000 0.064144 0.000000 0.000000
# 5 0.000000 0.000000 0.000000 0.000000 0.018050 0.000000
# 6 0.000000 0.000000 0.000000 0.000000 0.000000 0.121869
#
#
# Mechanical properties :
#
#
# Convention : Reuss Voigt Hill
#
# Bulk Modulus (GPa) = 30.59181 42.66280 36.62731
# Shear Modulus (GPa) = 18.41994 31.00087 24.71040
#
# Velocity S-wave (km/s) = 2.93274 3.80467 3.39680
# Velocity P-wave (km/s) = 5.07469 6.26271 5.69974
#
# Compressibility (1/GPa) = 0.03268849
#
# Stress axis : x y z
#
# Youngs Moduli (GPa) = 81.16432 43.86994 105.57185
#
# Poissons Ratio (x) = -0.15104 0.33024
# Poissons Ratio (y) = -0.27945 0.66135
# Poissons Ratio (z) = 0.25389 0.27482
#
# Static dielectric constant tensor:
#      x y z
#    x 0.289000 0.000000 0.000000 
#    y 0.000000 3.522450 0.000000 
#    z 0.000000 0.000000 4.138450 
# 
# 
# High freq. dielectric constant tensor:
#      x y z
#    x 1.858050 0.000000 0.000000 
#    y 0.000000 1.776560 0.000000 
#    z 0.000000 0.000000 1.864600 
# 
# From -- ./inp_files/5403.got.cif
#   From: 2010.03.12/outbox.cif.g09.slc.cpg/sg46_3_cif.got.tgz:5403.got - 2010.04.14 02:56:35.
