data_PCOD8191462
_publ_section_title
;
Structure prediction by ZEFSAII (Michael W. Deem and Ramdas Pophale) SiO2 
 PCOD8191462
Probable space group: I M A 2
;
_chemical_formula_sum "Si O2"
_cell_formula_units_Z 56
_cell_length_a 8.755386
_cell_length_b 14.446900
_cell_length_c 22.498819
_cell_angle_alpha 90.000000
_cell_angle_beta 90.000000
_cell_angle_gamma 90.000000
_cell_volume 2845.834803
_symmetry_space_group_name_H-M "I M A 2"
_symmetry_group_IT_number 46
_symmetry_cell_setting 'orthorhombic'
loop_
_space_group_symop_operation_xyz
x,y,z
-x,-y,z
1/2-x,y,z
1/2+x,-y,z
1/2+x,1/2+y,1/2+z
1/2-x,1/2-y,1/2+z
-x,1/2+y,1/2+z
x,1/2-y,1/2+z
loop_
_atom_site_type_symbol
_atom_site_label
_atom_site_fract_x
_atom_site_fract_y
_atom_site_fract_z
Si Si1 0.075521 0.211199 0.187860
Si Si2 0.571757 0.595302 0.140738
Si Si3 0.929570 0.101266 0.291603
Si Si4 0.427687 0.093960 0.074353
Si Si5 0.069694 0.904439 0.947648
Si Si6 0.930317 0.212527 0.403844
Si Si7 0.568719 0.403245 0.014747
O O1 0.250000 0.190101 0.206361
O O2 0.043210 0.321638 0.187510
O O3 0.043674 0.174839 0.121504
O O4 0.964093 0.160890 0.233256
O O5 0.500000 0.500000 0.166026
O O6 0.750000 0.579135 0.129466
O O7 0.496119 0.624660 0.078689
O O8 0.750000 0.089099 0.297562
O O9 0.000514 0.157076 0.347885
O O10 0.000000 0.000000 0.287197
O O11 0.250000 0.077689 0.061466
O O12 0.500000 0.000000 0.100785
O O13 0.509332 0.120259 0.013047
O O14 0.250000 0.914967 0.951489
O O15 0.021853 0.820941 0.903236
O O16 0.000000 0.000000 0.922833
O O17 0.750000 0.203144 0.400028
O O18 0.987974 0.170313 0.466017
O O19 0.500000 0.500000 0.993391
O O20 0.750000 0.409788 0.018746
#
# Coordination Sequence:
#
# PCOD8191462 Si02
#       7
#     8   8   8   8   8   8   8
#     4  10  22  38  55  78 108 142 181 224 266 313
#     4  10  20  35  54  79 111 141 176 221 267 317
#     4  11  23  40  60  81 107 139 177 219 264 314
#     4  10  19  32  51  78 110 140 173 214 264 316
#     4  10  19  34  54  78 108 138 174 216 261 313
#     4   9  20  36  54  77 106 141 177 216 261 313
#     4  10  18  31  52  79 110 141 175 214 263 318
#
# _framework density 19.677880999999999
#
# number of rings (size 3 to 8) (size 9 to 14) (size 15 to 20)
#    0.000    2.000    0.000    5.571    0.000    3.429 
#    0.000    7.857    0.000    3.429    0.000    0.000 
#    0.000    0.000    0.000    0.000    0.000    0.000 
#
# Total GULP energy -347170.212051 kJ/mol
# GULP energy per Si atom -12398.936145 kJ/mol
# Density = 1.963309 g / cm^3
# Si number density = 19.677881 Si / 1000 Ang^3
#
#
#
# Elastic Constant Matrix: (Units=GPa)
#
#
# Indices 1 2 3 4 5 6 
#
# 1 92.3063 49.6037 30.5691 0.0000 0.0000 0.0000
# 2 49.6037 153.7679 63.4596 0.0000 0.0000 0.0000
# 3 30.5691 63.4596 68.5218 0.0000 0.0000 0.0000
# 4 0.0000 0.0000 0.0000 33.5730 0.0000 0.0000
# 5 0.0000 0.0000 0.0000 0.0000 18.3370 0.0000
# 6 0.0000 0.0000 0.0000 0.0000 0.0000 23.1985
#
#
#
# Elastic Compliance Matrix: (Units=1/GPa)
#
#
# Indices 1 2 3 4 5 6 
#
# 1 0.013533 -0.003033 -0.003228 0.000000 0.000000 0.000000
# 2 -0.003033 0.011207 -0.009025 0.000000 0.000000 0.000000
# 3 -0.003228 -0.009025 0.024393 0.000000 0.000000 0.000000
# 4 0.000000 0.000000 0.000000 0.029786 0.000000 0.000000
# 5 0.000000 0.000000 0.000000 0.000000 0.054534 0.000000
# 6 0.000000 0.000000 0.000000 0.000000 0.000000 0.043106
#
#
# Mechanical properties :
#
#
# Convention : Reuss Voigt Hill
#
# Bulk Modulus (GPa) = 53.88413 66.87344 60.37878
# Shear Modulus (GPa) = 23.43919 26.41928 24.92924
#
# Velocity S-wave (km/s) = 3.45504 3.66811 3.56317
# Velocity P-wave (km/s) = 6.58475 7.21095 6.90496
#
# Compressibility (1/GPa) = 0.01855834
#
# Stress axis : x y z
#
# Youngs Moduli (GPa) = 73.89604 89.23324 40.99587
#
# Poissons Ratio (x) = 0.27067 0.13234
# Poissons Ratio (y) = 0.22414 0.37001
# Poissons Ratio (z) = 0.23854 0.80537
#
# Static dielectric constant tensor:
#      x y z
#    x 3.531030 0.000000 0.000000 
#    y 0.000000 3.781950 0.000000 
#    z 0.000000 0.000000 3.420080 
# 
# 
# High freq. dielectric constant tensor:
#      x y z
#    x 1.764270 0.000000 0.000000 
#    y 0.000000 1.784590 0.000000 
#    z 0.000000 0.000000 1.742910 
# 
# From -- ./inp_files/21100.got.cif
#   From: 2010.03.12/outbox.cif.g09.slc.cpg/sg46_11_cif.got.tgz:21100.got - 2010.04.14 02:56:35.
