data_PCOD8191989
_publ_section_title
;
Structure prediction by ZEFSAII (Michael W. Deem and Ramdas Pophale) SiO2 
 PCOD8191989
Probable space group: I M A 2
;
_chemical_formula_sum "Si O2"
_cell_formula_units_Z 64
_cell_length_a 8.952309
_cell_length_b 19.705124
_cell_length_c 20.187338
_cell_angle_alpha 90.000000
_cell_angle_beta 90.000000
_cell_angle_gamma 90.000000
_cell_volume 3561.174793
_symmetry_space_group_name_H-M "I M A 2"
_symmetry_group_IT_number 46
_symmetry_cell_setting 'orthorhombic'
loop_
_space_group_symop_operation_xyz
x,y,z
-x,-y,z
1/2-x,y,z
1/2+x,-y,z
1/2+x,1/2+y,1/2+z
1/2-x,1/2-y,1/2+z
-x,1/2+y,1/2+z
x,1/2-y,1/2+z
loop_
_atom_site_type_symbol
_atom_site_label
_atom_site_fract_x
_atom_site_fract_y
_atom_site_fract_z
Si Si1 0.927121 0.710944 0.836090
Si Si2 0.075943 0.068888 0.134740
Si Si3 0.578899 0.289958 0.449028
Si Si4 0.421591 0.067473 0.290475
Si Si5 0.573990 0.069027 0.744665
Si Si6 0.076230 0.932406 0.898112
Si Si7 0.072258 0.295296 0.209096
Si Si8 0.922628 0.295411 0.599737
O O1 0.750000 0.710443 0.836109
O O2 0.988136 0.634401 0.825765
O O3 0.983782 0.758222 0.775944
O O4 0.985593 0.737103 0.905996
O O5 0.250000 0.069611 0.115526
O O6 0.052296 0.077092 0.212793
O O7 0.989745 0.129475 0.099351
O O8 0.000000 0.000000 0.109004
O O9 0.750000 0.287335 0.424824
O O10 0.517947 0.366579 0.437833
O O11 0.563055 0.267834 0.525005
O O12 0.250000 0.058681 0.307936
O O13 0.500000 0.000000 0.317982
O O14 0.750000 0.066881 0.731911
O O15 0.532973 0.078354 0.821579
O O16 0.502182 0.130996 0.704463
O O17 0.500000 0.000000 0.717498
O O18 0.250000 0.943494 0.907911
O O19 0.000000 0.000000 0.927142
O O20 0.250000 0.301743 0.206949
O O21 0.018939 0.252959 0.146081
O O22 0.750000 0.297099 0.622656
#
# Coordination Sequence:
#
# PCOD8191989 Si02
#       8
#     8   8   8   8   8   8   8   8
#     4  10  20  35  56  81 108 139 180 227 274 324
#     4  10  19  34  53  77 111 147 186 226 268 323
#     4  10  22  38  53  77 110 144 185 227 270 324
#     4   9  18  33  52  80 109 137 174 220 267 320
#     4  10  19  33  55  83 112 143 180 224 276 327
#     4   9  18  32  50  74 106 142 179 219 260 315
#     4  11  21  36  57  82 111 143 183 231 277 324
#     4  11  23  37  54  78 111 149 187 228 276 328
#
# _framework density 17.971596000000002
#
# number of rings (size 3 to 8) (size 9 to 14) (size 15 to 20)
#    0.000    2.000    2.500    1.500    0.000    4.000 
#    0.000    1.250    0.000    0.750    0.000    1.750 
#    0.000    0.000    0.000    0.000    0.000    0.000 
#
# Total GULP energy -396883.037334 kJ/mol
# GULP energy per Si atom -12402.594917 kJ/mol
# Density = 1.793069 g / cm^3
# Si number density = 17.971596 Si / 1000 Ang^3
#
#
#
# Elastic Constant Matrix: (Units=GPa)
#
#
# Indices 1 2 3 4 5 6 
#
# 1 65.1096 42.5582 24.7772 0.0000 0.0000 0.0000
# 2 42.5582 132.0915 37.7644 0.0000 0.0000 0.0000
# 3 24.7772 37.7644 56.8691 0.0000 0.0000 0.0000
# 4 0.0000 0.0000 0.0000 23.3608 0.0000 0.0000
# 5 0.0000 0.0000 0.0000 0.0000 22.5861 0.0000
# 6 0.0000 0.0000 0.0000 0.0000 0.0000 37.3048
#
#
#
# Elastic Compliance Matrix: (Units=1/GPa)
#
#
# Indices 1 2 3 4 5 6 
#
# 1 0.020857 -0.005088 -0.005708 0.000000 0.000000 0.000000
# 2 -0.005088 0.010586 -0.004813 0.000000 0.000000 0.000000
# 3 -0.005708 -0.004813 0.023267 0.000000 0.000000 0.000000
# 4 0.000000 0.000000 0.000000 0.042807 0.000000 0.000000
# 5 0.000000 0.000000 0.000000 0.000000 0.044275 0.000000
# 6 0.000000 0.000000 0.000000 0.000000 0.000000 0.026806
#
#
# Mechanical properties :
#
#
# Convention : Reuss Voigt Hill
#
# Bulk Modulus (GPa) = 42.56838 51.58553 47.07696
# Shear Modulus (GPa) = 24.07945 26.58171 25.33058
#
# Velocity S-wave (km/s) = 3.66438 3.85007 3.75838
# Velocity P-wave (km/s) = 6.45302 6.96637 6.71460
#
# Compressibility (1/GPa) = 0.02349161
#
# Stress axis : x y z
#
# Youngs Moduli (GPa) = 47.94658 94.46733 42.97870
#
# Poissons Ratio (x) = 0.48062 0.24534
# Poissons Ratio (y) = 0.24394 0.20685
# Poissons Ratio (z) = 0.27370 0.45466
#
# Static dielectric constant tensor:
#      x y z
#    x 3.301060 0.000000 0.000000 
#    y 0.000000 3.496580 0.000000 
#    z 0.000000 0.000000 3.039700 
# 
# 
# High freq. dielectric constant tensor:
#      x y z
#    x 1.699680 0.000000 0.000000 
#    y 0.000000 1.703910 0.000000 
#    z 0.000000 0.000000 1.665720 
# 
# From -- ./inp_files/18551.got.cif
#   From: 2010.03.12/outbox.cif.g09.slc.cpg/sg46_10_cif.got.tgz:18551.got - 2010.04.14 02:56:35.
