data_PCOD8191053
_publ_section_title
;
Structure prediction by ZEFSAII (Michael W. Deem and Ramdas Pophale) SiO2 
 PCOD8191053
Probable space group: I B A 2
;
_chemical_formula_sum "Si O2"
_cell_formula_units_Z 48
_cell_length_a 16.713002
_cell_length_b 13.738522
_cell_length_c 9.480963
_cell_angle_alpha 90.000000
_cell_angle_beta 90.000000
_cell_angle_gamma 90.000000
_cell_volume 2176.942361
_symmetry_space_group_name_H-M "I B A 2"
_symmetry_group_IT_number 45
_symmetry_cell_setting 'orthorhombic'
loop_
_space_group_symop_operation_xyz
x,y,z
-x,-y,z
-x,y,1/2+z
x,-y,1/2+z
1/2+x,1/2+y,1/2+z
1/2-x,1/2-y,1/2+z
1/2-x,1/2+y,z
1/2+x,1/2-y,z
loop_
_atom_site_type_symbol
_atom_site_label
_atom_site_fract_x
_atom_site_fract_y
_atom_site_fract_z
Si Si1 0.084063 0.580540 0.291720
Si Si2 0.155562 0.777098 0.882552
Si Si3 0.423084 0.912401 0.468621
Si Si4 0.919076 0.865276 0.111354
Si Si5 0.164965 0.778212 0.347954
Si Si6 0.895826 0.090876 0.109889
O O1 0.128345 0.491091 0.375136
O O2 0.135883 0.676499 0.287388
O O3 0.005920 0.599109 0.385412
O O4 0.065194 0.551247 0.129697
O O5 0.116203 0.692448 0.974288
O O6 0.098147 0.808753 0.755439
O O7 0.240283 0.734017 0.838153
O O8 0.161637 0.870229 0.985644
O O9 0.013790 0.870630 0.081679
O O10 0.886645 0.975103 0.116012
O O11 0.870385 0.799971 0.001154
O O12 0.135985 0.869561 0.257296
#
# Coordination Sequence:
#
# PCOD8191053 Si02
#       6
#     8   8   8   8   8   8
#     4  11  24  43  69  99 133 177 228 276 331 404
#     4  12  26  44  65 103 138 174 220 280 351 409
#     4  11  24  43  69  99 133 177 228 276 331 404
#     4  11  25  42  77  97 133 183 224 291 328 412
#     4  12  26  44  65 103 138 174 220 280 351 409
#     4  11  23  48  69 103 131 175 240 275 346 402
#
# _framework density 22.049275000000002
#
# number of rings (size 3 to 8) (size 9 to 14) (size 15 to 20)
#    0.000    0.667    1.667    7.000    4.667    5.333 
#    0.000    0.000    0.000    0.000    0.000    0.000 
#    0.000    0.000    0.000    0.000    0.000    0.000 
#
# Total GULP energy -297488.539146 kJ/mol
# GULP energy per Si atom -12395.355798 kJ/mol
# Density = 2.199909 g / cm^3
# Si number density = 22.049275 Si / 1000 Ang^3
#
#
#
# Elastic Constant Matrix: (Units=GPa)
#
#
# Indices 1 2 3 4 5 6 
#
# 1 48.2062 21.0822 -0.5059 0.0000 0.0000 0.0000
# 2 21.0822 109.8307 33.8306 0.0000 0.0000 0.0000
# 3 -0.5059 33.8306 141.5855 0.0000 0.0000 0.0000
# 4 0.0000 0.0000 0.0000 42.8408 0.0000 0.0000
# 5 0.0000 0.0000 0.0000 0.0000 34.1698 0.0000
# 6 0.0000 0.0000 0.0000 0.0000 0.0000 9.0579
#
#
#
# Elastic Compliance Matrix: (Units=1/GPa)
#
#
# Indices 1 2 3 4 5 6 
#
# 1 0.022838 -0.004759 0.001219 0.000000 0.000000 0.000000
# 2 -0.004759 0.010820 -0.002602 0.000000 0.000000 0.000000
# 3 0.001219 -0.002602 0.007689 0.000000 0.000000 0.000000
# 4 0.000000 0.000000 0.000000 0.023342 0.000000 0.000000
# 5 0.000000 0.000000 0.000000 0.000000 0.029266 0.000000
# 6 0.000000 0.000000 0.000000 0.000000 0.000000 0.110401
#
#
# Mechanical properties :
#
#
# Convention : Reuss Voigt Hill
#
# Bulk Modulus (GPa) = 34.40946 45.38180 39.89563
# Shear Modulus (GPa) = 22.09166 33.56139 27.82652
#
# Velocity S-wave (km/s) = 3.16875 3.90565 3.55634
# Velocity P-wave (km/s) = 5.38772 6.40043 5.91579
#
# Compressibility (1/GPa) = 0.02906177
#
# Stress axis : x y z
#
# Youngs Moduli (GPa) = 43.78593 92.42089 130.05528
#
# Poissons Ratio (x) = 0.43986 -0.15851
# Poissons Ratio (y) = 0.20839 0.33845
# Poissons Ratio (z) = -0.05337 0.24051
#
# Static dielectric constant tensor:
#      x y z
#    x 2.196680 0.000000 0.000000 
#    y 0.000000 4.770370 0.000000 
#    z 0.000000 0.000000 4.454270 
# 
# 
# High freq. dielectric constant tensor:
#      x y z
#    x 1.846250 0.000000 0.000000 
#    y 0.000000 1.890390 0.000000 
#    z 0.000000 0.000000 1.886280 
# 
# From -- ./inp_files/2087.got.cif
#   From: 2010.03.12/outbox.cif.g09.slc.cpg/sg45_2_cif.got.tgz:2087.got - 2010.04.14 02:50:11.
