data_PCOD8191682
_publ_section_title
;
Structure prediction by ZEFSAII (Michael W. Deem and Ramdas Pophale) SiO2 
 PCOD8191682
Probable space group: I M A 2
;
_chemical_formula_sum "Si O2"
_cell_formula_units_Z 40
_cell_length_a 24.294399
_cell_length_b 16.376626
_cell_length_c 5.142349
_cell_angle_alpha 90.000000
_cell_angle_beta 90.000000
_cell_angle_gamma 90.000000
_cell_volume 2045.936445
_symmetry_space_group_name_H-M "I M A 2"
_symmetry_group_IT_number 46
_symmetry_cell_setting 'orthorhombic'
loop_
_space_group_symop_operation_xyz
x,y,z
-x,-y,z
1/2-x,y,z
1/2+x,-y,z
1/2+x,1/2+y,1/2+z
1/2-x,1/2-y,1/2+z
-x,1/2+y,1/2+z
x,1/2-y,1/2+z
loop_
_atom_site_type_symbol
_atom_site_label
_atom_site_fract_x
_atom_site_fract_y
_atom_site_fract_z
Si Si1 0.926758 0.213114 0.899170
Si Si2 0.186233 0.197932 0.326059
Si Si3 0.062443 0.524770 0.313510
Si Si4 0.902350 0.936385 0.287064
Si Si5 0.048768 0.215166 0.058569
O O1 0.896971 0.269450 0.677197
O O2 0.929428 0.121442 0.794652
O O3 0.987797 0.245720 0.980538
O O4 0.250000 0.173870 0.343768
O O5 0.170591 0.260566 0.553722
O O6 0.153433 0.112745 0.343944
O O7 0.103817 0.498607 0.546091
O O8 0.000000 0.500000 0.380728
O O9 0.078676 0.483454 0.042435
O O10 0.949997 0.874983 0.180083
O O11 0.078734 0.274574 0.275539
#
# Coordination Sequence:
#
# PCOD8191682 Si02
#       5
#     8   8   8   8   8
#     4  10  21  36  50  67  99 146 184 215 266 325
#     4  10  21  39  60  85 118 154 194 239 286 338
#     4  12  24  36  51  79 113 145 186 241 281 326
#     4  12  22  34  54  78 111 146 189 232 282 331
#     4  10  19  30  47  70  99 138 183 217 252 316
#
# _framework density 19.550948000000002
#
# number of rings (size 3 to 8) (size 9 to 14) (size 15 to 20)
#    0.000    1.200    2.000    5.400    5.600    0.000 
#    0.000    0.000    0.000    0.000    0.000    0.000 
#    0.000   16.000    0.000    0.000    0.000    0.000 
#
# Total GULP energy -247772.848214 kJ/mol
# GULP energy per Si atom -12388.642411 kJ/mol
# Density = 1.950645 g / cm^3
# Si number density = 19.550948 Si / 1000 Ang^3
#
#
#
# Elastic Constant Matrix: (Units=GPa)
#
#
# Indices 1 2 3 4 5 6 
#
# 1 41.4774 25.3816 33.0047 0.0000 0.0000 0.0000
# 2 25.3816 123.2175 70.1051 0.0000 0.0000 0.0000
# 3 33.0047 70.1051 177.7401 0.0000 0.0000 0.0000
# 4 0.0000 0.0000 0.0000 45.6799 0.0000 0.0000
# 5 0.0000 0.0000 0.0000 0.0000 22.7371 0.0000
# 6 0.0000 0.0000 0.0000 0.0000 0.0000 21.2084
#
#
#
# Elastic Compliance Matrix: (Units=1/GPa)
#
#
# Indices 1 2 3 4 5 6 
#
# 1 0.029630 -0.003833 -0.003990 0.000000 0.000000 0.000000
# 2 -0.003833 0.010960 -0.003611 0.000000 0.000000 0.000000
# 3 -0.003990 -0.003611 0.007791 0.000000 0.000000 0.000000
# 4 0.000000 0.000000 0.000000 0.021891 0.000000 0.000000
# 5 0.000000 0.000000 0.000000 0.000000 0.043981 0.000000
# 6 0.000000 0.000000 0.000000 0.000000 0.000000 0.047151
#
#
# Mechanical properties :
#
#
# Convention : Reuss Voigt Hill
#
# Bulk Modulus (GPa) = 39.19631 66.60196 52.89914
# Shear Modulus (GPa) = 25.93652 32.18798 29.06225
#
# Velocity S-wave (km/s) = 3.64622 4.06194 3.85968
# Velocity P-wave (km/s) = 6.14966 7.49259 6.85410
#
# Compressibility (1/GPa) = 0.02551261
#
# Stress axis : x y z
#
# Youngs Moduli (GPa) = 33.74919 91.24193 128.34670
#
# Poissons Ratio (x) = 0.34976 0.51212
# Poissons Ratio (y) = 0.12937 0.46346
# Poissons Ratio (z) = 0.13466 0.32948
#
# Static dielectric constant tensor:
#      x y z
#    x 3.164270 0.000000 0.000000 
#    y 0.000000 3.496610 0.000000 
#    z 0.000000 0.000000 4.482420 
# 
# 
# High freq. dielectric constant tensor:
#      x y z
#    x 1.694430 0.000000 0.000000 
#    y 0.000000 1.753400 0.000000 
#    z 0.000000 0.000000 1.810790 
# 
# From -- ./inp_files/2298.got.cif
#   From: 2010.03.12/outbox.cif.g09.slc.cpg/sg46_2_cif.got.tgz:2298.got - 2010.04.14 02:56:35.
