data_PCOD8191484
_publ_section_title
;
Structure prediction by ZEFSAII (Michael W. Deem and Ramdas Pophale) SiO2 
 PCOD8191484
Probable space group: I M A 2
;
_chemical_formula_sum "Si O2"
_cell_formula_units_Z 64
_cell_length_a 14.570503
_cell_length_b 27.957172
_cell_length_c 9.198406
_cell_angle_alpha 90.000000
_cell_angle_beta 90.000000
_cell_angle_gamma 90.000000
_cell_volume 3746.971222
_symmetry_space_group_name_H-M "I M A 2"
_symmetry_group_IT_number 46
_symmetry_cell_setting 'orthorhombic'
loop_
_space_group_symop_operation_xyz
x,y,z
-x,-y,z
1/2-x,y,z
1/2+x,-y,z
1/2+x,1/2+y,1/2+z
1/2-x,1/2-y,1/2+z
-x,1/2+y,1/2+z
x,1/2-y,1/2+z
loop_
_atom_site_type_symbol
_atom_site_label
_atom_site_fract_x
_atom_site_fract_y
_atom_site_fract_z
Si Si1 0.354993 0.701019 0.144890
Si Si2 0.099353 0.981085 0.468353
Si Si3 0.851988 0.029921 0.146560
Si Si4 0.353348 0.433565 0.489676
Si Si5 0.458110 0.607087 0.151967
Si Si6 0.962293 0.389346 0.489622
Si Si7 0.650563 0.567851 0.158280
Si Si8 0.355150 0.796410 0.984418
O O1 0.250000 0.687931 0.105132
O O2 0.420803 0.657812 0.094977
O O3 0.365668 0.711723 0.314074
O O4 0.387990 0.748019 0.060907
O O5 0.151634 0.968993 0.320754
O O6 0.095641 0.934334 0.568676
O O7 0.152437 0.021733 0.556186
O O8 0.000000 0.000000 0.424987
O O9 0.750000 0.041102 0.087713
O O10 0.882594 0.977738 0.090968
O O11 0.920387 0.069422 0.087956
O O12 0.250000 0.415254 0.526689
O O13 0.427108 0.390757 0.514198
O O14 0.360666 0.450919 0.323022
O O15 0.435945 0.601105 0.322262
O O16 0.567669 0.604114 0.119953
O O17 0.921844 0.338539 0.540349
O O18 0.750000 0.593940 0.139752
O O19 0.250000 0.809092 0.026446
#
# Coordination Sequence:
#
# PCOD8191484 Si02
#       8
#     8   8   8   8   8   8   8   8
#     4   9  18  32  49  68  91 116 146 185 228 274
#     4  10  19  30  44  66  96 127 156 188 226 269
#     4  11  21  30  43  67  97 127 156 188 227 270
#     4   9  18  31  48  68  91 123 159 190 224 265
#     4   9  19  32  49  70  91 120 157 190 228 271
#     4  10  18  32  50  68  92 121 154 193 227 268
#     4   9  17  31  49  68  92 123 157 191 224 265
#     4   9  18  32  49  69  90 115 146 183 229 276
#
# _framework density 17.080463000000002
#
# number of rings (size 3 to 8) (size 9 to 14) (size 15 to 20)
#    0.000    2.500    0.000    2.625    0.000    4.500 
#    0.000    1.250    0.000    0.750    0.000    0.000 
#    0.000    0.000    0.000    0.000    0.000    0.000 
#
# Total GULP energy -396739.536737 kJ/mol
# GULP energy per Si atom -12398.110523 kJ/mol
# Density = 1.704159 g / cm^3
# Si number density = 17.080463 Si / 1000 Ang^3
#
#
#
# Elastic Constant Matrix: (Units=GPa)
#
#
# Indices 1 2 3 4 5 6 
#
# 1 105.0493 73.6389 33.5387 -0.0008 -0.0004 0.0002
# 2 73.6389 121.2015 40.2355 0.0001 0.0021 -0.0003
# 3 33.5387 40.2355 54.5095 -0.0052 -0.0050 0.0028
# 4 -0.0008 0.0001 -0.0052 26.2673 0.0015 -0.0003
# 5 -0.0004 0.0021 -0.0050 0.0015 19.2431 -0.0008
# 6 0.0002 -0.0003 0.0028 -0.0003 -0.0008 28.0230
#
#
#
# Elastic Compliance Matrix: (Units=1/GPa)
#
#
# Indices 1 2 3 4 5 6 
#
# 1 0.017153 -0.009163 -0.003790 0.000000 0.000000 0.000000
# 2 -0.009163 0.015824 -0.006042 -0.000002 -0.000004 0.000001
# 3 -0.003790 -0.006042 0.025137 0.000005 0.000007 -0.000003
# 4 0.000000 -0.000002 0.000005 0.038070 -0.000003 0.000000
# 5 0.000000 -0.000004 0.000007 -0.000003 0.051967 0.000001
# 6 0.000000 0.000001 -0.000003 0.000000 0.000001 0.035685
#
#
# Mechanical properties :
#
#
# Convention : Reuss Voigt Hill
#
# Bulk Modulus (GPa) = 49.69450 63.95406 56.82428
# Shear Modulus (GPa) = 21.87850 23.59651 22.73751
#
# Velocity S-wave (km/s) = 3.58286 3.72087 3.65252
# Velocity P-wave (km/s) = 6.80245 7.48224 7.15043
#
# Compressibility (1/GPa) = 0.02012295
#
# Stress axis : x y z
#
# Youngs Moduli (GPa) = 58.29924 63.19489 39.78157
#
# Poissons Ratio (x) = 0.57909 0.15077
# Poissons Ratio (y) = 0.53422 0.24037
# Poissons Ratio (z) = 0.22095 0.38184
#
# Static dielectric constant tensor:
#      x y z
#    x 3.360770 0.000000 0.000010 
#    y 0.000000 3.020000 -0.000010 
#    z 0.000010 -0.000010 3.140290 
# 
# 
# High freq. dielectric constant tensor:
#      x y z
#    x 1.665490 0.000000 0.000000 
#    y 0.000000 1.629150 0.000000 
#    z 0.000000 0.000000 1.658570 
# 
# From -- ./inp_files/6214.got.cif
#   From: 2010.03.12/outbox.cif.g09.slc.cpg/sg46_4_cif.got.tgz:6214.got - 2010.04.14 02:56:35.
