data_PCOD8191592
_publ_section_title
;
Structure prediction by ZEFSAII (Michael W. Deem and Ramdas Pophale) SiO2 
 PCOD8191592
Probable space group: I M A 2
;
_chemical_formula_sum "Si O2"
_cell_formula_units_Z 64
_cell_length_a 8.964154
_cell_length_b 19.704618
_cell_length_c 20.534844
_cell_angle_alpha 90.000000
_cell_angle_beta 90.000000
_cell_angle_gamma 90.000000
_cell_volume 3627.176898
_symmetry_space_group_name_H-M "I M A 2"
_symmetry_group_IT_number 46
_symmetry_cell_setting 'orthorhombic'
loop_
_space_group_symop_operation_xyz
x,y,z
-x,-y,z
1/2-x,y,z
1/2+x,-y,z
1/2+x,1/2+y,1/2+z
1/2-x,1/2-y,1/2+z
-x,1/2+y,1/2+z
x,1/2-y,1/2+z
loop_
_atom_site_type_symbol
_atom_site_label
_atom_site_fract_x
_atom_site_fract_y
_atom_site_fract_z
Si Si1 0.072939 0.211196 0.968390
Si Si2 0.576183 0.566947 0.886398
Si Si3 0.425878 0.287366 0.839680
Si Si4 0.925218 0.930755 0.773919
Si Si5 0.927163 0.204293 0.726690
Si Si6 0.073290 0.208754 0.594007
Si Si7 0.424831 0.432737 0.033991
Si Si8 0.077002 0.067557 0.925647
O O1 0.250000 0.214531 0.966476
O O2 0.014947 0.253113 0.906157
O O3 0.016408 0.133363 0.964181
O O4 0.015040 0.243932 0.035108
O O5 0.500000 0.500000 0.855865
O O6 0.750000 0.553058 0.887205
O O7 0.538714 0.632505 0.842817
O O8 0.518720 0.579720 0.960099
O O9 0.250000 0.272970 0.829401
O O10 0.518209 0.257328 0.780299
O O11 0.750000 0.932355 0.758582
O O12 0.958797 0.920699 0.849994
O O13 0.999346 0.869048 0.736068
O O14 0.000000 0.000000 0.748684
O O15 0.750000 0.198168 0.728971
O O16 0.982701 0.232325 0.657238
O O17 0.250000 0.217167 0.605255
O O18 0.030302 0.131321 0.577621
O O19 0.500000 0.500000 0.063960
O O20 0.250000 0.443818 0.034979
O O21 0.250000 0.057372 0.937586
O O22 0.000000 0.000000 0.953126
#
# Coordination Sequence:
#
# PCOD8191592 Si02
#       8
#     8   8   8   8   8   8   8   8
#     4   9  16  32  58  81 100 132 180 224 262 314
#     4   9  17  30  53  82 110 136 169 216 267 318
#     4  10  18  35  59  80 103 139 183 223 267 320
#     4  10  19  34  55  78 108 144 182 220 264 318
#     4  12  25  37  50  76 112 146 183 225 272 319
#     4  10  20  36  56  75 101 141 185 222 263 316
#     4   9  17  30  50  76 105 137 172 210 254 310
#     4   9  17  30  52  80 107 133 166 215 264 316
#
# _framework density 17.644577000000002
#
# number of rings (size 3 to 8) (size 9 to 14) (size 15 to 20)
#    0.000    2.250    2.500    1.500    0.000    2.000 
#    0.000    2.500    0.000    0.750    0.000    1.750 
#    0.000    0.000    0.000    0.000    0.000    0.000 
#
# Total GULP energy -396797.266204 kJ/mol
# GULP energy per Si atom -12399.914569 kJ/mol
# Density = 1.760442 g / cm^3
# Si number density = 17.644577 Si / 1000 Ang^3
#
#
#
# Elastic Constant Matrix: (Units=GPa)
#
#
# Indices 1 2 3 4 5 6 
#
# 1 57.5710 42.8115 43.0188 0.0000 0.0000 0.0000
# 2 42.8115 126.9193 64.0662 0.0000 0.0000 0.0000
# 3 43.0188 64.0662 105.9442 0.0000 0.0000 0.0000
# 4 0.0000 0.0000 0.0000 22.2149 0.0000 0.0000
# 5 0.0000 0.0000 0.0000 0.0000 18.1322 0.0000
# 6 0.0000 0.0000 0.0000 0.0000 0.0000 31.8759
#
#
#
# Elastic Compliance Matrix: (Units=1/GPa)
#
#
# Indices 1 2 3 4 5 6 
#
# 1 0.027098 -0.005162 -0.007882 0.000000 0.000000 0.000000
# 2 -0.005162 0.012324 -0.005357 0.000000 0.000000 0.000000
# 3 -0.007882 -0.005357 0.015878 0.000000 0.000000 0.000000
# 4 0.000000 0.000000 0.000000 0.045015 0.000000 0.000000
# 5 0.000000 0.000000 0.000000 0.000000 0.055150 0.000000
# 6 0.000000 0.000000 0.000000 0.000000 0.000000 0.031372
#
#
# Mechanical properties :
#
#
# Convention : Reuss Voigt Hill
#
# Bulk Modulus (GPa) = 54.05360 65.58082 59.81721
# Shear Modulus (GPa) = 21.75765 23.81382 22.78573
#
# Velocity S-wave (km/s) = 3.51537 3.67773 3.59747
# Velocity P-wave (km/s) = 6.86865 7.43523 7.15755
#
# Compressibility (1/GPa) = 0.01850015
#
# Stress axis : x y z
#
# Youngs Moduli (GPa) = 36.90334 81.14186 62.97842
#
# Poissons Ratio (x) = 0.41885 0.49637
# Poissons Ratio (y) = 0.19049 0.33735
# Poissons Ratio (z) = 0.29086 0.43464
#
# Static dielectric constant tensor:
#      x y z
#    x 3.084470 0.000000 0.000000 
#    y 0.000000 3.477690 0.000000 
#    z 0.000000 0.000000 3.166690 
# 
# 
# High freq. dielectric constant tensor:
#      x y z
#    x 1.663940 0.000000 0.000000 
#    y 0.000000 1.689550 0.000000 
#    z 0.000000 0.000000 1.660080 
# 
# From -- ./inp_files/18549.got.cif
#   From: 2010.03.12/outbox.cif.g09.slc.cpg/sg46_10_cif.got.tgz:18549.got - 2010.04.14 02:56:35.
