data_PCOD8191952
_publ_section_title
;
Structure prediction by ZEFSAII (Michael W. Deem and Ramdas Pophale) SiO2 
 PCOD8191952
Probable space group: I M A 2
;
_chemical_formula_sum "Si O2"
_cell_formula_units_Z 56
_cell_length_a 13.795866
_cell_length_b 16.882432
_cell_length_c 13.057154
_cell_angle_alpha 90.000000
_cell_angle_beta 90.000000
_cell_angle_gamma 90.000000
_cell_volume 3041.112616
_symmetry_space_group_name_H-M "I M A 2"
_symmetry_group_IT_number 46
_symmetry_cell_setting 'orthorhombic'
loop_
_space_group_symop_operation_xyz
x,y,z
-x,-y,z
1/2-x,y,z
1/2+x,-y,z
1/2+x,1/2+y,1/2+z
1/2-x,1/2-y,1/2+z
-x,1/2+y,1/2+z
x,1/2-y,1/2+z
loop_
_atom_site_type_symbol
_atom_site_label
_atom_site_fract_x
_atom_site_fract_y
_atom_site_fract_z
Si Si1 0.637014 0.978837 0.525930
Si Si2 0.483959 0.707151 0.294932
Si Si3 0.634813 0.142257 0.616673
Si Si4 0.136813 0.315180 0.133438
Si Si5 0.480555 0.781135 0.026519
Si Si6 0.967046 0.376758 0.719240
Si Si7 0.637207 0.524636 0.794465
O O1 0.750000 0.993591 0.517221
O O2 0.613017 0.902976 0.594141
O O3 0.598184 0.967939 0.410771
O O4 0.592158 0.057919 0.577126
O O5 0.405778 0.656295 0.231153
O O6 0.590695 0.693172 0.246531
O O7 0.482134 0.682427 0.413156
O O8 0.457310 0.799658 0.290080
O O9 0.750000 0.143701 0.620809
O O10 0.597556 0.210618 0.540018
O O11 0.250000 0.296552 0.138468
O O12 0.086667 0.252392 0.056968
O O13 0.451973 0.853626 0.100561
O O14 0.882362 0.436361 0.753012
O O15 0.074435 0.413676 0.729191
O O16 0.750000 0.545972 0.782554
#
# Coordination Sequence:
#
# PCOD8191952 Si02
#       7
#     8   8   8   8   8   8   8
#     4   9  17  31  53  79 100 125 167 211 256 299
#     4  10  21  34  52  76 103 137 170 202 251 304
#     4   9  19  34  53  78 104 130 167 213 253 296
#     4   9  19  34  53  78 104 130 167 213 253 296
#     4  10  21  35  51  75 105 138 168 202 250 304
#     4   9  20  33  49  76 100 123 170 207 239 308
#     4  10  19  33  54  74  98 130 162 211 261 292
#
# _framework density 18.414311999999999
#
# number of rings (size 3 to 8) (size 9 to 14) (size 15 to 20)
#    0.000    2.857    0.000    1.714    0.000   11.429 
#    0.000    2.857    0.000    1.714    0.000    0.000 
#    0.000    0.000    0.000    0.000    0.000    0.000 
#
# Total GULP energy -347125.925036 kJ/mol
# GULP energy per Si atom -12397.354466 kJ/mol
# Density = 1.837240 g / cm^3
# Si number density = 18.414312 Si / 1000 Ang^3
#
#
#
# Elastic Constant Matrix: (Units=GPa)
#
#
# Indices 1 2 3 4 5 6 
#
# 1 48.4560 -24.9505 3.7891 0.0000 0.0000 0.0000
# 2 -24.9505 53.0843 20.8836 0.0000 0.0000 0.0000
# 3 3.7891 20.8836 129.7379 0.0000 0.0000 0.0000
# 4 0.0000 0.0000 0.0000 18.0232 0.0000 0.0000
# 5 0.0000 0.0000 0.0000 0.0000 14.9492 0.0000
# 6 0.0000 0.0000 0.0000 0.0000 0.0000 28.7439
#
#
#
# Elastic Compliance Matrix: (Units=1/GPa)
#
#
# Indices 1 2 3 4 5 6 
#
# 1 0.028404 0.014602 -0.003180 0.000000 0.000000 0.000000
# 2 0.014602 0.027618 -0.004872 0.000000 0.000000 0.000000
# 3 -0.003180 -0.004872 0.008585 0.000000 0.000000 0.000000
# 4 0.000000 0.000000 0.000000 0.055484 0.000000 0.000000
# 5 0.000000 0.000000 0.000000 0.000000 0.066893 0.000000
# 6 0.000000 0.000000 0.000000 0.000000 0.000000 0.034790
#
#
# Mechanical properties :
#
#
# Convention : Reuss Voigt Hill
#
# Bulk Modulus (GPa) = 12.86898 25.63585 19.25241
# Shear Modulus (GPa) = 21.31497 27.78034 24.54765
#
# Velocity S-wave (km/s) = 3.40593 3.88832 3.65509
# Velocity P-wave (km/s) = 4.74035 5.84043 5.31890
#
# Compressibility (1/GPa) = 0.07770625
#
# Stress axis : x y z
#
# Youngs Moduli (GPa) = 35.20576 36.20881 116.48291
#
# Poissons Ratio (x) = -0.52871 0.37041
# Poissons Ratio (y) = -0.51406 0.56750
# Poissons Ratio (z) = 0.11195 0.17641
#
# Static dielectric constant tensor:
#      x y z
#    x 3.358800 0.000000 0.000000 
#    y 0.000000 3.440290 0.000000 
#    z 0.000000 0.000000 3.320290 
# 
# 
# High freq. dielectric constant tensor:
#      x y z
#    x 1.718950 0.000000 0.000000 
#    y 0.000000 1.712860 0.000000 
#    z 0.000000 0.000000 1.702160 
# 
# From -- ./inp_files/16055.got.cif
#   From: 2010.03.12/outbox.cif.g09.slc.cpg/sg46_9_cif.got.tgz:16055.got - 2010.04.14 02:56:35.
