data_PCOD8191245
_publ_section_title
;
Structure prediction by ZEFSAII (Michael W. Deem and Ramdas Pophale) SiO2 
 PCOD8191245
Probable space group: I M A 2
;
_chemical_formula_sum "Si O2"
_cell_formula_units_Z 32
_cell_length_a 12.393224
_cell_length_b 5.315227
_cell_length_c 20.797306
_cell_angle_alpha 90.000000
_cell_angle_beta 90.000000
_cell_angle_gamma 90.000000
_cell_volume 1369.976754
_symmetry_space_group_name_H-M "I M A 2"
_symmetry_group_IT_number 46
_symmetry_cell_setting 'orthorhombic'
loop_
_space_group_symop_operation_xyz
x,y,z
-x,-y,z
1/2-x,y,z
1/2+x,-y,z
1/2+x,1/2+y,1/2+z
1/2-x,1/2-y,1/2+z
-x,1/2+y,1/2+z
x,1/2-y,1/2+z
loop_
_atom_site_type_symbol
_atom_site_label
_atom_site_fract_x
_atom_site_fract_y
_atom_site_fract_z
Si Si1 0.372758 0.857506 0.331660
Si Si2 0.750000 0.227364 0.074188
Si Si3 0.750000 0.772843 0.656116
Si Si4 0.933576 0.252778 0.973052
Si Si5 0.370635 0.142097 0.776959
O O1 0.250000 0.889491 0.306199
O O2 0.371369 0.811019 0.407347
O O3 0.428497 0.627905 0.290730
O O4 0.429913 0.127038 0.315050
O O5 0.750000 0.505343 0.104346
O O6 0.750000 0.004884 0.126319
O O7 0.854364 0.193466 0.030927
O O8 0.642078 0.800499 0.700651
O O9 0.000000 0.500000 0.992946
O O10 0.000000 0.000000 0.961669
O O11 0.250000 0.109078 0.807999
#
# Coordination Sequence:
#
# PCOD8191245 Si02
#       5
#     8   4   4   8   8
#     4  10  17  36  61  91 121 154 194 256 322 366
#     4  12  24  42  66  90 126 180 214 252 316 366
#     4  10  20  36  64  98 116 170 224 244 314 384
#     4  12  26  42  64  96 130 166 215 264 311 381
#     4   8  17  30  60  93 114 151 206 250 304 378
#
# _framework density 23.358063999999999
#
# number of rings (size 3 to 8) (size 9 to 14) (size 15 to 20)
#    0.750    1.000    1.250    4.500    0.000    0.000 
#    0.000    0.000    0.000   30.000    0.000    0.000 
#    0.000    0.000    0.000    0.000    0.000    0.000 
#
# Total GULP energy -198395.232053 kJ/mol
# GULP energy per Si atom -12399.702003 kJ/mol
# Density = 2.330490 g / cm^3
# Si number density = 23.358064 Si / 1000 Ang^3
#
#
#
# Elastic Constant Matrix: (Units=GPa)
#
#
# Indices 1 2 3 4 5 6 
#
# 1 48.1298 54.4419 14.8673 0.0000 0.0000 0.0000
# 2 54.4419 220.6609 45.1033 0.0000 0.0000 0.0000
# 3 14.8673 45.1033 119.5021 0.0000 0.0000 0.0000
# 4 0.0000 0.0000 0.0000 65.5840 0.0000 0.0000
# 5 0.0000 0.0000 0.0000 0.0000 24.9695 0.0000
# 6 0.0000 0.0000 0.0000 0.0000 0.0000 39.3226
#
#
#
# Elastic Compliance Matrix: (Units=1/GPa)
#
#
# Indices 1 2 3 4 5 6 
#
# 1 0.028926 -0.006936 -0.000981 0.000000 0.000000 0.000000
# 2 -0.006936 0.006574 -0.001618 0.000000 0.000000 0.000000
# 3 -0.000981 -0.001618 0.009101 0.000000 0.000000 0.000000
# 4 0.000000 0.000000 0.000000 0.015248 0.000000 0.000000
# 5 0.000000 0.000000 0.000000 0.000000 0.040049 0.000000
# 6 0.000000 0.000000 0.000000 0.000000 0.000000 0.025431
#
#
# Mechanical properties :
#
#
# Convention : Reuss Voigt Hill
#
# Bulk Modulus (GPa) = 39.16915 68.56864 53.86889
# Shear Modulus (GPa) = 32.69933 44.23393 38.46663
#
# Velocity S-wave (km/s) = 3.74560 4.35642 4.06251
# Velocity P-wave (km/s) = 5.95915 7.39755 6.71696
#
# Compressibility (1/GPa) = 0.02553030
#
# Stress axis : x y z
#
# Youngs Moduli (GPa) = 34.57101 152.11617 109.87999
#
# Poissons Ratio (x) = 1.05511 0.10777
# Poissons Ratio (y) = 0.23979 0.17781
# Poissons Ratio (z) = 0.03391 0.24616
#
# Static dielectric constant tensor:
#      x y z
#    x 4.172760 0.000000 0.000000 
#    y 0.000000 4.645080 0.000000 
#    z 0.000000 0.000000 3.897830 
# 
# 
# High freq. dielectric constant tensor:
#      x y z
#    x 1.946930 0.000000 0.000000 
#    y 0.000000 1.967860 0.000000 
#    z 0.000000 0.000000 1.902310 
# 
# From -- ./inp_files/19155.got.cif
#   From: 2010.03.12/outbox.cif.g09.slc.cpg/sg46_10_cif.got.tgz:19155.got - 2010.04.14 02:56:35.
