data_PCOD8191654
_publ_section_title
;
Structure prediction by ZEFSAII (Michael W. Deem and Ramdas Pophale) SiO2 
 PCOD8191654
Probable space group: I M A 2
;
_chemical_formula_sum "Si O2"
_cell_formula_units_Z 64
_cell_length_a 8.844173
_cell_length_b 18.357749
_cell_length_c 25.887325
_cell_angle_alpha 90.000000
_cell_angle_beta 90.000000
_cell_angle_gamma 90.000000
_cell_volume 4203.042997
_symmetry_space_group_name_H-M "I M A 2"
_symmetry_group_IT_number 46
_symmetry_cell_setting 'orthorhombic'
loop_
_space_group_symop_operation_xyz
x,y,z
-x,-y,z
1/2-x,y,z
1/2+x,-y,z
1/2+x,1/2+y,1/2+z
1/2-x,1/2-y,1/2+z
-x,1/2+y,1/2+z
x,1/2-y,1/2+z
loop_
_atom_site_type_symbol
_atom_site_label
_atom_site_fract_x
_atom_site_fract_y
_atom_site_fract_z
Si Si1 0.424767 0.162081 0.260930
Si Si2 0.918966 0.204473 0.102577
Si Si3 0.571295 0.076865 0.650275
Si Si4 0.074988 0.336732 0.058885
Si Si5 0.071001 0.922798 0.350515
Si Si6 0.426839 0.078399 0.156081
Si Si7 0.074161 0.075187 0.457667
Si Si8 0.917415 0.286718 0.210489
O O1 0.250000 0.157193 0.276032
O O2 0.526143 0.137059 0.308545
O O3 0.464602 0.111894 0.211970
O O4 0.466056 0.246245 0.248511
O O5 0.750000 0.188605 0.082122
O O6 0.913482 0.246834 0.155973
O O7 0.005680 0.255616 0.061678
O O8 0.005681 0.128359 0.110430
O O9 0.750000 0.069957 0.642929
O O10 0.504962 0.106169 0.596674
O O11 0.531181 0.130570 0.698292
O O12 0.500000 0.000000 0.664777
O O13 0.250000 0.333256 0.074462
O O14 0.050928 0.363377 0.000573
O O15 0.250000 0.930545 0.352962
O O16 0.007194 0.897267 0.405725
O O17 0.000000 0.000000 0.334128
O O18 0.250000 0.071871 0.147021
O O19 0.500000 0.000000 0.152382
O O20 0.250000 0.060888 0.445987
O O21 0.000000 0.000000 0.477033
O O22 0.750000 0.284923 0.235478
#
# Coordination Sequence:
#
# PCOD8191654 Si02
#       8
#     8   8   8   8   8   8   8   8
#     4  10  19  30  45  63  84 112 144 177 213 254
#     4   9  17  29  44  61  84 112 142 177 213 252
#     4  10  19  29  43  63  88 116 146 179 212 252
#     4  10  19  30  45  63  85 114 146 179 215 255
#     4  11  21  32  46  62  84 112 143 180 216 252
#     4  10  19  29  43  63  87 115 146 178 213 254
#     4  10  20  32  45  62  85 112 144 181 216 251
#     4   8  16  29  42  59  83 111 142 175 210 248
#
# _framework density 15.227062999999999
#
# number of rings (size 3 to 8) (size 9 to 14) (size 15 to 20)
#    0.000    2.250    0.000    5.625    0.000    9.000 
#    0.000    0.000    0.000    0.000    0.000    0.000 
#    0.000    1.000    0.000    7.000    0.000    4.875 
#
# Total GULP energy -396791.705570 kJ/mol
# GULP energy per Si atom -12399.740799 kJ/mol
# Density = 1.519241 g / cm^3
# Si number density = 15.227063 Si / 1000 Ang^3
#
#
#
# Elastic Constant Matrix: (Units=GPa)
#
#
# Indices 1 2 3 4 5 6 
#
# 1 119.6455 59.7249 48.7619 0.0000 0.0000 0.0000
# 2 59.7249 112.7743 45.1629 0.0000 0.0000 0.0000
# 3 48.7619 45.1629 62.2983 0.0000 0.0000 0.0000
# 4 0.0000 0.0000 0.0000 21.9439 0.0000 0.0000
# 5 0.0000 0.0000 0.0000 0.0000 22.0877 0.0000
# 6 0.0000 0.0000 0.0000 0.0000 0.0000 29.5342
#
#
#
# Elastic Compliance Matrix: (Units=1/GPa)
#
#
# Indices 1 2 3 4 5 6 
#
# 1 0.013503 -0.004113 -0.007588 0.000000 0.000000 0.000000
# 2 -0.004113 0.013747 -0.006747 0.000000 0.000000 0.000000
# 3 -0.007588 -0.006747 0.026882 0.000000 0.000000 0.000000
# 4 0.000000 0.000000 0.000000 0.045571 0.000000 0.000000
# 5 0.000000 0.000000 0.000000 0.000000 0.045274 0.000000
# 6 0.000000 0.000000 0.000000 0.000000 0.000000 0.033859
#
#
# Mechanical properties :
#
#
# Convention : Reuss Voigt Hill
#
# Bulk Modulus (GPa) = 58.01204 66.89084 62.45144
# Shear Modulus (GPa) = 22.57558 24.11770 23.34664
#
# Velocity S-wave (km/s) = 3.85463 3.98411 3.91990
# Velocity P-wave (km/s) = 7.61522 8.07393 7.84793
#
# Compressibility (1/GPa) = 0.01723780
#
# Stress axis : x y z
#
# Youngs Moduli (GPa) = 74.05505 72.74149 37.19922
#
# Poissons Ratio (x) = 0.29916 0.28227
# Poissons Ratio (y) = 0.30456 0.25098
# Poissons Ratio (z) = 0.56193 0.49079
#
# Static dielectric constant tensor:
#      x y z
#    x 3.133530 0.000000 0.000000 
#    y 0.000000 3.022910 0.000000 
#    z 0.000000 0.000000 2.691720 
# 
# 
# High freq. dielectric constant tensor:
#      x y z
#    x 1.605420 0.000000 0.000000 
#    y 0.000000 1.574090 0.000000 
#    z 0.000000 0.000000 1.545480 
# 
# From -- ./inp_files/23295.got.cif
#   From: 2010.03.12/outbox.cif.g09.slc.cpg/sg46_12_cif.got.tgz:23295.got - 2010.04.14 02:56:35.
