data_PCOD8191614
_publ_section_title
;
Structure prediction by ZEFSAII (Michael W. Deem and Ramdas Pophale) SiO2 
 PCOD8191614
Probable space group: I M A 2
;
_chemical_formula_sum "Si O2"
_cell_formula_units_Z 64
_cell_length_a 18.768455
_cell_length_b 9.253770
_cell_length_c 19.462937
_cell_angle_alpha 90.000000
_cell_angle_beta 90.000000
_cell_angle_gamma 90.000000
_cell_volume 3380.302770
_symmetry_space_group_name_H-M "I M A 2"
_symmetry_group_IT_number 46
_symmetry_cell_setting 'orthorhombic'
loop_
_space_group_symop_operation_xyz
x,y,z
-x,-y,z
1/2-x,y,z
1/2+x,-y,z
1/2+x,1/2+y,1/2+z
1/2-x,1/2-y,1/2+z
-x,1/2+y,1/2+z
x,1/2-y,1/2+z
loop_
_atom_site_type_symbol
_atom_site_label
_atom_site_fract_x
_atom_site_fract_y
_atom_site_fract_z
Si Si1 0.568645 0.101655 0.114530
Si Si2 0.172574 0.411322 0.699119
Si Si3 0.665697 0.892265 0.744436
Si Si4 0.918097 0.034359 0.966216
Si Si5 0.559803 0.379483 0.204631
Si Si6 0.944836 0.248498 0.354070
Si Si7 0.606900 0.776278 0.885028
Si Si8 0.828278 0.494413 0.854799
O O1 0.555901 0.264589 0.141862
O O2 0.500000 0.000000 0.113401
O O3 0.621817 0.024680 0.165076
O O4 0.604572 0.107246 0.038515
O O5 0.250000 0.428223 0.664721
O O6 0.148105 0.243690 0.694171
O O7 0.176310 0.449748 0.778230
O O8 0.750000 0.909780 0.756211
O O9 0.626374 0.866309 0.816660
O O10 0.635717 0.037581 0.708373
O O11 0.879302 0.881866 0.950231
O O12 0.903807 0.135718 0.900967
O O13 0.000000 0.000000 0.970536
O O14 0.500000 0.500000 0.192644
O O15 0.548133 0.294895 0.275282
O O16 0.894809 0.110411 0.362464
O O17 0.024731 0.221772 0.381011
O O18 0.655812 0.637437 0.899744
O O19 0.750000 0.430152 0.876249
#
# Coordination Sequence:
#
# PCOD8191614 Si02
#       8
#     8   8   8   8   8   8   8   8
#     4  11  23  37  59  83 115 150 197 242 294 348
#     4   9  19  36  54  80 117 150 186 235 292 347
#     4  10  20  34  57  87 118 149 189 245 299 343
#     4   9  20  39  56  81 114 150 186 239 292 351
#     4  12  21  35  58  89 116 148 197 250 292 351
#     4  11  19  35  60  85 116 147 192 240 293 338
#     4  10  18  36  60  83 113 149 195 235 289 342
#     4  10  21  34  54  90 120 144 186 243 291 336
#
# _framework density 18.933215000000001
#
# number of rings (size 3 to 8) (size 9 to 14) (size 15 to 20)
#    0.000    1.750    3.750    2.625    1.750    1.000 
#    0.000    6.875    0.000    1.500    0.000    0.000 
#    0.000    0.000    0.000    0.000    0.000    0.000 
#
# Total GULP energy -396511.363498 kJ/mol
# GULP energy per Si atom -12390.980109 kJ/mol
# Density = 1.889012 g / cm^3
# Si number density = 18.933215 Si / 1000 Ang^3
#
#
#
# Elastic Constant Matrix: (Units=GPa)
#
#
# Indices 1 2 3 4 5 6 
#
# 1 80.7486 44.5562 22.0317 0.0000 0.0000 0.0000
# 2 44.5562 112.9386 53.4674 0.0000 0.0000 0.0000
# 3 22.0317 53.4674 73.8199 0.0000 0.0000 0.0000
# 4 0.0000 0.0000 0.0000 25.9781 0.0000 0.0000
# 5 0.0000 0.0000 0.0000 0.0000 58.9859 0.0000
# 6 0.0000 0.0000 0.0000 0.0000 0.0000 41.8799
#
#
#
# Elastic Compliance Matrix: (Units=1/GPa)
#
#
# Indices 1 2 3 4 5 6 
#
# 1 0.015835 -0.006102 -0.000306 0.000000 0.000000 0.000000
# 2 -0.006102 0.015826 -0.009642 0.000000 0.000000 0.000000
# 3 -0.000306 -0.009642 0.020621 0.000000 0.000000 0.000000
# 4 0.000000 0.000000 0.000000 0.038494 0.000000 0.000000
# 5 0.000000 0.000000 0.000000 0.000000 0.016953 0.000000
# 6 0.000000 0.000000 0.000000 0.000000 0.000000 0.023878
#
#
# Mechanical properties :
#
#
# Convention : Reuss Voigt Hill
#
# Bulk Modulus (GPa) = 49.54832 56.40197 52.97514
# Shear Modulus (GPa) = 29.33670 35.19890 32.26780
#
# Velocity S-wave (km/s) = 3.94062 4.31642 4.13279
# Velocity P-wave (km/s) = 6.85066 7.39571 7.12840
#
# Compressibility (1/GPa) = 0.02018232
#
# Stress axis : x y z
#
# Youngs Moduli (GPa) = 63.15227 63.18566 48.49344
#
# Poissons Ratio (x) = 0.38557 0.01485
# Poissons Ratio (y) = 0.38536 0.46756
# Poissons Ratio (z) = 0.01934 0.60922
#
# Static dielectric constant tensor:
#      x y z
#    x 2.784310 0.000000 0.000000 
#    y 0.000000 3.761990 0.000000 
#    z 0.000000 0.000000 3.793850 
# 
# 
# High freq. dielectric constant tensor:
#      x y z
#    x 1.734020 0.000000 0.000000 
#    y 0.000000 1.744190 0.000000 
#    z 0.000000 0.000000 1.702710 
# 
# From -- ./inp_files/20261.got.cif
#   From: 2010.03.12/outbox.cif.g09.slc.cpg/sg46_11_cif.got.tgz:20261.got - 2010.04.14 02:56:35.
