data_PCOD8191148
_publ_section_title
;
Structure prediction by ZEFSAII (Michael W. Deem and Ramdas Pophale) SiO2 
 PCOD8191148
Probable space group: I M A 2
;
_chemical_formula_sum "Si O2"
_cell_formula_units_Z 64
_cell_length_a 8.764991
_cell_length_b 30.099875
_cell_length_c 14.816810
_cell_angle_alpha 90.000000
_cell_angle_beta 90.000000
_cell_angle_gamma 90.000000
_cell_volume 3909.046876
_symmetry_space_group_name_H-M "I M A 2"
_symmetry_group_IT_number 46
_symmetry_cell_setting 'orthorhombic'
loop_
_space_group_symop_operation_xyz
x,y,z
-x,-y,z
1/2-x,y,z
1/2+x,-y,z
1/2+x,1/2+y,1/2+z
1/2-x,1/2-y,1/2+z
-x,1/2+y,1/2+z
x,1/2-y,1/2+z
loop_
_atom_site_type_symbol
_atom_site_label
_atom_site_fract_x
_atom_site_fract_y
_atom_site_fract_z
Si Si1 0.071060 0.862557 0.551730
Si Si2 0.432975 0.713193 0.180223
Si Si3 0.072483 0.364161 0.702881
Si Si4 0.570747 0.044973 0.490749
Si Si5 0.080034 0.778958 0.878052
Si Si6 0.568447 0.299837 0.571013
Si Si7 0.069315 0.045762 0.295272
Si Si8 0.578731 0.324127 0.868945
O O1 0.250000 0.853068 0.548642
O O2 0.004219 0.831562 0.631113
O O3 0.035055 0.915171 0.562064
O O4 0.004840 0.848817 0.454580
O O5 0.250000 0.715500 0.185215
O O6 0.502434 0.710854 0.282122
O O7 0.492671 0.757228 0.128138
O O8 0.250000 0.361144 0.682671
O O9 0.023559 0.414643 0.726870
O O10 0.984478 0.346225 0.614991
O O11 0.031587 0.331920 0.785267
O O12 0.750000 0.038753 0.476862
O O13 0.499305 0.056012 0.393548
O O14 0.500000 0.000000 0.531981
O O15 0.250000 0.798818 0.871878
O O16 0.086125 0.726852 0.894404
O O17 0.001019 0.799155 0.968273
O O18 0.750000 0.297656 0.567964
O O19 0.250000 0.041457 0.304950
O O20 0.000000 0.000000 0.256109
O O21 0.750000 0.341593 0.845661
#
# Coordination Sequence:
#
# PCOD8191148 Si02
#       8
#     8   8   8   8   8   8   8   8
#     4   9  16  25  42  68  94 121 153 187 226 267
#     4   9  15  25  44  69  94 116 151 198 229 258
#     4  11  22  32  43  66  97 126 153 183 228 276
#     4  10  18  28  44  66  92 121 152 186 228 275
#     4   9  16  26  45  71  92 116 155 200 228 252
#     4  10  18  29  48  69  89 119 157 191 227 268
#     4  10  20  32  46  65  90 119 150 186 227 272
#     4  10  16  27  47  68  91 122 158 189 220 262
#
# _framework density 16.372277
#
# number of rings (size 3 to 8) (size 9 to 14) (size 15 to 20)
#    0.000    2.250    3.750    1.875    0.000    1.500 
#    0.000    0.625    0.000    1.500    0.000    0.875 
#    0.000    4.000    0.000    0.000    0.000    0.000 
#
# Total GULP energy -396527.420278 kJ/mol
# GULP energy per Si atom -12391.481884 kJ/mol
# Density = 1.633501 g / cm^3
# Si number density = 16.372277 Si / 1000 Ang^3
#
#
#
# Elastic Constant Matrix: (Units=GPa)
#
#
# Indices 1 2 3 4 5 6 
#
# 1 32.3270 25.4295 15.8999 -0.0001 0.0001 0.0001
# 2 25.4295 107.2654 48.0841 -0.0009 0.0003 0.0001
# 3 15.8999 48.0841 101.6596 -0.0016 0.0008 0.0003
# 4 -0.0001 -0.0009 -0.0016 25.9654 0.0003 0.0001
# 5 0.0001 0.0003 0.0008 0.0003 9.9977 -0.0002
# 6 0.0001 0.0001 0.0003 0.0001 -0.0002 19.7707
#
#
#
# Elastic Compliance Matrix: (Units=1/GPa)
#
#
# Indices 1 2 3 4 5 6 
#
# 1 0.038394 -0.008135 -0.002157 0.000000 0.000000 0.000000
# 2 -0.008135 0.013555 -0.005139 0.000000 0.000000 0.000000
# 3 -0.002157 -0.005139 0.012605 0.000001 -0.000001 0.000000
# 4 0.000000 0.000000 0.000001 0.038513 -0.000001 0.000000
# 5 0.000000 0.000000 -0.000001 -0.000001 0.100023 0.000001
# 6 0.000000 0.000000 0.000000 0.000000 0.000001 0.050580
#
#
# Mechanical properties :
#
#
# Convention : Reuss Voigt Hill
#
# Bulk Modulus (GPa) = 29.68111 46.67544 38.17827
# Shear Modulus (GPa) = 16.90541 21.26931 19.08736
#
# Velocity S-wave (km/s) = 3.21684 3.60822 3.41814
# Velocity P-wave (km/s) = 5.65382 6.77715 6.24081
#
# Compressibility (1/GPa) = 0.03369146
#
# Stress axis : x y z
#
# Youngs Moduli (GPa) = 26.04552 73.77380 79.33465
#
# Poissons Ratio (x) = 0.60016 0.17114
# Poissons Ratio (y) = 0.21188 0.40770
# Poissons Ratio (z) = 0.05618 0.37912
#
# Static dielectric constant tensor:
#      x y z
#    x 2.803100 0.000000 0.000000 
#    y 0.000000 3.210080 0.000000 
#    z 0.000000 0.000000 3.151230 
# 
# 
# High freq. dielectric constant tensor:
#      x y z
#    x 1.596740 0.000000 0.000000 
#    y 0.000000 1.624920 0.000000 
#    z 0.000000 0.000000 1.608940 
# 
# From -- ./inp_files/14751.got.cif
#   From: 2010.03.12/outbox.cif.g09.slc.cpg/sg46_8_cif.got.tgz:14751.got - 2010.04.14 02:56:35.
