data_PCOD8191490
_publ_section_title
;
Structure prediction by ZEFSAII (Michael W. Deem and Ramdas Pophale) SiO2 
 PCOD8191490
Probable space group: I M A 2
;
_chemical_formula_sum "Si O2"
_cell_formula_units_Z 64
_cell_length_a 9.072433
_cell_length_b 18.433516
_cell_length_c 21.414506
_cell_angle_alpha 90.000000
_cell_angle_beta 90.000000
_cell_angle_gamma 90.000000
_cell_volume 3581.294289
_symmetry_space_group_name_H-M "I M A 2"
_symmetry_group_IT_number 46
_symmetry_cell_setting 'orthorhombic'
loop_
_space_group_symop_operation_xyz
x,y,z
-x,-y,z
1/2-x,y,z
1/2+x,-y,z
1/2+x,1/2+y,1/2+z
1/2-x,1/2-y,1/2+z
-x,1/2+y,1/2+z
x,1/2-y,1/2+z
loop_
_atom_site_type_symbol
_atom_site_label
_atom_site_fract_x
_atom_site_fract_y
_atom_site_fract_z
Si Si1 0.078923 0.930839 0.225520
Si Si2 0.913739 0.311989 0.492293
Si Si3 0.925826 0.270924 0.714510
Si Si4 0.910457 0.061507 0.086313
Si Si5 0.072949 0.925144 0.888590
Si Si6 0.075494 0.365956 0.266966
Si Si7 0.424020 0.225804 0.587912
Si Si8 0.918424 0.571182 0.133461
O O1 0.250000 0.946355 0.232428
O O2 0.042472 0.848888 0.248567
O O3 0.020559 0.926674 0.154434
O O4 0.000000 0.000000 0.259650
O O5 0.750000 0.280546 0.477805
O O6 0.905506 0.364166 0.550953
O O7 0.973387 0.357522 0.433111
O O8 0.022893 0.249644 0.518067
O O9 0.750000 0.257642 0.709292
O O10 0.003265 0.213253 0.759964
O O11 0.992928 0.266714 0.644566
O O12 0.750000 0.028162 0.094351
O O13 0.000000 0.000000 0.048618
O O14 0.250000 0.933764 0.887258
O O15 0.007093 0.908867 0.821139
O O16 0.000000 0.000000 0.913048
O O17 0.250000 0.358328 0.280153
O O18 0.042986 0.411970 0.205171
O O19 0.250000 0.240289 0.595687
O O20 0.461206 0.140412 0.591509
O O21 0.750000 0.552144 0.125878
O O22 0.000000 0.500000 0.109025
#
# Coordination Sequence:
#
# PCOD8191490 Si02
#       8
#     8   8   8   8   8   8   8   8
#     4   9  17  27  42  65  95 128 162 200 243 296
#     4  10  20  34  49  68  98 134 174 211 249 299
#     4  10  18  32  51  72 100 133 171 213 262 311
#     4   9  16  27  40  60  89 124 163 199 235 281
#     4  11  23  37  54  76 104 140 181 221 259 304
#     4  10  21  36  53  75 103 134 176 220 260 310
#     4  10  20  32  48  73 102 131 168 210 255 308
#     4   9  19  33  50  75 101 128 162 204 253 307
#
# _framework density 17.870633999999999
#
# number of rings (size 3 to 8) (size 9 to 14) (size 15 to 20)
#    0.000    2.250    1.250    3.000    0.000    6.500 
#    0.000    0.000    0.000    0.000    0.000    0.875 
#    0.000    6.000    0.000    0.000    0.000    0.125 
#
# Total GULP energy -396441.894350 kJ/mol
# GULP energy per Si atom -12388.809198 kJ/mol
# Density = 1.782996 g / cm^3
# Si number density = 17.870634 Si / 1000 Ang^3
#
#
#
# Elastic Constant Matrix: (Units=GPa)
#
#
# Indices 1 2 3 4 5 6 
#
# 1 81.0249 53.9318 26.5356 0.0000 0.0000 0.0000
# 2 53.9318 120.1168 27.9340 0.0000 0.0000 0.0000
# 3 26.5356 27.9340 52.9149 0.0000 0.0000 0.0000
# 4 0.0000 0.0000 0.0000 17.2611 0.0000 0.0000
# 5 0.0000 0.0000 0.0000 0.0000 20.2747 0.0000
# 6 0.0000 0.0000 0.0000 0.0000 0.0000 34.4437
#
#
#
# Elastic Compliance Matrix: (Units=1/GPa)
#
#
# Indices 1 2 3 4 5 6 
#
# 1 0.019015 -0.007204 -0.005732 0.000000 0.000000 0.000000
# 2 -0.007204 0.012220 -0.002838 0.000000 0.000000 0.000000
# 3 -0.005732 -0.002838 0.023271 0.000000 0.000000 0.000000
# 4 0.000000 0.000000 0.000000 0.057934 0.000000 0.000000
# 5 0.000000 0.000000 0.000000 0.000000 0.049323 0.000000
# 6 0.000000 0.000000 0.000000 0.000000 0.000000 0.029033
#
#
# Mechanical properties :
#
#
# Convention : Reuss Voigt Hill
#
# Bulk Modulus (GPa) = 43.56107 52.31769 47.93938
# Shear Modulus (GPa) = 21.73948 24.10624 22.92286
#
# Velocity S-wave (km/s) = 3.49161 3.67676 3.58538
# Velocity P-wave (km/s) = 6.37839 6.88216 6.63506
#
# Compressibility (1/GPa) = 0.02295628
#
# Stress axis : x y z
#
# Youngs Moduli (GPa) = 52.59136 81.83320 42.97182
#
# Poissons Ratio (x) = 0.58956 0.24632
# Poissons Ratio (y) = 0.37889 0.12196
# Poissons Ratio (z) = 0.30146 0.23225
#
# Static dielectric constant tensor:
#      x y z
#    x 3.505740 0.000000 0.000000 
#    y 0.000000 3.551860 0.000000 
#    z 0.000000 0.000000 2.986610 
# 
# 
# High freq. dielectric constant tensor:
#      x y z
#    x 1.699070 0.000000 0.000000 
#    y 0.000000 1.697350 0.000000 
#    z 0.000000 0.000000 1.642340 
# 
# From -- ./inp_files/21464.got.cif
#   From: 2010.03.12/outbox.cif.g09.slc.cpg/sg46_11_cif.got.tgz:21464.got - 2010.04.14 02:56:35.
