data_PCOD8191014
_publ_section_title
;
Structure prediction by ZEFSAII (Michael W. Deem and Ramdas Pophale) SiO2 
 PCOD8191014
Probable space group: I B A 2
;
_chemical_formula_sum "Si O2"
_cell_formula_units_Z 64
_cell_length_a 14.469125
_cell_length_b 20.961492
_cell_length_c 9.623526
_cell_angle_alpha 90.000000
_cell_angle_beta 90.000000
_cell_angle_gamma 90.000000
_cell_volume 2918.762005
_symmetry_space_group_name_H-M "I B A 2"
_symmetry_group_IT_number 45
_symmetry_cell_setting 'orthorhombic'
loop_
_space_group_symop_operation_xyz
x,y,z
-x,-y,z
-x,y,1/2+z
x,-y,1/2+z
1/2+x,1/2+y,1/2+z
1/2-x,1/2-y,1/2+z
1/2-x,1/2+y,z
1/2+x,1/2-y,z
loop_
_atom_site_type_symbol
_atom_site_label
_atom_site_fract_x
_atom_site_fract_y
_atom_site_fract_z
Si Si1 0.768987 0.469652 0.462170
Si Si2 0.169109 0.298596 0.738821
Si Si3 0.027276 0.655812 0.829412
Si Si4 0.959492 0.570987 0.066167
Si Si5 0.529545 0.429136 0.220064
Si Si6 0.094369 0.887321 0.997593
Si Si7 0.327683 0.254234 0.932011
Si Si8 0.262634 0.569914 0.173850
O O1 0.861389 0.430309 0.490030
O O2 0.685342 0.428895 0.526008
O O3 0.753157 0.481245 0.298307
O O4 0.774445 0.539306 0.532081
O O5 0.063012 0.302272 0.789703
O O6 0.228156 0.262122 0.857481
O O7 0.183786 0.262909 0.593345
O O8 0.203057 0.370029 0.716378
O O9 0.021369 0.618854 0.975619
O O10 0.049783 0.601322 0.717697
O O11 0.113466 0.703457 0.843958
O O12 0.000000 0.500000 0.079933
O O13 0.500000 0.500000 0.177023
O O14 0.526245 0.421325 0.386056
O O15 0.630490 0.412431 0.160599
O O16 0.459335 0.380575 0.143406
O O17 0.118320 0.820547 0.927912
#
# Coordination Sequence:
#
# PCOD8191014 Si02
#       8
#     8   8   8   8   8   8   8   8
#     4  11  24  43  69 100 147 177 232 295 358 426
#     4  12  27  52  71 105 146 189 248 298 358 437
#     4  12  27  49  73 108 144 189 244 297 364 437
#     4  12  26  46  76 104 144 185 237 301 366 434
#     4  11  22  41  69  99 142 178 232 294 353 420
#     4  11  25  44  65 105 136 188 234 287 356 415
#     4  12  29  47  76 101 146 197 239 299 358 425
#     4  11  24  43  69 103 142 181 233 295 358 425
#
# _framework density 21.927105000000001
#
# number of rings (size 3 to 8) (size 9 to 14) (size 15 to 20)
#    0.000    0.500    6.250    1.500    8.750    1.000 
#    0.000    0.000    0.000    0.000    0.000    0.000 
#    0.000    0.000    0.000    0.000    0.000    0.000 
#
# Total GULP energy -396901.527432 kJ/mol
# GULP energy per Si atom -12403.172732 kJ/mol
# Density = 2.187720 g / cm^3
# Si number density = 21.927105 Si / 1000 Ang^3
#
#
#
# Elastic Constant Matrix: (Units=GPa)
#
#
# Indices 1 2 3 4 5 6 
#
# 1 90.1457 19.7131 15.3179 0.0000 0.0000 0.0000
# 2 19.7131 71.7206 26.1292 0.0000 0.0000 0.0000
# 3 15.3179 26.1292 78.7786 -0.0002 0.0000 -0.0001
# 4 0.0000 0.0000 -0.0002 43.9587 0.0000 0.0000
# 5 0.0000 0.0000 0.0000 0.0000 32.9765 0.0000
# 6 0.0000 0.0000 -0.0001 0.0000 0.0000 25.0520
#
#
#
# Elastic Compliance Matrix: (Units=1/GPa)
#
#
# Indices 1 2 3 4 5 6 
#
# 1 0.011937 -0.002770 -0.001402 0.000000 0.000000 0.000000
# 2 -0.002770 0.016502 -0.004935 0.000000 0.000000 0.000000
# 3 -0.001402 -0.004935 0.014603 0.000000 0.000000 0.000000
# 4 0.000000 0.000000 0.000000 0.022749 0.000000 0.000000
# 5 0.000000 0.000000 0.000000 0.000000 0.030325 0.000000
# 6 0.000000 0.000000 0.000000 0.000000 0.000000 0.039917
#
#
# Mechanical properties :
#
#
# Convention : Reuss Voigt Hill
#
# Bulk Modulus (GPa) = 40.27687 40.32949 40.30318
# Shear Modulus (GPa) = 30.76477 32.36309 31.56393
#
# Velocity S-wave (km/s) = 3.74979 3.84596 3.79818
# Velocity P-wave (km/s) = 6.09560 6.17692 6.13640
#
# Compressibility (1/GPa) = 0.02482815
#
# Stress axis : x y z
#
# Youngs Moduli (GPa) = 83.77157 60.59780 68.47794
#
# Poissons Ratio (x) = 0.16787 0.09603
# Poissons Ratio (y) = 0.23206 0.33793
# Poissons Ratio (z) = 0.11747 0.29904
#
# Static dielectric constant tensor:
#      x y z
#    x 4.098740 0.000000 0.000000 
#    y 0.000000 3.953380 0.000000 
#    z 0.000000 0.000000 4.161400 
# 
# 
# High freq. dielectric constant tensor:
#      x y z
#    x 1.871260 0.000000 0.000000 
#    y 0.000000 1.856130 0.000000 
#    z 0.000000 0.000000 1.873240 
# 
# From -- ./inp_files/1931.got.cif
#   From: 2010.03.12/outbox.cif.g09.slc.cpg/sg45_1_cif.got.tgz:1931.got - 2010.04.14 02:50:11.
