data_PCOD8191034
_publ_section_title
;
Structure prediction by ZEFSAII (Michael W. Deem and Ramdas Pophale) SiO2 
 PCOD8191034
Probable space group: I B A 2
;
_chemical_formula_sum "Si O2"
_cell_formula_units_Z 48
_cell_length_a 18.312533
_cell_length_b 13.777786
_cell_length_c 8.375350
_cell_angle_alpha 90.000000
_cell_angle_beta 90.000000
_cell_angle_gamma 90.000000
_cell_volume 2113.152404
_symmetry_space_group_name_H-M "I B A 2"
_symmetry_group_IT_number 45
_symmetry_cell_setting 'orthorhombic'
loop_
_space_group_symop_operation_xyz
x,y,z
-x,-y,z
-x,y,1/2+z
x,-y,1/2+z
1/2+x,1/2+y,1/2+z
1/2-x,1/2-y,1/2+z
1/2-x,1/2+y,z
1/2+x,1/2-y,z
loop_
_atom_site_type_symbol
_atom_site_label
_atom_site_fract_x
_atom_site_fract_y
_atom_site_fract_z
Si Si1 0.878293 0.964411 0.482170
Si Si2 0.185148 0.635574 0.927775
Si Si3 0.716401 0.046369 0.085850
Si Si4 0.674461 0.243925 0.967441
Si Si5 0.590375 0.290624 0.282476
Si Si6 0.570979 0.640846 0.285393
O O1 0.798637 0.988495 0.549170
O O2 0.871360 0.891453 0.332536
O O3 0.926970 0.911993 0.615976
O O4 0.919716 0.061926 0.427509
O O5 0.212142 0.583800 0.765314
O O6 0.114166 0.701827 0.898603
O O7 0.167162 0.549878 0.054269
O O8 0.248842 0.703522 0.996780
O O9 0.690080 0.129340 0.962578
O O10 0.616236 0.267936 0.105082
O O11 0.636718 0.280168 0.802632
O O12 0.503889 0.300665 0.298097
#
# Coordination Sequence:
#
# PCOD8191034 Si02
#       6
#     8   8   8   8   8   8
#     4  12  22  39  66 100 138 174 215 279 336 403
#     4  11  24  43  66  96 134 173 226 279 322 399
#     4  11  23  40  68 102 126 174 227 273 331 389
#     4  11  23  43  68  96 134 179 224 273 333 402
#     4  11  26  42  63  96 139 177 224 269 339 403
#     4  12  25  43  65 102 140 179 218 275 346 406
#
# _framework density 22.714879
#
# number of rings (size 3 to 8) (size 9 to 14) (size 15 to 20)
#    0.000    0.667    5.000    2.500    2.333    2.667 
#    0.000    0.833    0.000    4.000    0.000    0.000 
#    0.000    0.000    0.000    0.000    0.000    0.000 
#
# Total GULP energy -297658.822417 kJ/mol
# GULP energy per Si atom -12402.450934 kJ/mol
# Density = 2.266318 g / cm^3
# Si number density = 22.714879 Si / 1000 Ang^3
#
#
#
# Elastic Constant Matrix: (Units=GPa)
#
#
# Indices 1 2 3 4 5 6 
#
# 1 119.1090 58.6302 32.8587 0.0000 0.0000 0.0000
# 2 58.6302 134.9424 10.3019 0.0000 0.0000 0.0000
# 3 32.8587 10.3019 35.7834 0.0000 0.0000 0.0000
# 4 0.0000 0.0000 0.0000 35.3927 0.0000 0.0000
# 5 0.0000 0.0000 0.0000 0.0000 30.1371 0.0000
# 6 0.0000 0.0000 0.0000 0.0000 0.0000 44.3137
#
#
#
# Elastic Compliance Matrix: (Units=1/GPa)
#
#
# Indices 1 2 3 4 5 6 
#
# 1 0.014161 -0.005276 -0.011485 0.000000 0.000000 0.000000
# 2 -0.005276 0.009543 0.002097 0.000000 0.000000 0.000000
# 3 -0.011485 0.002097 0.037888 0.000000 0.000000 0.000000
# 4 0.000000 0.000000 0.000000 0.028254 0.000000 0.000000
# 5 0.000000 0.000000 0.000000 0.000000 0.033182 0.000000
# 6 0.000000 0.000000 0.000000 0.000000 0.000000 0.022566
#
#
# Mechanical properties :
#
#
# Convention : Reuss Voigt Hill
#
# Bulk Modulus (GPa) = 30.99288 54.82404 42.90846
# Shear Modulus (GPa) = 26.92865 34.50496 30.71680
#
# Velocity S-wave (km/s) = 3.44685 3.90172 3.68132
# Velocity P-wave (km/s) = 5.43277 6.66979 6.08281
#
# Compressibility (1/GPa) = 0.03226547
#
# Stress axis : x y z
#
# Youngs Moduli (GPa) = 70.61659 104.79150 26.39351
#
# Poissons Ratio (x) = 0.55287 0.30312
# Poissons Ratio (y) = 0.37257 -0.05536
# Poissons Ratio (z) = 0.81101 -0.21979
#
# Static dielectric constant tensor:
#      x y z
#    x 3.840720 0.000000 0.000000 
#    y 0.000000 4.475630 0.000000 
#    z 0.000000 0.000000 4.221750 
# 
# 
# High freq. dielectric constant tensor:
#      x y z
#    x 1.874030 0.000000 0.000000 
#    y 0.000000 1.907500 0.000000 
#    z 0.000000 0.000000 1.900580 
# 
# From -- ./inp_files/2079.got.cif
#   From: 2010.03.12/outbox.cif.g09.slc.cpg/sg45_2_cif.got.tgz:2079.got - 2010.04.14 02:50:11.
