data_PCOD8191443
_publ_section_title
;
Structure prediction by ZEFSAII (Michael W. Deem and Ramdas Pophale) SiO2 
 PCOD8191443
Probable space group: I M A 2
;
_chemical_formula_sum "Si O2"
_cell_formula_units_Z 64
_cell_length_a 9.117253
_cell_length_b 18.391926
_cell_length_c 21.146066
_cell_angle_alpha 90.000000
_cell_angle_beta 90.000000
_cell_angle_gamma 90.000000
_cell_volume 3545.853601
_symmetry_space_group_name_H-M "I M A 2"
_symmetry_group_IT_number 46
_symmetry_cell_setting 'orthorhombic'
loop_
_space_group_symop_operation_xyz
x,y,z
-x,-y,z
1/2-x,y,z
1/2+x,-y,z
1/2+x,1/2+y,1/2+z
1/2-x,1/2-y,1/2+z
-x,1/2+y,1/2+z
x,1/2-y,1/2+z
loop_
_atom_site_type_symbol
_atom_site_label
_atom_site_fract_x
_atom_site_fract_y
_atom_site_fract_z
Si Si1 0.416050 0.185804 0.021960
Si Si2 0.921836 0.424123 0.611743
Si Si3 0.590802 0.939017 0.925931
Si Si4 0.079705 0.430862 0.284409
Si Si5 0.924366 0.729017 0.296635
Si Si6 0.917102 0.069708 0.377476
Si Si7 0.578356 0.225428 0.425677
Si Si8 0.419964 0.637304 0.748222
O O1 0.250000 0.206325 0.044613
O O2 0.503753 0.144223 0.076713
O O3 0.406902 0.136098 0.960815
O O4 0.505612 0.254087 0.993691
O O5 0.750000 0.429239 0.593739
O O6 0.945034 0.409239 0.685580
O O7 0.000000 0.500000 0.593972
O O8 0.750000 0.973228 0.919199
O O9 0.524041 0.927303 0.856757
O O10 0.500000 0.000000 0.964401
O O11 0.250000 0.446115 0.276204
O O12 0.040697 0.348738 0.261854
O O13 0.000000 0.500000 0.250145
O O14 0.750000 0.736320 0.308004
O O15 0.002738 0.737140 0.364810
O O16 0.983183 0.789300 0.247543
O O17 0.750000 0.046521 0.374493
O O18 0.942542 0.138659 0.422584
O O19 0.973668 0.088338 0.306826
O O20 0.000000 0.000000 0.405288
O O21 0.750000 0.247182 0.425477
O O22 0.250000 0.660037 0.757119
#
# Coordination Sequence:
#
# PCOD8191443 Si02
#       8
#     8   8   8   8   8   8   8   8
#     4  11  21  34  50  70  99 134 175 215 253 301
#     4  11  23  38  54  75 105 140 180 221 259 304
#     4   9  17  28  40  59  89 123 161 198 234 280
#     4   9  17  28  41  64  95 126 160 198 241 292
#     4  10  18  31  50  73 100 130 170 215 259 306
#     4   9  18  32  51  76 102 130 164 206 255 309
#     4  10  20  33  49  72 102 134 169 208 257 312
#     4   9  20  36  52  73 102 135 174 215 258 308
#
# _framework density 18.049250000000001
#
# number of rings (size 3 to 8) (size 9 to 14) (size 15 to 20)
#    0.000    2.250    1.250    3.000    0.000    6.500 
#    0.000    0.000    0.000    0.000    0.000    0.875 
#    0.000    6.000    0.000    0.000    0.000    0.000 
#
# Total GULP energy -396500.598177 kJ/mol
# GULP energy per Si atom -12390.643693 kJ/mol
# Density = 1.800817 g / cm^3
# Si number density = 18.049250 Si / 1000 Ang^3
#
#
#
# Elastic Constant Matrix: (Units=GPa)
#
#
# Indices 1 2 3 4 5 6 
#
# 1 98.4386 52.7167 22.9196 0.0000 0.0000 0.0000
# 2 52.7167 111.4493 15.1784 0.0000 0.0000 0.0000
# 3 22.9196 15.1784 43.9634 0.0000 0.0000 0.0000
# 4 0.0000 0.0000 0.0000 19.3428 0.0000 0.0000
# 5 0.0000 0.0000 0.0000 0.0000 75.9407 0.0000
# 6 0.0000 0.0000 0.0000 0.0000 0.0000 35.6115
#
#
#
# Elastic Compliance Matrix: (Units=1/GPa)
#
#
# Indices 1 2 3 4 5 6 
#
# 1 0.014795 -0.006241 -0.005558 0.000000 0.000000 0.000000
# 2 -0.006241 0.012048 -0.000906 0.000000 0.000000 0.000000
# 3 -0.005558 -0.000906 0.025957 0.000000 0.000000 0.000000
# 4 0.000000 0.000000 0.000000 0.051699 0.000000 0.000000
# 5 0.000000 0.000000 0.000000 0.000000 0.013168 0.000000
# 6 0.000000 0.000000 0.000000 0.000000 0.000000 0.028081
#
#
# Mechanical properties :
#
#
# Convention : Reuss Voigt Hill
#
# Bulk Modulus (GPa) = 36.51096 48.38673 42.44884
# Shear Modulus (GPa) = 27.73330 37.04812 32.39071
#
# Velocity S-wave (km/s) = 3.92412 4.53549 4.24084
# Velocity P-wave (km/s) = 6.38780 7.36844 6.89558
#
# Compressibility (1/GPa) = 0.02738904
#
# Stress axis : x y z
#
# Youngs Moduli (GPa) = 67.58962 82.99960 38.52564
#
# Poissons Ratio (x) = 0.51802 0.21414
# Poissons Ratio (y) = 0.42185 0.03490
# Poissons Ratio (z) = 0.37569 0.07519
#
# Static dielectric constant tensor:
#      x y z
#    x 3.382430 0.000000 0.000000 
#    y 0.000000 3.539870 0.000000 
#    z 0.000000 0.000000 2.968670 
# 
# 
# High freq. dielectric constant tensor:
#      x y z
#    x 1.708850 0.000000 0.000000 
#    y 0.000000 1.701560 0.000000 
#    z 0.000000 0.000000 1.649290 
# 
# From -- ./inp_files/21288.got.cif
#   From: 2010.03.12/outbox.cif.g09.slc.cpg/sg46_11_cif.got.tgz:21288.got - 2010.04.14 02:56:35.
