data_PCOD8191796
_publ_section_title
;
Structure prediction by ZEFSAII (Michael W. Deem and Ramdas Pophale) SiO2 
 PCOD8191796
Probable space group: I M A 2
;
_chemical_formula_sum "Si O2"
_cell_formula_units_Z 48
_cell_length_a 8.854202
_cell_length_b 23.759146
_cell_length_c 13.570497
_cell_angle_alpha 90.000000
_cell_angle_beta 90.000000
_cell_angle_gamma 90.000000
_cell_volume 2854.802086
_symmetry_space_group_name_H-M "I M A 2"
_symmetry_group_IT_number 46
_symmetry_cell_setting 'orthorhombic'
loop_
_space_group_symop_operation_xyz
x,y,z
-x,-y,z
1/2-x,y,z
1/2+x,-y,z
1/2+x,1/2+y,1/2+z
1/2-x,1/2-y,1/2+z
-x,1/2+y,1/2+z
x,1/2-y,1/2+z
loop_
_atom_site_type_symbol
_atom_site_label
_atom_site_fract_x
_atom_site_fract_y
_atom_site_fract_z
Si Si1 0.571635 0.057762 0.545150
Si Si2 0.074860 0.778975 0.267507
Si Si3 0.425686 0.667267 0.382779
Si Si4 0.926264 0.775158 0.059008
Si Si5 0.573471 0.662768 0.943919
Si Si6 0.571992 0.057290 0.769325
O O1 0.750000 0.053473 0.537036
O O2 0.514856 0.108039 0.477766
O O3 0.517971 0.068406 0.657455
O O4 0.500000 0.000000 0.505198
O O5 0.250000 0.794877 0.275309
O O6 0.044873 0.715151 0.301434
O O7 0.020950 0.785872 0.156489
O O8 0.980888 0.821981 0.334524
O O9 0.250000 0.665135 0.412288
O O10 0.524270 0.678155 0.479747
O O11 0.483232 0.608836 0.336562
O O12 0.750000 0.781536 0.081490
O O13 0.966529 0.713530 0.017828
O O14 0.750000 0.649944 0.941974
O O15 0.750000 0.051110 0.773486
O O16 0.500000 0.000000 0.811136
#
# Coordination Sequence:
#
# PCOD8191796 Si02
#       6
#     8   8   8   8   8   8
#     4  10  19  32  50  73 100 130 164 200 241 287
#     4  10  19  32  51  72  96 128 163 199 240 288
#     4   9  18  32  49  70  96 127 162 196 234 284
#     4  10  20  32  48  72 100 128 159 198 243 288
#     4  10  20  33  49  72 101 130 161 199 243 290
#     4   9  18  31  48  71  98 127 160 198 237 281
#
# _framework density 16.813776000000001
#
# number of rings (size 3 to 8) (size 9 to 14) (size 15 to 20)
#    0.000    2.333    0.000    3.000    0.000    5.333 
#    0.000    0.000    0.000    1.000    0.000    4.667 
#    0.000    0.000    0.000    0.000    0.000    0.000 
#
# Total GULP energy -297687.341289 kJ/mol
# GULP energy per Si atom -12403.639220 kJ/mol
# Density = 1.677551 g / cm^3
# Si number density = 16.813776 Si / 1000 Ang^3
#
#
#
# Elastic Constant Matrix: (Units=GPa)
#
#
# Indices 1 2 3 4 5 6 
#
# 1 54.0042 34.5483 26.7005 0.0000 0.0000 0.0000
# 2 34.5483 119.1230 45.6200 0.0000 0.0000 0.0000
# 3 26.7005 45.6200 86.9093 -0.0001 0.0000 0.0000
# 4 0.0000 0.0000 -0.0001 22.6307 0.0000 0.0000
# 5 0.0000 0.0000 0.0000 0.0000 29.1164 0.0000
# 6 0.0000 0.0000 0.0000 0.0000 0.0000 31.0365
#
#
#
# Elastic Compliance Matrix: (Units=1/GPa)
#
#
# Indices 1 2 3 4 5 6 
#
# 1 0.024171 -0.005215 -0.004689 0.000000 0.000000 0.000000
# 2 -0.005215 0.011632 -0.004504 0.000000 0.000000 0.000000
# 3 -0.004689 -0.004504 0.015311 0.000000 0.000000 0.000000
# 4 0.000000 0.000000 0.000000 0.044188 0.000000 0.000000
# 5 0.000000 0.000000 0.000000 0.000000 0.034345 0.000000
# 6 0.000000 0.000000 0.000000 0.000000 0.000000 0.032220
#
#
# Mechanical properties :
#
#
# Convention : Reuss Voigt Hill
#
# Bulk Modulus (GPa) = 44.84342 52.64157 48.74250
# Shear Modulus (GPa) = 25.23805 26.76792 26.00299
#
# Velocity S-wave (km/s) = 3.87852 3.99434 3.93686
# Velocity P-wave (km/s) = 6.84001 7.25601 7.05108
#
# Compressibility (1/GPa) = 0.02229982
#
# Stress axis : x y z
#
# Youngs Moduli (GPa) = 41.37163 85.97145 65.31348
#
# Poissons Ratio (x) = 0.44830 0.30624
# Poissons Ratio (y) = 0.21573 0.29415
# Poissons Ratio (z) = 0.19398 0.38719
#
# Static dielectric constant tensor:
#      x y z
#    x 3.202330 0.000000 0.000000 
#    y 0.000000 3.149590 0.000000 
#    z 0.000000 0.000000 3.054860 
# 
# 
# High freq. dielectric constant tensor:
#      x y z
#    x 1.658630 0.000000 0.000000 
#    y 0.000000 1.640010 0.000000 
#    z 0.000000 0.000000 1.637250 
# 
# From -- ./inp_files/9285.got.cif
#   From: 2010.03.12/outbox.cif.g09.slc.cpg/sg46_5_cif.got.tgz:9285.got - 2010.04.14 02:56:35.
