data_PCOD8191460
_publ_section_title
;
Structure prediction by ZEFSAII (Michael W. Deem and Ramdas Pophale) SiO2 
 PCOD8191460
Probable space group: I M A 2
;
_chemical_formula_sum "Si O2"
_cell_formula_units_Z 64
_cell_length_a 19.517187
_cell_length_b 18.247278
_cell_length_c 9.797343
_cell_angle_alpha 90.000000
_cell_angle_beta 90.000000
_cell_angle_gamma 90.000000
_cell_volume 3489.182010
_symmetry_space_group_name_H-M "I M A 2"
_symmetry_group_IT_number 46
_symmetry_cell_setting 'orthorhombic'
loop_
_space_group_symop_operation_xyz
x,y,z
-x,-y,z
1/2-x,y,z
1/2+x,-y,z
1/2+x,1/2+y,1/2+z
1/2-x,1/2-y,1/2+z
-x,1/2+y,1/2+z
x,1/2-y,1/2+z
loop_
_atom_site_type_symbol
_atom_site_label
_atom_site_fract_x
_atom_site_fract_y
_atom_site_fract_z
Si Si1 0.509998 0.216151 0.161280
Si Si2 0.672636 0.545494 0.140035
Si Si3 0.905472 0.281943 0.398679
Si Si4 0.545944 0.866611 0.593034
Si Si5 0.405547 0.593894 0.204472
Si Si6 0.956689 0.573773 0.787573
Si Si7 0.824315 0.001303 0.328373
Si Si8 0.172313 0.852659 0.447982
O O1 0.535828 0.243723 0.307779
O O2 0.458994 0.278476 0.101909
O O3 0.473924 0.137263 0.179248
O O4 0.570969 0.205900 0.053611
O O5 0.750000 0.561419 0.197638
O O6 0.622958 0.616064 0.146837
O O7 0.631942 0.483381 0.225174
O O8 0.679120 0.517395 0.987508
O O9 0.885447 0.360705 0.338926
O O10 0.839331 0.228904 0.391201
O O11 0.488349 0.908513 0.685202
O O12 0.535292 0.895900 0.439989
O O13 0.379537 0.637762 0.072576
O O14 0.878785 0.549856 0.753169
O O15 0.000000 0.500000 0.768065
O O16 0.750000 0.987874 0.259701
O O17 0.844218 0.088041 0.327572
O O18 0.250000 0.862898 0.498734
#
# Coordination Sequence:
#
# PCOD8191460 Si02
#       8
#     8   8   8   8   8   8   8   8
#     4  11  21  36  54  85 108 146 188 247 276 350
#     4   9  17  30  50  79 109 139 188 237 279 331
#     4  11  20  35  52  75 119 144 187 227 291 340
#     4  10  18  32  57  79 109 148 190 232 288 338
#     4  10  18  31  52  77 108 143 184 236 277 336
#     4  11  19  32  58  81 110 145 192 236 289 338
#     4   8  16  29  49  78 108 138 181 235 278 330
#     4  10  18  31  52  80 113 149 189 230 282 345
#
# _framework density 18.342407000000001
#
# number of rings (size 3 to 8) (size 9 to 14) (size 15 to 20)
#    0.000    2.000    3.750    4.500    0.000    1.000 
#    0.000    3.125    0.000    0.000    0.000    7.875 
#    0.000    0.000    0.000    0.000    0.000    0.000 
#
# Total GULP energy -396545.226673 kJ/mol
# GULP energy per Si atom -12392.038334 kJ/mol
# Density = 1.830066 g / cm^3
# Si number density = 18.342407 Si / 1000 Ang^3
#
#
#
# Elastic Constant Matrix: (Units=GPa)
#
#
# Indices 1 2 3 4 5 6 
#
# 1 107.1260 52.7654 15.5032 0.0000 0.0000 0.0000
# 2 52.7654 121.3569 23.9927 0.0000 0.0000 0.0000
# 3 15.5032 23.9927 33.4533 0.0000 0.0000 0.0000
# 4 0.0000 0.0000 0.0000 27.7074 0.0000 0.0000
# 5 0.0000 0.0000 0.0000 0.0000 9.4177 0.0000
# 6 0.0000 0.0000 0.0000 0.0000 0.0000 31.1015
#
#
#
# Elastic Compliance Matrix: (Units=1/GPa)
#
#
# Indices 1 2 3 4 5 6 
#
# 1 0.012007 -0.004801 -0.002121 0.000000 0.000000 0.000000
# 2 -0.004801 0.011521 -0.006038 0.000000 0.000000 0.000000
# 3 -0.002121 -0.006038 0.035206 0.000000 0.000000 0.000000
# 4 0.000000 0.000000 0.000000 0.036091 0.000000 0.000000
# 5 0.000000 0.000000 0.000000 0.000000 0.106184 0.000000
# 6 0.000000 0.000000 0.000000 0.000000 0.000000 0.032153
#
#
# Mechanical properties :
#
#
# Convention : Reuss Voigt Hill
#
# Bulk Modulus (GPa) = 30.47518 49.60653 40.04085
# Shear Modulus (GPa) = 18.51716 24.95696 21.73706
#
# Velocity S-wave (km/s) = 3.18075 3.69265 3.44622
# Velocity P-wave (km/s) = 5.49001 6.72937 6.14103
#
# Compressibility (1/GPa) = 0.03281359
#
# Stress axis : x y z
#
# Youngs Moduli (GPa) = 83.28810 86.79488 28.40433
#
# Poissons Ratio (x) = 0.41671 0.06024
# Poissons Ratio (y) = 0.39987 0.17151
# Poissons Ratio (z) = 0.17664 0.52408
#
# Static dielectric constant tensor:
#      x y z
#    x 3.536190 0.000000 0.000000 
#    y 0.000000 3.585010 0.000000 
#    z 0.000000 0.000000 2.991510 
# 
# 
# High freq. dielectric constant tensor:
#      x y z
#    x 1.708310 0.000000 0.000000 
#    y 0.000000 1.713140 0.000000 
#    z 0.000000 0.000000 1.663000 
# 
# From -- ./inp_files/7571.got.cif
#   From: 2010.03.12/outbox.cif.g09.slc.cpg/sg46_4_cif.got.tgz:7571.got - 2010.04.14 02:56:35.
