data_PCOD8191874
_publ_section_title
;
Structure prediction by ZEFSAII (Michael W. Deem and Ramdas Pophale) SiO2 
 PCOD8191874
Probable space group: I M A 2
;
_chemical_formula_sum "Si O2"
_cell_formula_units_Z 64
_cell_length_a 15.586421
_cell_length_b 9.191619
_cell_length_c 23.756461
_cell_angle_alpha 90.000000
_cell_angle_beta 90.000000
_cell_angle_gamma 90.000000
_cell_volume 3403.456162
_symmetry_space_group_name_H-M "I M A 2"
_symmetry_group_IT_number 46
_symmetry_cell_setting 'orthorhombic'
loop_
_space_group_symop_operation_xyz
x,y,z
-x,-y,z
1/2-x,y,z
1/2+x,-y,z
1/2+x,1/2+y,1/2+z
1/2-x,1/2-y,1/2+z
-x,1/2+y,1/2+z
x,1/2-y,1/2+z
loop_
_atom_site_type_symbol
_atom_site_label
_atom_site_fract_x
_atom_site_fract_y
_atom_site_fract_z
Si Si1 0.492370 0.835271 0.762070
Si Si2 0.845514 0.662847 0.571373
Si Si3 0.851845 0.154735 0.454190
Si Si4 0.152522 0.174933 0.455805
Si Si5 0.080529 0.393361 0.369245
Si Si6 0.654798 0.176220 0.846183
Si Si7 0.650245 0.173903 0.064378
Si Si8 0.001510 0.670515 0.647686
O O1 0.564822 0.809038 0.810116
O O2 0.400055 0.801989 0.789832
O O3 0.504932 0.731137 0.709995
O O4 0.500000 0.000000 0.739903
O O5 0.750000 0.675046 0.598318
O O6 0.852252 0.767716 0.518579
O O7 0.862377 0.497114 0.551882
O O8 0.916066 0.720640 0.614952
O O9 0.750000 0.163089 0.454343
O O10 0.886960 0.231692 0.397714
O O11 0.883952 0.240278 0.509604
O O12 0.884491 0.988640 0.455284
O O13 0.250000 0.178362 0.432837
O O14 0.093000 0.275020 0.417259
O O15 0.160001 0.505216 0.364003
O O16 0.000000 0.500000 0.381345
O O17 0.750000 0.232446 0.832819
O O18 0.750000 0.210415 0.078857
O O19 0.588804 0.221834 0.116188
O O20 0.000000 0.500000 0.653878
#
# Coordination Sequence:
#
# PCOD8191874 Si02
#       8
#     8   8   8   8   8   8   8   8
#     4   9  21  37  50  71 101 130 171 217 253 300
#     4   9  19  35  53  74 103 139 174 209 254 312
#     4   9  18  31  50  81 111 132 162 208 260 310
#     4  10  19  32  53  81 108 131 164 212 261 306
#     4   9  19  34  51  73 103 136 171 206 247 306
#     4   9  17  33  55  74  99 136 171 204 252 313
#     4   9  18  34  55  78 105 137 172 209 256 317
#     4  10  21  36  54  74  99 135 177 217 258 304
#
# _framework density 18.804414000000001
#
# number of rings (size 3 to 8) (size 9 to 14) (size 15 to 20)
#    0.000    3.000    0.000    1.125    0.000    8.000 
#    0.000    8.125    0.000    0.000    0.000    0.000 
#    0.000    0.000    0.000    0.000    0.000    0.000 
#
# Total GULP energy -396647.155056 kJ/mol
# GULP energy per Si atom -12395.223596 kJ/mol
# Density = 1.876161 g / cm^3
# Si number density = 18.804414 Si / 1000 Ang^3
#
#
#
# Elastic Constant Matrix: (Units=GPa)
#
#
# Indices 1 2 3 4 5 6 
#
# 1 86.0610 36.0052 58.6500 0.0000 0.0000 0.0000
# 2 36.0052 75.9717 60.2762 0.0000 0.0000 0.0000
# 3 58.6500 60.2762 123.3159 0.0000 0.0000 0.0000
# 4 0.0000 0.0000 0.0000 41.2193 0.0000 0.0000
# 5 0.0000 0.0000 0.0000 0.0000 21.6832 0.0000
# 6 0.0000 0.0000 0.0000 0.0000 0.0000 18.2907
#
#
#
# Elastic Compliance Matrix: (Units=1/GPa)
#
#
# Indices 1 2 3 4 5 6 
#
# 1 0.017541 -0.002767 -0.006990 0.000000 0.000000 0.000000
# 2 -0.002767 0.021938 -0.009407 0.000000 0.000000 0.000000
# 3 -0.006990 -0.009407 0.016032 0.000000 0.000000 0.000000
# 4 0.000000 0.000000 0.000000 0.024260 0.000000 0.000000
# 5 0.000000 0.000000 0.000000 0.000000 0.046119 0.000000
# 6 0.000000 0.000000 0.000000 0.000000 0.000000 0.054673
#
#
# Mechanical properties :
#
#
# Convention : Reuss Voigt Hill
#
# Bulk Modulus (GPa) = 58.19990 66.13461 62.16725
# Shear Modulus (GPa) = 22.25998 24.93312 23.59655
#
# Velocity S-wave (km/s) = 3.44432 3.64527 3.54622
# Velocity P-wave (km/s) = 6.84362 7.27759 7.06394
#
# Compressibility (1/GPa) = 0.01718216
#
# Stress axis : x y z
#
# Youngs Moduli (GPa) = 57.00911 45.58342 62.37590
#
# Poissons Ratio (x) = 0.12614 0.43601
# Poissons Ratio (y) = 0.15776 0.58677
# Poissons Ratio (z) = 0.39849 0.42880
#
# Static dielectric constant tensor:
#      x y z
#    x 3.549890 0.000000 0.000000 
#    y 0.000000 3.460190 0.000000 
#    z 0.000000 0.000000 3.294640 
# 
# 
# High freq. dielectric constant tensor:
#      x y z
#    x 1.730180 0.000000 0.000000 
#    y 0.000000 1.724560 0.000000 
#    z 0.000000 0.000000 1.716930 
# 
# From -- ./inp_files/22245.got.cif
#   From: 2010.03.12/outbox.cif.g09.slc.cpg/sg46_12_cif.got.tgz:22245.got - 2010.04.14 02:56:35.
