data_PCOD8191444
_publ_section_title
;
Structure prediction by ZEFSAII (Michael W. Deem and Ramdas Pophale) SiO2 
 PCOD8191444
Probable space group: I M A 2
;
_chemical_formula_sum "Si O2"
_cell_formula_units_Z 64
_cell_length_a 8.811095
_cell_length_b 23.360004
_cell_length_c 18.940249
_cell_angle_alpha 90.000000
_cell_angle_beta 90.000000
_cell_angle_gamma 90.000000
_cell_volume 3898.418693
_symmetry_space_group_name_H-M "I M A 2"
_symmetry_group_IT_number 46
_symmetry_cell_setting 'orthorhombic'
loop_
_space_group_symop_operation_xyz
x,y,z
-x,-y,z
1/2-x,y,z
1/2+x,-y,z
1/2+x,1/2+y,1/2+z
1/2-x,1/2-y,1/2+z
-x,1/2+y,1/2+z
x,1/2-y,1/2+z
loop_
_atom_site_type_symbol
_atom_site_label
_atom_site_fract_x
_atom_site_fract_y
_atom_site_fract_z
Si Si1 0.069889 0.938585 0.082780
Si Si2 0.427924 0.771891 0.879339
Si Si3 0.426387 0.745984 0.724133
Si Si4 0.925061 0.729329 0.085316
Si Si5 0.929665 0.839495 0.998146
Si Si6 0.069234 0.561679 0.872258
Si Si7 0.430174 0.882142 0.227317
Si Si8 0.571363 0.663225 0.948911
O O1 0.250000 0.942048 0.080145
O O2 0.010848 0.915675 0.158378
O O3 0.000000 0.000000 0.068163
O O4 0.011254 0.897476 0.020918
O O5 0.250000 0.773815 0.896821
O O6 0.460071 0.780231 0.796112
O O7 0.514110 0.822773 0.919818
O O8 0.491061 0.709878 0.899810
O O9 0.250000 0.738678 0.711486
O O10 0.490926 0.782311 0.658836
O O11 0.498668 0.682061 0.726625
O O12 0.750000 0.733957 0.103014
O O13 0.981289 0.788878 0.050829
O O14 0.958855 0.677706 0.031191
O O15 0.750000 0.847812 0.996996
O O16 0.250000 0.559631 0.877057
O O17 0.011027 0.584708 0.796498
O O18 0.000000 0.500000 0.885753
O O19 0.003231 0.602123 0.933587
O O20 0.250000 0.879895 0.228810
O O21 0.750000 0.663587 0.932285
#
# Coordination Sequence:
#
# PCOD8191444 Si02
#       8
#     8   8   8   8   8   8   8   8
#     4  11  21  34  51  70  98 135 173 210 249 290
#     4  10  19  32  51  73  99 130 164 205 251 299
#     4  10  18  31  50  74 100 130 167 202 243 298
#     4   9  19  32  48  71  99 127 162 205 250 295
#     4  10  20  34  49  71  99 129 168 209 248 295
#     4  11  21  35  51  71  99 134 174 210 248 291
#     4   9  18  32  47  69 100 134 172 207 239 287
#     4  10  20  34  49  71  99 130 168 209 248 293
#
# _framework density 16.416913000000001
#
# number of rings (size 3 to 8) (size 9 to 14) (size 15 to 20)
#    0.000    2.000    2.500    3.000    0.000    3.500 
#    0.000    1.875    0.000    0.000    0.000    0.875 
#    0.000    2.000    0.000    0.000    0.000    0.000 
#
# Total GULP energy -396844.810281 kJ/mol
# GULP energy per Si atom -12401.400321 kJ/mol
# Density = 1.637955 g / cm^3
# Si number density = 16.416913 Si / 1000 Ang^3
#
#
#
# Elastic Constant Matrix: (Units=GPa)
#
#
# Indices 1 2 3 4 5 6 
#
# 1 59.6447 29.9568 45.3456 0.0000 0.0000 0.0000
# 2 29.9568 98.7461 59.3897 0.0000 0.0000 0.0000
# 3 45.3456 59.3897 115.0901 0.0000 0.0000 0.0000
# 4 0.0000 0.0000 0.0000 21.3096 0.0000 0.0000
# 5 0.0000 0.0000 0.0000 0.0000 25.5708 0.0000
# 6 0.0000 0.0000 0.0000 0.0000 0.0000 26.7732
#
#
#
# Elastic Compliance Matrix: (Units=1/GPa)
#
#
# Indices 1 2 3 4 5 6 
#
# 1 0.024303 -0.002340 -0.008368 0.000000 0.000000 0.000000
# 2 -0.002340 0.014910 -0.006772 0.000000 0.000000 0.000000
# 3 -0.008368 -0.006772 0.015480 0.000000 0.000000 0.000000
# 4 0.000000 0.000000 0.000000 0.046927 0.000000 0.000000
# 5 0.000000 0.000000 0.000000 0.000000 0.039107 0.000000
# 6 0.000000 0.000000 0.000000 0.000000 0.000000 0.037351
#
#
# Mechanical properties :
#
#
# Convention : Reuss Voigt Hill
#
# Bulk Modulus (GPa) = 50.67547 60.31836 55.49691
# Shear Modulus (GPa) = 22.76707 23.98332 23.37519
#
# Velocity S-wave (km/s) = 3.72802 3.82631 3.77749
# Velocity P-wave (km/s) = 7.03319 7.50614 7.27351
#
# Compressibility (1/GPa) = 0.01973341
#
# Stress axis : x y z
#
# Youngs Moduli (GPa) = 41.14713 67.07026 64.59850
#
# Poissons Ratio (x) = 0.15695 0.54055
# Poissons Ratio (y) = 0.09629 0.43745
# Poissons Ratio (z) = 0.34431 0.45419
#
# Static dielectric constant tensor:
#      x y z
#    x 3.042940 0.000000 0.000000 
#    y 0.000000 2.935100 0.000000 
#    z 0.000000 0.000000 3.164390 
# 
# 
# High freq. dielectric constant tensor:
#      x y z
#    x 1.635480 0.000000 0.000000 
#    y 0.000000 1.606660 0.000000 
#    z 0.000000 0.000000 1.627460 
# 
# From -- ./inp_files/18564.got.cif
#   From: 2010.03.12/outbox.cif.g09.slc.cpg/sg46_10_cif.got.tgz:18564.got - 2010.04.14 02:56:35.
