data_PCOD8191744
_publ_section_title
;
Structure prediction by ZEFSAII (Michael W. Deem and Ramdas Pophale) SiO2 
 PCOD8191744
Probable space group: I M A 2
;
_chemical_formula_sum "Si O2"
_cell_formula_units_Z 64
_cell_length_a 8.970688
_cell_length_b 19.566496
_cell_length_c 20.524674
_cell_angle_alpha 90.000000
_cell_angle_beta 90.000000
_cell_angle_gamma 90.000000
_cell_volume 3602.591985
_symmetry_space_group_name_H-M "I M A 2"
_symmetry_group_IT_number 46
_symmetry_cell_setting 'orthorhombic'
loop_
_space_group_symop_operation_xyz
x,y,z
-x,-y,z
1/2-x,y,z
1/2+x,-y,z
1/2+x,1/2+y,1/2+z
1/2-x,1/2-y,1/2+z
-x,1/2+y,1/2+z
x,1/2-y,1/2+z
loop_
_atom_site_type_symbol
_atom_site_label
_atom_site_fract_x
_atom_site_fract_y
_atom_site_fract_z
Si Si1 0.923131 0.287368 0.025250
Si Si2 0.075158 0.290064 0.412093
Si Si3 0.578850 0.712617 0.265022
Si Si4 0.574926 0.930453 0.116823
Si Si5 0.923645 0.931744 0.965490
Si Si6 0.075327 0.567187 0.076647
Si Si7 0.422835 0.433671 0.214315
Si Si8 0.426464 0.793979 0.152556
O O1 0.750000 0.271839 0.017346
O O2 0.955759 0.367863 0.031273
O O3 0.983262 0.247357 0.088979
O O4 0.004739 0.264660 0.960204
O O5 0.250000 0.290830 0.425123
O O6 0.036771 0.267260 0.338782
O O7 0.012926 0.366155 0.426914
O O8 0.750000 0.731368 0.248469
O O9 0.554875 0.631184 0.260620
O O10 0.470604 0.752520 0.216894
O O11 0.750000 0.933704 0.130348
O O12 0.504780 0.867418 0.155941
O O13 0.500000 0.000000 0.142939
O O14 0.536822 0.920418 0.041042
O O15 0.750000 0.941517 0.954087
O O16 0.000000 0.000000 0.938003
O O17 0.250000 0.554762 0.086449
O O18 0.000000 0.500000 0.044361
O O19 0.001951 0.581923 0.146131
O O20 0.500000 0.500000 0.247444
O O21 0.250000 0.449466 0.201770
O O22 0.250000 0.803509 0.151649
#
# Coordination Sequence:
#
# PCOD8191744 Si02
#       8
#     8   8   8   8   8   8   8   8
#     4  10  21  35  54  80 108 137 176 224 270 318
#     4  10  21  37  54  76 107 143 183 222 266 318
#     4  10  22  37  53  76 108 145 183 223 268 322
#     4  10  19  33  54  82 111 141 178 222 271 320
#     4   9  18  31  49  74 105 141 178 216 257 310
#     4  10  19  33  52  79 108 136 173 218 265 315
#     4  10  19  31  49  74 106 142 180 217 260 312
#     4  11  21  35  56  81 109 141 180 226 273 318
#
# _framework density 17.764987000000001
#
# number of rings (size 3 to 8) (size 9 to 14) (size 15 to 20)
#    0.000    2.000    2.500    2.250    0.000    4.000 
#    0.000    0.000    0.000    0.750    0.000    1.750 
#    0.000    0.000    0.000    0.000    0.000    0.000 
#
# Total GULP energy -396843.941663 kJ/mol
# GULP energy per Si atom -12401.373177 kJ/mol
# Density = 1.772455 g / cm^3
# Si number density = 17.764987 Si / 1000 Ang^3
#
#
#
# Elastic Constant Matrix: (Units=GPa)
#
#
# Indices 1 2 3 4 5 6 
#
# 1 80.4267 52.6452 39.9755 0.0000 0.0000 0.0000
# 2 52.6452 118.4874 52.3293 0.0000 0.0000 0.0000
# 3 39.9755 52.3293 86.2310 0.0000 0.0000 0.0000
# 4 0.0000 0.0000 0.0000 38.7155 0.0000 0.0000
# 5 0.0000 0.0000 0.0000 0.0000 21.5458 0.0000
# 6 0.0000 0.0000 0.0000 0.0000 0.0000 35.5741
#
#
#
# Elastic Compliance Matrix: (Units=1/GPa)
#
#
# Indices 1 2 3 4 5 6 
#
# 1 0.019010 -0.006222 -0.005037 0.000000 0.000000 0.000000
# 2 -0.006222 0.013566 -0.005348 0.000000 0.000000 0.000000
# 3 -0.005037 -0.005348 0.017178 0.000000 0.000000 0.000000
# 4 0.000000 0.000000 0.000000 0.025829 0.000000 0.000000
# 5 0.000000 0.000000 0.000000 0.000000 0.046413 0.000000
# 6 0.000000 0.000000 0.000000 0.000000 0.000000 0.028110
#
#
# Mechanical properties :
#
#
# Convention : Reuss Voigt Hill
#
# Bulk Modulus (GPa) = 60.46191 63.89389 62.17790
# Shear Modulus (GPa) = 26.47838 28.51343 27.49590
#
# Velocity S-wave (km/s) = 3.86486 4.01064 3.93842
# Velocity P-wave (km/s) = 7.35013 7.58229 7.46712
#
# Compressibility (1/GPa) = 0.01653934
#
# Stress axis : x y z
#
# Youngs Moduli (GPa) = 52.60422 73.71298 58.21564
#
# Poissons Ratio (x) = 0.45862 0.29324
# Poissons Ratio (y) = 0.32729 0.31136
# Poissons Ratio (z) = 0.26497 0.39424
#
# Static dielectric constant tensor:
#      x y z
#    x 3.291010 0.000000 0.000000 
#    y 0.000000 3.431520 0.000000 
#    z 0.000000 0.000000 3.004240 
# 
# 
# High freq. dielectric constant tensor:
#      x y z
#    x 1.692270 0.000000 0.000000 
#    y 0.000000 1.695240 0.000000 
#    z 0.000000 0.000000 1.656540 
# 
# From -- ./inp_files/21340.got.cif
#   From: 2010.03.12/outbox.cif.g09.slc.cpg/sg46_11_cif.got.tgz:21340.got - 2010.04.14 02:56:35.
