data_PCOD8191154
_publ_section_title
;
Structure prediction by ZEFSAII (Michael W. Deem and Ramdas Pophale) SiO2 
 PCOD8191154
Probable space group: I M A 2
;
_chemical_formula_sum "Si O2"
_cell_formula_units_Z 52
_cell_length_a 20.641060
_cell_length_b 26.552987
_cell_length_c 5.198361
_cell_angle_alpha 90.000000
_cell_angle_beta 90.000000
_cell_angle_gamma 90.000000
_cell_volume 2849.127043
_symmetry_space_group_name_H-M "I M A 2"
_symmetry_group_IT_number 46
_symmetry_cell_setting 'orthorhombic'
loop_
_space_group_symop_operation_xyz
x,y,z
-x,-y,z
1/2-x,y,z
1/2+x,-y,z
1/2+x,1/2+y,1/2+z
1/2-x,1/2-y,1/2+z
-x,1/2+y,1/2+z
x,1/2-y,1/2+z
loop_
_atom_site_type_symbol
_atom_site_label
_atom_site_fract_x
_atom_site_fract_y
_atom_site_fract_z
Si Si1 0.925299 0.370425 0.348670
Si Si2 0.674158 0.282146 0.382571
Si Si3 0.933741 0.530409 0.838065
Si Si4 0.007702 0.137661 0.348535
Si Si5 0.385812 0.218316 0.343384
Si Si6 0.250000 0.218466 0.455834
Si Si7 0.423844 0.987268 0.839396
O O1 0.862648 0.335404 0.383787
O O2 0.977814 0.356928 0.565324
O O3 0.906909 0.428872 0.380224
O O4 0.952348 0.361874 0.063361
O O5 0.750000 0.294987 0.381723
O O6 0.654293 0.250417 0.633976
O O7 0.893819 0.519072 0.576404
O O8 0.000000 0.500000 0.792735
O O9 0.947996 0.588682 0.874432
O O10 0.892110 0.508207 0.075971
O O11 0.053522 0.184104 0.404880
O O12 0.388888 0.264021 0.547719
O O13 0.317064 0.188831 0.392251
O O14 0.250000 0.233968 0.755956
O O15 0.500000 0.000000 0.799582
#
# Coordination Sequence:
#
# PCOD8191154 Si02
#       7
#     8   8   8   8   8   4   8
#     4  12  21  32  55  80 102 136 173 210 272 315
#     4  10  23  42  57  73 103 144 186 223 265 320
#     4  10  16  30  46  69 104 134 162 194 245 304
#     4  12  21  30  51  82 108 131 167 209 270 310
#     4  10  21  35  49  73 104 136 168 209 246 297
#     4   8  16  34  54  64  88 136 178 192 224 282
#     4  10  16  30  48  72 101 129 165 201 242 306
#
# _framework density 18.251206
#
# number of rings (size 3 to 8) (size 9 to 14) (size 15 to 20)
#    0.000    1.538    6.154    1.846    0.000    3.692 
#    0.000    0.000    0.000    0.000    4.000    0.000 
#    0.000    0.000    0.000    0.000    0.000    0.000 
#
# Total GULP energy -322204.098467 kJ/mol
# GULP energy per Si atom -12392.465326 kJ/mol
# Density = 1.820967 g / cm^3
# Si number density = 18.251206 Si / 1000 Ang^3
#
#
#
# Elastic Constant Matrix: (Units=GPa)
#
#
# Indices 1 2 3 4 5 6 
#
# 1 42.9524 37.7144 14.5044 0.0000 0.0000 0.0000
# 2 37.7144 86.6821 19.0106 0.0000 0.0000 0.0000
# 3 14.5044 19.0106 128.1801 0.0000 0.0000 0.0000
# 4 0.0000 0.0000 0.0000 25.8826 0.0000 0.0000
# 5 0.0000 0.0000 0.0000 0.0000 13.3398 0.0000
# 6 0.0000 0.0000 0.0000 0.0000 0.0000 12.3596
#
#
#
# Elastic Compliance Matrix: (Units=1/GPa)
#
#
# Indices 1 2 3 4 5 6 
#
# 1 0.038124 -0.016167 -0.001916 0.000000 0.000000 0.000000
# 2 -0.016167 0.018780 -0.000956 0.000000 0.000000 0.000000
# 3 -0.001916 -0.000956 0.008160 0.000000 0.000000 0.000000
# 4 0.000000 0.000000 0.000000 0.038636 0.000000 0.000000
# 5 0.000000 0.000000 0.000000 0.000000 0.074964 0.000000
# 6 0.000000 0.000000 0.000000 0.000000 0.000000 0.080909
#
#
# Mechanical properties :
#
#
# Convention : Reuss Voigt Hill
#
# Bulk Modulus (GPa) = 37.05626 44.47483 40.76554
# Shear Modulus (GPa) = 16.30539 22.75540 19.53040
#
# Velocity S-wave (km/s) = 2.99220 3.53482 3.27477
# Velocity P-wave (km/s) = 5.68201 6.40945 6.05666
#
# Compressibility (1/GPa) = 0.02698600
#
# Stress axis : x y z
#
# Youngs Moduli (GPa) = 26.22997 53.24754 122.54708
#
# Poissons Ratio (x) = 0.86086 0.23483
# Poissons Ratio (y) = 0.42407 0.11714
# Poissons Ratio (z) = 0.05026 0.05090
#
# Static dielectric constant tensor:
#      x y z
#    x 3.049220 0.000000 0.000000 
#    y 0.000000 3.136120 0.000000 
#    z 0.000000 0.000000 4.360220 
# 
# 
# High freq. dielectric constant tensor:
#      x y z
#    x 1.655070 0.000000 0.000000 
#    y 0.000000 1.690100 0.000000 
#    z 0.000000 0.000000 1.747490 
# 
# From -- ./inp_files/2090.got.cif
#   From: 2010.03.12/outbox.cif.g09.slc.cpg/sg46_2_cif.got.tgz:2090.got - 2010.04.14 02:56:35.
