data_PCOD8191939
_publ_section_title
;
Structure prediction by ZEFSAII (Michael W. Deem and Ramdas Pophale) SiO2 
 PCOD8191939
Probable space group: I M A 2
;
_chemical_formula_sum "Si O2"
_cell_formula_units_Z 48
_cell_length_a 8.700590
_cell_length_b 9.531048
_cell_length_c 31.242413
_cell_angle_alpha 90.000000
_cell_angle_beta 90.000000
_cell_angle_gamma 90.000000
_cell_volume 2590.800246
_symmetry_space_group_name_H-M "I M A 2"
_symmetry_group_IT_number 46
_symmetry_cell_setting 'orthorhombic'
loop_
_space_group_symop_operation_xyz
x,y,z
-x,-y,z
1/2-x,y,z
1/2+x,-y,z
1/2+x,1/2+y,1/2+z
1/2-x,1/2-y,1/2+z
-x,1/2+y,1/2+z
x,1/2-y,1/2+z
loop_
_atom_site_type_symbol
_atom_site_label
_atom_site_fract_x
_atom_site_fract_y
_atom_site_fract_z
Si Si1 0.931993 0.349626 0.176670
Si Si2 0.072110 0.649505 0.930289
Si Si3 0.068399 0.654960 0.837767
Si Si4 0.568664 0.346409 0.598991
Si Si5 0.568311 0.850088 0.766672
Si Si6 0.068044 0.845635 0.522808
O O1 0.750000 0.364428 0.180629
O O2 0.981766 0.236161 0.141526
O O3 0.000000 0.500000 0.163406
O O4 0.000355 0.297098 0.221646
O O5 0.250000 0.621971 0.933926
O O6 0.035973 0.726862 0.884992
O O7 0.000000 0.500000 0.926450
O O8 0.019348 0.718220 0.975672
O O9 0.250000 0.652091 0.827712
O O10 0.000000 0.500000 0.836054
O O11 0.977609 0.743051 0.803216
O O12 0.500000 0.500000 0.600098
O O13 0.750000 0.359796 0.596015
O O14 0.502458 0.261640 0.558081
O O15 0.750000 0.861565 0.762832
O O16 0.500000 0.000000 0.779121
O O17 0.250000 0.858933 0.527972
O O18 0.000000 0.000000 0.530095
#
# Coordination Sequence:
#
# PCOD8191939 Si02
#       6
#     8   8   8   8   8   8
#     4  10  20  36  56  78 101 131 171 214 255 305
#     4   8  15  28  49  74 103 134 169 211 252 294
#     4  10  19  33  53  79 108 140 175 215 259 307
#     4  10  22  36  52  75 106 137 168 207 254 304
#     4  11  22  37  56  78 104 137 173 215 261 310
#     4   9  17  32  53  78 103 133 172 212 251 298
#
# _framework density 18.527094000000002
#
# number of rings (size 3 to 8) (size 9 to 14) (size 15 to 20)
#    0.000    2.333    0.000    4.000    0.000    3.333 
#    0.000    2.500    0.000    2.000    0.000    0.000 
#    0.000    0.000    0.000    0.000    0.000    0.000 
#
# Total GULP energy -297373.794340 kJ/mol
# GULP energy per Si atom -12390.574764 kJ/mol
# Density = 1.848493 g / cm^3
# Si number density = 18.527094 Si / 1000 Ang^3
#
#
#
# Elastic Constant Matrix: (Units=GPa)
#
#
# Indices 1 2 3 4 5 6 
#
# 1 64.5423 32.1972 48.7747 0.0000 0.0000 0.0000
# 2 32.1972 101.8476 92.1861 0.0000 0.0000 0.0000
# 3 48.7747 92.1861 176.7820 0.0000 0.0000 0.0000
# 4 0.0000 0.0000 0.0000 37.5402 0.0000 0.0000
# 5 0.0000 0.0000 0.0000 0.0000 -16.3069 0.0000
# 6 0.0000 0.0000 0.0000 0.0000 0.0000 30.5108
#
#
#
# Elastic Compliance Matrix: (Units=1/GPa)
#
#
# Indices 1 2 3 4 5 6 
#
# 1 0.019907 -0.002503 -0.004187 0.000000 0.000000 0.000000
# 2 -0.002503 0.018911 -0.009171 0.000000 0.000000 0.000000
# 3 -0.004187 -0.009171 0.011594 0.000000 0.000000 0.000000
# 4 0.000000 0.000000 0.000000 0.026638 0.000000 0.000000
# 5 0.000000 0.000000 0.000000 0.000000 -0.061324 0.000000
# 6 0.000000 0.000000 0.000000 0.000000 0.000000 0.032775
#
#
# Mechanical properties :
#
#
# Convention : Reuss Voigt Hill
#
# Bulk Modulus (GPa) = 53.50591 76.60976 65.05784
# Shear Modulus (GPa) = 57.83545 21.68309 39.75927
#
# Velocity S-wave (km/s) = 5.59325 3.42474 4.63753
# Velocity P-wave (km/s) = 8.40566 7.55502 7.99167
#
# Compressibility (1/GPa) = 0.01868952
#
# Stress axis : x y z
#
# Youngs Moduli (GPa) = 50.23467 52.88033 86.25153
#
# Poissons Ratio (x) = 0.13238 0.36112
# Poissons Ratio (y) = 0.12576 0.79098
# Poissons Ratio (z) = 0.21032 0.48494
#
# Static dielectric constant tensor:
#      x y z
#    x 3.376360 0.000000 0.000000 
#    y 0.000000 3.159770 0.000000 
#    z 0.000000 0.000000 4.146190 
# 
# 
# High freq. dielectric constant tensor:
#      x y z
#    x 1.723690 0.000000 0.000000 
#    y 0.000000 1.686750 0.000000 
#    z 0.000000 0.000000 1.747580 
# 
# From -- ./inp_files/24996.got.cif
#   From: 2010.03.12/outbox.cif.g09.slc.cpg/sg46_13_cif.got.tgz:24996.got - 2010.04.14 02:56:35.
