data_PCOD8191601
_publ_section_title
;
Structure prediction by ZEFSAII (Michael W. Deem and Ramdas Pophale) SiO2 
 PCOD8191601
Probable space group: I M A 2
;
_chemical_formula_sum "Si O2"
_cell_formula_units_Z 64
_cell_length_a 16.631170
_cell_length_b 11.925916
_cell_length_c 16.214203
_cell_angle_alpha 90.000000
_cell_angle_beta 90.000000
_cell_angle_gamma 90.000000
_cell_volume 3215.956420
_symmetry_space_group_name_H-M "I M A 2"
_symmetry_group_IT_number 46
_symmetry_cell_setting 'orthorhombic'
loop_
_space_group_symop_operation_xyz
x,y,z
-x,-y,z
1/2-x,y,z
1/2+x,-y,z
1/2+x,1/2+y,1/2+z
1/2-x,1/2-y,1/2+z
-x,1/2+y,1/2+z
x,1/2-y,1/2+z
loop_
_atom_site_type_symbol
_atom_site_label
_atom_site_fract_x
_atom_site_fract_y
_atom_site_fract_z
Si Si1 0.344916 0.523432 0.236410
Si Si2 0.654649 0.224870 0.204274
Si Si3 0.104698 0.667303 0.524804
Si Si4 0.340466 0.408632 0.078617
Si Si5 0.460793 0.609399 0.834595
Si Si6 0.558892 0.749482 0.960800
Si Si7 0.336134 0.895115 0.462567
Si Si8 0.845281 0.536516 0.415970
O O1 0.250000 0.517283 0.242311
O O2 0.370547 0.645215 0.203303
O O3 0.373212 0.425193 0.172515
O O4 0.381284 0.501394 0.327194
O O5 0.750000 0.207787 0.221837
O O6 0.629710 0.164264 0.120039
O O7 0.600350 0.171537 0.275145
O O8 0.155309 0.762860 0.478696
O O9 0.124206 0.547426 0.486007
O O10 0.010541 0.691260 0.513722
O O11 0.250000 0.356464 0.076760
O O12 0.400285 0.337228 0.023441
O O13 0.337327 0.536932 0.047432
O O14 0.500000 0.500000 0.790763
O O15 0.526046 0.692166 0.876621
O O16 0.407150 0.556206 0.907342
O O17 0.624797 0.839136 0.934451
O O18 0.250000 0.912251 0.417972
O O19 0.750000 0.538504 0.415344
#
# Coordination Sequence:
#
# PCOD8191601 Si02
#       8
#     8   8   8   8   8   8   8   8
#     4   9  19  37  64  95 120 149 210 267 305 356
#     4  11  22  40  63  92 120 159 213 267 314 373
#     4  11  23  38  62  89 124 159 210 267 320 371
#     4  10  19  36  64  93 123 162 209 257 307 375
#     4  11  23  38  56  87 127 159 203 255 315 376
#     4  11  24  40  60  90 129 168 205 253 326 384
#     4  10  18  35  62  86 113 157 205 256 307 362
#     4  11  23  42  64  90 127 173 214 256 310 382
#
# _framework density 19.900767999999999
#
# number of rings (size 3 to 8) (size 9 to 14) (size 15 to 20)
#    0.000    1.500    2.500    3.750    0.000    3.000 
#    0.000    1.250    0.000    1.500    0.000    0.000 
#    0.000    0.000    0.000    0.000    0.000    0.000 
#
# Total GULP energy -396664.267648 kJ/mol
# GULP energy per Si atom -12395.758364 kJ/mol
# Density = 1.985547 g / cm^3
# Si number density = 19.900768 Si / 1000 Ang^3
#
#
#
# Elastic Constant Matrix: (Units=GPa)
#
#
# Indices 1 2 3 4 5 6 
#
# 1 87.6191 40.9525 37.1682 0.0000 0.0000 0.0000
# 2 40.9525 100.0469 50.9254 0.0000 0.0000 0.0000
# 3 37.1682 50.9254 125.7444 0.0000 0.0000 0.0000
# 4 0.0000 0.0000 0.0000 31.2036 0.0000 0.0000
# 5 0.0000 0.0000 0.0000 0.0000 26.9294 0.0000
# 6 0.0000 0.0000 0.0000 0.0000 0.0000 26.3862
#
#
#
# Elastic Compliance Matrix: (Units=1/GPa)
#
#
# Indices 1 2 3 4 5 6 
#
# 1 0.014666 -0.004782 -0.002398 0.000000 0.000000 0.000000
# 2 -0.004782 0.014150 -0.004317 0.000000 0.000000 0.000000
# 3 -0.002398 -0.004317 0.010410 0.000000 0.000000 0.000000
# 4 0.000000 0.000000 0.000000 0.032048 0.000000 0.000000
# 5 0.000000 0.000000 0.000000 0.000000 0.037134 0.000000
# 6 0.000000 0.000000 0.000000 0.000000 0.000000 0.037899
#
#
# Mechanical properties :
#
#
# Convention : Reuss Voigt Hill
#
# Bulk Modulus (GPa) = 61.61239 63.50028 62.55633
# Shear Modulus (GPa) = 28.61854 29.19479 28.90667
#
# Velocity S-wave (km/s) = 3.79629 3.83432 3.81536
# Velocity P-wave (km/s) = 7.08822 7.18195 7.13524
#
# Compressibility (1/GPa) = 0.01623050
#
# Stress axis : x y z
#
# Youngs Moduli (GPa) = 68.18683 70.66925 96.06246
#
# Poissons Ratio (x) = 0.33797 0.23037
# Poissons Ratio (y) = 0.32610 0.41472
# Poissons Ratio (z) = 0.16352 0.30509
#
# Static dielectric constant tensor:
#      x y z
#    x 3.743490 0.000000 0.000000 
#    y 0.000000 3.485270 0.000000 
#    z 0.000000 0.000000 3.796510 
# 
# 
# High freq. dielectric constant tensor:
#      x y z
#    x 1.780190 0.000000 0.000000 
#    y 0.000000 1.766780 0.000000 
#    z 0.000000 0.000000 1.775840 
# 
# From -- ./inp_files/16814.got.cif
#   From: 2010.03.12/outbox.cif.g09.slc.cpg/sg46_9_cif.got.tgz:16814.got - 2010.04.14 02:56:35.
