data_PCOD8191457
_publ_section_title
;
Structure prediction by ZEFSAII (Michael W. Deem and Ramdas Pophale) SiO2 
 PCOD8191457
Probable space group: I M A 2
;
_chemical_formula_sum "Si O2"
_cell_formula_units_Z 40
_cell_length_a 8.863107
_cell_length_b 20.823548
_cell_length_c 12.457806
_cell_angle_alpha 90.000000
_cell_angle_beta 90.000000
_cell_angle_gamma 90.000000
_cell_volume 2299.229295
_symmetry_space_group_name_H-M "I M A 2"
_symmetry_group_IT_number 46
_symmetry_cell_setting 'orthorhombic'
loop_
_space_group_symop_operation_xyz
x,y,z
-x,-y,z
1/2-x,y,z
1/2+x,-y,z
1/2+x,1/2+y,1/2+z
1/2-x,1/2-y,1/2+z
-x,1/2+y,1/2+z
x,1/2-y,1/2+z
loop_
_atom_site_type_symbol
_atom_site_label
_atom_site_fract_x
_atom_site_fract_y
_atom_site_fract_z
Si Si1 0.924342 0.835279 0.873330
Si Si2 0.572163 0.342188 0.732694
Si Si3 0.571757 0.931000 0.060008
Si Si4 0.425547 0.192853 0.444819
Si Si5 0.073281 0.699610 0.164046
O O1 0.750000 0.840114 0.840420
O O2 0.959252 0.768121 0.931022
O O3 0.023603 0.842744 0.766150
O O4 0.973325 0.890809 0.954744
O O5 0.750000 0.352277 0.731585
O O6 0.494471 0.398105 0.665611
O O7 0.512444 0.347546 0.854204
O O8 0.525245 0.273399 0.683763
O O9 0.750000 0.936094 0.073539
O O10 0.500000 0.000000 0.045079
O O11 0.250000 0.176525 0.437159
O O12 0.487940 0.172042 0.560499
O O13 0.250000 0.692630 0.145802
#
# Coordination Sequence:
#
# PCOD8191457 Si02
#       5
#     8   8   8   8   8
#     4   9  19  33  50  73 103 138 176 211 256 314
#     4  10  20  33  50  76 107 138 175 217 263 314
#     4  11  22  37  55  77 105 142 181 219 259 308
#     4  10  18  31  52  76 106 139 171 213 263 318
#     4  10  19  30  50  78 108 136 168 215 267 313
#
# _framework density 17.397134999999999
#
# number of rings (size 3 to 8) (size 9 to 14) (size 15 to 20)
#    0.000    2.000    2.000    2.400    0.000    4.000 
#    0.000    0.000    0.000    1.200    0.000    5.600 
#    0.000    0.000    0.000    0.000    0.000    0.000 
#
# Total GULP energy -248085.249421 kJ/mol
# GULP energy per Si atom -12404.262471 kJ/mol
# Density = 1.735754 g / cm^3
# Si number density = 17.397135 Si / 1000 Ang^3
#
#
#
# Elastic Constant Matrix: (Units=GPa)
#
#
# Indices 1 2 3 4 5 6 
#
# 1 77.5314 34.3485 53.9239 0.0000 0.0000 0.0000
# 2 34.3485 79.5136 46.6155 -0.0001 0.0000 0.0000
# 3 53.9239 46.6155 138.3612 -0.0003 0.0000 0.0000
# 4 0.0000 -0.0001 -0.0003 24.5059 0.0000 0.0000
# 5 0.0000 0.0000 0.0000 0.0000 35.8300 0.0000
# 6 0.0000 0.0000 0.0000 0.0000 0.0000 24.9515
#
#
#
# Elastic Compliance Matrix: (Units=1/GPa)
#
#
# Indices 1 2 3 4 5 6 
#
# 1 0.019080 -0.004838 -0.005806 0.000000 0.000000 0.000000
# 2 -0.004838 0.016899 -0.003808 0.000000 0.000000 0.000000
# 3 -0.005806 -0.003808 0.010773 0.000000 0.000000 0.000000
# 4 0.000000 0.000000 0.000000 0.040806 0.000000 0.000000
# 5 0.000000 0.000000 0.000000 0.000000 0.027910 0.000000
# 6 0.000000 0.000000 0.000000 0.000000 0.000000 0.040078
#
#
# Mechanical properties :
#
#
# Convention : Reuss Voigt Hill
#
# Bulk Modulus (GPa) = 56.02987 62.79800 59.41393
# Shear Modulus (GPa) = 26.26074 27.75870 27.00972
#
# Velocity S-wave (km/s) = 3.88943 3.99882 3.94450
# Velocity P-wave (km/s) = 7.24199 7.58260 7.41425
#
# Compressibility (1/GPa) = 0.01784762
#
# Stress axis : x y z
#
# Youngs Moduli (GPa) = 52.41227 59.17554 92.82400
#
# Poissons Ratio (x) = 0.28631 0.53892
# Poissons Ratio (y) = 0.25359 0.35345
# Poissons Ratio (z) = 0.30430 0.22533
#
# Static dielectric constant tensor:
#      x y z
#    x 3.270910 0.000000 0.000000 
#    y 0.000000 2.901990 0.000000 
#    z 0.000000 0.000000 3.329020 
# 
# 
# High freq. dielectric constant tensor:
#      x y z
#    x 1.686390 0.000000 0.000000 
#    y 0.000000 1.626260 0.000000 
#    z 0.000000 0.000000 1.685400 
# 
# From -- ./inp_files/9039.got.cif
#   From: 2010.03.12/outbox.cif.g09.slc.cpg/sg46_5_cif.got.tgz:9039.got - 2010.04.14 02:56:35.
