data_PCOD8191411
_publ_section_title
;
Structure prediction by ZEFSAII (Michael W. Deem and Ramdas Pophale) SiO2 
 PCOD8191411
Probable space group: I M A 2
;
_chemical_formula_sum "Si O2"
_cell_formula_units_Z 56
_cell_length_a 8.543051
_cell_length_b 19.118925
_cell_length_c 18.422313
_cell_angle_alpha 90.000000
_cell_angle_beta 90.000000
_cell_angle_gamma 90.000000
_cell_volume 3008.989175
_symmetry_space_group_name_H-M "I M A 2"
_symmetry_group_IT_number 46
_symmetry_cell_setting 'orthorhombic'
loop_
_space_group_symop_operation_xyz
x,y,z
-x,-y,z
1/2-x,y,z
1/2+x,-y,z
1/2+x,1/2+y,1/2+z
1/2-x,1/2-y,1/2+z
-x,1/2+y,1/2+z
x,1/2-y,1/2+z
loop_
_atom_site_type_symbol
_atom_site_label
_atom_site_fract_x
_atom_site_fract_y
_atom_site_fract_z
Si Si1 0.064900 0.922071 0.746000
Si Si2 0.931692 0.213973 0.277475
Si Si3 0.423349 0.431222 0.605053
Si Si4 0.436069 0.202527 0.653003
Si Si5 0.926053 0.929861 0.276657
Si Si6 0.935844 0.797456 0.028712
Si Si7 0.068341 0.330041 0.369716
O O1 0.250000 0.924072 0.740171
O O2 0.001572 0.872177 0.680574
O O3 0.017471 0.892463 0.825507
O O4 0.000000 0.000000 0.734816
O O5 0.750000 0.232763 0.289452
O O6 0.984803 0.233171 0.196325
O O7 0.961813 0.133792 0.298292
O O8 0.045597 0.258406 0.327705
O O9 0.500000 0.500000 0.570456
O O10 0.250000 0.430479 0.573502
O O11 0.424834 0.435980 0.690839
O O12 0.505658 0.360387 0.577850
O O13 0.250000 0.203197 0.665594
O O14 0.479028 0.222953 0.568633
O O15 0.750000 0.919111 0.306572
O O16 0.000000 0.000000 0.311088
O O17 0.750000 0.799150 0.023250
O O18 0.005742 0.812342 0.948722
O O19 0.250000 0.350532 0.374118
#
# Coordination Sequence:
#
# PCOD8191411 Si02
#       7
#     8   8   8   8   8   8   8
#     4  11  22  38  57  82 110 143 185 230 276 329
#     4  11  20  32  49  74 104 136 176 218 257 309
#     4   9  17  30  45  69 101 133 165 201 241 294
#     4  10  18  34  57  80 105 138 177 225 272 318
#     4  10  18  30  49  72 100 131 166 208 255 300
#     4   9  18  33  53  77 107 141 178 216 266 322
#     4  10  20  35  55  78 106 142 177 218 270 321
#
# _framework density 18.610900000000001
#
# number of rings (size 3 to 8) (size 9 to 14) (size 15 to 20)
#    0.000    2.000    1.429    5.571    0.000    1.143 
#    0.000    5.714    0.000    0.857    0.000    4.000 
#    0.000    0.000    0.000    0.000    0.000    0.000 
#
# Total GULP energy -346869.285537 kJ/mol
# GULP energy per Si atom -12388.188769 kJ/mol
# Density = 1.856854 g / cm^3
# Si number density = 18.610900 Si / 1000 Ang^3
#
#
#
# Elastic Constant Matrix: (Units=GPa)
#
#
# Indices 1 2 3 4 5 6 
#
# 1 72.6568 22.3404 11.9672 0.0000 0.0000 0.0000
# 2 22.3404 132.9072 32.3064 0.0000 0.0000 0.0000
# 3 11.9672 32.3064 69.6712 0.0000 0.0000 0.0000
# 4 0.0000 0.0000 0.0000 14.5856 0.0000 0.0000
# 5 0.0000 0.0000 0.0000 0.0000 13.5455 0.0000
# 6 0.0000 0.0000 0.0000 0.0000 0.0000 33.0723
#
#
#
# Elastic Compliance Matrix: (Units=1/GPa)
#
#
# Indices 1 2 3 4 5 6 
#
# 1 0.014661 -0.002087 -0.001550 0.000000 0.000000 0.000000
# 2 -0.002087 0.008777 -0.003711 0.000000 0.000000 0.000000
# 3 -0.001550 -0.003711 0.016340 0.000000 0.000000 0.000000
# 4 0.000000 0.000000 0.000000 0.068561 0.000000 0.000000
# 5 0.000000 0.000000 0.000000 0.000000 0.073825 0.000000
# 6 0.000000 0.000000 0.000000 0.000000 0.000000 0.030237
#
#
# Mechanical properties :
#
#
# Convention : Reuss Voigt Hill
#
# Bulk Modulus (GPa) = 39.87264 45.38478 42.62871
# Shear Modulus (GPa) = 21.23514 26.14877 23.69196
#
# Velocity S-wave (km/s) = 3.38154 3.75243 3.57180
# Velocity P-wave (km/s) = 6.05948 6.57369 6.32182
#
# Compressibility (1/GPa) = 0.02507986
#
# Stress axis : x y z
#
# Youngs Moduli (GPa) = 68.21039 113.93335 61.19815
#
# Poissons Ratio (x) = 0.23783 0.09487
# Poissons Ratio (y) = 0.14239 0.22713
# Poissons Ratio (z) = 0.10574 0.42285
#
# Static dielectric constant tensor:
#      x y z
#    x 3.416190 0.000000 0.000000 
#    y 0.000000 3.623660 0.000000 
#    z 0.000000 0.000000 3.433000 
# 
# 
# High freq. dielectric constant tensor:
#      x y z
#    x 1.718000 0.000000 0.000000 
#    y 0.000000 1.726630 0.000000 
#    z 0.000000 0.000000 1.688870 
# 
# From -- ./inp_files/21232.got.cif
#   From: 2010.03.12/outbox.cif.g09.slc.cpg/sg46_11_cif.got.tgz:21232.got - 2010.04.14 02:56:35.
