data_PCOD8191619
_publ_section_title
;
Structure prediction by ZEFSAII (Michael W. Deem and Ramdas Pophale) SiO2 
 PCOD8191619
Probable space group: I M A 2
;
_chemical_formula_sum "Si O2"
_cell_formula_units_Z 60
_cell_length_a 30.812898
_cell_length_b 7.206715
_cell_length_c 11.920496
_cell_angle_alpha 90.000000
_cell_angle_beta 90.000000
_cell_angle_gamma 90.000000
_cell_volume 2647.062650
_symmetry_space_group_name_H-M "I M A 2"
_symmetry_group_IT_number 46
_symmetry_cell_setting 'orthorhombic'
loop_
_space_group_symop_operation_xyz
x,y,z
-x,-y,z
1/2-x,y,z
1/2+x,-y,z
1/2+x,1/2+y,1/2+z
1/2-x,1/2-y,1/2+z
-x,1/2+y,1/2+z
x,1/2-y,1/2+z
loop_
_atom_site_type_symbol
_atom_site_label
_atom_site_fract_x
_atom_site_fract_y
_atom_site_fract_z
Si Si1 0.965364 0.766380 0.322360
Si Si2 0.360796 0.915684 0.907509
Si Si3 0.325103 0.453278 0.632145
Si Si4 0.703020 0.191942 0.726332
Si Si5 0.545598 0.136592 0.917417
Si Si6 0.500000 0.500000 0.626395
Si Si7 0.700168 0.922588 0.529967
Si Si8 0.129584 0.164537 0.348826
O O1 0.959310 0.543873 0.335064
O O2 0.922198 0.869470 0.372664
O O3 0.011479 0.802236 0.387332
O O4 0.975725 0.839108 0.197305
O O5 0.325964 0.801738 0.837121
O O6 0.405194 0.795925 0.900320
O O7 0.362873 0.117142 0.853204
O O8 0.349400 0.930632 0.036983
O O9 0.291492 0.595729 0.687662
O O10 0.298590 0.282211 0.582232
O O11 0.361266 0.392046 0.721425
O O12 0.750000 0.113125 0.761164
O O13 0.684736 0.065937 0.625237
O O14 0.537796 0.081814 0.046926
O O15 0.750000 0.965093 0.487379
O O16 0.663192 0.937728 0.433526
#
# Coordination Sequence:
#
# PCOD8191619 Si02
#       8
#     8   8   8   8   8   4   8   8
#     4   9  19  37  62  89 121 164 207 254 318 378
#     4  10  22  42  65  94 133 169 216 274 323 390
#     4  11  23  41  67  97 125 179 213 269 329 387
#     4  11  25  43  64  96 131 171 220 270 323 388
#     4   9  21  40  60  93 126 160 212 262 319 379
#     4  10  18  36  62  88 126 166 198 270 306 380
#     4  10  23  43  64  93 131 173 221 270 323 383
#     4  10  21  40  67  93 126 173 219 267 322 391
#
# _framework density 22.666633000000001
#
# number of rings (size 3 to 8) (size 9 to 14) (size 15 to 20)
#    0.000    2.133    1.333    1.200    1.867    6.933 
#    0.000    5.333    0.000    0.000    0.000    0.000 
#    0.000    0.000    0.000    0.000    0.000    0.000 
#
# Total GULP energy -371641.422785 kJ/mol
# GULP energy per Si atom -12388.047426 kJ/mol
# Density = 2.261504 g / cm^3
# Si number density = 22.666633 Si / 1000 Ang^3
#
#
#
# Elastic Constant Matrix: (Units=GPa)
#
#
# Indices 1 2 3 4 5 6 
#
# 1 185.6738 20.8473 76.8720 0.0000 0.0000 0.0000
# 2 20.8473 34.4483 30.9418 0.0000 0.0000 0.0000
# 3 76.8720 30.9418 145.2645 0.0000 0.0000 0.0000
# 4 0.0000 0.0000 0.0000 7.2993 0.0000 0.0000
# 5 0.0000 0.0000 0.0000 0.0000 24.6315 0.0000
# 6 0.0000 0.0000 0.0000 0.0000 0.0000 -136.8406
#
#
#
# Elastic Compliance Matrix: (Units=1/GPa)
#
#
# Indices 1 2 3 4 5 6 
#
# 1 0.006931 -0.001113 -0.003431 0.000000 0.000000 0.000000
# 2 -0.001113 0.036076 -0.007095 0.000000 0.000000 0.000000
# 3 -0.003431 -0.007095 0.010211 0.000000 0.000000 0.000000
# 4 0.000000 0.000000 0.000000 0.137000 0.000000 0.000000
# 5 0.000000 0.000000 0.000000 0.000000 0.040598 0.000000
# 6 0.000000 0.000000 0.000000 0.000000 0.000000 -0.007308
#
#
# Mechanical properties :
#
#
# Convention : Reuss Voigt Hill
#
# Bulk Modulus (GPa) = 33.40070 69.18985 51.29527
# Shear Modulus (GPa) = 19.47299 -5.20027 7.13636
#
# Velocity S-wave (km/s) = 2.93423 -1.51632 1.77630
# Velocity P-wave (km/s) = 5.12320 5.24649 5.18521
#
# Compressibility (1/GPa) = 0.02993949
#
# Stress axis : x y z
#
# Youngs Moduli (GPa) = 144.27587 27.71961 97.93509
#
# Poissons Ratio (x) = 0.03085 0.33600
# Poissons Ratio (y) = 0.16058 0.69487
# Poissons Ratio (z) = 0.49498 0.19668
#
# Static dielectric constant tensor:
#      x y z
#    x 4.468760 0.000000 0.000000 
#    y 0.000000 4.206980 0.000000 
#    z 0.000000 0.000000 3.943580 
# 
# 
# High freq. dielectric constant tensor:
#      x y z
#    x 1.906480 0.000000 0.000000 
#    y 0.000000 1.886980 0.000000 
#    z 0.000000 0.000000 1.882310 
# 
# From -- ./inp_files/13185.got.cif
#   From: 2010.03.12/outbox.cif.g09.slc.cpg/sg46_7_cif.got.tgz:13185.got - 2010.04.14 02:56:35.
