data_PCOD8191677
_publ_section_title
;
Structure prediction by ZEFSAII (Michael W. Deem and Ramdas Pophale) SiO2 
 PCOD8191677
Probable space group: I M A 2
;
_chemical_formula_sum "Si O2"
_cell_formula_units_Z 64
_cell_length_a 8.751362
_cell_length_b 30.047585
_cell_length_c 14.622314
_cell_angle_alpha 90.000000
_cell_angle_beta 90.000000
_cell_angle_gamma 90.000000
_cell_volume 3845.044115
_symmetry_space_group_name_H-M "I M A 2"
_symmetry_group_IT_number 46
_symmetry_cell_setting 'orthorhombic'
loop_
_space_group_symop_operation_xyz
x,y,z
-x,-y,z
1/2-x,y,z
1/2+x,-y,z
1/2+x,1/2+y,1/2+z
1/2-x,1/2-y,1/2+z
-x,1/2+y,1/2+z
x,1/2-y,1/2+z
loop_
_atom_site_type_symbol
_atom_site_label
_atom_site_fract_x
_atom_site_fract_y
_atom_site_fract_z
Si Si1 0.078114 0.815374 0.686300
Si Si2 0.073534 0.866123 0.504124
Si Si3 0.072211 0.274620 0.681213
Si Si4 0.575413 0.368173 0.368054
Si Si5 0.568164 0.546972 0.298761
Si Si6 0.430526 0.200259 0.374208
Si Si7 0.068838 0.954170 0.601010
Si Si8 0.432451 0.288452 0.479029
O O1 0.250000 0.795907 0.681213
O O2 0.029575 0.838268 0.592870
O O3 0.065448 0.851724 0.764576
O O4 0.958302 0.776665 0.704799
O O5 0.250000 0.861657 0.479328
O O6 0.029758 0.917293 0.524280
O O7 0.979659 0.846066 0.419856
O O8 0.250000 0.282591 0.673331
O O9 0.007617 0.301583 0.769202
O O10 0.000770 0.287959 0.583143
O O11 0.750000 0.374771 0.399505
O O12 0.487925 0.415382 0.370206
O O13 0.495331 0.333140 0.434440
O O14 0.500000 0.500000 0.332391
O O15 0.750000 0.544693 0.298073
O O16 0.508549 0.558062 0.197162
O O17 0.250000 0.203819 0.374819
O O18 0.495167 0.244093 0.427308
O O19 0.250000 0.957600 0.617787
O O20 0.000000 0.000000 0.562350
O O21 0.250000 0.289326 0.476839
#
# Coordination Sequence:
#
# PCOD8191677 Si02
#       8
#     8   8   8   8   8   8   8   8
#     4  10  19  30  46  68  98 132 166 204 244 289
#     4  10  20  33  48  69 100 133 166 203 246 293
#     4  10  20  34  48  68 100 131 166 213 250 288
#     4  11  21  34  50  72 101 134 170 207 246 297
#     4  11  21  33  51  74 102 134 166 203 247 297
#     4  10  20  32  49  72  97 130 171 208 247 296
#     4  10  19  33  49  72 102 132 166 205 249 298
#     4  10  20  33  49  71  98 130 168 207 249 296
#
# _framework density 16.644803
#
# number of rings (size 3 to 8) (size 9 to 14) (size 15 to 20)
#    0.000    1.750    3.750    2.625    0.000    3.000 
#    0.000    0.000    0.000    0.000    0.000    0.875 
#    0.000    2.000    0.000    0.000    0.000    0.000 
#
# Total GULP energy -396703.977045 kJ/mol
# GULP energy per Si atom -12396.999283 kJ/mol
# Density = 1.660692 g / cm^3
# Si number density = 16.644803 Si / 1000 Ang^3
#
#
#
# Elastic Constant Matrix: (Units=GPa)
#
#
# Indices 1 2 3 4 5 6 
#
# 1 47.7676 31.7307 29.7669 0.0000 -0.0001 0.0000
# 2 31.7307 110.3385 39.6065 0.0000 -0.0001 0.0001
# 3 29.7669 39.6065 79.5129 0.0014 0.0000 0.0000
# 4 0.0000 0.0000 0.0014 19.3730 0.0001 -0.0002
# 5 -0.0001 -0.0001 0.0000 0.0001 18.3520 0.0002
# 6 0.0000 0.0001 0.0000 -0.0002 0.0002 28.2358
#
#
#
# Elastic Compliance Matrix: (Units=1/GPa)
#
#
# Indices 1 2 3 4 5 6 
#
# 1 0.029877 -0.005574 -0.008409 0.000001 0.000000 0.000000
# 2 -0.005574 0.012076 -0.003929 0.000000 0.000000 0.000000
# 3 -0.008409 -0.003929 0.017681 -0.000001 0.000000 0.000000
# 4 0.000001 0.000000 -0.000001 0.051618 0.000000 0.000000
# 5 0.000000 0.000000 0.000000 0.000000 0.054490 0.000000
# 6 0.000000 0.000000 0.000000 0.000000 0.000000 0.035416
#
#
# Mechanical properties :
#
#
# Convention : Reuss Voigt Hill
#
# Bulk Modulus (GPa) = 41.99451 48.86969 45.43210
# Shear Modulus (GPa) = 20.41498 22.29316 21.35407
#
# Velocity S-wave (km/s) = 3.50595 3.66368 3.58568
# Velocity P-wave (km/s) = 6.45550 6.87901 6.67062
#
# Compressibility (1/GPa) = 0.02381264
#
# Stress axis : x y z
#
# Youngs Moduli (GPa) = 33.47058 82.80841 56.55646
#
# Poissons Ratio (x) = 0.46154 0.47556
# Poissons Ratio (y) = 0.18655 0.22219
# Poissons Ratio (z) = 0.28144 0.32533
#
# Static dielectric constant tensor:
#      x y z
#    x 3.098830 0.000000 0.000000 
#    y 0.000000 3.153260 0.000000 
#    z 0.000000 0.000000 3.207210 
# 
# 
# High freq. dielectric constant tensor:
#      x y z
#    x 1.641450 0.000000 0.000000 
#    y 0.000000 1.632570 0.000000 
#    z 0.000000 0.000000 1.619040 
# 
# From -- ./inp_files/14732.got.cif
#   From: 2010.03.12/outbox.cif.g09.slc.cpg/sg46_8_cif.got.tgz:14732.got - 2010.04.14 02:56:35.
