data_PCOD8191967
_publ_section_title
;
Structure prediction by ZEFSAII (Michael W. Deem and Ramdas Pophale) SiO2 
 PCOD8191967
Probable space group: I M A 2
;
_chemical_formula_sum "Si O2"
_cell_formula_units_Z 64
_cell_length_a 9.040630
_cell_length_b 28.275148
_cell_length_c 12.702641
_cell_angle_alpha 90.000000
_cell_angle_beta 90.000000
_cell_angle_gamma 90.000000
_cell_volume 3247.114527
_symmetry_space_group_name_H-M "I M A 2"
_symmetry_group_IT_number 46
_symmetry_cell_setting 'orthorhombic'
loop_
_space_group_symop_operation_xyz
x,y,z
-x,-y,z
1/2-x,y,z
1/2+x,-y,z
1/2+x,1/2+y,1/2+z
1/2-x,1/2-y,1/2+z
-x,1/2+y,1/2+z
x,1/2-y,1/2+z
loop_
_atom_site_type_symbol
_atom_site_label
_atom_site_fract_x
_atom_site_fract_y
_atom_site_fract_z
Si Si1 0.076089 0.095070 0.758670
Si Si2 0.576079 0.207463 0.255221
Si Si3 0.574979 0.115315 0.361293
Si Si4 0.585944 0.074616 0.960716
Si Si5 0.072353 0.948625 0.555036
Si Si6 0.425226 0.545772 0.684740
Si Si7 0.422178 0.299040 0.323761
Si Si8 0.087643 0.682271 0.523463
O O1 0.250000 0.087101 0.740533
O O2 0.035689 0.150476 0.772016
O O3 0.026441 0.067048 0.863947
O O4 0.983188 0.073372 0.663848
O O5 0.750000 0.215436 0.265134
O O6 0.522411 0.170129 0.346443
O O7 0.498484 0.257894 0.258323
O O8 0.531361 0.186047 0.142443
O O9 0.750000 0.114252 0.366019
O O10 0.516021 0.088336 0.465236
O O11 0.519733 0.089089 0.255949
O O12 0.750000 0.055447 0.930365
O O13 0.519586 0.049373 0.063967
O O14 0.601295 0.128480 0.992295
O O15 0.250000 0.953916 0.556512
O O16 0.000000 0.000000 0.535245
O O17 0.500000 0.500000 0.735957
O O18 0.250000 0.541454 0.688679
O O19 0.250000 0.290902 0.320566
O O20 0.473670 0.293067 0.444321
O O21 0.250000 0.706334 0.511601
#
# Coordination Sequence:
#
# PCOD8191967 Si02
#       8
#     8   8   8   8   8   8   8   8
#     4  10  22  40  59  80 115 155 196 242 291 347
#     4  10  19  35  60  86 112 149 200 247 291 348
#     4   9  19  37  59  84 114 149 191 240 289 342
#     4   9  17  33  57  81 107 142 183 229 285 339
#     4  11  23  40  63  87 117 157 202 249 300 358
#     4  10  19  33  54  82 114 143 175 222 278 336
#     4  10  22  37  54  83 120 156 191 241 302 356
#     4   9  17  33  57  79 104 143 188 236 283 338
#
# _framework density 19.709807000000001
#
# number of rings (size 3 to 8) (size 9 to 14) (size 15 to 20)
#    0.000    2.250    1.250    1.500    0.000    4.000 
#    0.000    7.500    0.000    0.000    0.000    0.000 
#    0.000    0.000    0.000    0.000    0.000    0.000 
#
# Total GULP energy -396598.099853 kJ/mol
# GULP energy per Si atom -12393.690620 kJ/mol
# Density = 1.966495 g / cm^3
# Si number density = 19.709807 Si / 1000 Ang^3
#
#
#
# Elastic Constant Matrix: (Units=GPa)
#
#
# Indices 1 2 3 4 5 6 
#
# 1 54.9739 27.7540 32.2716 0.0004 0.0007 -0.0001
# 2 27.7540 61.4238 26.4110 0.0021 0.0008 -0.0002
# 3 32.2716 26.4110 101.1872 -0.0113 0.0052 -0.0004
# 4 0.0004 0.0021 -0.0113 16.9110 0.0025 -0.0005
# 5 0.0007 0.0008 0.0052 0.0025 14.7870 -0.0004
# 6 -0.0001 -0.0002 -0.0004 -0.0005 -0.0004 31.6538
#
#
#
# Elastic Compliance Matrix: (Units=1/GPa)
#
#
# Indices 1 2 3 4 5 6 
#
# 1 0.026435 -0.009371 -0.005985 -0.000003 0.000001 0.000000
# 2 -0.009371 0.021660 -0.002665 -0.000004 0.000000 0.000000
# 3 -0.005985 -0.002665 0.012487 0.000009 -0.000004 0.000000
# 4 -0.000003 -0.000004 0.000009 0.059133 -0.000010 0.000001
# 5 0.000001 0.000000 -0.000004 -0.000010 0.067627 0.000001
# 6 0.000000 0.000000 0.000000 0.000001 0.000001 0.031592
#
#
# Mechanical properties :
#
#
# Convention : Reuss Voigt Hill
#
# Bulk Modulus (GPa) = 40.74886 43.38424 42.06655
# Shear Modulus (GPa) = 19.00016 21.41360 20.20688
#
# Velocity S-wave (km/s) = 3.10820 3.29970 3.20538
# Velocity P-wave (km/s) = 5.79659 6.04786 5.92356
#
# Compressibility (1/GPa) = 0.02454056
#
# Stress axis : x y z
#
# Youngs Moduli (GPa) = 37.82890 46.16708 80.08316
#
# Poissons Ratio (x) = 0.43263 0.47929
# Poissons Ratio (y) = 0.35450 0.21342
# Poissons Ratio (z) = 0.22640 0.12303
#
# Static dielectric constant tensor:
#      x y z
#    x 3.483190 -0.000030 0.000000 
#    y -0.000030 4.109970 -0.000010 
#    z 0.000000 -0.000010 3.806570 
# 
# 
# High freq. dielectric constant tensor:
#      x y z
#    x 1.748540 0.000000 0.000000 
#    y 0.000000 1.768750 0.000000 
#    z 0.000000 0.000000 1.772660 
# 
# From -- ./inp_files/9780.got.cif
#   From: 2010.03.12/outbox.cif.g09.slc.cpg/sg46_5_cif.got.tgz:9780.got - 2010.04.14 02:56:35.
