data_PCOD8191586
_publ_section_title
;
Structure prediction by ZEFSAII (Michael W. Deem and Ramdas Pophale) SiO2 
 PCOD8191586
Probable space group: I M A 2
;
_chemical_formula_sum "Si O2"
_cell_formula_units_Z 64
_cell_length_a 14.061579
_cell_length_b 12.356018
_cell_length_c 16.442472
_cell_angle_alpha 90.000000
_cell_angle_beta 90.000000
_cell_angle_gamma 90.000000
_cell_volume 2856.799324
_symmetry_space_group_name_H-M "I M A 2"
_symmetry_group_IT_number 46
_symmetry_cell_setting 'orthorhombic'
loop_
_space_group_symop_operation_xyz
x,y,z
-x,-y,z
1/2-x,y,z
1/2+x,-y,z
1/2+x,1/2+y,1/2+z
1/2-x,1/2-y,1/2+z
-x,1/2+y,1/2+z
x,1/2-y,1/2+z
loop_
_atom_site_type_symbol
_atom_site_label
_atom_site_fract_x
_atom_site_fract_y
_atom_site_fract_z
Si Si1 0.360497 0.735506 0.439050
Si Si2 0.639372 0.017765 0.405880
Si Si3 0.489127 0.612738 0.319297
Si Si4 0.642155 0.383760 0.178529
Si Si5 0.358307 0.078123 0.564211
Si Si6 0.362881 0.842512 0.112984
Si Si7 0.636837 0.721402 0.209842
Si Si8 0.862309 0.969075 0.227422
O O1 0.250000 0.708476 0.421029
O O2 0.427459 0.699008 0.366663
O O3 0.397050 0.673406 0.520070
O O4 0.375894 0.863608 0.442626
O O5 0.750000 0.991849 0.398327
O O6 0.595756 0.931873 0.473027
O O7 0.593910 0.998654 0.316482
O O8 0.500000 0.500000 0.370423
O O9 0.426098 0.566149 0.245268
O O10 0.586626 0.669218 0.288897
O O11 0.750000 0.382272 0.210950
O O12 0.634673 0.456634 0.098570
O O13 0.604455 0.262513 0.162878
O O14 0.250000 0.115038 0.554325
O O15 0.404048 0.165026 0.626798
O O16 0.250000 0.846967 0.111011
O O17 0.405026 0.948759 0.159015
O O18 0.750000 0.702105 0.220489
O O19 0.610409 0.847488 0.202617
O O20 0.750000 0.985257 0.229767
#
# Coordination Sequence:
#
# PCOD8191586 Si02
#       8
#     8   8   8   8   8   8   8   8
#     4  10  20  36  60  91 125 155 197 259 315 365
#     4   9  16  32  61  95 122 152 203 257 304 357
#     4  12  24  37  57  86 121 156 210 249 304 365
#     4  10  18  34  61  90 117 149 194 252 311 357
#     4   9  16  31  60  89 114 152 197 247 303 353
#     4   9  17  34  62  93 123 157 196 248 316 372
#     4  10  22  41  60  82 121 169 209 247 301 369
#     4   9  18  34  59  89 123 164 204 241 296 373
#
# _framework density 22.402694
#
# number of rings (size 3 to 8) (size 9 to 14) (size 15 to 20)
#    0.000    2.250    2.500    1.125    0.000    2.500 
#    0.000    6.250    2.750    4.500    0.000    0.000 
#    0.000    0.000    0.000    0.000    0.000    0.000 
#
# Total GULP energy -396477.502042 kJ/mol
# GULP energy per Si atom -12389.921939 kJ/mol
# Density = 2.235170 g / cm^3
# Si number density = 22.402694 Si / 1000 Ang^3
#
#
#
# Elastic Constant Matrix: (Units=GPa)
#
#
# Indices 1 2 3 4 5 6 
#
# 1 46.8626 24.2278 27.3197 0.0000 0.0000 0.0000
# 2 24.2278 146.5832 65.8324 0.0000 0.0000 0.0000
# 3 27.3197 65.8324 140.3695 0.0000 0.0000 0.0000
# 4 0.0000 0.0000 0.0000 38.3705 0.0000 0.0000
# 5 0.0000 0.0000 0.0000 0.0000 -1.7784 0.0000
# 6 0.0000 0.0000 0.0000 0.0000 0.0000 18.7067
#
#
#
# Elastic Compliance Matrix: (Units=1/GPa)
#
#
# Indices 1 2 3 4 5 6 
#
# 1 0.024741 -0.002441 -0.003670 0.000000 0.000000 0.000000
# 2 -0.002441 0.008883 -0.003691 0.000000 0.000000 0.000000
# 3 -0.003670 -0.003691 0.009570 0.000000 0.000000 0.000000
# 4 0.000000 0.000000 0.000000 0.026062 0.000000 0.000000
# 5 0.000000 0.000000 0.000000 0.000000 -0.562315 0.000000
# 6 0.000000 0.000000 0.000000 0.000000 0.000000 0.053457
#
#
# Mechanical properties :
#
#
# Convention : Reuss Voigt Hill
#
# Bulk Modulus (GPa) = 42.39330 63.17501 52.78416
# Shear Modulus (GPa) = -12.13193 25.48879 6.67843
#
# Velocity S-wave (km/s) = -2.32962 3.37672 1.72846
# Velocity P-wave (km/s) = 3.42465 6.59272 5.25320
#
# Compressibility (1/GPa) = 0.02358863
#
# Stress axis : x y z
#
# Youngs Moduli (GPa) = 40.41932 112.57175 104.49806
#
# Poissons Ratio (x) = 0.27476 0.38356
# Poissons Ratio (y) = 0.09865 0.38572
# Poissons Ratio (z) = 0.14836 0.41552
#
# Static dielectric constant tensor:
#      x y z
#    x 3.798870 0.000000 0.000000 
#    y 0.000000 4.053080 0.000000 
#    z 0.000000 0.000000 4.197850 
# 
# 
# High freq. dielectric constant tensor:
#      x y z
#    x 1.870320 0.000000 0.000000 
#    y 0.000000 1.880200 0.000000 
#    z 0.000000 0.000000 1.874820 
# 
# From -- ./inp_files/19659.got.cif
#   From: 2010.03.12/outbox.cif.g09.slc.cpg/sg46_10_cif.got.tgz:19659.got - 2010.04.14 02:56:35.
