data_PCOD8191640
_publ_section_title
;
Structure prediction by ZEFSAII (Michael W. Deem and Ramdas Pophale) SiO2 
 PCOD8191640
Probable space group: I M A 2
;
_chemical_formula_sum "Si O2"
_cell_formula_units_Z 64
_cell_length_a 8.555836
_cell_length_b 18.500732
_cell_length_c 26.507883
_cell_angle_alpha 90.000000
_cell_angle_beta 90.000000
_cell_angle_gamma 90.000000
_cell_volume 4195.912359
_symmetry_space_group_name_H-M "I M A 2"
_symmetry_group_IT_number 46
_symmetry_cell_setting 'orthorhombic'
loop_
_space_group_symop_operation_xyz
x,y,z
-x,-y,z
1/2-x,y,z
1/2+x,-y,z
1/2+x,1/2+y,1/2+z
1/2-x,1/2-y,1/2+z
-x,1/2+y,1/2+z
x,1/2-y,1/2+z
loop_
_atom_site_type_symbol
_atom_site_label
_atom_site_fract_x
_atom_site_fract_y
_atom_site_fract_z
Si Si1 0.568673 0.789686 0.327070
Si Si2 0.565248 0.079628 0.370383
Si Si3 0.070193 0.154567 0.768537
Si Si4 0.933517 0.077826 0.864301
Si Si5 0.569457 0.214265 0.920467
Si Si6 0.067680 0.157258 0.468159
Si Si7 0.935169 0.921961 0.668718
Si Si8 0.065243 0.579130 0.061843
O O1 0.750000 0.786712 0.344502
O O2 0.511519 0.872936 0.324382
O O3 0.544781 0.741333 0.276555
O O4 0.453847 0.755655 0.368094
O O5 0.750000 0.078854 0.364980
O O6 0.518719 0.111432 0.424906
O O7 0.500000 0.000000 0.364410
O O8 0.250000 0.133648 0.775087
O O9 0.014620 0.134300 0.712347
O O10 0.983130 0.106067 0.809550
O O11 0.750000 0.073063 0.863624
O O12 0.987501 0.132020 0.909648
O O13 0.000000 0.000000 0.877152
O O14 0.750000 0.217207 0.936555
O O15 0.467876 0.256601 0.962472
O O16 0.250000 0.141645 0.464018
O O17 0.005119 0.135278 0.522523
O O18 0.750000 0.926652 0.660768
O O19 0.014073 0.894684 0.617258
O O20 0.000000 0.000000 0.684415
O O21 0.250000 0.577492 0.057452
O O22 0.000000 0.500000 0.049819
#
# Coordination Sequence:
#
# PCOD8191640 Si02
#       8
#     8   8   8   8   8   8   8   8
#     4   9  16  28  43  61  83 110 140 173 210 249
#     4  11  20  30  43  62  86 113 143 176 209 249
#     4   9  18  30  45  62  85 114 145 177 212 251
#     4  10  19  28  42  62  87 115 146 178 210 248
#     4   9  17  29  42  60  83 110 141 175 209 247
#     4  11  20  31  46  63  83 111 142 175 212 254
#     4  10  19  31  44  62  85 112 144 179 213 247
#     4  11  21  33  46  62  84 111 142 179 214 249
#
# _framework density 15.252940000000001
#
# number of rings (size 3 to 8) (size 9 to 14) (size 15 to 20)
#    0.000    2.000    0.000    7.875    0.000    4.000 
#    0.000    0.000    0.000    0.000    0.000    0.000 
#    0.000    1.000    0.000    7.250    0.000    3.500 
#
# Total GULP energy -396599.720263 kJ/mol
# GULP energy per Si atom -12393.741258 kJ/mol
# Density = 1.521822 g / cm^3
# Si number density = 15.252940 Si / 1000 Ang^3
#
#
#
# Elastic Constant Matrix: (Units=GPa)
#
#
# Indices 1 2 3 4 5 6 
#
# 1 68.5922 35.3347 29.1659 0.0000 0.0000 0.0000
# 2 35.3347 121.8287 60.1463 0.0000 0.0000 0.0000
# 3 29.1659 60.1463 85.0313 0.0000 0.0000 0.0000
# 4 0.0000 0.0000 0.0000 32.9522 0.0000 0.0000
# 5 0.0000 0.0000 0.0000 0.0000 19.8339 0.0000
# 6 0.0000 0.0000 0.0000 0.0000 0.0000 24.7767
#
#
#
# Elastic Compliance Matrix: (Units=1/GPa)
#
#
# Indices 1 2 3 4 5 6 
#
# 1 0.017902 -0.003320 -0.003792 0.000000 0.000000 0.000000
# 2 -0.003320 0.013229 -0.008218 0.000000 0.000000 0.000000
# 3 -0.003792 -0.008218 0.018874 0.000000 0.000000 0.000000
# 4 0.000000 0.000000 0.000000 0.030347 0.000000 0.000000
# 5 0.000000 0.000000 0.000000 0.000000 0.050419 0.000000
# 6 0.000000 0.000000 0.000000 0.000000 0.000000 0.040360
#
#
# Mechanical properties :
#
#
# Convention : Reuss Voigt Hill
#
# Bulk Modulus (GPa) = 51.69624 58.30512 55.00068
# Shear Modulus (GPa) = 24.01088 25.56624 24.78856
#
# Velocity S-wave (km/s) = 3.97190 4.09852 4.03571
# Velocity P-wave (km/s) = 7.41626 7.79139 7.60613
#
# Compressibility (1/GPa) = 0.01934377
#
# Stress axis : x y z
#
# Youngs Moduli (GPa) = 55.86114 75.59413 52.98246
#
# Poissons Ratio (x) = 0.25098 0.20090
# Poissons Ratio (y) = 0.18546 0.43543
# Poissons Ratio (z) = 0.21182 0.62126
#
# Static dielectric constant tensor:
#      x y z
#    x 3.062820 0.000000 0.000000 
#    y 0.000000 2.954850 0.000000 
#    z 0.000000 0.000000 2.870690 
# 
# 
# High freq. dielectric constant tensor:
#      x y z
#    x 1.605310 0.000000 0.000000 
#    y 0.000000 1.578510 0.000000 
#    z 0.000000 0.000000 1.547430 
# 
# From -- ./inp_files/24400.got.cif
#   From: 2010.03.12/outbox.cif.g09.slc.cpg/sg46_13_cif.got.tgz:24400.got - 2010.04.14 02:56:35.
