data_PCOD8191144
_publ_section_title
;
Structure prediction by ZEFSAII (Michael W. Deem and Ramdas Pophale) SiO2 
 PCOD8191144
Probable space group: I M A 2
;
_chemical_formula_sum "Si O2"
_cell_formula_units_Z 56
_cell_length_a 18.547965
_cell_length_b 14.330407
_cell_length_c 12.800315
_cell_angle_alpha 90.000000
_cell_angle_beta 90.000000
_cell_angle_gamma 90.000000
_cell_volume 3402.322287
_symmetry_space_group_name_H-M "I M A 2"
_symmetry_group_IT_number 46
_symmetry_cell_setting 'orthorhombic'
loop_
_space_group_symop_operation_xyz
x,y,z
-x,-y,z
1/2-x,y,z
1/2+x,-y,z
1/2+x,1/2+y,1/2+z
1/2-x,1/2-y,1/2+z
-x,1/2+y,1/2+z
x,1/2-y,1/2+z
loop_
_atom_site_type_symbol
_atom_site_label
_atom_site_fract_x
_atom_site_fract_y
_atom_site_fract_z
Si Si1 0.828767 0.388113 0.892170
Si Si2 0.528179 0.897954 0.513855
Si Si3 0.435293 0.753187 0.133497
Si Si4 0.973721 0.096510 0.285219
Si Si5 0.331555 0.025144 0.579745
Si Si6 0.667245 0.114612 0.751584
Si Si7 0.169800 0.820073 0.968670
O O1 0.750000 0.416945 0.848258
O O2 0.888898 0.417231 0.809337
O O3 0.832811 0.279136 0.912015
O O4 0.843997 0.437686 0.002572
O O5 0.486515 0.815295 0.569988
O O6 0.519645 0.883465 0.390005
O O7 0.500000 0.000000 0.548994
O O8 0.612440 0.893174 0.548411
O O9 0.485691 0.818796 0.205175
O O10 0.381312 0.696258 0.205455
O O11 0.390100 0.823003 0.058540
O O12 0.000000 0.000000 0.233207
O O13 0.250000 0.064876 0.571533
O O14 0.347690 0.985039 0.695989
O O15 0.750000 0.144243 0.730624
O O16 0.652372 0.105132 0.876282
O O17 0.250000 0.838344 0.015183
#
# Coordination Sequence:
#
# PCOD8191144 Si02
#       7
#     8   8   8   8   8   8   8
#     4  10  16  26  47  74  99 124 157 198 249 303
#     4  11  18  33  52  76  98 130 168 207 246 295
#     4  12  19  29  49  71 105 139 164 200 252 294
#     4  11  21  34  49  71 105 133 168 209 248 292
#     4  10  18  30  51  75  99 125 161 210 252 287
#     4  10  17  26  45  76 105 128 159 198 249 311
#     4  10  18  27  43  74 107 134 158 191 247 320
#
# _framework density 16.459346
#
# number of rings (size 3 to 8) (size 9 to 14) (size 15 to 20)
#    0.000    1.429    8.571    0.429    0.000    0.571 
#    0.000    0.000    6.286    1.714    0.000    0.000 
#    0.000    0.000    0.000    0.000    0.000    0.000 
#
# Total GULP energy -347093.808725 kJ/mol
# GULP energy per Si atom -12396.207454 kJ/mol
# Density = 1.642188 g / cm^3
# Si number density = 16.459346 Si / 1000 Ang^3
#
#
#
# Elastic Constant Matrix: (Units=GPa)
#
#
# Indices 1 2 3 4 5 6 
#
# 1 82.3537 31.4929 38.9956 0.0000 0.0000 0.0000
# 2 31.4929 50.2083 36.1942 0.0000 0.0000 0.0000
# 3 38.9956 36.1942 74.9178 0.0000 0.0000 0.0000
# 4 0.0000 0.0000 0.0000 27.0505 0.0000 0.0000
# 5 0.0000 0.0000 0.0000 0.0000 20.9439 0.0000
# 6 0.0000 0.0000 0.0000 0.0000 0.0000 21.3177
#
#
#
# Elastic Compliance Matrix: (Units=1/GPa)
#
#
# Indices 1 2 3 4 5 6 
#
# 1 0.017494 -0.006765 -0.005838 0.000000 0.000000 0.000000
# 2 -0.006765 0.033176 -0.012507 0.000000 0.000000 0.000000
# 3 -0.005838 -0.012507 0.022429 0.000000 0.000000 0.000000
# 4 0.000000 0.000000 0.000000 0.036968 0.000000 0.000000
# 5 0.000000 0.000000 0.000000 0.000000 0.047747 0.000000
# 6 0.000000 0.000000 0.000000 0.000000 0.000000 0.046909
#
#
# Mechanical properties :
#
#
# Convention : Reuss Voigt Hill
#
# Bulk Modulus (GPa) = 43.70559 46.76059 45.23309
# Shear Modulus (GPa) = 19.04269 20.58221 19.81245
#
# Velocity S-wave (km/s) = 3.40509 3.54006 3.47323
# Velocity P-wave (km/s) = 6.48620 6.72167 6.60498
#
# Compressibility (1/GPa) = 0.02288037
#
# Stress axis : x y z
#
# Youngs Moduli (GPa) = 57.16301 30.14217 44.58555
#
# Poissons Ratio (x) = 0.20390 0.26027
# Poissons Ratio (y) = 0.38669 0.55763
# Poissons Ratio (z) = 0.33369 0.37698
#
# Static dielectric constant tensor:
#      x y z
#    x 3.400170 0.000000 0.000000 
#    y 0.000000 2.786420 0.000000 
#    z 0.000000 0.000000 3.210560 
# 
# 
# High freq. dielectric constant tensor:
#      x y z
#    x 1.635100 0.000000 0.000000 
#    y 0.000000 1.581850 0.000000 
#    z 0.000000 0.000000 1.627630 
# 
# From -- ./inp_files/12004.got.cif
#   From: 2010.03.12/outbox.cif.g09.slc.cpg/sg46_7_cif.got.tgz:12004.got - 2010.04.14 02:56:35.
