data_PCOD8191180
_publ_section_title
;
Structure prediction by ZEFSAII (Michael W. Deem and Ramdas Pophale) SiO2 
 PCOD8191180
Probable space group: I M A 2
;
_chemical_formula_sum "Si O2"
_cell_formula_units_Z 64
_cell_length_a 8.886317
_cell_length_b 24.857437
_cell_length_c 19.995778
_cell_angle_alpha 90.000000
_cell_angle_beta 90.000000
_cell_angle_gamma 90.000000
_cell_volume 4416.888698
_symmetry_space_group_name_H-M "I M A 2"
_symmetry_group_IT_number 46
_symmetry_cell_setting 'orthorhombic'
loop_
_space_group_symop_operation_xyz
x,y,z
-x,-y,z
1/2-x,y,z
1/2+x,-y,z
1/2+x,1/2+y,1/2+z
1/2-x,1/2-y,1/2+z
-x,1/2+y,1/2+z
x,1/2-y,1/2+z
loop_
_atom_site_type_symbol
_atom_site_label
_atom_site_fract_x
_atom_site_fract_y
_atom_site_fract_z
Si Si1 0.428635 0.234881 0.732140
Si Si2 0.580325 0.918495 0.442944
Si Si3 0.421042 0.297179 0.983716
Si Si4 0.080401 0.743286 0.861011
Si Si5 0.928638 0.330448 0.116157
Si Si6 0.074873 0.947509 0.573519
Si Si7 0.919421 0.339444 0.754299
Si Si8 0.427562 0.444746 0.792861
O O1 0.250000 0.234608 0.730050
O O2 0.487527 0.220464 0.807259
O O3 0.494304 0.190244 0.683055
O O4 0.491154 0.294186 0.710784
O O5 0.750000 0.938300 0.457910
O O6 0.572854 0.854505 0.448022
O O7 0.468817 0.945916 0.495463
O O8 0.527190 0.936666 0.369950
O O9 0.250000 0.279099 0.997743
O O10 0.511732 0.296638 0.052997
O O11 0.498687 0.255296 0.932730
O O12 0.250000 0.765839 0.868937
O O13 0.084945 0.682211 0.831161
O O14 0.750000 0.324088 0.119956
O O15 0.979098 0.392755 0.109319
O O16 0.250000 0.954387 0.580451
O O17 0.000000 0.000000 0.607792
O O18 0.750000 0.345893 0.726110
O O19 0.004378 0.396111 0.749429
O O20 0.500000 0.500000 0.766503
O O21 0.250000 0.445678 0.782195
#
# Coordination Sequence:
#
# PCOD8191180 Si02
#       8
#     8   8   8   8   8   8   8   8
#     4  10  18  30  47  64  80 105 140 178 215 257
#     4   9  17  27  38  52  74 104 139 174 207 240
#     4  10  17  27  43  63  84 108 141 181 215 249
#     4   9  17  28  44  61  81 108 137 171 214 258
#     4  10  20  32  44  62  85 111 143 178 215 257
#     4  10  20  30  41  54  75 105 137 172 209 246
#     4   9  18  30  44  58  77 105 138 173 213 255
#     4  11  20  28  38  56  80 108 142 180 213 247
#
# _framework density 14.489837
#
# number of rings (size 3 to 8) (size 9 to 14) (size 15 to 20)
#    0.750    1.500    1.250    3.375    0.000    4.000 
#    0.000    0.000    0.000    0.000    0.000    0.000 
#    0.000    0.000    0.000    1.125    0.000   16.750 
#
# Total GULP energy -396625.911375 kJ/mol
# GULP energy per Si atom -12394.559730 kJ/mol
# Density = 1.445686 g / cm^3
# Si number density = 14.489837 Si / 1000 Ang^3
#
#
#
# Elastic Constant Matrix: (Units=GPa)
#
#
# Indices 1 2 3 4 5 6 
#
# 1 105.7383 37.9314 37.4593 0.0000 0.0000 0.0000
# 2 37.9314 63.8387 34.4130 0.0000 0.0000 0.0000
# 3 37.4593 34.4130 61.2370 0.0001 0.0000 0.0000
# 4 0.0000 0.0000 0.0001 17.0246 0.0000 0.0000
# 5 0.0000 0.0000 0.0000 0.0000 21.7403 0.0000
# 6 0.0000 0.0000 0.0000 0.0000 0.0000 22.8945
#
#
#
# Elastic Compliance Matrix: (Units=1/GPa)
#
#
# Indices 1 2 3 4 5 6 
#
# 1 0.013085 -0.004964 -0.005215 0.000000 0.000000 0.000000
# 2 -0.004964 0.024355 -0.010650 0.000000 0.000000 0.000000
# 3 -0.005215 -0.010650 0.025505 0.000000 0.000000 0.000000
# 4 0.000000 0.000000 0.000000 0.058739 0.000000 0.000000
# 5 0.000000 0.000000 0.000000 0.000000 0.045998 0.000000
# 6 0.000000 0.000000 0.000000 0.000000 0.000000 0.043679
#
#
# Mechanical properties :
#
#
# Convention : Reuss Voigt Hill
#
# Bulk Modulus (GPa) = 46.97603 50.04681 48.51142
# Shear Modulus (GPa) = 19.22232 20.39923 19.81077
#
# Velocity S-wave (km/s) = 3.64621 3.75618 3.70160
# Velocity P-wave (km/s) = 7.08639 7.30931 7.19871
#
# Compressibility (1/GPa) = 0.02128745
#
# Stress axis : x y z
#
# Youngs Moduli (GPa) = 76.42060 41.05933 39.20790
#
# Poissons Ratio (x) = 0.20381 0.20447
# Poissons Ratio (y) = 0.37934 0.41757
# Poissons Ratio (z) = 0.39853 0.43729
#
# Static dielectric constant tensor:
#      x y z
#    x 2.919170 0.000000 0.000000 
#    y 0.000000 2.662000 0.000000 
#    z 0.000000 0.000000 2.490990 
# 
# 
# High freq. dielectric constant tensor:
#      x y z
#    x 1.575090 0.000000 0.000000 
#    y 0.000000 1.523580 0.000000 
#    z 0.000000 0.000000 1.509860 
# 
# From -- ./inp_files/21513.got.cif
#   From: 2010.03.12/outbox.cif.g09.slc.cpg/sg46_11_cif.got.tgz:21513.got - 2010.04.14 02:56:35.
