data_PCOD8191110
_publ_section_title
;
Structure prediction by ZEFSAII (Michael W. Deem and Ramdas Pophale) SiO2 
 PCOD8191110
Probable space group: I B A 2
;
_chemical_formula_sum "Si O2"
_cell_formula_units_Z 48
_cell_length_a 8.369528
_cell_length_b 18.482862
_cell_length_c 12.925929
_cell_angle_alpha 90.000000
_cell_angle_beta 90.000000
_cell_angle_gamma 90.000000
_cell_volume 1999.548551
_symmetry_space_group_name_H-M "I B A 2"
_symmetry_group_IT_number 45
_symmetry_cell_setting 'orthorhombic'
loop_
_space_group_symop_operation_xyz
x,y,z
-x,-y,z
-x,y,1/2+z
x,-y,1/2+z
1/2+x,1/2+y,1/2+z
1/2-x,1/2-y,1/2+z
1/2-x,1/2+y,z
1/2+x,1/2-y,z
loop_
_atom_site_type_symbol
_atom_site_label
_atom_site_fract_x
_atom_site_fract_y
_atom_site_fract_z
Si Si1 0.136922 0.048500 0.339970
Si Si2 0.852140 0.448284 0.963453
Si Si3 0.789665 0.683585 0.341462
Si Si4 0.723322 0.138494 0.669042
Si Si5 0.527524 0.694143 0.934115
Si Si6 0.438156 0.281308 0.163277
O O1 0.267559 0.077742 0.258519
O O2 0.058451 0.113132 0.401922
O O3 0.210003 0.999492 0.429249
O O4 0.000000 0.000000 0.283219
O O5 0.884350 0.390161 0.870576
O O6 0.000000 0.500000 0.986326
O O7 0.802109 0.404674 0.064475
O O8 0.664212 0.702016 0.434523
O O9 0.911088 0.751524 0.342652
O O10 0.690708 0.675258 0.233855
O O11 0.575321 0.194540 0.689133
O O12 0.885436 0.185839 0.672497
O O13 0.610946 0.711631 0.042907
#
# Coordination Sequence:
#
# PCOD8191110 Si02
#       6
#     8   8   8   8   8   8
#     4  12  25  48  73 110 155 202 251 317 393 471
#     4  12  29  48  71 109 159 201 252 319 395 471
#     4  12  24  46  73 114 148 201 256 316 386 452
#     4  12  26  47  76 111 147 203 258 314 399 449
#     4  12  24  43  77 109 152 194 258 318 382 459
#     4  12  22  45  79 111 148 190 263 326 372 463
#
# _framework density 24.005417999999999
#
# number of rings (size 3 to 8) (size 9 to 14) (size 15 to 20)
#    0.000    0.000    8.333    0.000    2.333    6.667 
#    0.000    0.000    0.000    0.000    0.000    0.000 
#    0.000    0.000    0.000    0.000    0.000    0.000 
#
# Total GULP energy -297513.551548 kJ/mol
# GULP energy per Si atom -12396.397981 kJ/mol
# Density = 2.395078 g / cm^3
# Si number density = 24.005418 Si / 1000 Ang^3
#
#
#
# Elastic Constant Matrix: (Units=GPa)
#
#
# Indices 1 2 3 4 5 6 
#
# 1 77.5018 57.1003 14.5161 0.0000 0.0000 0.0000
# 2 57.1003 172.9420 42.6000 0.0002 0.0000 0.0000
# 3 14.5161 42.6000 110.6978 0.0002 0.0000 -0.0001
# 4 0.0000 0.0002 0.0002 36.3346 0.0000 0.0000
# 5 0.0000 0.0000 0.0000 0.0000 27.8466 0.0000
# 6 0.0000 0.0000 -0.0001 0.0000 0.0000 57.4430
#
#
#
# Elastic Compliance Matrix: (Units=1/GPa)
#
#
# Indices 1 2 3 4 5 6 
#
# 1 0.017051 -0.005611 -0.000077 0.000000 0.000000 0.000000
# 2 -0.005611 0.008234 -0.002433 0.000000 0.000000 0.000000
# 3 -0.000077 -0.002433 0.009980 0.000000 0.000000 0.000000
# 4 0.000000 0.000000 0.000000 0.027522 0.000000 0.000000
# 5 0.000000 0.000000 0.000000 0.000000 0.035911 0.000000
# 6 0.000000 0.000000 0.000000 0.000000 0.000000 0.017409
#
#
# Mechanical properties :
#
#
# Convention : Reuss Voigt Hill
#
# Bulk Modulus (GPa) = 52.56496 65.50828 59.03662
# Shear Modulus (GPa) = 36.05177 40.78652 38.41915
#
# Velocity S-wave (km/s) = 3.87953 4.12643 4.00489
# Velocity P-wave (km/s) = 6.48170 7.07470 6.78468
#
# Compressibility (1/GPa) = 0.01902408
#
# Stress axis : x y z
#
# Youngs Moduli (GPa) = 58.64689 121.44546 100.20085
#
# Poissons Ratio (x) = 0.68142 0.00769
# Poissons Ratio (y) = 0.32906 0.24379
# Poissons Ratio (z) = 0.00450 0.29548
#
# Static dielectric constant tensor:
#      x y z
#    x 4.540380 0.000000 0.000000 
#    y 0.000000 4.802150 0.000000 
#    z 0.000000 0.000000 4.562340 
# 
# 
# High freq. dielectric constant tensor:
#      x y z
#    x 1.947130 0.000000 0.000000 
#    y 0.000000 1.965200 0.000000 
#    z 0.000000 0.000000 1.962380 
# 
# From -- ./inp_files/5623.got.cif
#   From: 2010.03.12/outbox.cif.g09.slc.cpg/sg45_3_cif.got.tgz:5623.got - 2010.04.14 02:50:11.
