data_PCOD8191024
_publ_section_title
;
Structure prediction by ZEFSAII (Michael W. Deem and Ramdas Pophale) SiO2 
 PCOD8191024
Probable space group: I B A 2
;
_chemical_formula_sum "Si O2"
_cell_formula_units_Z 48
_cell_length_a 9.581284
_cell_length_b 18.987934
_cell_length_c 12.583437
_cell_angle_alpha 90.000000
_cell_angle_beta 90.000000
_cell_angle_gamma 90.000000
_cell_volume 2289.289445
_symmetry_space_group_name_H-M "I B A 2"
_symmetry_group_IT_number 45
_symmetry_cell_setting 'orthorhombic'
loop_
_space_group_symop_operation_xyz
x,y,z
-x,-y,z
-x,y,1/2+z
x,-y,1/2+z
1/2+x,1/2+y,1/2+z
1/2-x,1/2-y,1/2+z
1/2-x,1/2+y,z
1/2+x,1/2-y,z
loop_
_atom_site_type_symbol
_atom_site_label
_atom_site_fract_x
_atom_site_fract_y
_atom_site_fract_z
Si Si1 0.356372 0.373007 0.200290
Si Si2 0.133725 0.200158 0.927721
Si Si3 0.642442 0.475640 0.425679
Si Si4 0.666410 0.001106 0.741370
Si Si5 0.849891 0.086621 0.603650
Si Si6 0.161974 0.813712 0.985251
O O1 0.350714 0.340049 0.316898
O O2 0.237108 0.432607 0.188832
O O3 0.511973 0.400595 0.173966
O O4 0.316111 0.313625 0.112775
O O5 0.186516 0.150860 0.024762
O O6 0.216205 0.273397 0.924915
O O7 0.977904 0.226185 0.950493
O O8 0.500000 0.500000 0.361854
O O9 0.782249 0.496539 0.363316
O O10 0.633914 0.515454 0.536902
O O11 0.640148 0.393190 0.446334
O O12 0.721133 0.072477 0.683779
O O13 0.500000 0.000000 0.735434
#
# Coordination Sequence:
#
# PCOD8191024 Si02
#       6
#     8   8   8   8   8   8
#     4  11  22  45  71  97 130 191 245 277 353 435
#     4  11  25  43  67 101 139 183 231 292 362 433
#     4  12  20  44  74  98 126 186 250 290 340 429
#     4  12  25  37  65 106 140 173 226 308 367 408
#     4  11  22  44  74  96 131 188 250 293 339 438
#     4  11  25  42  68 101 139 184 229 301 353 428
#
# _framework density 20.967205
#
# number of rings (size 3 to 8) (size 9 to 14) (size 15 to 20)
#    0.000    0.667    6.667    2.500    0.000    7.333 
#    0.000    0.000    0.000    0.000    0.000    0.000 
#    0.000    0.000    0.000    0.000    0.000    0.000 
#
# Total GULP energy -297494.902522 kJ/mol
# GULP energy per Si atom -12395.620938 kJ/mol
# Density = 2.091948 g / cm^3
# Si number density = 20.967205 Si / 1000 Ang^3
#
#
#
# Elastic Constant Matrix: (Units=GPa)
#
#
# Indices 1 2 3 4 5 6 
#
# 1 147.0910 54.3561 38.6778 0.0001 0.0000 0.0000
# 2 54.3561 104.8059 36.1083 0.0000 0.0000 0.0000
# 3 38.6778 36.1083 99.7012 0.0001 0.0000 0.0000
# 4 0.0001 0.0000 0.0001 28.6780 0.0000 0.0000
# 5 0.0000 0.0000 0.0000 0.0000 26.4195 0.0000
# 6 0.0000 0.0000 0.0000 0.0000 0.0000 31.3502
#
#
#
# Elastic Compliance Matrix: (Units=1/GPa)
#
#
# Indices 1 2 3 4 5 6 
#
# 1 0.008746 -0.003847 -0.002000 0.000000 0.000000 0.000000
# 2 -0.003847 0.012594 -0.003069 0.000000 0.000000 0.000000
# 3 -0.002000 -0.003069 0.011917 0.000000 0.000000 0.000000
# 4 0.000000 0.000000 0.000000 0.034870 0.000000 0.000000
# 5 0.000000 0.000000 0.000000 0.000000 0.037851 0.000000
# 6 0.000000 0.000000 0.000000 0.000000 0.000000 0.031898
#
#
# Mechanical properties :
#
#
# Convention : Reuss Voigt Hill
#
# Bulk Modulus (GPa) = 64.82452 67.76474 66.29463
# Shear Modulus (GPa) = 31.08522 32.11994 31.60258
#
# Velocity S-wave (km/s) = 3.85459 3.91821 3.88653
# Velocity P-wave (km/s) = 7.12704 7.27045 7.19910
#
# Compressibility (1/GPa) = 0.01542626
#
# Stress axis : x y z
#
# Youngs Moduli (GPa) = 114.33863 79.40351 83.91338
#
# Poissons Ratio (x) = 0.30547 0.16779
# Poissons Ratio (y) = 0.43987 0.25750
# Poissons Ratio (z) = 0.22863 0.24366
#
# Static dielectric constant tensor:
#      x y z
#    x 3.725670 0.000000 0.000000 
#    y 0.000000 3.705050 0.000000 
#    z 0.000000 0.000000 4.152800 
# 
# 
# High freq. dielectric constant tensor:
#      x y z
#    x 1.806870 0.000000 0.000000 
#    y 0.000000 1.812040 0.000000 
#    z 0.000000 0.000000 1.838590 
# 
# From -- ./inp_files/5589.got.cif
#   From: 2010.03.12/outbox.cif.g09.slc.cpg/sg45_3_cif.got.tgz:5589.got - 2010.04.14 02:50:11.
