data_PCOD8191439
_publ_section_title
;
Structure prediction by ZEFSAII (Michael W. Deem and Ramdas Pophale) SiO2 
 PCOD8191439
Probable space group: I M A 2
;
_chemical_formula_sum "Si O2"
_cell_formula_units_Z 64
_cell_length_a 8.785298
_cell_length_b 28.176460
_cell_length_c 14.801706
_cell_angle_alpha 90.000000
_cell_angle_beta 90.000000
_cell_angle_gamma 90.000000
_cell_volume 3663.993547
_symmetry_space_group_name_H-M "I M A 2"
_symmetry_group_IT_number 46
_symmetry_cell_setting 'orthorhombic'
loop_
_space_group_symop_operation_xyz
x,y,z
-x,-y,z
1/2-x,y,z
1/2+x,-y,z
1/2+x,1/2+y,1/2+z
1/2-x,1/2-y,1/2+z
-x,1/2+y,1/2+z
x,1/2-y,1/2+z
loop_
_atom_site_type_symbol
_atom_site_label
_atom_site_fract_x
_atom_site_fract_y
_atom_site_fract_z
Si Si1 0.930867 0.360253 0.820150
Si Si2 0.929295 0.174148 0.132746
Si Si3 0.429807 0.863625 0.751363
Si Si4 0.430725 0.719551 0.124933
Si Si5 0.929363 0.049273 0.431176
Si Si6 0.569752 0.778800 0.436656
Si Si7 0.930192 0.049207 0.637113
Si Si8 0.569514 0.176886 0.934675
O O1 0.750000 0.354728 0.832147
O O2 0.980798 0.360778 0.713788
O O3 0.989626 0.408519 0.866881
O O4 0.012095 0.314884 0.861444
O O5 0.750000 0.176043 0.131729
O O6 0.988661 0.227725 0.150422
O O7 0.985100 0.156994 0.032983
O O8 0.250000 0.866425 0.741715
O O9 0.488411 0.816074 0.702235
O O10 0.498588 0.910065 0.702604
O O11 0.478624 0.860717 0.856883
O O12 0.250000 0.717539 0.111909
O O13 0.506317 0.702762 0.031966
O O14 0.750000 0.044487 0.424045
O O15 0.980584 0.060188 0.534048
O O16 0.000000 0.000000 0.396606
O O17 0.750000 0.777646 0.438381
O O18 0.507506 0.726873 0.413050
O O19 0.750000 0.045811 0.643998
O O20 0.000000 0.000000 0.671125
O O21 0.750000 0.185633 0.933108
#
# Coordination Sequence:
#
# PCOD8191439 Si02
#       8
#     8   8   8   8   8   8   8   8
#     4  10  18  31  50  69  89 121 159 192 224 267
#     4   8  15  27  47  70  89 113 152 192 225 259
#     4   9  16  28  51  73  88 114 158 197 225 263
#     4   9  16  29  47  67  91 121 154 190 226 268
#     4   9  18  31  49  69  92 117 145 183 228 274
#     4  11  21  30  42  67  99 127 152 186 228 273
#     4   9  17  30  46  68  92 116 145 182 228 276
#     4   9  17  32  50  67  89 121 157 194 226 262
#
# _framework density 17.467279000000001
#
# number of rings (size 3 to 8) (size 9 to 14) (size 15 to 20)
#    0.000    2.750    0.000    3.375    0.000    4.500 
#    0.000    9.375    0.000    0.750    0.000    0.000 
#    0.000    0.000    0.000    0.000    0.000    0.000 
#
# Total GULP energy -396614.845481 kJ/mol
# GULP energy per Si atom -12394.213921 kJ/mol
# Density = 1.742752 g / cm^3
# Si number density = 17.467279 Si / 1000 Ang^3
#
#
#
# Elastic Constant Matrix: (Units=GPa)
#
#
# Indices 1 2 3 4 5 6 
#
# 1 30.5736 14.9618 19.5343 0.0001 -0.0001 0.0000
# 2 14.9618 101.7259 84.5425 0.0001 -0.0001 0.0000
# 3 19.5343 84.5425 149.5391 0.0008 -0.0007 -0.0001
# 4 0.0001 0.0001 0.0008 31.5944 -0.0002 0.0000
# 5 -0.0001 -0.0001 -0.0007 -0.0002 8.2077 0.0001
# 6 0.0000 0.0000 -0.0001 0.0000 0.0001 20.4536
#
#
#
# Elastic Compliance Matrix: (Units=1/GPa)
#
#
# Indices 1 2 3 4 5 6 
#
# 1 0.036053 -0.002619 -0.003229 0.000000 0.000000 0.000000
# 2 -0.002619 0.018733 -0.010249 0.000000 -0.000001 0.000000
# 3 -0.003229 -0.010249 0.012903 0.000000 0.000001 0.000000
# 4 0.000000 0.000000 0.000000 0.031651 0.000001 0.000000
# 5 0.000000 -0.000001 0.000001 0.000001 0.121837 -0.000001
# 6 0.000000 0.000000 0.000000 0.000000 -0.000001 0.048891
#
#
# Mechanical properties :
#
#
# Convention : Reuss Voigt Hill
#
# Bulk Modulus (GPa) = 28.17260 57.76843 42.97052
# Shear Modulus (GPa) = 15.91882 22.90447 19.41165
#
# Velocity S-wave (km/s) = 3.02213 3.62509 3.33726
# Velocity P-wave (km/s) = 5.32368 7.11799 6.28520
#
# Compressibility (1/GPa) = 0.03549548
#
# Stress axis : x y z
#
# Youngs Moduli (GPa) = 27.73723 53.38166 77.50077
#
# Poissons Ratio (x) = 0.13982 0.25023
# Poissons Ratio (y) = 0.07265 0.79428
# Poissons Ratio (z) = 0.08956 0.54709
#
# Static dielectric constant tensor:
#      x y z
#    x 2.908070 0.000000 0.000000 
#    y 0.000000 3.238400 0.000000 
#    z 0.000000 0.000000 3.691380 
# 
# 
# High freq. dielectric constant tensor:
#      x y z
#    x 1.640860 0.000000 0.000000 
#    y 0.000000 1.653890 0.000000 
#    z 0.000000 0.000000 1.681670 
# 
# From -- ./inp_files/14758.got.cif
#   From: 2010.03.12/outbox.cif.g09.slc.cpg/sg46_8_cif.got.tgz:14758.got - 2010.04.14 02:56:35.
