data_PCOD8191841
_publ_section_title
;
Structure prediction by ZEFSAII (Michael W. Deem and Ramdas Pophale) SiO2 
 PCOD8191841
Probable space group: I M A 2
;
_chemical_formula_sum "Si O2"
_cell_formula_units_Z 64
_cell_length_a 8.571394
_cell_length_b 29.803242
_cell_length_c 14.354576
_cell_angle_alpha 90.000000
_cell_angle_beta 90.000000
_cell_angle_gamma 90.000000
_cell_volume 3666.952944
_symmetry_space_group_name_H-M "I M A 2"
_symmetry_group_IT_number 46
_symmetry_cell_setting 'orthorhombic'
loop_
_space_group_symop_operation_xyz
x,y,z
-x,-y,z
1/2-x,y,z
1/2+x,-y,z
1/2+x,1/2+y,1/2+z
1/2-x,1/2-y,1/2+z
-x,1/2+y,1/2+z
x,1/2-y,1/2+z
loop_
_atom_site_type_symbol
_atom_site_label
_atom_site_fract_x
_atom_site_fract_y
_atom_site_fract_z
Si Si1 0.931485 0.301987 0.914940
Si Si2 0.566589 0.047233 0.185417
Si Si3 0.433675 0.216339 0.810194
Si Si4 0.929797 0.135099 0.918314
Si Si5 0.069907 0.129297 0.280464
Si Si6 0.434349 0.451736 0.483588
Si Si7 0.076440 0.326177 0.589878
Si Si8 0.073647 0.222206 0.600356
O O1 0.750000 0.307033 0.897596
O O2 0.986151 0.255639 0.868535
O O3 0.015761 0.345599 0.873131
O O4 0.967998 0.303408 0.025107
O O5 0.750000 0.043183 0.167514
O O6 0.529055 0.084170 0.263725
O O7 0.500000 0.000000 0.221665
O O8 0.483526 0.061033 0.088877
O O9 0.250000 0.225830 0.812739
O O10 0.471610 0.167853 0.852525
O O11 0.495325 0.215798 0.703930
O O12 0.750000 0.136513 0.888877
O O13 0.995667 0.084497 0.911076
O O14 0.948440 0.150371 0.025403
O O15 0.250000 0.115856 0.289303
O O16 0.038345 0.164183 0.197022
O O17 0.500000 0.500000 0.454632
O O18 0.250000 0.452299 0.476241
O O19 0.250000 0.344563 0.564069
O O20 0.070251 0.273809 0.571894
O O21 0.250000 0.203503 0.595315
#
# Coordination Sequence:
#
# PCOD8191841 Si02
#       8
#     8   8   8   8   8   8   8   8
#     4  12  24  35  52  79 109 140 178 225 271 319
#     4  11  21  34  52  78 109 141 178 221 268 320
#     4  11  22  38  56  75 103 142 185 224 266 319
#     4  12  23  34  51  79 109 142 180 221 267 321
#     4  11  21  36  55  76 105 145 185 221 264 319
#     4  11  21  35  53  76 107 143 179 219 266 319
#     4  10  19  32  52  74 103 143 183 220 261 311
#     4  10  21  38  56  73 101 142 185 225 266 314
#
# _framework density 17.453184
#
# number of rings (size 3 to 8) (size 9 to 14) (size 15 to 20)
#    0.000    1.000    3.750    6.000    0.000    1.500 
#    0.000    0.000    0.000    0.000    0.000    0.875 
#    0.000    6.000    0.000    0.000    0.000    0.000 
#
# Total GULP energy -396906.044905 kJ/mol
# GULP energy per Si atom -12403.313903 kJ/mol
# Density = 1.741346 g / cm^3
# Si number density = 17.453184 Si / 1000 Ang^3
#
#
#
# Elastic Constant Matrix: (Units=GPa)
#
#
# Indices 1 2 3 4 5 6 
#
# 1 81.3043 11.6163 13.4543 0.0000 0.0001 0.0000
# 2 11.6163 83.7046 19.7209 0.0000 0.0000 0.0000
# 3 13.4543 19.7209 67.2841 0.0006 0.0004 0.0001
# 4 0.0000 0.0000 0.0006 24.5086 0.0001 0.0000
# 5 0.0001 0.0000 0.0004 0.0001 17.9691 0.0001
# 6 0.0000 0.0000 0.0001 0.0000 0.0001 28.7529
#
#
#
# Elastic Compliance Matrix: (Units=1/GPa)
#
#
# Indices 1 2 3 4 5 6 
#
# 1 0.012844 -0.001265 -0.002198 0.000000 0.000000 0.000000
# 2 -0.001265 0.012957 -0.003545 0.000000 0.000000 0.000000
# 3 -0.002198 -0.003545 0.016341 0.000000 0.000000 0.000000
# 4 0.000000 0.000000 0.000000 0.040802 0.000000 0.000000
# 5 0.000000 0.000000 0.000000 0.000000 0.055651 0.000000
# 6 0.000000 0.000000 0.000000 0.000000 0.000000 0.034779
#
#
# Mechanical properties :
#
#
# Convention : Reuss Voigt Hill
#
# Bulk Modulus (GPa) = 35.55220 35.76402 35.65811
# Shear Modulus (GPa) = 25.41107 26.74621 26.07864
#
# Velocity S-wave (km/s) = 3.81984 3.91890 3.86969
# Velocity P-wave (km/s) = 6.31420 6.40414 6.35933
#
# Compressibility (1/GPa) = 0.02812765
#
# Stress axis : x y z
#
# Youngs Moduli (GPa) = 77.85842 77.17551 61.19646
#
# Poissons Ratio (x) = 0.09760 0.13449
# Poissons Ratio (y) = 0.09847 0.21694
# Poissons Ratio (z) = 0.17110 0.27358
#
# Static dielectric constant tensor:
#      x y z
#    x 3.280300 0.000000 0.000000 
#    y 0.000000 3.322330 0.000000 
#    z 0.000000 0.000000 3.106940 
# 
# 
# High freq. dielectric constant tensor:
#      x y z
#    x 1.685270 0.000000 0.000000 
#    y 0.000000 1.669980 0.000000 
#    z 0.000000 0.000000 1.643860 
# 
# From -- ./inp_files/14772.got.cif
#   From: 2010.03.12/outbox.cif.g09.slc.cpg/sg46_8_cif.got.tgz:14772.got - 2010.04.14 02:56:35.
