data_PCOD8191622
_publ_section_title
;
Structure prediction by ZEFSAII (Michael W. Deem and Ramdas Pophale) SiO2 
 PCOD8191622
Probable space group: I M A 2
;
_chemical_formula_sum "Si O2"
_cell_formula_units_Z 60
_cell_length_a 15.998603
_cell_length_b 10.484596
_cell_length_c 18.960557
_cell_angle_alpha 90.000000
_cell_angle_beta 90.000000
_cell_angle_gamma 90.000000
_cell_volume 3180.422766
_symmetry_space_group_name_H-M "I M A 2"
_symmetry_group_IT_number 46
_symmetry_cell_setting 'orthorhombic'
loop_
_space_group_symop_operation_xyz
x,y,z
-x,-y,z
1/2-x,y,z
1/2+x,-y,z
1/2+x,1/2+y,1/2+z
1/2-x,1/2-y,1/2+z
-x,1/2+y,1/2+z
x,1/2-y,1/2+z
loop_
_atom_site_type_symbol
_atom_site_label
_atom_site_fract_x
_atom_site_fract_y
_atom_site_fract_z
Si Si1 0.155062 0.991808 0.615800
Si Si2 0.419194 0.587180 0.403019
Si Si3 0.959807 0.704292 0.914270
Si Si4 0.500000 0.000000 0.523723
Si Si5 0.970270 0.642000 0.756022
Si Si6 0.344988 0.109597 0.989502
Si Si7 0.845880 0.708996 0.636322
Si Si8 0.427137 0.603449 0.246699
O O1 0.250000 0.963989 0.587116
O O2 0.140988 0.141791 0.624055
O O3 0.077637 0.940578 0.568117
O O4 0.146018 0.919048 0.690248
O O5 0.500000 0.500000 0.410503
O O6 0.447818 0.731983 0.418105
O O7 0.353744 0.537472 0.462316
O O8 0.384818 0.579355 0.323099
O O9 0.954231 0.601195 0.974817
O O10 0.942001 0.645807 0.837511
O O11 0.887429 0.805796 0.929110
O O12 0.891244 0.666514 0.706911
O O13 0.000000 0.500000 0.737705
O O14 0.039095 0.751490 0.740847
O O15 0.250000 0.152561 0.993199
O O16 0.383041 0.133232 0.067779
O O17 0.750000 0.672783 0.647922
O O18 0.500000 0.500000 0.232954
#
# Coordination Sequence:
#
# PCOD8191622 Si02
#       8
#     8   8   8   4   8   8   8   8
#     4  11  22  37  61  90 116 155 204 246 297 354
#     4   8  18  34  55  82 112 144 190 235 287 344
#     4  10  21  36  58  85 113 150 196 235 293 363
#     4  12  20  38  62  82 120 156 188 246 296 346
#     4  11  22  38  60  87 115 158 200 238 297 363
#     4  10  20  36  58  86 116 148 193 248 295 345
#     4  10  21  37  56  84 118 150 196 248 293 350
#     4  10  18  37  59  85 117 153 195 245 294 347
#
# _framework density 18.865416
#
# number of rings (size 3 to 8) (size 9 to 14) (size 15 to 20)
#    0.000    1.867    4.000    0.800    0.000    2.667 
#    0.000    1.333    0.000    1.600    0.000    0.000 
#    0.000    0.000    0.000    0.000    0.000    0.000 
#
# Total GULP energy -371794.816354 kJ/mol
# GULP energy per Si atom -12393.160545 kJ/mol
# Density = 1.882248 g / cm^3
# Si number density = 18.865416 Si / 1000 Ang^3
#
#
#
# Elastic Constant Matrix: (Units=GPa)
#
#
# Indices 1 2 3 4 5 6 
#
# 1 75.2357 15.2156 46.7318 0.0000 0.0000 0.0000
# 2 15.2156 73.8291 28.1894 0.0000 0.0000 0.0000
# 3 46.7318 28.1894 117.6905 0.0000 0.0000 0.0000
# 4 0.0000 0.0000 0.0000 28.0399 0.0000 0.0000
# 5 0.0000 0.0000 0.0000 0.0000 24.7644 0.0000
# 6 0.0000 0.0000 0.0000 0.0000 0.0000 21.9436
#
#
#
# Elastic Compliance Matrix: (Units=1/GPa)
#
#
# Indices 1 2 3 4 5 6 
#
# 1 0.017718 -0.001063 -0.006781 0.000000 0.000000 0.000000
# 2 -0.001063 0.014972 -0.003164 0.000000 0.000000 0.000000
# 3 -0.006781 -0.003164 0.011947 0.000000 0.000000 0.000000
# 4 0.000000 0.000000 0.000000 0.035663 0.000000 0.000000
# 5 0.000000 0.000000 0.000000 0.000000 0.040381 0.000000
# 6 0.000000 0.000000 0.000000 0.000000 0.000000 0.045571
#
#
# Mechanical properties :
#
#
# Convention : Reuss Voigt Hill
#
# Bulk Modulus (GPa) = 44.20438 49.66988 46.93713
# Shear Modulus (GPa) = 25.53506 26.72415 26.12960
#
# Velocity S-wave (km/s) = 3.68304 3.76782 3.72567
# Velocity P-wave (km/s) = 6.44738 6.73159 6.59101
#
# Compressibility (1/GPa) = 0.02262219
#
# Stress axis : x y z
#
# Youngs Moduli (GPa) = 56.43855 66.79171 83.70085
#
# Poissons Ratio (x) = 0.07097 0.56758
# Poissons Ratio (y) = 0.05997 0.26485
# Poissons Ratio (z) = 0.38271 0.21134
#
# Static dielectric constant tensor:
#      x y z
#    x 3.328960 0.000000 0.000000 
#    y 0.000000 3.969910 0.000000 
#    z 0.000000 0.000000 3.658290 
# 
# 
# High freq. dielectric constant tensor:
#      x y z
#    x 1.705570 0.000000 0.000000 
#    y 0.000000 1.720940 0.000000 
#    z 0.000000 0.000000 1.746460 
# 
# From -- ./inp_files/16714.got.cif
#   From: 2010.03.12/outbox.cif.g09.slc.cpg/sg46_9_cif.got.tgz:16714.got - 2010.04.14 02:56:35.
