data_PCOD8191099
_publ_section_title
;
Structure prediction by ZEFSAII (Michael W. Deem and Ramdas Pophale) SiO2 
 PCOD8191099
Probable space group: I B A 2
;
_chemical_formula_sum "Si O2"
_cell_formula_units_Z 64
_cell_length_a 11.195722
_cell_length_b 22.957749
_cell_length_c 11.982748
_cell_angle_alpha 90.000000
_cell_angle_beta 90.000000
_cell_angle_gamma 90.000000
_cell_volume 3079.908650
_symmetry_space_group_name_H-M "I B A 2"
_symmetry_group_IT_number 45
_symmetry_cell_setting 'orthorhombic'
loop_
_space_group_symop_operation_xyz
x,y,z
-x,-y,z
-x,y,1/2+z
x,-y,1/2+z
1/2+x,1/2+y,1/2+z
1/2-x,1/2-y,1/2+z
1/2-x,1/2+y,z
1/2+x,1/2-y,z
loop_
_atom_site_type_symbol
_atom_site_label
_atom_site_fract_x
_atom_site_fract_y
_atom_site_fract_z
Si Si1 0.214886 0.119894 0.020550
Si Si2 0.458599 0.714181 0.964580
Si Si3 0.351616 0.436467 0.285547
Si Si4 0.803368 0.161677 0.915935
Si Si5 0.691540 0.141368 0.143537
Si Si6 0.876483 0.930237 0.243432
Si Si7 0.314571 0.252680 0.267078
Si Si8 0.554932 0.175370 0.591754
O O1 0.172931 0.077041 0.118639
O O2 0.357684 0.132537 0.021947
O O3 0.148486 0.182610 0.031972
O O4 0.180026 0.088669 0.906165
O O5 0.569827 0.670743 0.975583
O O6 0.425626 0.718763 0.833248
O O7 0.487442 0.777191 0.015368
O O8 0.253183 0.414980 0.196978
O O9 0.482764 0.415448 0.247199
O O10 0.348206 0.505812 0.288473
O O11 0.803503 0.112502 0.822642
O O12 0.767683 0.223225 0.861400
O O13 0.712675 0.142303 0.011214
O O14 0.739463 0.199012 0.203602
O O15 0.547534 0.138165 0.155167
O O16 0.361308 0.204984 0.182527
#
# Coordination Sequence:
#
# PCOD8191099 Si02
#       8
#     8   8   8   8   8   8   8   8
#     4  12  25  47  69 101 139 184 232 280 353 418
#     4  12  23  40  65 101 138 177 222 279 342 414
#     4  11  27  45  76  99 131 178 236 299 348 402
#     4  12  23  40  66  96 138 173 225 284 342 403
#     4  12  25  42  65 101 140 182 227 280 343 415
#     4  11  26  47  71 101 129 176 233 302 345 398
#     4  12  23  40  63 100 138 182 222 276 345 414
#     4  12  26  40  65  97 149 184 220 273 345 424
#
# _framework density 20.779837000000001
#
# number of rings (size 3 to 8) (size 9 to 14) (size 15 to 20)
#    0.000    0.250    6.250    3.000    5.250    1.000 
#    0.000    0.625    0.000    0.000    0.000    0.000 
#    0.000    0.000    0.000    0.000    0.000    0.000 
#
# Total GULP energy -396953.639449 kJ/mol
# GULP energy per Si atom -12404.801233 kJ/mol
# Density = 2.073254 g / cm^3
# Si number density = 20.779837 Si / 1000 Ang^3
#
#
#
# Elastic Constant Matrix: (Units=GPa)
#
#
# Indices 1 2 3 4 5 6 
#
# 1 128.3170 41.0283 36.5945 0.0000 0.0002 -0.0001
# 2 41.0283 81.3432 28.4731 0.0004 0.0000 0.0000
# 3 36.5945 28.4731 97.4974 0.0007 0.0005 -0.0003
# 4 0.0000 0.0004 0.0007 31.0504 -0.0001 0.0000
# 5 0.0002 0.0000 0.0005 -0.0001 31.9237 -0.0001
# 6 -0.0001 0.0000 -0.0003 0.0000 -0.0001 28.6229
#
#
#
# Elastic Compliance Matrix: (Units=1/GPa)
#
#
# Indices 1 2 3 4 5 6 
#
# 1 0.009806 -0.004074 -0.002491 0.000000 0.000000 0.000000
# 2 -0.004074 0.015386 -0.002964 0.000000 0.000000 0.000000
# 3 -0.002491 -0.002964 0.012057 0.000000 0.000000 0.000000
# 4 0.000000 0.000000 0.000000 0.032206 0.000000 0.000000
# 5 0.000000 0.000000 0.000000 0.000000 0.031325 0.000000
# 6 0.000000 0.000000 0.000000 0.000000 0.000000 0.034937
#
#
# Mechanical properties :
#
#
# Convention : Reuss Voigt Hill
#
# Bulk Modulus (GPa) = 54.97162 57.70548 56.33855
# Shear Modulus (GPa) = 31.08693 31.72350 31.40522
#
# Velocity S-wave (km/s) = 3.87203 3.91147 3.89180
# Velocity P-wave (km/s) = 6.81923 6.94476 6.88228
#
# Compressibility (1/GPa) = 0.01819121
#
# Stress axis : x y z
#
# Youngs Moduli (GPa) = 101.97569 64.99356 82.93779
#
# Poissons Ratio (x) = 0.26480 0.20658
# Poissons Ratio (y) = 0.41547 0.24584
# Poissons Ratio (z) = 0.25400 0.19265
#
# Static dielectric constant tensor:
#      x y z
#    x 3.967930 0.000000 0.000000 
#    y 0.000000 3.654890 0.000000 
#    z 0.000000 0.000000 3.846280 
# 
# 
# High freq. dielectric constant tensor:
#      x y z
#    x 1.820520 0.000000 0.000000 
#    y 0.000000 1.796360 0.000000 
#    z 0.000000 0.000000 1.824350 
# 
# From -- ./inp_files/3886.got.cif
#   From: 2010.03.12/outbox.cif.g09.slc.cpg/sg45_2_cif.got.tgz:3886.got - 2010.04.14 02:50:11.
