data_PCOD8191471
_publ_section_title
;
Structure prediction by ZEFSAII (Michael W. Deem and Ramdas Pophale) SiO2 
 PCOD8191471
Probable space group: I M A 2
;
_chemical_formula_sum "Si O2"
_cell_formula_units_Z 56
_cell_length_a 9.223024
_cell_length_b 15.468501
_cell_length_c 19.391377
_cell_angle_alpha 90.000000
_cell_angle_beta 90.000000
_cell_angle_gamma 90.000000
_cell_volume 2766.497094
_symmetry_space_group_name_H-M "I M A 2"
_symmetry_group_IT_number 46
_symmetry_cell_setting 'orthorhombic'
loop_
_space_group_symop_operation_xyz
x,y,z
-x,-y,z
1/2-x,y,z
1/2+x,-y,z
1/2+x,1/2+y,1/2+z
1/2-x,1/2-y,1/2+z
-x,1/2+y,1/2+z
x,1/2-y,1/2+z
loop_
_atom_site_type_symbol
_atom_site_label
_atom_site_fract_x
_atom_site_fract_y
_atom_site_fract_z
Si Si1 0.408335 0.422231 0.949000
Si Si2 0.421904 0.242862 0.894366
Si Si3 0.589413 0.234587 0.261181
Si Si4 0.088873 0.126527 0.596930
Si Si5 0.909182 0.071629 0.723424
Si Si6 0.417337 0.792894 0.106237
Si Si7 0.078853 0.592106 0.477650
O O1 0.500000 0.500000 0.915068
O O2 0.250000 0.429165 0.914662
O O3 0.468659 0.325571 0.939251
O O4 0.401740 0.435394 0.030885
O O5 0.250000 0.222514 0.896178
O O6 0.467743 0.278595 0.818700
O O7 0.509409 0.159958 0.923134
O O8 0.750000 0.199449 0.282165
O O9 0.598645 0.337845 0.260066
O O10 0.543088 0.191750 0.187608
O O11 0.250000 0.144547 0.626345
O O12 0.990811 0.078225 0.651325
O O13 0.018744 0.218426 0.576360
O O14 0.750000 0.033770 0.709617
O O15 0.000000 0.000000 0.767836
O O16 0.250000 0.762055 0.103476
O O17 0.442305 0.876186 0.057198
O O18 0.250000 0.582807 0.460586
O O19 0.000000 0.500000 0.469726
#
# Coordination Sequence:
#
# PCOD8191471 Si02
#       7
#     8   8   8   8   8   8   8
#     4  10  22  36  54  82 114 148 187 234 286 346
#     4  11  23  41  60  87 123 158 202 255 306 367
#     4   9  20  38  58  81 113 156 200 246 302 367
#     4  10  18  31  53  81 114 147 180 227 284 337
#     4  10  20  33  50  77 112 145 187 233 282 348
#     4   9  19  37  60  86 116 152 197 244 296 357
#     4  11  23  40  65  94 124 166 210 259 316 370
#
# _framework density 20.242204000000001
#
# number of rings (size 3 to 8) (size 9 to 14) (size 15 to 20)
#    0.000    2.000    1.429    3.000    0.000    7.429 
#    0.000    2.143    0.000    3.429    0.000    0.000 
#    0.000    0.000    0.000    0.000    0.000    0.000 
#
# Total GULP energy -346872.963730 kJ/mol
# GULP energy per Si atom -12388.320133 kJ/mol
# Density = 2.019613 g / cm^3
# Si number density = 20.242204 Si / 1000 Ang^3
#
#
#
# Elastic Constant Matrix: (Units=GPa)
#
#
# Indices 1 2 3 4 5 6 
#
# 1 123.0631 45.8605 33.5166 0.0000 0.0000 0.0000
# 2 45.8605 89.6306 11.9508 0.0000 0.0000 0.0000
# 3 33.5166 11.9508 82.8105 0.0000 0.0000 0.0000
# 4 0.0000 0.0000 0.0000 11.8788 0.0000 0.0000
# 5 0.0000 0.0000 0.0000 0.0000 24.6581 0.0000
# 6 0.0000 0.0000 0.0000 0.0000 0.0000 32.6008
#
#
#
# Elastic Compliance Matrix: (Units=1/GPa)
#
#
# Indices 1 2 3 4 5 6 
#
# 1 0.011068 -0.005165 -0.003734 0.000000 0.000000 0.000000
# 2 -0.005165 0.013786 0.000101 0.000000 0.000000 0.000000
# 3 -0.003734 0.000101 0.013573 0.000000 0.000000 0.000000
# 4 0.000000 0.000000 0.000000 0.084183 0.000000 0.000000
# 5 0.000000 0.000000 0.000000 0.000000 0.040555 0.000000
# 6 0.000000 0.000000 0.000000 0.000000 0.000000 0.030674
#
#
# Mechanical properties :
#
#
# Convention : Reuss Voigt Hill
#
# Bulk Modulus (GPa) = 48.00773 53.12889 50.56831
# Shear Modulus (GPa) = 22.89603 27.43929 25.16766
#
# Velocity S-wave (km/s) = 3.36684 3.68577 3.52991
# Velocity P-wave (km/s) = 6.23556 6.66459 6.45364
#
# Compressibility (1/GPa) = 0.02082998
#
# Stress axis : x y z
#
# Youngs Moduli (GPa) = 90.35289 72.53638 73.67807
#
# Poissons Ratio (x) = 0.37465 0.27512
# Poissons Ratio (y) = 0.46668 -0.00744
# Poissons Ratio (z) = 0.33739 -0.00732
#
# Static dielectric constant tensor:
#      x y z
#    x 4.056980 0.000000 0.000000 
#    y 0.000000 3.793800 0.000000 
#    z 0.000000 0.000000 3.586310 
# 
# 
# High freq. dielectric constant tensor:
#      x y z
#    x 1.801300 0.000000 0.000000 
#    y 0.000000 1.775670 0.000000 
#    z 0.000000 0.000000 1.776940 
# 
# From -- ./inp_files/21035.got.cif
#   From: 2010.03.12/outbox.cif.g09.slc.cpg/sg46_11_cif.got.tgz:21035.got - 2010.04.14 02:56:35.
