data_PCOD8191315
_publ_section_title
;
Structure prediction by ZEFSAII (Michael W. Deem and Ramdas Pophale) SiO2 
 PCOD8191315
Probable space group: I M A 2
;
_chemical_formula_sum "Si O2"
_cell_formula_units_Z 64
_cell_length_a 8.946554
_cell_length_b 14.653797
_cell_length_c 28.110258
_cell_angle_alpha 90.000000
_cell_angle_beta 90.000000
_cell_angle_gamma 90.000000
_cell_volume 3685.282545
_symmetry_space_group_name_H-M "I M A 2"
_symmetry_group_IT_number 46
_symmetry_cell_setting 'orthorhombic'
loop_
_space_group_symop_operation_xyz
x,y,z
-x,-y,z
1/2-x,y,z
1/2+x,-y,z
1/2+x,1/2+y,1/2+z
1/2-x,1/2-y,1/2+z
-x,1/2+y,1/2+z
x,1/2-y,1/2+z
loop_
_atom_site_type_symbol
_atom_site_label
_atom_site_fract_x
_atom_site_fract_y
_atom_site_fract_z
Si Si1 0.927954 0.910426 0.609880
Si Si2 0.925056 0.154318 0.518557
Si Si3 0.581301 0.671805 0.549547
Si Si4 0.072632 0.095409 0.232766
Si Si5 0.926495 0.789105 0.427700
Si Si6 0.424444 0.093774 0.339684
Si Si7 0.418262 0.411064 0.454594
Si Si8 0.078040 0.280702 0.650342
O O1 0.750000 0.916787 0.610053
O O2 0.987207 0.819786 0.637727
O O3 0.988369 0.910220 0.555653
O O4 0.000000 0.000000 0.634860
O O5 0.750000 0.131302 0.518896
O O6 0.954352 0.257924 0.534127
O O7 0.991663 0.143991 0.465332
O O8 0.750000 0.715214 0.544606
O O9 0.569537 0.587717 0.512727
O O10 0.555399 0.649540 0.605331
O O11 0.250000 0.085852 0.227101
O O12 0.025888 0.122718 0.286454
O O13 0.005711 0.172743 0.197047
O O14 0.000000 0.000000 0.218219
O O15 0.750000 0.793754 0.437643
O O16 0.969439 0.824455 0.375194
O O17 0.982945 0.684091 0.433336
O O18 0.250000 0.074743 0.341407
O O19 0.500000 0.000000 0.355918
O O20 0.500000 0.500000 0.434015
O O21 0.250000 0.421246 0.437188
O O22 0.250000 0.265828 0.661953
#
# Coordination Sequence:
#
# PCOD8191315 Si02
#       8
#     8   8   8   8   8   8   8   8
#     4  10  19  32  48  67  94 129 162 194 228 269
#     4  10  18  28  44  67  91 118 153 193 230 270
#     4   8  15  29  44  60  88 125 155 183 221 268
#     4   9  17  31  50  73  95 118 149 188 233 281
#     4   9  18  33  48  64  91 128 160 191 233 282
#     4   9  18  32  51  71  92 117 150 190 234 282
#     4   9  17  28  43  62  88 121 156 188 223 265
#     4   8  15  29  49  68  91 122 153 183 224 273
#
# _framework density 17.366375999999999
#
# number of rings (size 3 to 8) (size 9 to 14) (size 15 to 20)
#    0.000    3.000    0.000    3.000    0.000    3.500 
#    0.000    4.375    0.000    0.750    0.000    0.000 
#    0.000    0.000    0.000    0.000    0.000    0.250 
#
# Total GULP energy -396418.749712 kJ/mol
# GULP energy per Si atom -12388.085928 kJ/mol
# Density = 1.732685 g / cm^3
# Si number density = 17.366376 Si / 1000 Ang^3
#
#
#
# Elastic Constant Matrix: (Units=GPa)
#
#
# Indices 1 2 3 4 5 6 
#
# 1 47.3658 28.0846 24.2436 0.0000 0.0000 0.0000
# 2 28.0846 107.3511 66.8997 0.0000 0.0000 0.0000
# 3 24.2436 66.8997 115.0556 0.0000 0.0000 0.0000
# 4 0.0000 0.0000 0.0000 25.3440 0.0000 0.0000
# 5 0.0000 0.0000 0.0000 0.0000 14.9569 0.0000
# 6 0.0000 0.0000 0.0000 0.0000 0.0000 26.2925
#
#
#
# Elastic Compliance Matrix: (Units=1/GPa)
#
#
# Indices 1 2 3 4 5 6 
#
# 1 0.025381 -0.005187 -0.002332 0.000000 0.000000 0.000000
# 2 -0.005187 0.015669 -0.008018 0.000000 0.000000 0.000000
# 3 -0.002332 -0.008018 0.013845 0.000000 0.000000 0.000000
# 4 0.000000 0.000000 0.000000 0.039457 0.000000 0.000000
# 5 0.000000 0.000000 0.000000 0.000000 0.066859 0.000000
# 6 0.000000 0.000000 0.000000 0.000000 0.000000 0.038034
#
#
# Mechanical properties :
#
#
# Convention : Reuss Voigt Hill
#
# Bulk Modulus (GPa) = 41.97901 56.46981 49.22441
# Shear Modulus (GPa) = 20.98563 23.35499 22.17031
#
# Velocity S-wave (km/s) = 3.47998 3.67118 3.57686
# Velocity P-wave (km/s) = 6.35391 7.11038 6.74276
#
# Compressibility (1/GPa) = 0.02382143
#
# Stress axis : x y z
#
# Youngs Moduli (GPa) = 39.39894 63.82160 72.22892
#
# Poissons Ratio (x) = 0.33102 0.16846
# Poissons Ratio (y) = 0.20435 0.57911
# Poissons Ratio (z) = 0.09189 0.51171
#
# Static dielectric constant tensor:
#      x y z
#    x 3.048500 0.000000 0.000000 
#    y 0.000000 3.220130 0.000000 
#    z 0.000000 0.000000 3.418430 
# 
# 
# High freq. dielectric constant tensor:
#      x y z
#    x 1.654080 0.000000 0.000000 
#    y 0.000000 1.654490 0.000000 
#    z 0.000000 0.000000 1.655420 
# 
# From -- ./inp_files/25300.got.cif
#   From: 2010.03.12/outbox.cif.g09.slc.cpg/sg46_13_cif.got.tgz:25300.got - 2010.04.14 02:56:35.
