data_PCOD8191726
_publ_section_title
;
Structure prediction by ZEFSAII (Michael W. Deem and Ramdas Pophale) SiO2 
 PCOD8191726
Probable space group: I M A 2
;
_chemical_formula_sum "Si O2"
_cell_formula_units_Z 64
_cell_length_a 14.401785
_cell_length_b 28.003044
_cell_length_c 8.845702
_cell_angle_alpha 90.000000
_cell_angle_beta 90.000000
_cell_angle_gamma 90.000000
_cell_volume 3567.416942
_symmetry_space_group_name_H-M "I M A 2"
_symmetry_group_IT_number 46
_symmetry_cell_setting 'orthorhombic'
loop_
_space_group_symop_operation_xyz
x,y,z
-x,-y,z
1/2-x,y,z
1/2+x,-y,z
1/2+x,1/2+y,1/2+z
1/2-x,1/2-y,1/2+z
-x,1/2+y,1/2+z
x,1/2-y,1/2+z
loop_
_atom_site_type_symbol
_atom_site_label
_atom_site_fract_x
_atom_site_fract_y
_atom_site_fract_z
Si Si1 0.525184 0.382724 0.796850
Si Si2 0.858079 0.927182 0.150373
Si Si3 0.644235 0.300738 0.298658
Si Si4 0.646047 0.574038 0.298963
Si Si5 0.648179 0.473083 0.788658
Si Si6 0.100788 0.983315 0.618666
Si Si7 0.144076 0.799702 0.154559
Si Si8 0.970746 0.384241 0.153148
O O1 0.419871 0.387331 0.735707
O O2 0.579010 0.430544 0.748764
O O3 0.574101 0.338185 0.720045
O O4 0.525768 0.374910 0.975284
O O5 0.750000 0.916553 0.185221
O O6 0.888540 0.978911 0.210927
O O7 0.880772 0.925540 0.973807
O O8 0.750000 0.314474 0.255135
O O9 0.616114 0.250863 0.224453
O O10 0.631650 0.296370 0.476425
O O11 0.574274 0.339934 0.236504
O O12 0.750000 0.593895 0.273711
O O13 0.642871 0.519289 0.241219
O O14 0.576024 0.608355 0.209760
O O15 0.750000 0.459966 0.724021
O O16 0.661561 0.481582 0.967934
O O17 0.091663 0.930757 0.692956
O O18 0.000000 0.000000 0.562728
O O19 0.250000 0.813120 0.198969
#
# Coordination Sequence:
#
# PCOD8191726 Si02
#       8
#     8   8   8   8   8   8   8   8
#     4  11  21  34  53  76 105 138 174 216 256 307
#     4  10  21  34  50  73 102 138 178 218 261 305
#     4  10  21  37  57  80 108 137 169 209 254 305
#     4  10  20  34  51  73 103 138 176 219 261 305
#     4  10  19  31  48  72 103 139 175 211 254 306
#     4   9  18  31  47  71 102 138 175 211 254 305
#     4  10  21  37  57  81 107 137 169 207 255 305
#     4  10  21  34  52  78 104 137 177 213 258 308
#
# _framework density 17.940152000000001
#
# number of rings (size 3 to 8) (size 9 to 14) (size 15 to 20)
#    0.000    2.000    0.000    4.875    0.000    9.500 
#    0.000    2.500    0.000    0.750    0.000    0.000 
#    0.000    0.000    0.000    0.000    0.000    0.000 
#
# Total GULP energy -396849.621492 kJ/mol
# GULP energy per Si atom -12401.550672 kJ/mol
# Density = 1.789932 g / cm^3
# Si number density = 17.940152 Si / 1000 Ang^3
#
#
#
# Elastic Constant Matrix: (Units=GPa)
#
#
# Indices 1 2 3 4 5 6 
#
# 1 96.6281 64.3096 41.9016 -0.0005 0.0009 0.0003
# 2 64.3096 117.1176 50.7413 -0.0009 0.0009 0.0001
# 3 41.9016 50.7413 82.0598 -0.0112 -0.0024 0.0004
# 4 -0.0005 -0.0009 -0.0112 32.8995 -0.0003 0.0002
# 5 0.0009 0.0009 -0.0024 -0.0003 28.1422 0.0001
# 6 0.0003 0.0001 0.0004 0.0002 0.0001 30.5966
#
#
#
# Elastic Compliance Matrix: (Units=1/GPa)
#
#
# Indices 1 2 3 4 5 6 
#
# 1 0.017231 -0.007717 -0.004027 -0.000001 -0.000001 0.000000
# 2 -0.007717 0.015119 -0.005408 -0.000002 -0.000001 0.000000
# 3 -0.004027 -0.005408 0.017587 0.000006 0.000002 0.000000
# 4 -0.000001 -0.000002 0.000006 0.030396 0.000000 0.000000
# 5 -0.000001 -0.000001 0.000002 0.000000 0.035534 0.000000
# 6 0.000000 0.000000 0.000000 0.000000 0.000000 0.032683
#
#
# Mechanical properties :
#
#
# Convention : Reuss Voigt Hill
#
# Bulk Modulus (GPa) = 63.96935 67.74560 65.85747
# Shear Modulus (GPa) = 26.58662 27.58453 27.08557
#
# Velocity S-wave (km/s) = 3.85380 3.92546 3.88980
# Velocity P-wave (km/s) = 7.45231 7.64131 7.54740
#
# Compressibility (1/GPa) = 0.01563249
#
# Stress axis : x y z
#
# Youngs Moduli (GPa) = 58.03463 66.14192 56.86148
#
# Poissons Ratio (x) = 0.51042 0.22897
# Poissons Ratio (y) = 0.44785 0.30752
# Poissons Ratio (z) = 0.23369 0.35771
#
# Static dielectric constant tensor:
#      x y z
#    x 3.405160 0.000010 -0.000010 
#    y 0.000010 3.257370 0.000000 
#    z -0.000010 0.000000 3.345910 
# 
# 
# High freq. dielectric constant tensor:
#      x y z
#    x 1.698090 0.000000 0.000000 
#    y 0.000000 1.675100 0.000000 
#    z 0.000000 0.000000 1.704020 
# 
# From -- ./inp_files/6066.got.cif
#   From: 2010.03.12/outbox.cif.g09.slc.cpg/sg46_4_cif.got.tgz:6066.got - 2010.04.14 02:56:35.
