data_PCOD8191353
_publ_section_title
;
Structure prediction by ZEFSAII (Michael W. Deem and Ramdas Pophale) SiO2 
 PCOD8191353
Probable space group: I M A 2
;
_chemical_formula_sum "Si O2"
_cell_formula_units_Z 52
_cell_length_a 9.721873
_cell_length_b 15.997209
_cell_length_c 16.937249
_cell_angle_alpha 90.000000
_cell_angle_beta 90.000000
_cell_angle_gamma 90.000000
_cell_volume 2634.128969
_symmetry_space_group_name_H-M "I M A 2"
_symmetry_group_IT_number 46
_symmetry_cell_setting 'orthorhombic'
loop_
_space_group_symop_operation_xyz
x,y,z
-x,-y,z
1/2-x,y,z
1/2+x,-y,z
1/2+x,1/2+y,1/2+z
1/2-x,1/2-y,1/2+z
-x,1/2+y,1/2+z
x,1/2-y,1/2+z
loop_
_atom_site_type_symbol
_atom_site_label
_atom_site_fract_x
_atom_site_fract_y
_atom_site_fract_z
Si Si1 0.904661 0.130393 0.707260
Si Si2 0.500000 0.500000 0.325836
Si Si3 0.594309 0.150751 0.539602
Si Si4 0.401412 0.845363 0.078955
Si Si5 0.912326 0.191066 0.252744
Si Si6 0.597379 0.631141 0.445997
Si Si7 0.087230 0.181404 0.398710
O O1 0.750000 0.158064 0.688216
O O2 0.904489 0.054600 0.768619
O O3 0.962550 0.105516 0.620050
O O4 0.971157 0.213992 0.743826
O O5 0.592183 0.560570 0.378790
O O6 0.750000 0.122526 0.515138
O O7 0.593398 0.248326 0.559088
O O8 0.484375 0.130968 0.470766
O O9 0.250000 0.881749 0.062281
O O10 0.439171 0.858910 0.171088
O O11 0.502497 0.894582 0.020083
O O12 0.750000 0.188194 0.276642
O O13 0.008329 0.150145 0.320028
O O14 0.750000 0.636239 0.480237
O O15 0.556377 0.720105 0.408792
O O16 0.250000 0.161023 0.394725
#
# Coordination Sequence:
#
# PCOD8191353 Si02
#       7
#     8   4   8   8   8   8   8
#     4   9  18  31  47  66  93 131 173 204 232 279
#     4  12  20  32  48  70 104 138 166 192 238 284
#     4   8  15  30  48  66  88 123 166 206 242 281
#     4   8  16  30  49  67  88 122 165 206 245 285
#     4   9  16  30  50  72  93 123 166 207 243 283
#     4  10  21  32  43  67 101 133 165 196 239 292
#     4  10  18  29  45  72 101 126 156 199 253 296
#
# _framework density 19.740870000000001
#
# number of rings (size 3 to 8) (size 9 to 14) (size 15 to 20)
#    0.000    2.769    1.538    2.769    0.000    2.462 
#    0.000    3.846    0.000    0.000    0.000    1.077 
#    0.000    4.923    0.000    0.000    0.000    0.000 
#
# Total GULP energy -322154.808884 kJ/mol
# GULP energy per Si atom -12390.569572 kJ/mol
# Density = 1.969594 g / cm^3
# Si number density = 19.740870 Si / 1000 Ang^3
#
#
#
# Elastic Constant Matrix: (Units=GPa)
#
#
# Indices 1 2 3 4 5 6 
#
# 1 109.5421 6.4200 84.4877 0.0000 0.0000 0.0000
# 2 6.4200 25.1715 20.8970 0.0000 0.0000 0.0000
# 3 84.4877 20.8970 174.9442 0.0000 0.0000 0.0000
# 4 0.0000 0.0000 0.0000 28.2633 0.0000 0.0000
# 5 0.0000 0.0000 0.0000 0.0000 32.8087 0.0000
# 6 0.0000 0.0000 0.0000 0.0000 0.0000 10.9656
#
#
#
# Elastic Compliance Matrix: (Units=1/GPa)
#
#
# Indices 1 2 3 4 5 6 
#
# 1 0.014675 0.002376 -0.007371 0.000000 0.000000 0.000000
# 2 0.002376 0.044486 -0.006461 0.000000 0.000000 0.000000
# 3 -0.007371 -0.006461 0.010048 0.000000 0.000000 0.000000
# 4 0.000000 0.000000 0.000000 0.035382 0.000000 0.000000
# 5 0.000000 0.000000 0.000000 0.000000 0.030480 0.000000
# 6 0.000000 0.000000 0.000000 0.000000 0.000000 0.091194
#
#
# Mechanical properties :
#
#
# Convention : Reuss Voigt Hill
#
# Bulk Modulus (GPa) = 21.60012 59.25191 40.42602
# Shear Modulus (GPa) = 18.89596 27.59774 23.24685
#
# Velocity S-wave (km/s) = 3.09722 3.74304 3.43534
# Velocity P-wave (km/s) = 4.87401 6.98287 6.02148
#
# Compressibility (1/GPa) = 0.04629603
#
# Stress axis : x y z
#
# Youngs Moduli (GPa) = 68.14488 22.47919 99.52633
#
# Poissons Ratio (x) = -0.05342 0.73359
# Poissons Ratio (y) = -0.16194 0.64308
# Poissons Ratio (z) = 0.50228 0.14525
#
# Static dielectric constant tensor:
#      x y z
#    x 3.451010 0.000000 0.000000 
#    y 0.000000 3.031470 0.000000 
#    z 0.000000 0.000000 3.896170 
# 
# 
# High freq. dielectric constant tensor:
#      x y z
#    x 1.754260 0.000000 0.000000 
#    y 0.000000 1.710980 0.000000 
#    z 0.000000 0.000000 1.786490 
# 
# From -- ./inp_files/18298.got.cif
#   From: 2010.03.12/outbox.cif.g09.slc.cpg/sg46_10_cif.got.tgz:18298.got - 2010.04.14 02:56:35.
