data_PCOD8191633
_publ_section_title
;
Structure prediction by ZEFSAII (Michael W. Deem and Ramdas Pophale) SiO2 
 PCOD8191633
Probable space group: I M A 2
;
_chemical_formula_sum "Si O2"
_cell_formula_units_Z 64
_cell_length_a 8.792532
_cell_length_b 26.129971
_cell_length_c 18.330929
_cell_angle_alpha 90.000000
_cell_angle_beta 90.000000
_cell_angle_gamma 90.000000
_cell_volume 4211.505388
_symmetry_space_group_name_H-M "I M A 2"
_symmetry_group_IT_number 46
_symmetry_cell_setting 'orthorhombic'
loop_
_space_group_symop_operation_xyz
x,y,z
-x,-y,z
1/2-x,y,z
1/2+x,-y,z
1/2+x,1/2+y,1/2+z
1/2-x,1/2-y,1/2+z
-x,1/2+y,1/2+z
x,1/2-y,1/2+z
loop_
_atom_site_type_symbol
_atom_site_label
_atom_site_fract_x
_atom_site_fract_y
_atom_site_fract_z
Si Si1 0.082614 0.798440 0.681500
Si Si2 0.070012 0.754362 0.460222
Si Si3 0.426980 0.356379 0.720693
Si Si4 0.080951 0.806069 0.093643
Si Si5 0.925632 0.746522 0.805428
Si Si6 0.930371 0.054219 0.305935
Si Si7 0.070147 0.644971 0.041157
Si Si8 0.930343 0.554167 0.959935
O O1 0.250000 0.810626 0.713536
O O2 0.091627 0.747339 0.634816
O O3 0.031094 0.843231 0.626019
O O4 0.966859 0.791803 0.748697
O O5 0.250000 0.755712 0.462952
O O6 0.015633 0.707478 0.512899
O O7 0.009770 0.809055 0.489383
O O8 0.015622 0.743842 0.379163
O O9 0.250000 0.369806 0.726039
O O10 0.468842 0.344346 0.636516
O O11 0.470567 0.308298 0.771635
O O12 0.526760 0.404380 0.745242
O O13 0.250000 0.830715 0.089637
O O14 0.750000 0.749465 0.823793
O O15 0.750000 0.049402 0.313334
O O16 0.000586 0.072180 0.382762
O O17 0.000000 0.000000 0.281924
O O18 0.250000 0.636071 0.030550
O O19 0.976203 0.594624 0.021323
O O20 0.750000 0.549626 0.952782
O O21 0.000000 0.500000 0.983317
#
# Coordination Sequence:
#
# PCOD8191633 Si02
#       8
#     8   8   8   8   8   8   8   8
#     4   8  15  28  44  59  80 109 141 174 209 249
#     4   9  17  28  43  61  84 113 145 176 209 251
#     4  10  19  30  43  62  86 113 143 175 212 253
#     4   8  15  28  43  60  80 108 143 175 207 247
#     4  10  19  27  39  61  88 114 143 176 210 248
#     4  11  21  33  47  62  83 111 143 180 214 248
#     4   9  17  30  46  63  82 110 145 178 212 252
#     4  11  21  32  45  62  85 112 142 178 214 250
#
# _framework density 15.196465999999999
#
# number of rings (size 3 to 8) (size 9 to 14) (size 15 to 20)
#    0.000    2.500    0.000    6.000    0.000    5.000 
#    0.000    2.500    0.000    0.000    0.000    0.000 
#    0.000    1.000    0.000    8.250    0.000    4.875 
#
# Total GULP energy -396705.827475 kJ/mol
# GULP energy per Si atom -12397.057109 kJ/mol
# Density = 1.516188 g / cm^3
# Si number density = 15.196466 Si / 1000 Ang^3
#
#
#
# Elastic Constant Matrix: (Units=GPa)
#
#
# Indices 1 2 3 4 5 6 
#
# 1 71.9003 34.5009 27.1519 0.0000 0.0000 0.0000
# 2 34.5009 70.2142 42.9078 0.0001 0.0000 0.0000
# 3 27.1519 42.9078 84.5576 0.0004 0.0000 0.0000
# 4 0.0000 0.0001 0.0004 24.9490 0.0000 0.0000
# 5 0.0000 0.0000 0.0000 0.0000 22.2257 0.0000
# 6 0.0000 0.0000 0.0000 0.0000 0.0000 21.8551
#
#
#
# Elastic Compliance Matrix: (Units=1/GPa)
#
#
# Indices 1 2 3 4 5 6 
#
# 1 0.018411 -0.007876 -0.001915 0.000000 0.000000 0.000000
# 2 -0.007876 0.024013 -0.009656 0.000000 0.000000 0.000000
# 3 -0.001915 -0.009656 0.017341 0.000000 0.000000 0.000000
# 4 0.000000 0.000000 0.000000 0.040082 0.000000 0.000000
# 5 0.000000 0.000000 0.000000 0.000000 0.044993 0.000000
# 6 0.000000 0.000000 0.000000 0.000000 0.000000 0.045756
#
#
# Mechanical properties :
#
#
# Convention : Reuss Voigt Hill
#
# Bulk Modulus (GPa) = 47.91524 48.42148 48.16836
# Shear Modulus (GPa) = 21.14644 21.94673 21.54658
#
# Velocity S-wave (km/s) = 3.73438 3.80439 3.76954
# Velocity P-wave (km/s) = 7.08471 7.15756 7.12122
#
# Compressibility (1/GPa) = 0.02087018
#
# Stress axis : x y z
#
# Youngs Moduli (GPa) = 54.31650 41.64421 57.66644
#
# Poissons Ratio (x) = 0.32799 0.11044
# Poissons Ratio (y) = 0.42780 0.55683
# Poissons Ratio (z) = 0.10402 0.40212
#
# Static dielectric constant tensor:
#      x y z
#    x 2.926410 0.000000 0.000000 
#    y 0.000000 2.759340 0.000000 
#    z 0.000000 0.000000 3.029860 
# 
# 
# High freq. dielectric constant tensor:
#      x y z
#    x 1.588720 0.000000 0.000000 
#    y 0.000000 1.548310 0.000000 
#    z 0.000000 0.000000 1.571090 
# 
# From -- ./inp_files/18652.got.cif
#   From: 2010.03.12/outbox.cif.g09.slc.cpg/sg46_10_cif.got.tgz:18652.got - 2010.04.14 02:56:35.
