data_PCOD8191363
_publ_section_title
;
Structure prediction by ZEFSAII (Michael W. Deem and Ramdas Pophale) SiO2 
 PCOD8191363
Probable space group: I M A 2
;
_chemical_formula_sum "Si O2"
_cell_formula_units_Z 64
_cell_length_a 9.210114
_cell_length_b 33.350189
_cell_length_c 11.908756
_cell_angle_alpha 90.000000
_cell_angle_beta 90.000000
_cell_angle_gamma 90.000000
_cell_volume 3657.882092
_symmetry_space_group_name_H-M "I M A 2"
_symmetry_group_IT_number 46
_symmetry_cell_setting 'orthorhombic'
loop_
_space_group_symop_operation_xyz
x,y,z
-x,-y,z
1/2-x,y,z
1/2+x,-y,z
1/2+x,1/2+y,1/2+z
1/2-x,1/2-y,1/2+z
-x,1/2+y,1/2+z
x,1/2-y,1/2+z
loop_
_atom_site_type_symbol
_atom_site_label
_atom_site_fract_x
_atom_site_fract_y
_atom_site_fract_z
Si Si1 0.410535 0.109383 0.452360
Si Si2 0.577881 0.821750 0.863891
Si Si3 0.918052 0.038362 0.375697
Si Si4 0.578623 0.767591 0.416488
Si Si5 0.922762 0.372283 0.543646
Si Si6 0.914732 0.668611 0.745195
Si Si7 0.419308 0.960360 0.116528
Si Si8 0.418034 0.179358 0.613583
O O1 0.250000 0.089912 0.459393
O O2 0.532885 0.075754 0.449888
O O3 0.419576 0.135757 0.341546
O O4 0.441364 0.135401 0.562610
O O5 0.750000 0.830420 0.867878
O O6 0.538659 0.778975 0.918828
O O7 0.513697 0.820367 0.737575
O O8 0.493366 0.856712 0.928666
O O9 0.750000 0.031326 0.392276
O O10 0.960813 0.045767 0.246436
O O11 0.000000 0.000000 0.423834
O O12 0.750000 0.775480 0.418945
O O13 0.526159 0.789812 0.301420
O O14 0.510448 0.787715 0.529184
O O15 0.750000 0.367844 0.541119
O O16 0.967655 0.419205 0.555305
O O17 0.981639 0.344921 0.644813
O O18 0.750000 0.673621 0.698150
O O19 0.250000 0.968335 0.100380
O O20 0.500000 0.000000 0.067809
O O21 0.250000 0.190296 0.627520
#
# Coordination Sequence:
#
# PCOD8191363 Si02
#       8
#     8   8   8   8   8   8   8   8
#     4   9  16  29  49  72 101 132 163 206 254 301
#     4  10  20  33  54  77  99 135 178 218 256 301
#     4  10  18  29  46  73 104 133 165 200 252 307
#     4   8  16  30  52  79 102 127 168 220 259 291
#     4  11  22  35  49  74 111 141 168 212 263 313
#     4   9  17  30  51  77 100 131 172 209 250 301
#     4   9  19  33  50  72 102 136 166 207 259 310
#     4   8  16  31  49  74 103 129 166 214 258 296
#
# _framework density 17.496462999999999
#
# number of rings (size 3 to 8) (size 9 to 14) (size 15 to 20)
#    0.000    2.750    1.250    2.250    1.750    1.500 
#    0.000    1.250    0.000    2.250    0.000    1.750 
#    0.000    0.000    0.000    0.000    0.000    0.000 
#
# Total GULP energy -396652.805650 kJ/mol
# GULP energy per Si atom -12395.400177 kJ/mol
# Density = 1.745664 g / cm^3
# Si number density = 17.496463 Si / 1000 Ang^3
#
#
#
# Elastic Constant Matrix: (Units=GPa)
#
#
# Indices 1 2 3 4 5 6 
#
# 1 54.8047 41.9314 29.4577 0.0004 0.0001 0.0000
# 2 41.9314 99.3672 42.4445 -0.0001 0.0000 0.0000
# 3 29.4577 42.4445 100.1006 0.0007 0.0005 0.0000
# 4 0.0004 -0.0001 0.0007 22.1564 0.0001 -0.0001
# 5 0.0001 0.0000 0.0005 0.0001 17.4908 0.0002
# 6 0.0000 0.0000 0.0000 -0.0001 0.0002 25.4605
#
#
#
# Elastic Compliance Matrix: (Units=1/GPa)
#
#
# Indices 1 2 3 4 5 6 
#
# 1 0.028182 -0.010197 -0.003970 0.000000 0.000000 0.000000
# 2 -0.010197 0.015979 -0.003775 0.000000 0.000000 0.000000
# 3 -0.003970 -0.003775 0.012759 0.000000 0.000000 0.000000
# 4 0.000000 0.000000 0.000000 0.045134 0.000000 0.000000
# 5 0.000000 0.000000 0.000000 0.000000 0.057173 0.000000
# 6 0.000000 0.000000 0.000000 0.000000 0.000000 0.039276
#
#
# Mechanical properties :
#
#
# Convention : Reuss Voigt Hill
#
# Bulk Modulus (GPa) = 47.53472 53.54883 50.54178
# Shear Modulus (GPa) = 20.71276 22.38415 21.54845
#
# Velocity S-wave (km/s) = 3.44441 3.58068 3.51321
# Velocity P-wave (km/s) = 6.56093 6.91137 6.73843
#
# Compressibility (1/GPa) = 0.02103725
#
# Stress axis : x y z
#
# Youngs Moduli (GPa) = 35.48376 62.58289 78.37781
#
# Poissons Ratio (x) = 0.63813 0.31115
# Poissons Ratio (y) = 0.36181 0.29585
# Poissons Ratio (z) = 0.14087 0.23623
#
# Static dielectric constant tensor:
#      x y z
#    x 2.994050 0.000000 0.000000 
#    y 0.000000 3.408250 0.000000 
#    z 0.000000 0.000000 3.221800 
# 
# 
# High freq. dielectric constant tensor:
#      x y z
#    x 1.645050 0.000000 0.000000 
#    y 0.000000 1.680740 0.000000 
#    z 0.000000 0.000000 1.656760 
# 
# From -- ./inp_files/9803.got.cif
#   From: 2010.03.12/outbox.cif.g09.slc.cpg/sg46_5_cif.got.tgz:9803.got - 2010.04.14 02:56:35.
