data_PCOD8191498
_publ_section_title
;
Structure prediction by ZEFSAII (Michael W. Deem and Ramdas Pophale) SiO2 
 PCOD8191498
Probable space group: I M A 2
;
_chemical_formula_sum "Si O2"
_cell_formula_units_Z 52
_cell_length_a 9.701186
_cell_length_b 14.568738
_cell_length_c 19.736310
_cell_angle_alpha 90.000000
_cell_angle_beta 90.000000
_cell_angle_gamma 90.000000
_cell_volume 2789.412370
_symmetry_space_group_name_H-M "I M A 2"
_symmetry_group_IT_number 46
_symmetry_cell_setting 'orthorhombic'
loop_
_space_group_symop_operation_xyz
x,y,z
-x,-y,z
1/2-x,y,z
1/2+x,-y,z
1/2+x,1/2+y,1/2+z
1/2-x,1/2-y,1/2+z
-x,1/2+y,1/2+z
x,1/2-y,1/2+z
loop_
_atom_site_type_symbol
_atom_site_label
_atom_site_fract_x
_atom_site_fract_y
_atom_site_fract_z
Si Si1 0.586776 0.738722 0.199590
Si Si2 0.000000 0.000000 0.484995
Si Si3 0.410921 0.233296 0.919917
Si Si4 0.091367 0.411073 0.314092
Si Si5 0.396283 0.618992 0.871678
Si Si6 0.591678 0.680050 0.054035
Si Si7 0.908198 0.418806 0.722827
O O1 0.750000 0.765317 0.199651
O O2 0.556869 0.662605 0.256293
O O3 0.530565 0.698369 0.128115
O O4 0.488490 0.824519 0.211348
O O5 0.892280 0.049778 0.435419
O O6 0.071493 0.074482 0.533235
O O7 0.250000 0.255502 0.916282
O O8 0.441454 0.133045 0.888422
O O9 0.479624 0.309207 0.872014
O O10 0.468218 0.248720 0.996725
O O11 0.250000 0.441489 0.309850
O O12 0.000000 0.500000 0.303069
O O13 0.250000 0.673004 0.874243
O O14 0.402871 0.560819 0.802893
O O15 0.750000 0.702494 0.060050
O O16 0.750000 0.416401 0.693650
O O17 0.000000 0.500000 0.688636
#
# Coordination Sequence:
#
# PCOD8191498 Si02
#       7
#     8   4   8   8   8   8   8
#     4  10  21  39  57  81 115 152 187 229 281 336
#     4  10  18  32  52  82 116 146 176 218 282 342
#     4   9  18  35  55  76 104 141 182 224 274 326
#     4  10  21  35  56  81 109 146 190 231 275 324
#     4  10  19  30  50  81 111 137 174 223 273 325
#     4   9  19  34  55  78 109 148 184 224 277 337
#     4  11  22  36  57  86 113 146 186 232 286 336
#
# _framework density 18.641919000000001
#
# number of rings (size 3 to 8) (size 9 to 14) (size 15 to 20)
#    0.000    2.154    2.308    0.923    1.077    2.462 
#    0.000    4.615    0.000    1.846    0.000    0.000 
#    0.000    0.000    0.000    0.000    0.000    0.000 
#
# Total GULP energy -322123.454800 kJ/mol
# GULP energy per Si atom -12389.363646 kJ/mol
# Density = 1.859949 g / cm^3
# Si number density = 18.641919 Si / 1000 Ang^3
#
#
#
# Elastic Constant Matrix: (Units=GPa)
#
#
# Indices 1 2 3 4 5 6 
#
# 1 86.1000 63.3350 25.4903 0.0000 0.0000 0.0000
# 2 63.3350 127.4854 47.3009 0.0000 0.0000 0.0000
# 3 25.4903 47.3009 92.0215 0.0000 0.0000 0.0000
# 4 0.0000 0.0000 0.0000 18.1563 0.0000 0.0000
# 5 0.0000 0.0000 0.0000 0.0000 15.5204 0.0000
# 6 0.0000 0.0000 0.0000 0.0000 0.0000 35.4320
#
#
#
# Elastic Compliance Matrix: (Units=1/GPa)
#
#
# Indices 1 2 3 4 5 6 
#
# 1 0.018321 -0.008920 -0.000490 0.000000 0.000000 0.000000
# 2 -0.008920 0.014036 -0.004744 0.000000 0.000000 0.000000
# 3 -0.000490 -0.004744 0.013441 0.000000 0.000000 0.000000
# 4 0.000000 0.000000 0.000000 0.055077 0.000000 0.000000
# 5 0.000000 0.000000 0.000000 0.000000 0.064431 0.000000
# 6 0.000000 0.000000 0.000000 0.000000 0.000000 0.028223
#
#
# Mechanical properties :
#
#
# Convention : Reuss Voigt Hill
#
# Bulk Modulus (GPa) = 57.17436 64.20659 60.69048
# Shear Modulus (GPa) = 21.96190 25.12047 23.54118
#
# Velocity S-wave (km/s) = 3.43606 3.67485 3.55746
# Velocity P-wave (km/s) = 6.81750 7.24726 7.03567
#
# Compressibility (1/GPa) = 0.01749036
#
# Stress axis : x y z
#
# Youngs Moduli (GPa) = 54.58181 71.24706 74.39894
#
# Poissons Ratio (x) = 0.63554 0.03644
# Poissons Ratio (y) = 0.48688 0.35292
# Poissons Ratio (z) = 0.02674 0.33797
#
# Static dielectric constant tensor:
#      x y z
#    x 3.422790 0.000000 0.000000 
#    y 0.000000 3.261440 0.000000 
#    z 0.000000 0.000000 3.795920 
# 
# 
# High freq. dielectric constant tensor:
#      x y z
#    x 1.719060 0.000000 0.000000 
#    y 0.000000 1.707210 0.000000 
#    z 0.000000 0.000000 1.718810 
# 
# From -- ./inp_files/20990.got.cif
#   From: 2010.03.12/outbox.cif.g09.slc.cpg/sg46_11_cif.got.tgz:20990.got - 2010.04.14 02:56:35.
