data_PCOD8191907
_publ_section_title
;
Structure prediction by ZEFSAII (Michael W. Deem and Ramdas Pophale) SiO2 
 PCOD8191907
Probable space group: I M A 2
;
_chemical_formula_sum "Si O2"
_cell_formula_units_Z 64
_cell_length_a 8.859247
_cell_length_b 23.097409
_cell_length_c 18.953466
_cell_angle_alpha 90.000000
_cell_angle_beta 90.000000
_cell_angle_gamma 90.000000
_cell_volume 3878.365326
_symmetry_space_group_name_H-M "I M A 2"
_symmetry_group_IT_number 46
_symmetry_cell_setting 'orthorhombic'
loop_
_space_group_symop_operation_xyz
x,y,z
-x,-y,z
1/2-x,y,z
1/2+x,-y,z
1/2+x,1/2+y,1/2+z
1/2-x,1/2-y,1/2+z
-x,1/2+y,1/2+z
x,1/2-y,1/2+z
loop_
_atom_site_type_symbol
_atom_site_label
_atom_site_fract_x
_atom_site_fract_y
_atom_site_fract_z
Si Si1 0.427708 0.061366 0.857860
Si Si2 0.924886 0.939946 0.142615
Si Si3 0.077196 0.840276 0.777961
Si Si4 0.073207 0.724512 0.861191
Si Si5 0.070531 0.118874 0.001467
Si Si6 0.929006 0.750891 0.503655
Si Si7 0.925579 0.668360 0.734234
Si Si8 0.073632 0.733236 0.145901
O O1 0.250000 0.054130 0.859878
O O2 0.471595 0.105549 0.795665
O O3 0.500000 0.000000 0.841003
O O4 0.490431 0.085802 0.932275
O O5 0.750000 0.951132 0.129875
O O6 0.994546 0.913852 0.070187
O O7 0.952739 0.896681 0.207509
O O8 0.000000 0.000000 0.163128
O O9 0.250000 0.858658 0.789432
O O10 0.034497 0.787038 0.828784
O O11 0.047277 0.821517 0.697267
O O12 0.250000 0.716283 0.873969
O O13 0.016342 0.675633 0.806947
O O14 0.983660 0.716198 0.933758
O O15 0.250000 0.120118 0.002421
O O16 0.011744 0.184749 0.000871
O O17 0.750000 0.755309 0.510622
O O18 0.007237 0.782938 0.569627
O O19 0.750000 0.681566 0.746913
O O20 0.984802 0.710999 0.673760
O O21 0.250000 0.748777 0.142287
#
# Coordination Sequence:
#
# PCOD8191907 Si02
#       8
#     8   8   8   8   8   8   8   8
#     4  11  21  33  50  70  98 134 174 210 247 291
#     4  10  20  34  49  69  98 133 174 211 246 291
#     4   9  19  34  49  69  98 129 165 207 250 297
#     4  10  20  33  50  74 102 129 165 210 256 301
#     4   9  18  32  46  68  99 133 171 206 237 285
#     4  11  19  32  52  75 102 134 171 205 247 304
#     4  10  19  33  51  71  98 133 170 209 251 301
#     4  10  20  33  50  74 102 130 164 209 257 300
#
# _framework density 16.501797
#
# number of rings (size 3 to 8) (size 9 to 14) (size 15 to 20)
#    0.000    2.000    2.500    3.000    0.000    3.500 
#    0.000    0.625    0.000    0.000    0.000    0.875 
#    0.000    2.000    0.000    0.000    0.000    0.000 
#
# Total GULP energy -396889.070092 kJ/mol
# GULP energy per Si atom -12402.783440 kJ/mol
# Density = 1.646424 g / cm^3
# Si number density = 16.501797 Si / 1000 Ang^3
#
#
#
# Elastic Constant Matrix: (Units=GPa)
#
#
# Indices 1 2 3 4 5 6 
#
# 1 58.6827 37.3795 31.3382 0.0000 0.0000 0.0000
# 2 37.3795 75.8655 44.7168 0.0000 0.0000 0.0000
# 3 31.3382 44.7168 109.5933 0.0000 0.0000 0.0000
# 4 0.0000 0.0000 0.0000 18.9461 0.0000 0.0000
# 5 0.0000 0.0000 0.0000 0.0000 29.9436 0.0000
# 6 0.0000 0.0000 0.0000 0.0000 0.0000 24.6908
#
#
#
# Elastic Compliance Matrix: (Units=1/GPa)
#
#
# Indices 1 2 3 4 5 6 
#
# 1 0.025494 -0.010881 -0.002850 0.000000 0.000000 0.000000
# 2 -0.010881 0.021999 -0.005865 0.000000 0.000000 0.000000
# 3 -0.002850 -0.005865 0.012333 0.000000 0.000000 0.000000
# 4 0.000000 0.000000 0.000000 0.052781 0.000000 0.000000
# 5 0.000000 0.000000 0.000000 0.000000 0.033396 0.000000
# 6 0.000000 0.000000 0.000000 0.000000 0.000000 0.040501
#
#
# Mechanical properties :
#
#
# Convention : Reuss Voigt Hill
#
# Bulk Modulus (GPa) = 48.46462 52.33451 50.39957
# Shear Modulus (GPa) = 21.49853 23.42991 22.46422
#
# Velocity S-wave (km/s) = 3.61335 3.77216 3.69361
# Velocity P-wave (km/s) = 6.84408 7.12429 6.98559
#
# Compressibility (1/GPa) = 0.02063361
#
# Stress axis : x y z
#
# Youngs Moduli (GPa) = 39.22511 45.45603 81.08548
#
# Poissons Ratio (x) = 0.49461 0.23111
# Poissons Ratio (y) = 0.42681 0.47555
# Poissons Ratio (z) = 0.11180 0.26659
#
# Static dielectric constant tensor:
#      x y z
#    x 3.045670 0.000000 0.000000 
#    y 0.000000 2.888800 0.000000 
#    z 0.000000 0.000000 3.166820 
# 
# 
# High freq. dielectric constant tensor:
#      x y z
#    x 1.638810 0.000000 0.000000 
#    y 0.000000 1.604610 0.000000 
#    z 0.000000 0.000000 1.634380 
# 
# From -- ./inp_files/18656.got.cif
#   From: 2010.03.12/outbox.cif.g09.slc.cpg/sg46_10_cif.got.tgz:18656.got - 2010.04.14 02:56:35.
