data_PCOD8191298
_publ_section_title
;
Structure prediction by ZEFSAII (Michael W. Deem and Ramdas Pophale) SiO2 
 PCOD8191298
Probable space group: I M A 2
;
_chemical_formula_sum "Si O2"
_cell_formula_units_Z 64
_cell_length_a 8.694307
_cell_length_b 18.428520
_cell_length_c 26.488889
_cell_angle_alpha 90.000000
_cell_angle_beta 90.000000
_cell_angle_gamma 90.000000
_cell_volume 4244.134836
_symmetry_space_group_name_H-M "I M A 2"
_symmetry_group_IT_number 46
_symmetry_cell_setting 'orthorhombic'
loop_
_space_group_symop_operation_xyz
x,y,z
-x,-y,z
1/2-x,y,z
1/2+x,-y,z
1/2+x,1/2+y,1/2+z
1/2-x,1/2-y,1/2+z
-x,1/2+y,1/2+z
x,1/2-y,1/2+z
loop_
_atom_site_type_symbol
_atom_site_label
_atom_site_fract_x
_atom_site_fract_y
_atom_site_fract_z
Si Si1 0.929849 0.705068 0.350610
Si Si2 0.569467 0.577329 0.104115
Si Si3 0.071677 0.782737 0.256940
Si Si4 0.568427 0.167578 0.402450
Si Si5 0.068577 0.922136 0.499038
Si Si6 0.574129 0.076013 0.307831
Si Si7 0.432200 0.921148 0.796869
Si Si8 0.431222 0.163747 0.702749
O O1 0.750000 0.690985 0.356891
O O2 0.965907 0.750020 0.300495
O O3 0.991570 0.752766 0.397735
O O4 0.015839 0.627762 0.344903
O O5 0.500000 0.500000 0.119415
O O6 0.750000 0.567566 0.096909
O O7 0.528026 0.634416 0.147488
O O8 0.497546 0.606556 0.052034
O O9 0.250000 0.761650 0.266023
O O10 0.051886 0.870007 0.259477
O O11 0.007720 0.744707 0.206030
O O12 0.750000 0.177494 0.396335
O O13 0.520512 0.135200 0.456310
O O14 0.506032 0.113431 0.358504
O O15 0.250000 0.930404 0.503072
O O16 0.000000 0.000000 0.484614
O O17 0.750000 0.059285 0.318352
O O18 0.500000 0.000000 0.294121
O O19 0.250000 0.925060 0.793568
O O20 0.496550 0.888918 0.744597
O O21 0.500000 0.000000 0.805769
O O22 0.250000 0.167955 0.711736
#
# Coordination Sequence:
#
# PCOD8191298 Si02
#       8
#     8   8   8   8   8   8   8   8
#     4  10  18  28  43  62  82 108 140 172 207 248
#     4  10  20  31  43  60  84 110 141 178 213 248
#     4   9  17  29  42  58  82 110 138 172 209 247
#     4   9  18  31  43  59  83 112 143 174 208 246
#     4  10  19  30  45  62  84 112 144 179 214 249
#     4   9  17  27  40  59  83 109 138 169 204 242
#     4  11  20  30  44  62  86 113 141 175 209 248
#     4  10  19  30  44  62  82 110 145 177 211 252
#
# _framework density 15.079634
#
# number of rings (size 3 to 8) (size 9 to 14) (size 15 to 20)
#    0.000    2.250    0.000    7.500    0.000    6.500 
#    0.000    0.000    0.000    0.000    0.000    0.000 
#    0.000    1.000    0.000    9.000    0.000    6.750 
#
# Total GULP energy -396633.034019 kJ/mol
# GULP energy per Si atom -12394.782313 kJ/mol
# Density = 1.504531 g / cm^3
# Si number density = 15.079634 Si / 1000 Ang^3
#
#
#
# Elastic Constant Matrix: (Units=GPa)
#
#
# Indices 1 2 3 4 5 6 
#
# 1 80.2554 48.2754 42.9889 0.0000 0.0000 0.0000
# 2 48.2754 116.7190 60.2526 0.0000 0.0000 0.0000
# 3 42.9889 60.2526 88.9038 0.0000 0.0000 0.0000
# 4 0.0000 0.0000 0.0000 21.6639 0.0000 0.0000
# 5 0.0000 0.0000 0.0000 0.0000 20.8119 0.0000
# 6 0.0000 0.0000 0.0000 0.0000 0.0000 27.6657
#
#
#
# Elastic Compliance Matrix: (Units=1/GPa)
#
#
# Indices 1 2 3 4 5 6 
#
# 1 0.018301 -0.004616 -0.005721 0.000000 0.000000 0.000000
# 2 -0.004616 0.014342 -0.007488 0.000000 0.000000 0.000000
# 3 -0.005721 -0.007488 0.019089 0.000000 0.000000 0.000000
# 4 0.000000 0.000000 0.000000 0.046160 0.000000 0.000000
# 5 0.000000 0.000000 0.000000 0.000000 0.048049 0.000000
# 6 0.000000 0.000000 0.000000 0.000000 0.000000 0.036146
#
#
# Mechanical properties :
#
#
# Convention : Reuss Voigt Hill
#
# Bulk Modulus (GPa) = 62.17926 65.43467 63.80697
# Shear Modulus (GPa) = 22.41151 22.98572 22.69862
#
# Velocity S-wave (km/s) = 3.85932 3.90845 3.88396
# Velocity P-wave (km/s) = 7.82193 7.99093 7.90688
#
# Compressibility (1/GPa) = 0.01608253
#
# Stress axis : x y z
#
# Youngs Moduli (GPa) = 54.64043 69.72353 52.38535
#
# Poissons Ratio (x) = 0.32186 0.29970
# Poissons Ratio (y) = 0.25223 0.39226
# Poissons Ratio (z) = 0.31260 0.52209
#
# Static dielectric constant tensor:
#      x y z
#    x 3.007480 0.000000 0.000000 
#    y 0.000000 3.162160 0.000000 
#    z 0.000000 0.000000 2.866250 
# 
# 
# High freq. dielectric constant tensor:
#      x y z
#    x 1.594430 0.000000 0.000000 
#    y 0.000000 1.569400 0.000000 
#    z 0.000000 0.000000 1.542040 
# 
# From -- ./inp_files/24419.got.cif
#   From: 2010.03.12/outbox.cif.g09.slc.cpg/sg46_13_cif.got.tgz:24419.got - 2010.04.14 02:56:35.
