data_PCOD8191724
_publ_section_title
;
Structure prediction by ZEFSAII (Michael W. Deem and Ramdas Pophale) SiO2 
 PCOD8191724
Probable space group: I M A 2
;
_chemical_formula_sum "Si O2"
_cell_formula_units_Z 48
_cell_length_a 8.953785
_cell_length_b 13.745354
_cell_length_c 23.360257
_cell_angle_alpha 90.000000
_cell_angle_beta 90.000000
_cell_angle_gamma 90.000000
_cell_volume 2875.015612
_symmetry_space_group_name_H-M "I M A 2"
_symmetry_group_IT_number 46
_symmetry_cell_setting 'orthorhombic'
loop_
_space_group_symop_operation_xyz
x,y,z
-x,-y,z
1/2-x,y,z
1/2+x,-y,z
1/2+x,1/2+y,1/2+z
1/2-x,1/2-y,1/2+z
-x,1/2+y,1/2+z
x,1/2-y,1/2+z
loop_
_atom_site_type_symbol
_atom_site_label
_atom_site_fract_x
_atom_site_fract_y
_atom_site_fract_z
Si Si1 0.926123 0.398186 0.732840
Si Si2 0.575807 0.603229 0.938431
Si Si3 0.424756 0.895884 0.889130
Si Si4 0.576347 0.099267 0.101978
Si Si5 0.073866 0.275001 0.827142
Si Si6 0.922971 0.270592 0.499511
O O1 0.750000 0.404857 0.744515
O O2 0.963821 0.373289 0.667033
O O3 0.000000 0.500000 0.750996
O O4 0.999038 0.312179 0.769040
O O5 0.500000 0.500000 0.944592
O O6 0.750000 0.589265 0.946321
O O7 0.534757 0.648386 0.876994
O O8 0.517696 0.673785 0.988453
O O9 0.250000 0.904419 0.875690
O O10 0.501466 0.828749 0.841196
O O11 0.455292 0.851655 0.951598
O O12 0.500000 0.000000 0.886076
O O13 0.750000 0.080603 0.093951
O O14 0.500000 0.000000 0.082495
O O15 0.524055 0.186390 0.060513
O O16 0.250000 0.262532 0.818844
O O17 0.750000 0.240838 0.499793
#
# Coordination Sequence:
#
# PCOD8191724 Si02
#       6
#     8   8   8   8   8   8
#     4  10  19  31  48  71  98 127 159 194 235 280
#     4  10  20  32  48  70  95 124 157 194 235 280
#     4  10  19  31  49  72  98 127 158 193 234 280
#     4   9  18  31  48  71  98 127 157 192 232 276
#     4  10  20  33  49  70  96 126 160 196 236 281
#     4   9  18  32  49  70  97 127 157 191 232 277
#
# _framework density 16.695561000000001
#
# number of rings (size 3 to 8) (size 9 to 14) (size 15 to 20)
#    0.000    2.333    0.000    3.000    0.000    5.333 
#    0.000    0.000    0.000    1.000    0.000    4.667 
#    0.000    0.000    0.000    0.000    0.000    0.000 
#
# Total GULP energy -297673.681979 kJ/mol
# GULP energy per Si atom -12403.070082 kJ/mol
# Density = 1.665756 g / cm^3
# Si number density = 16.695561 Si / 1000 Ang^3
#
#
#
# Elastic Constant Matrix: (Units=GPa)
#
#
# Indices 1 2 3 4 5 6 
#
# 1 84.4060 65.6567 43.8493 0.0000 0.0000 0.0000
# 2 65.6567 139.0837 57.1821 0.0002 0.0000 0.0000
# 3 43.8493 57.1821 81.7262 0.0002 0.0000 0.0000
# 4 0.0000 0.0002 0.0002 316.8112 0.0000 0.0001
# 5 0.0000 0.0000 0.0000 0.0000 23.1275 0.0000
# 6 0.0000 0.0000 0.0000 0.0001 0.0000 35.4598
#
#
#
# Elastic Compliance Matrix: (Units=1/GPa)
#
#
# Indices 1 2 3 4 5 6 
#
# 1 0.020605 -0.007274 -0.005966 0.000000 0.000000 0.000000
# 2 -0.007274 0.012661 -0.004956 0.000000 0.000000 0.000000
# 3 -0.005966 -0.004956 0.018905 0.000000 0.000000 0.000000
# 4 0.000000 0.000000 0.000000 0.003156 0.000000 0.000000
# 5 0.000000 0.000000 0.000000 0.000000 0.043239 0.000000
# 6 0.000000 0.000000 0.000000 0.000000 0.000000 0.028201
#
#
# Mechanical properties :
#
#
# Convention : Reuss Voigt Hill
#
# Bulk Modulus (GPa) = 63.37579 70.95470 67.16524
# Shear Modulus (GPa) = 29.68788 84.31489 57.00138
#
# Velocity S-wave (km/s) = 4.22143 7.11414 5.84942
# Velocity P-wave (km/s) = 7.86147 10.49156 9.27026
#
# Compressibility (1/GPa) = 0.01577890
#
# Stress axis : x y z
#
# Youngs Moduli (GPa) = 48.53151 78.98001 52.89745
#
# Poissons Ratio (x) = 0.57452 0.31558
# Poissons Ratio (y) = 0.35303 0.26216
# Poissons Ratio (z) = 0.28953 0.39143
#
# Static dielectric constant tensor:
#      x y z
#    x 3.235340 0.000000 0.000000 
#    y 0.000000 -14.853730 0.000000 
#    z 0.000000 0.000000 3.190580 
# 
# 
# High freq. dielectric constant tensor:
#      x y z
#    x 1.656800 0.000000 0.000000 
#    y 0.000000 1.635830 0.000000 
#    z 0.000000 0.000000 1.632330 
# 
# From -- ./inp_files/20906.got.cif
#   From: 2010.03.12/outbox.cif.g09.slc.cpg/sg46_11_cif.got.tgz:20906.got - 2010.04.14 02:56:35.
