data_PCOD8191125
_publ_section_title
;
Structure prediction by ZEFSAII (Michael W. Deem and Ramdas Pophale) SiO2 
 PCOD8191125
Probable space group: I B A 2
;
_chemical_formula_sum "Si O2"
_cell_formula_units_Z 48
_cell_length_a 21.844914
_cell_length_b 9.220838
_cell_length_c 10.344822
_cell_angle_alpha 90.000000
_cell_angle_beta 90.000000
_cell_angle_gamma 90.000000
_cell_volume 2083.741079
_symmetry_space_group_name_H-M "I B A 2"
_symmetry_group_IT_number 45
_symmetry_cell_setting 'orthorhombic'
loop_
_space_group_symop_operation_xyz
x,y,z
-x,-y,z
-x,y,1/2+z
x,-y,1/2+z
1/2+x,1/2+y,1/2+z
1/2-x,1/2-y,1/2+z
1/2-x,1/2+y,z
1/2+x,1/2-y,z
loop_
_atom_site_type_symbol
_atom_site_label
_atom_site_fract_x
_atom_site_fract_y
_atom_site_fract_z
Si Si1 0.196307 0.784509 0.498640
Si Si2 0.000000 0.000000 0.200492
Si Si3 0.000000 0.500000 0.006106
Si Si4 0.550452 0.750000 0.853299
Si Si5 0.303694 0.784509 0.707959
Si Si6 0.119367 0.062893 0.556209
Si Si7 0.119367 0.437106 0.150390
O O1 0.250001 0.790514 0.603299
O O2 0.220751 0.750000 0.353299
O O3 0.151672 0.653787 0.537506
O O4 0.163093 0.939822 0.497839
O O5 0.940131 0.987116 0.113926
O O6 0.001779 0.143907 0.286257
O O7 0.059869 0.512883 0.092673
O O8 0.001780 0.643907 0.920341
O O9 0.598133 0.831064 0.762523
O O10 0.598133 0.668935 0.944075
O O11 0.348329 0.653787 0.669093
O O12 0.336907 0.939822 0.708761
#
# Coordination Sequence:
#
# PCOD8191125 Si02
#       7
#     8   4   4   8   8   8   8
#     4  12  30  51  81 111 153 206 264 322 387 459
#     4  12  26  46  76 118 154 200 248 318 388 462
#     4  12  26  46  76 118 154 200 248 318 388 462
#     4  12  26  44  78 112 154 198 252 312 392 460
#     4  12  30  51  81 111 153 206 264 322 387 459
#     4  12  27  50  75 114 156 200 256 316 388 462
#     4  12  27  50  75 114 156 200 256 316 388 462
#
# _framework density 23.035492000000001
#
# number of rings (size 3 to 8) (size 9 to 14) (size 15 to 20)
#    0.000    0.000    3.333    5.000    9.333    2.667 
#    0.000    0.000    0.000    0.000    0.000    0.000 
#    0.000    0.000    0.000    0.000    0.000    0.000 
#
# Total GULP energy -297703.537912 kJ/mol
# GULP energy per Si atom -12404.314080 kJ/mol
# Density = 2.298306 g / cm^3
# Si number density = 23.035492 Si / 1000 Ang^3
#
#
#
# Elastic Constant Matrix: (Units=GPa)
#
#
# Indices 1 2 3 4 5 6 
#
# 1 107.1639 35.5705 55.6211 0.0000 0.0000 0.0000
# 2 35.5705 142.8574 61.2291 0.0000 0.0000 0.0000
# 3 55.6211 61.2291 167.7863 0.0000 0.0000 0.0000
# 4 0.0000 0.0000 0.0000 50.3905 0.0000 0.0000
# 5 0.0000 0.0000 0.0000 0.0000 20.9174 0.0000
# 6 0.0000 0.0000 0.0000 0.0000 0.0000 37.7321
#
#
#
# Elastic Compliance Matrix: (Units=1/GPa)
#
#
# Indices 1 2 3 4 5 6 
#
# 1 0.011522 -0.001460 -0.003287 0.000000 0.000000 0.000000
# 2 -0.001460 0.008483 -0.002612 0.000000 0.000000 0.000000
# 3 -0.003287 -0.002612 0.008003 0.000000 0.000000 0.000000
# 4 0.000000 0.000000 0.000000 0.019845 0.000000 0.000000
# 5 0.000000 0.000000 0.000000 0.000000 0.047807 0.000000
# 6 0.000000 0.000000 0.000000 0.000000 0.000000 0.026503
#
#
# Mechanical properties :
#
#
# Convention : Reuss Voigt Hill
#
# Bulk Modulus (GPa) = 75.24142 80.29434 77.76788
# Shear Modulus (GPa) = 35.38338 39.50046 37.44192
#
# Velocity S-wave (km/s) = 3.92348 4.14546 4.03600
# Velocity P-wave (km/s) = 7.29789 7.60563 7.45335
#
# Compressibility (1/GPa) = 0.01329055
#
# Stress axis : x y z
#
# Youngs Moduli (GPa) = 86.78989 117.88442 124.96075
#
# Poissons Ratio (x) = 0.17214 0.41071
# Poissons Ratio (y) = 0.12673 0.32634
# Poissons Ratio (z) = 0.28525 0.30786
#
# Static dielectric constant tensor:
#      x y z
#    x 4.114530 0.000000 0.000000 
#    y 0.000000 4.158700 0.000000 
#    z 0.000000 0.000000 4.362260 
# 
# 
# High freq. dielectric constant tensor:
#      x y z
#    x 1.913560 0.000000 0.000000 
#    y 0.000000 1.934310 0.000000 
#    z 0.000000 0.000000 1.923230 
# 
# From -- ./inp_files/4774.got.cif
#   From: 2010.03.12/outbox.cif.g09.slc.cpg/sg45_3_cif.got.tgz:4774.got - 2010.04.14 02:50:11.
