data_PCOD8191464
_publ_section_title
;
Structure prediction by ZEFSAII (Michael W. Deem and Ramdas Pophale) SiO2 
 PCOD8191464
Probable space group: I M A 2
;
_chemical_formula_sum "Si O2"
_cell_formula_units_Z 64
_cell_length_a 9.412793
_cell_length_b 28.486824
_cell_length_c 12.290463
_cell_angle_alpha 90.000000
_cell_angle_beta 90.000000
_cell_angle_gamma 90.000000
_cell_volume 3295.571847
_symmetry_space_group_name_H-M "I M A 2"
_symmetry_group_IT_number 46
_symmetry_cell_setting 'orthorhombic'
loop_
_space_group_symop_operation_xyz
x,y,z
-x,-y,z
1/2-x,y,z
1/2+x,-y,z
1/2+x,1/2+y,1/2+z
1/2-x,1/2-y,1/2+z
-x,1/2+y,1/2+z
x,1/2-y,1/2+z
loop_
_atom_site_type_symbol
_atom_site_label
_atom_site_fract_x
_atom_site_fract_y
_atom_site_fract_z
Si Si1 0.081226 0.839647 0.883780
Si Si2 0.582023 0.651639 0.735347
Si Si3 0.588674 0.821164 0.473051
Si Si4 0.087411 0.046006 0.181029
Si Si5 0.904712 0.137285 0.646580
Si Si6 0.407038 0.962506 0.739324
Si Si7 0.413527 0.427903 0.437468
Si Si8 0.413505 0.283522 0.534883
O O1 0.250000 0.847869 0.897150
O O2 0.037707 0.838810 0.757028
O O3 0.993036 0.878313 0.951246
O O4 0.023259 0.792144 0.935837
O O5 0.750000 0.649441 0.726409
O O6 0.529720 0.675043 0.849187
O O7 0.526473 0.597354 0.721897
O O8 0.530899 0.688612 0.641949
O O9 0.750000 0.837498 0.468100
O O10 0.507343 0.858596 0.545379
O O11 0.573188 0.772620 0.539712
O O12 0.250000 0.040037 0.220861
O O13 0.079752 0.044929 0.050829
O O14 0.000000 0.000000 0.224447
O O15 0.750000 0.158463 0.617553
O O16 0.890801 0.082465 0.666251
O O17 0.250000 0.981067 0.771807
O O18 0.499116 0.956219 0.848271
O O19 0.500000 0.000000 0.670420
O O20 0.250000 0.419731 0.401649
O O21 0.250000 0.297392 0.507508
#
# Coordination Sequence:
#
# PCOD8191464 Si02
#       8
#     8   8   8   8   8   8   8   8
#     4  10  20  34  54  82 116 151 184 228 279 341
#     4   9  19  39  57  82 121 149 184 244 299 339
#     4  10  22  37  62  87 108 149 197 241 285 346
#     4  10  20  34  54  78 113 153 188 234 286 340
#     4   9  21  39  55  77 117 152 184 235 285 333
#     4  10  20  34  53  80 113 152 191 240 291 339
#     4  10  18  31  52  79 112 153 186 229 290 343
#     4  10  20  36  60  87 114 146 186 235 291 348
#
# _framework density 19.420000000000002
#
# number of rings (size 3 to 8) (size 9 to 14) (size 15 to 20)
#    0.000    2.250    1.250    2.250    1.750    5.500 
#    0.000    1.875    0.000    3.000    0.000    0.000 
#    0.000    0.000    0.000    0.000    0.000    0.000 
#
# Total GULP energy -396429.737059 kJ/mol
# GULP energy per Si atom -12388.429283 kJ/mol
# Density = 1.937580 g / cm^3
# Si number density = 19.420000 Si / 1000 Ang^3
#
#
#
# Elastic Constant Matrix: (Units=GPa)
#
#
# Indices 1 2 3 4 5 6 
#
# 1 94.2872 35.7816 40.4266 0.0002 -0.0009 -0.0001
# 2 35.7816 82.2984 43.5773 0.0001 -0.0001 0.0000
# 3 40.4266 43.5773 99.2068 0.0029 -0.0050 -0.0005
# 4 0.0002 0.0001 0.0029 8.5099 -0.0013 -0.0001
# 5 -0.0009 -0.0001 -0.0050 -0.0013 9.2138 0.0007
# 6 -0.0001 0.0000 -0.0005 -0.0001 0.0007 28.8769
#
#
#
# Elastic Compliance Matrix: (Units=1/GPa)
#
#
# Indices 1 2 3 4 5 6 
#
# 1 0.013761 -0.003927 -0.003883 0.000001 -0.000001 0.000000
# 2 -0.003927 0.016954 -0.005847 0.000002 -0.000003 0.000000
# 3 -0.003883 -0.005847 0.014230 -0.000005 0.000007 0.000000
# 4 0.000001 0.000002 -0.000005 0.117511 0.000017 0.000001
# 5 -0.000001 -0.000003 0.000007 0.000017 0.108533 -0.000003
# 6 0.000000 0.000000 0.000000 0.000001 -0.000003 0.034630
#
#
# Mechanical properties :
#
#
# Convention : Reuss Voigt Hill
#
# Bulk Modulus (GPa) = 56.71403 57.26260 56.98831
# Shear Modulus (GPa) = 14.75753 19.72057 17.23905
#
# Velocity S-wave (km/s) = 2.75964 3.19011 2.98265
# Velocity P-wave (km/s) = 6.27866 6.56654 6.42421
#
# Compressibility (1/GPa) = 0.01763232
#
# Stress axis : x y z
#
# Youngs Moduli (GPa) = 72.66973 58.98183 70.27200
#
# Poissons Ratio (x) = 0.23163 0.27283
# Poissons Ratio (y) = 0.28538 0.41088
# Poissons Ratio (z) = 0.28214 0.34487
#
# Static dielectric constant tensor:
#      x y z
#    x 3.770720 0.000000 0.000010 
#    y 0.000000 3.816250 0.000000 
#    z 0.000010 0.000000 3.335660 
# 
# 
# High freq. dielectric constant tensor:
#      x y z
#    x 1.746730 0.000000 0.000000 
#    y 0.000000 1.760140 0.000000 
#    z 0.000000 0.000000 1.731980 
# 
# From -- ./inp_files/9778.got.cif
#   From: 2010.03.12/outbox.cif.g09.slc.cpg/sg46_5_cif.got.tgz:9778.got - 2010.04.14 02:56:35.
