data_PCOD8191643
_publ_section_title
;
Structure prediction by ZEFSAII (Michael W. Deem and Ramdas Pophale) SiO2 
 PCOD8191643
Probable space group: I M A 2
;
_chemical_formula_sum "Si O2"
_cell_formula_units_Z 64
_cell_length_a 9.327756
_cell_length_b 25.970321
_cell_length_c 18.536511
_cell_angle_alpha 90.000000
_cell_angle_beta 90.000000
_cell_angle_gamma 90.000000
_cell_volume 4490.373725
_symmetry_space_group_name_H-M "I M A 2"
_symmetry_group_IT_number 46
_symmetry_cell_setting 'orthorhombic'
loop_
_space_group_symop_operation_xyz
x,y,z
-x,-y,z
1/2-x,y,z
1/2+x,-y,z
1/2+x,1/2+y,1/2+z
1/2-x,1/2-y,1/2+z
-x,1/2+y,1/2+z
x,1/2-y,1/2+z
loop_
_atom_site_type_symbol
_atom_site_label
_atom_site_fract_x
_atom_site_fract_y
_atom_site_fract_z
Si Si1 0.415149 0.207272 0.833510
Si Si2 0.918138 0.948741 0.453953
Si Si3 0.088183 0.857688 0.386343
Si Si4 0.583959 0.252912 0.456845
Si Si5 0.914705 0.244115 0.616814
Si Si6 0.583908 0.950127 0.620606
Si Si7 0.416316 0.346201 0.193143
Si Si8 0.588601 0.292973 0.758479
O O1 0.250000 0.213747 0.853755
O O2 0.502959 0.204281 0.908185
O O3 0.440972 0.158749 0.779808
O O4 0.466087 0.256499 0.788823
O O5 0.750000 0.955629 0.439015
O O6 0.951488 0.937485 0.537501
O O7 0.975425 0.900801 0.408213
O O8 0.000000 0.000000 0.428258
O O9 0.250000 0.875884 0.404993
O O10 0.052999 0.804638 0.428156
O O11 0.072268 0.847828 0.299399
O O12 0.750000 0.266816 0.452846
O O13 0.523780 0.258637 0.538261
O O14 0.750000 0.227362 0.607793
O O15 0.929886 0.293467 0.671273
O O16 0.995673 0.195190 0.648192
O O17 0.750000 0.961934 0.631259
O O18 0.532015 0.902564 0.669283
O O19 0.500000 0.000000 0.647917
O O20 0.250000 0.337710 0.173605
O O21 0.750000 0.271673 0.776954
#
# Coordination Sequence:
#
# PCOD8191643 Si02
#       8
#     8   8   8   8   8   8   8   8
#     4   9  16  25  38  55  76 103 131 158 191 229
#     4  10  19  29  41  56  75 100 129 161 193 225
#     4   9  16  26  39  55  77 103 129 158 191 224
#     4   9  17  27  39  57  81 106 132 162 191 223
#     4   9  16  26  41  59  78 104 135 161 189 227
#     4   9  18  30  41  55  76 100 128 162 195 225
#     4   9  17  28  40  56  79 104 130 162 197 229
#     4   8  15  27  40  55  77 102 128 160 194 226
#
# _framework density 14.252711
#
# number of rings (size 3 to 8) (size 9 to 14) (size 15 to 20)
#    0.000    3.000    0.000    2.250    0.000    4.000 
#    0.000    0.000    0.000    0.000    0.000    0.000 
#    0.000    1.000    0.000    7.500    0.000    2.500 
#
# Total GULP energy -396534.556799 kJ/mol
# GULP energy per Si atom -12391.704900 kJ/mol
# Density = 1.422027 g / cm^3
# Si number density = 14.252711 Si / 1000 Ang^3
#
#
#
# Elastic Constant Matrix: (Units=GPa)
#
#
# Indices 1 2 3 4 5 6 
#
# 1 58.4331 37.7464 41.7317 0.0000 0.0000 0.0000
# 2 37.7464 68.7368 48.8306 0.0000 0.0000 0.0000
# 3 41.7317 48.8306 115.3962 -0.0002 0.0000 0.0000
# 4 0.0000 0.0000 -0.0002 22.8120 0.0000 0.0000
# 5 0.0000 0.0000 0.0000 0.0000 19.6350 0.0000
# 6 0.0000 0.0000 0.0000 0.0000 0.0000 20.8731
#
#
#
# Elastic Compliance Matrix: (Units=1/GPa)
#
#
# Indices 1 2 3 4 5 6 
#
# 1 0.028614 -0.011956 -0.005289 0.000000 0.000000 0.000000
# 2 -0.011956 0.025797 -0.006592 0.000000 0.000000 0.000000
# 3 -0.005289 -0.006592 0.013368 0.000000 0.000000 0.000000
# 4 0.000000 0.000000 0.000000 0.043837 0.000000 0.000000
# 5 0.000000 0.000000 0.000000 0.000000 0.050929 0.000000
# 6 0.000000 0.000000 0.000000 0.000000 0.000000 0.047909
#
#
# Mechanical properties :
#
#
# Convention : Reuss Voigt Hill
#
# Bulk Modulus (GPa) = 49.73949 55.46483 52.60216
# Shear Modulus (GPa) = 18.88005 20.28118 19.58062
#
# Velocity S-wave (km/s) = 3.64354 3.77632 3.71052
# Velocity P-wave (km/s) = 7.25772 7.61668 7.43937
#
# Compressibility (1/GPa) = 0.02010475
#
# Stress axis : x y z
#
# Youngs Moduli (GPa) = 34.94792 38.76390 74.80574
#
# Poissons Ratio (x) = 0.46347 0.39561
# Poissons Ratio (y) = 0.41785 0.49315
# Poissons Ratio (z) = 0.18482 0.25555
#
# Static dielectric constant tensor:
#      x y z
#    x 2.837410 0.000000 0.000000 
#    y 0.000000 2.585770 0.000000 
#    z 0.000000 0.000000 3.072160 
# 
# 
# High freq. dielectric constant tensor:
#      x y z
#    x 1.552910 0.000000 0.000000 
#    y 0.000000 1.502160 0.000000 
#    z 0.000000 0.000000 1.540670 
# 
# From -- ./inp_files/18671.got.cif
#   From: 2010.03.12/outbox.cif.g09.slc.cpg/sg46_10_cif.got.tgz:18671.got - 2010.04.14 02:56:35.
