data_PCOD8191089
_publ_section_title
;
Structure prediction by ZEFSAII (Michael W. Deem and Ramdas Pophale) SiO2 
 PCOD8191089
Probable space group: I B A 2
;
_chemical_formula_sum "Si O2"
_cell_formula_units_Z 56
_cell_length_a 16.796487
_cell_length_b 13.490276
_cell_length_c 11.019113
_cell_angle_alpha 90.000000
_cell_angle_beta 90.000000
_cell_angle_gamma 90.000000
_cell_volume 2496.812500
_symmetry_space_group_name_H-M "I B A 2"
_symmetry_group_IT_number 45
_symmetry_cell_setting 'orthorhombic'
loop_
_space_group_symop_operation_xyz
x,y,z
-x,-y,z
-x,y,1/2+z
x,-y,1/2+z
1/2+x,1/2+y,1/2+z
1/2-x,1/2-y,1/2+z
1/2-x,1/2+y,z
1/2+x,1/2-y,z
loop_
_atom_site_type_symbol
_atom_site_label
_atom_site_fract_x
_atom_site_fract_y
_atom_site_fract_z
Si Si1 0.828434 0.266720 0.777890
Si Si2 0.829404 0.883838 0.807057
Si Si3 0.350182 0.938977 0.017553
Si Si4 0.455331 0.596739 0.610036
Si Si5 0.088858 0.461505 0.276209
Si Si6 0.181004 0.920323 0.932144
Si Si7 0.603625 0.719100 0.539182
O O1 0.749972 0.332267 0.758373
O O2 0.903613 0.342153 0.790647
O O3 0.820151 0.193527 0.889764
O O4 0.843555 0.200600 0.659067
O O5 0.901110 0.858194 0.716280
O O6 0.813278 0.001674 0.821116
O O7 0.852366 0.843027 0.937611
O O8 0.376546 0.994009 0.142932
O O9 0.397593 0.835486 0.006513
O O10 0.254832 0.927084 0.025152
O O11 0.364839 0.996420 0.892447
O O12 0.500000 0.500000 0.661628
O O13 0.400841 0.557546 0.500785
O O14 0.513759 0.682169 0.561855
O O15 0.000000 0.500000 0.283844
#
# Coordination Sequence:
#
# PCOD8191089 Si02
#       7
#     8   8   8   8   8   8   8
#     4  11  26  50  74 105 144 196 247 297 363 441
#     4  12  26  48  73 106 147 195 243 300 367 436
#     4  11  25  48  74 107 147 198 246 301 369 444
#     4  12  27  44  73 108 152 190 239 304 369 430
#     4  11  25  47  74 108 152 191 245 306 370 437
#     4  12  26  47  78 104 148 192 248 296 368 444
#     4  11  26  46  70 109 148 185 248 295 367 436
#
# _framework density 22.428595999999999
#
# number of rings (size 3 to 8) (size 9 to 14) (size 15 to 20)
#    0.000    0.571    4.286    3.000    6.000    1.143 
#    2.571    0.000    0.000    0.000    0.000    0.000 
#    0.000    0.000    0.000    0.000    0.000    0.000 
#
# Total GULP energy -347208.121277 kJ/mol
# GULP energy per Si atom -12400.290046 kJ/mol
# Density = 2.237755 g / cm^3
# Si number density = 22.428596 Si / 1000 Ang^3
#
#
#
# Elastic Constant Matrix: (Units=GPa)
#
#
# Indices 1 2 3 4 5 6 
#
# 1 132.7280 24.5946 29.3120 0.0000 0.0000 0.0000
# 2 24.5946 71.6169 21.2699 0.0000 0.0000 0.0000
# 3 29.3120 21.2699 107.5584 0.0000 0.0000 0.0000
# 4 0.0000 0.0000 0.0000 41.3796 0.0000 0.0000
# 5 0.0000 0.0000 0.0000 0.0000 39.8993 0.0000
# 6 0.0000 0.0000 0.0000 0.0000 0.0000 15.7734
#
#
#
# Elastic Compliance Matrix: (Units=1/GPa)
#
#
# Indices 1 2 3 4 5 6 
#
# 1 0.008368 -0.002334 -0.001819 0.000000 0.000000 0.000000
# 2 -0.002334 0.015485 -0.002426 0.000000 0.000000 0.000000
# 3 -0.001819 -0.002426 0.010273 0.000000 0.000000 0.000000
# 4 0.000000 0.000000 0.000000 0.024166 0.000000 0.000000
# 5 0.000000 0.000000 0.000000 0.000000 0.025063 0.000000
# 6 0.000000 0.000000 0.000000 0.000000 0.000000 0.063398
#
#
# Mechanical properties :
#
#
# Convention : Reuss Voigt Hill
#
# Bulk Modulus (GPa) = 47.69072 51.36183 49.52627
# Shear Modulus (GPa) = 29.95782 35.19225 32.57504
#
# Velocity S-wave (km/s) = 3.65868 3.96546 3.81516
# Velocity P-wave (km/s) = 6.25759 6.62694 6.44491
#
# Compressibility (1/GPa) = 0.02096844
#
# Stress axis : x y z
#
# Youngs Moduli (GPa) = 119.49785 64.57788 97.34434
#
# Poissons Ratio (x) = 0.15070 0.17708
# Poissons Ratio (y) = 0.27886 0.23618
# Poissons Ratio (z) = 0.21738 0.15668
#
# Static dielectric constant tensor:
#      x y z
#    x 4.092260 0.000000 0.000000 
#    y 0.000000 4.018780 0.000000 
#    z 0.000000 0.000000 4.141890 
# 
# 
# High freq. dielectric constant tensor:
#      x y z
#    x 1.891560 0.000000 0.000000 
#    y 0.000000 1.880990 0.000000 
#    z 0.000000 0.000000 1.895900 
# 
# From -- ./inp_files/4129.got.cif
#   From: 2010.03.12/outbox.cif.g09.slc.cpg/sg45_3_cif.got.tgz:4129.got - 2010.04.14 02:50:11.
