data_PCOD8191196
_publ_section_title
;
Structure prediction by ZEFSAII (Michael W. Deem and Ramdas Pophale) SiO2 
 PCOD8191196
Probable space group: I M A 2
;
_chemical_formula_sum "Si O2"
_cell_formula_units_Z 64
_cell_length_a 8.573167
_cell_length_b 29.996871
_cell_length_c 14.712021
_cell_angle_alpha 90.000000
_cell_angle_beta 90.000000
_cell_angle_gamma 90.000000
_cell_volume 3783.463732
_symmetry_space_group_name_H-M "I M A 2"
_symmetry_group_IT_number 46
_symmetry_cell_setting 'orthorhombic'
loop_
_space_group_symop_operation_xyz
x,y,z
-x,-y,z
1/2-x,y,z
1/2+x,-y,z
1/2+x,1/2+y,1/2+z
1/2-x,1/2-y,1/2+z
-x,1/2+y,1/2+z
x,1/2-y,1/2+z
loop_
_atom_site_type_symbol
_atom_site_label
_atom_site_fract_x
_atom_site_fract_y
_atom_site_fract_z
Si Si1 0.073686 0.277713 0.062280
Si Si2 0.069507 0.371929 0.391300
Si Si3 0.932763 0.453050 0.480934
Si Si4 0.923695 0.673656 0.578266
Si Si5 0.936612 0.798170 0.755240
Si Si6 0.064679 0.211682 0.362991
Si Si7 0.065793 0.451925 0.677127
Si Si8 0.570053 0.133894 0.246517
O O1 0.250000 0.294750 0.054003
O O2 0.067034 0.226064 0.085252
O O3 0.997069 0.300982 0.151574
O O4 0.991537 0.288251 0.965578
O O5 0.250000 0.385350 0.381530
O O6 0.039893 0.339641 0.475894
O O7 0.009961 0.343741 0.304611
O O8 0.969154 0.416845 0.402926
O O9 0.750000 0.457455 0.498631
O O10 0.000000 0.500000 0.446684
O O11 0.014528 0.438379 0.574999
O O12 0.750000 0.657209 0.607731
O O13 0.050461 0.652508 0.644757
O O14 0.750000 0.794585 0.755100
O O15 0.002649 0.754108 0.806968
O O16 0.250000 0.216193 0.368106
O O17 0.019501 0.165191 0.317232
O O18 0.250000 0.453289 0.681671
O O19 0.000000 0.500000 0.704450
O O20 0.000476 0.416000 0.749122
O O21 0.750000 0.132262 0.273199
#
# Coordination Sequence:
#
# PCOD8191196 Si02
#       8
#     8   8   8   8   8   8   8   8
#     4   9  16  28  49  75  98 128 173 216 249 288
#     4  10  18  29  48  74 101 135 171 206 247 294
#     4  11  21  33  49  72 101 132 165 204 248 300
#     4  10  17  28  49  71  97 132 172 210 244 287
#     4   9  16  27  48  75 100 129 171 213 248 293
#     4  10  18  31  51  72  96 131 173 211 246 292
#     4  11  21  35  53  74 100 130 163 202 247 299
#     4  12  23  33  46  71 103 137 170 204 247 297
#
# _framework density 16.915717000000001
#
# number of rings (size 3 to 8) (size 9 to 14) (size 15 to 20)
#    0.000    1.750    3.750    4.125    0.000    0.000 
#    0.000    1.250    0.000    0.000    0.000    0.875 
#    0.000    4.000    0.000    0.000    0.000    0.000 
#
# Total GULP energy -396694.297215 kJ/mol
# GULP energy per Si atom -12396.696788 kJ/mol
# Density = 1.687722 g / cm^3
# Si number density = 16.915717 Si / 1000 Ang^3
#
#
#
# Elastic Constant Matrix: (Units=GPa)
#
#
# Indices 1 2 3 4 5 6 
#
# 1 47.9492 11.4141 11.4825 -0.0001 0.0000 0.0000
# 2 11.4141 90.7623 40.4988 -0.0002 0.0001 0.0000
# 3 11.4825 40.4988 80.7375 0.0002 -0.0002 0.0000
# 4 -0.0001 -0.0002 0.0002 23.9579 0.0002 0.0001
# 5 0.0000 0.0001 -0.0002 0.0002 11.2700 0.0000
# 6 0.0000 0.0000 0.0000 0.0001 0.0000 21.6274
#
#
#
# Elastic Compliance Matrix: (Units=1/GPa)
#
#
# Indices 1 2 3 4 5 6 
#
# 1 0.021804 -0.001750 -0.002223 0.000000 0.000000 0.000000
# 2 -0.001750 0.014335 -0.006942 0.000000 0.000000 0.000000
# 3 -0.002223 -0.006942 0.016184 0.000000 0.000000 0.000000
# 4 0.000000 0.000000 0.000000 0.041740 -0.000001 0.000000
# 5 0.000000 0.000000 0.000000 -0.000001 0.088731 0.000000
# 6 0.000000 0.000000 0.000000 0.000000 0.000000 0.046238
#
#
# Mechanical properties :
#
#
# Convention : Reuss Voigt Hill
#
# Bulk Modulus (GPa) = 32.79373 38.47108 35.63240
# Shear Modulus (GPa) = 19.15505 21.77461 20.46483
#
# Velocity S-wave (km/s) = 3.36874 3.59171 3.48201
# Velocity P-wave (km/s) = 5.87876 6.32397 6.10543
#
# Compressibility (1/GPa) = 0.03049364
#
# Stress axis : x y z
#
# Youngs Moduli (GPa) = 45.86228 69.75739 61.78895
#
# Poissons Ratio (x) = 0.12208 0.13737
# Poissons Ratio (y) = 0.08026 0.42893
# Poissons Ratio (z) = 0.10196 0.48425
#
# Static dielectric constant tensor:
#      x y z
#    x 2.926370 0.000000 0.000000 
#    y 0.000000 3.441160 0.000000 
#    z 0.000000 0.000000 3.230920 
# 
# 
# High freq. dielectric constant tensor:
#      x y z
#    x 1.628450 0.000000 0.000000 
#    y 0.000000 1.649090 0.000000 
#    z 0.000000 0.000000 1.628860 
# 
# From -- ./inp_files/14760.got.cif
#   From: 2010.03.12/outbox.cif.g09.slc.cpg/sg46_8_cif.got.tgz:14760.got - 2010.04.14 02:56:35.
