data_PCOD8191386
_publ_section_title
;
Structure prediction by ZEFSAII (Michael W. Deem and Ramdas Pophale) SiO2 
 PCOD8191386
Probable space group: I M A 2
;
_chemical_formula_sum "Si O2"
_cell_formula_units_Z 44
_cell_length_a 29.821352
_cell_length_b 16.101205
_cell_length_c 5.236398
_cell_angle_alpha 90.000000
_cell_angle_beta 90.000000
_cell_angle_gamma 90.000000
_cell_volume 2514.307303
_symmetry_space_group_name_H-M "I M A 2"
_symmetry_group_IT_number 46
_symmetry_cell_setting 'orthorhombic'
loop_
_space_group_symop_operation_xyz
x,y,z
-x,-y,z
1/2-x,y,z
1/2+x,-y,z
1/2+x,1/2+y,1/2+z
1/2-x,1/2-y,1/2+z
-x,1/2+y,1/2+z
x,1/2-y,1/2+z
loop_
_atom_site_type_symbol
_atom_site_label
_atom_site_fract_x
_atom_site_fract_y
_atom_site_fract_z
Si Si1 0.425614 0.220972 0.800980
Si Si2 0.750000 0.200288 0.254707
Si Si3 0.948572 0.529850 0.315443
Si Si4 0.153348 0.805398 0.340052
Si Si5 0.922589 0.442564 0.813447
Si Si6 0.478598 0.707972 0.787142
O O1 0.397450 0.247303 0.547930
O O2 0.444996 0.128897 0.807490
O O3 0.468153 0.283481 0.783094
O O4 0.750000 0.278161 0.453399
O O5 0.796695 0.153015 0.317861
O O6 0.921628 0.500643 0.565233
O O7 0.000000 0.500000 0.317889
O O8 0.922188 0.496425 0.069475
O O9 0.146639 0.761760 0.614262
O O10 0.119055 0.880430 0.309736
O O11 0.968697 0.389716 0.803828
O O12 0.456332 0.745754 0.530525
#
# Coordination Sequence:
#
# PCOD8191386 Si02
#       6
#     8   4   8   8   8   8
#     4  10  19  33  47  59  79 115 156 191 230 282
#     4   8  16  30  50  74 100 130 166 196 234 292
#     4  12  23  34  47  67  93 123 161 209 251 281
#     4  10  19  33  52  75 102 135 168 202 241 291
#     4  12  22  33  48  70  95 123 161 209 246 280
#     4  10  18  30  44  59  80 113 154 191 225 270
#
# _framework density 17.499849999999999
#
# number of rings (size 3 to 8) (size 9 to 14) (size 15 to 20)
#    0.000    1.455    0.000    9.273    0.000    0.000 
#    0.000    0.000    0.000    0.000    0.000    0.000 
#    0.000    0.000    0.000   16.364    0.000    0.000 
#
# Total GULP energy -272601.831907 kJ/mol
# GULP energy per Si atom -12390.992359 kJ/mol
# Density = 1.746002 g / cm^3
# Si number density = 17.499850 Si / 1000 Ang^3
#
#
#
# Elastic Constant Matrix: (Units=GPa)
#
#
# Indices 1 2 3 4 5 6 
#
# 1 63.4175 9.7914 10.4147 -0.0003 0.0000 0.0000
# 2 9.7914 67.6535 42.1728 0.0000 0.0000 0.0000
# 3 10.4147 42.1728 169.6508 -0.0004 0.0008 0.0001
# 4 -0.0003 0.0000 -0.0004 32.8286 0.0002 0.0000
# 5 0.0000 0.0000 0.0008 0.0002 11.9905 0.0001
# 6 0.0000 0.0000 0.0001 0.0000 0.0001 7.9402
#
#
#
# Elastic Compliance Matrix: (Units=1/GPa)
#
#
# Indices 1 2 3 4 5 6 
#
# 1 0.016163 -0.002036 -0.000486 0.000000 0.000000 0.000000
# 2 -0.002036 0.017748 -0.004287 0.000000 0.000000 0.000000
# 3 -0.000486 -0.004287 0.006990 0.000000 0.000000 0.000000
# 4 0.000000 0.000000 0.000000 0.030461 0.000000 0.000000
# 5 0.000000 0.000000 0.000000 0.000000 0.083399 -0.000001
# 6 0.000000 0.000000 0.000000 0.000000 -0.000001 0.125941
#
#
# Mechanical properties :
#
#
# Convention : Reuss Voigt Hill
#
# Bulk Modulus (GPa) = 36.65357 47.27553 41.96455
# Shear Modulus (GPa) = 16.47906 26.44138 21.46022
#
# Velocity S-wave (km/s) = 3.07199 3.89131 3.50567
# Velocity P-wave (km/s) = 5.79425 6.87482 6.35754
#
# Compressibility (1/GPa) = 0.02728247
#
# Stress axis : x y z
#
# Youngs Moduli (GPa) = 61.87077 56.34356 143.06197
#
# Poissons Ratio (x) = 0.11473 0.06953
# Poissons Ratio (y) = 0.12598 0.61330
# Poissons Ratio (z) = 0.03007 0.24154
#
# Static dielectric constant tensor:
#      x y z
#    x 2.981250 0.000000 0.000000 
#    y 0.000000 3.145100 0.000000 
#    z 0.000000 0.000000 5.499460 
# 
# 
# High freq. dielectric constant tensor:
#      x y z
#    x 1.612780 0.000000 0.000000 
#    y 0.000000 1.655750 0.000000 
#    z 0.000000 0.000000 1.722930 
# 
# From -- ./inp_files/2703.got.cif
#   From: 2010.03.12/outbox.cif.g09.slc.cpg/sg46_2_cif.got.tgz:2703.got - 2010.04.14 02:56:35.
