data_PCOD8191803
_publ_section_title
;
Structure prediction by ZEFSAII (Michael W. Deem and Ramdas Pophale) SiO2 
 PCOD8191803
Probable space group: I M A 2
;
_chemical_formula_sum "Si O2"
_cell_formula_units_Z 64
_cell_length_a 8.918056
_cell_length_b 27.531343
_cell_length_c 14.580516
_cell_angle_alpha 90.000000
_cell_angle_beta 90.000000
_cell_angle_gamma 90.000000
_cell_volume 3579.896626
_symmetry_space_group_name_H-M "I M A 2"
_symmetry_group_IT_number 46
_symmetry_cell_setting 'orthorhombic'
loop_
_space_group_symop_operation_xyz
x,y,z
-x,-y,z
1/2-x,y,z
1/2+x,-y,z
1/2+x,1/2+y,1/2+z
1/2-x,1/2-y,1/2+z
-x,1/2+y,1/2+z
x,1/2-y,1/2+z
loop_
_atom_site_type_symbol
_atom_site_label
_atom_site_fract_x
_atom_site_fract_y
_atom_site_fract_z
Si Si1 0.074602 0.278917 0.527010
Si Si2 0.924494 0.220667 0.212218
Si Si3 0.072642 0.635329 0.844381
Si Si4 0.427631 0.331993 0.023773
Si Si5 0.427219 0.361761 0.391887
Si Si6 0.072355 0.449399 0.727466
Si Si7 0.425571 0.049512 0.017601
Si Si8 0.573026 0.331303 0.213207
O O1 0.250000 0.283320 0.541871
O O2 0.024729 0.223902 0.506520
O O3 0.021842 0.312591 0.443381
O O4 0.003227 0.298679 0.620591
O O5 0.750000 0.218143 0.192326
O O6 0.970799 0.186275 0.296303
O O7 0.974650 0.275671 0.234441
O O8 0.250000 0.627555 0.849469
O O9 0.998413 0.592063 0.789042
O O10 0.003607 0.635391 0.945828
O O11 0.250000 0.339195 0.022181
O O12 0.492596 0.349615 0.120922
O O13 0.250000 0.362571 0.374237
O O14 0.480984 0.407078 0.452797
O O15 0.513440 0.364578 0.295693
O O16 0.250000 0.451325 0.742014
O O17 0.028322 0.438487 0.622058
O O18 0.000000 0.500000 0.759120
O O19 0.250000 0.042293 0.009980
O O20 0.500000 0.000000 0.982716
O O21 0.750000 0.337413 0.202029
#
# Coordination Sequence:
#
# PCOD8191803 Si02
#       8
#     8   8   8   8   8   8   8   8
#     4   9  18  31  49  73 102 134 171 210 250 298
#     4   9  19  32  47  71 105 138 169 206 250 297
#     4  11  21  33  51  76 104 136 172 210 251 302
#     4  10  20  34  51  72  99 135 173 212 254 297
#     4  10  19  32  50  74 101 131 167 208 250 296
#     4  10  20  36  56  79 106 135 166 205 252 303
#     4   9  19  34  53  76 104 133 163 202 249 298
#     4  10  20  34  50  71 100 136 173 211 252 297
#
# _framework density 17.877611000000002
#
# number of rings (size 3 to 8) (size 9 to 14) (size 15 to 20)
#    0.000    2.250    0.000    3.000    0.000    4.500 
#    0.000    0.000    0.000    0.750    0.000    3.500 
#    0.000    0.000    0.000    0.000    0.000    0.000 
#
# Total GULP energy -396896.697281 kJ/mol
# GULP energy per Si atom -12403.021790 kJ/mol
# Density = 1.783692 g / cm^3
# Si number density = 17.877611 Si / 1000 Ang^3
#
#
#
# Elastic Constant Matrix: (Units=GPa)
#
#
# Indices 1 2 3 4 5 6 
#
# 1 63.0105 38.0661 50.4952 0.0001 0.0000 0.0000
# 2 38.0661 83.3222 60.8390 0.0001 0.0000 0.0000
# 3 50.4952 60.8390 132.4792 0.0005 0.0001 0.0000
# 4 0.0001 0.0001 0.0005 27.5236 0.0000 0.0000
# 5 0.0000 0.0000 0.0001 0.0000 33.6313 0.0000
# 6 0.0000 0.0000 0.0000 0.0000 0.0000 27.7045
#
#
#
# Elastic Compliance Matrix: (Units=1/GPa)
#
#
# Indices 1 2 3 4 5 6 
#
# 1 0.025146 -0.006755 -0.006483 0.000000 0.000000 0.000000
# 2 -0.006755 0.019871 -0.006551 0.000000 0.000000 0.000000
# 3 -0.006483 -0.006551 0.013028 0.000000 0.000000 0.000000
# 4 0.000000 0.000000 0.000000 0.036333 0.000000 0.000000
# 5 0.000000 0.000000 0.000000 0.000000 0.029734 0.000000
# 6 0.000000 0.000000 0.000000 0.000000 0.000000 0.036095
#
#
# Mechanical properties :
#
#
# Convention : Reuss Voigt Hill
#
# Bulk Modulus (GPa) = 54.14699 64.17917 59.16308
# Shear Modulus (GPa) = 24.27915 26.39931 25.33923
#
# Velocity S-wave (km/s) = 3.68921 3.84691 3.76888
# Velocity P-wave (km/s) = 6.96422 7.46383 7.21835
#
# Compressibility (1/GPa) = 0.01846825
#
# Stress axis : x y z
#
# Youngs Moduli (GPa) = 39.76774 50.32565 76.76069
#
# Poissons Ratio (x) = 0.33994 0.49760
# Poissons Ratio (y) = 0.26862 0.50283
# Poissons Ratio (z) = 0.25780 0.32967
#
# Static dielectric constant tensor:
#      x y z
#    x 3.265280 0.000000 0.000000 
#    y 0.000000 2.381780 0.000000 
#    z 0.000000 0.000000 3.322270 
# 
# 
# High freq. dielectric constant tensor:
#      x y z
#    x 1.696820 0.000000 0.000000 
#    y 0.000000 1.670960 0.000000 
#    z 0.000000 0.000000 1.692620 
# 
# From -- ./inp_files/14448.got.cif
#   From: 2010.03.12/outbox.cif.g09.slc.cpg/sg46_8_cif.got.tgz:14448.got - 2010.04.14 02:56:35.
