data_PCOD8191100
_publ_section_title
;
Structure prediction by ZEFSAII (Michael W. Deem and Ramdas Pophale) SiO2 
 PCOD8191100
Probable space group: I B A 2
;
_chemical_formula_sum "Si O2"
_cell_formula_units_Z 32
_cell_length_a 10.103359
_cell_length_b 8.542012
_cell_length_c 15.671925
_cell_angle_alpha 90.000000
_cell_angle_beta 90.000000
_cell_angle_gamma 90.000000
_cell_volume 1352.534360
_symmetry_space_group_name_H-M "I B A 2"
_symmetry_group_IT_number 45
_symmetry_cell_setting 'orthorhombic'
loop_
_space_group_symop_operation_xyz
x,y,z
-x,-y,z
-x,y,1/2+z
x,-y,1/2+z
1/2+x,1/2+y,1/2+z
1/2-x,1/2-y,1/2+z
1/2-x,1/2+y,z
1/2+x,1/2-y,z
loop_
_atom_site_type_symbol
_atom_site_label
_atom_site_fract_x
_atom_site_fract_y
_atom_site_fract_z
Si Si1 0.169334 0.590598 0.208780
Si Si2 0.119890 0.890210 0.951863
Si Si3 0.091777 0.727607 0.770318
Si Si4 0.137375 0.563423 0.017446
O O1 0.152632 0.447620 0.275863
O O2 0.314025 0.665897 0.211528
O O3 0.153008 0.512099 0.115721
O O4 0.056123 0.720462 0.230465
O O5 0.089715 0.809269 0.861890
O O6 0.138903 0.751602 0.019639
O O7 0.000000 0.000000 0.980199
O O8 0.251371 0.995305 0.954281
O O9 0.000000 0.500000 0.979627
#
# Coordination Sequence:
#
# PCOD8191100 Si02
#       4
#     8   8   8   8
#     4  11  26  48  75 106 147 194 249 307 371 449
#     4  12  29  46  77 110 149 199 248 314 380 455
#     4  11  26  47  72 109 144 193 246 310 370 449
#     4  12  26  50  73 108 152 198 249 309 380 455
#
# _framework density 23.659289999999999
#
# number of rings (size 3 to 8) (size 9 to 14) (size 15 to 20)
#    0.000    0.500    2.500    4.500   17.500    0.000 
#    0.000    0.000    0.000    0.000    0.000    0.000 
#    0.000    0.000    0.000    0.000    0.000    0.000 
#
# Total GULP energy -198444.515468 kJ/mol
# GULP energy per Si atom -12402.782217 kJ/mol
# Density = 2.360544 g / cm^3
# Si number density = 23.659290 Si / 1000 Ang^3
#
#
#
# Elastic Constant Matrix: (Units=GPa)
#
#
# Indices 1 2 3 4 5 6 
#
# 1 113.1934 44.4855 14.0650 0.0000 0.0000 0.0000
# 2 44.4855 130.9901 11.8636 0.0000 0.0000 0.0000
# 3 14.0650 11.8636 77.8319 0.0000 0.0000 0.0000
# 4 0.0000 0.0000 0.0000 21.0484 0.0000 0.0000
# 5 0.0000 0.0000 0.0000 0.0000 15.9437 0.0000
# 6 0.0000 0.0000 0.0000 0.0000 0.0000 55.1063
#
#
#
# Elastic Compliance Matrix: (Units=1/GPa)
#
#
# Indices 1 2 3 4 5 6 
#
# 1 0.010333 -0.003387 -0.001351 0.000000 0.000000 0.000000
# 2 -0.003387 0.008851 -0.000737 0.000000 0.000000 0.000000
# 3 -0.001351 -0.000737 0.013205 0.000000 0.000000 0.000000
# 4 0.000000 0.000000 0.000000 0.047509 0.000000 0.000000
# 5 0.000000 0.000000 0.000000 0.000000 0.062721 0.000000
# 6 0.000000 0.000000 0.000000 0.000000 0.000000 0.018147
#
#
# Mechanical properties :
#
#
# Convention : Reuss Voigt Hill
#
# Bulk Modulus (GPa) = 46.64396 51.42707 49.03551
# Shear Modulus (GPa) = 27.95439 35.19312 31.57375
#
# Velocity S-wave (km/s) = 3.44108 3.86099 3.65707
# Velocity P-wave (km/s) = 5.96202 6.45446 6.21312
#
# Compressibility (1/GPa) = 0.02143900
#
# Stress axis : x y z
#
# Youngs Moduli (GPa) = 96.77352 112.97950 75.73055
#
# Poissons Ratio (x) = 0.38266 0.10232
# Poissons Ratio (y) = 0.32777 0.05582
# Poissons Ratio (z) = 0.13075 0.08328
#
# Static dielectric constant tensor:
#      x y z
#    x 4.370620 0.000000 0.000000 
#    y 0.000000 4.549720 0.000000 
#    z 0.000000 0.000000 3.939640 
# 
# 
# High freq. dielectric constant tensor:
#      x y z
#    x 1.947490 0.000000 0.000000 
#    y 0.000000 1.944380 0.000000 
#    z 0.000000 0.000000 1.931190 
# 
# From -- ./inp_files/5930.got.cif
#   From: 2010.03.12/outbox.cif.g09.slc.cpg/sg45_3_cif.got.tgz:5930.got - 2010.04.14 02:50:11.
