data_PCOD8191631
_publ_section_title
;
Structure prediction by ZEFSAII (Michael W. Deem and Ramdas Pophale) SiO2 
 PCOD8191631
Probable space group: I M A 2
;
_chemical_formula_sum "Si O2"
_cell_formula_units_Z 64
_cell_length_a 9.128154
_cell_length_b 26.273189
_cell_length_c 18.268471
_cell_angle_alpha 90.000000
_cell_angle_beta 90.000000
_cell_angle_gamma 90.000000
_cell_volume 4381.249124
_symmetry_space_group_name_H-M "I M A 2"
_symmetry_group_IT_number 46
_symmetry_cell_setting 'orthorhombic'
loop_
_space_group_symop_operation_xyz
x,y,z
-x,-y,z
1/2-x,y,z
1/2+x,-y,z
1/2+x,1/2+y,1/2+z
1/2-x,1/2-y,1/2+z
-x,1/2+y,1/2+z
x,1/2-y,1/2+z
loop_
_atom_site_type_symbol
_atom_site_label
_atom_site_fract_x
_atom_site_fract_y
_atom_site_fract_z
Si Si1 0.587454 0.299578 0.048220
Si Si2 0.421053 0.949449 0.767652
Si Si3 0.421145 0.250090 0.925022
Si Si4 0.922633 0.250607 0.273298
Si Si5 0.078396 0.146643 0.007903
Si Si6 0.088198 0.694163 0.632588
Si Si7 0.575707 0.150728 0.690448
Si Si8 0.577747 0.051656 0.937261
O O1 0.750000 0.313426 0.018530
O O2 0.597332 0.248551 0.094777
O O3 0.528471 0.342528 0.105207
O O4 0.477294 0.293525 0.980726
O O5 0.250000 0.956790 0.754514
O O6 0.485565 0.902534 0.720914
O O7 0.456548 0.938749 0.852243
O O8 0.500000 0.000000 0.739339
O O9 0.250000 0.257020 0.915780
O O10 0.496885 0.260759 0.848440
O O11 0.461131 0.194040 0.955267
O O12 0.750000 0.254420 0.288068
O O13 0.958041 0.204314 0.216954
O O14 0.985449 0.303687 0.241128
O O15 0.250000 0.134548 0.007257
O O16 0.988433 0.098268 0.981725
O O17 0.029149 0.158709 0.091225
O O18 0.250000 0.668629 0.629085
O O19 0.750000 0.152329 0.695391
O O20 0.750000 0.047513 0.952750
O O21 0.500000 0.000000 0.964072
#
# Coordination Sequence:
#
# PCOD8191631 Si02
#       8
#     8   8   8   8   8   8   8   8
#     4   8  14  26  42  56  73 101 135 167 197 233
#     4   9  17  28  41  58  80 105 134 169 205 237
#     4  10  19  27  37  58  86 110 133 165 202 239
#     4   9  16  27  43  60  78 104 139 171 199 238
#     4  10  19  29  41  58  82 111 140 167 200 243
#     4   8  15  27  42  59  77 100 133 170 203 237
#     4   8  14  26  43  59  75 101 138 172 198 229
#     4  10  19  30  44  60  81 108 138 173 207 238
#
# _framework density 14.607706
#
# number of rings (size 3 to 8) (size 9 to 14) (size 15 to 20)
#    0.000    3.000    0.000    3.375    0.000    3.500 
#    0.000    3.125    0.000    0.000    0.000    0.000 
#    0.000    1.000    0.000    6.750    0.000    4.875 
#
# Total GULP energy -396660.957083 kJ/mol
# GULP energy per Si atom -12395.654909 kJ/mol
# Density = 1.457446 g / cm^3
# Si number density = 14.607706 Si / 1000 Ang^3
#
#
#
# Elastic Constant Matrix: (Units=GPa)
#
#
# Indices 1 2 3 4 5 6 
#
# 1 61.7363 36.3286 46.1392 0.0000 0.0000 0.0000
# 2 36.3286 76.5576 48.9225 0.0000 0.0000 0.0000
# 3 46.1392 48.9225 105.2840 -0.0002 0.0001 0.0000
# 4 0.0000 0.0000 -0.0002 23.6722 0.0000 0.0000
# 5 0.0000 0.0000 0.0001 0.0000 18.2450 0.0000
# 6 0.0000 0.0000 0.0000 0.0000 0.0000 21.1803
#
#
#
# Elastic Compliance Matrix: (Units=1/GPa)
#
#
# Indices 1 2 3 4 5 6 
#
# 1 0.026740 -0.007397 -0.008281 0.000000 0.000000 0.000000
# 2 -0.007397 0.020625 -0.006342 0.000000 0.000000 0.000000
# 3 -0.008281 -0.006342 0.016074 0.000000 0.000000 0.000000
# 4 0.000000 0.000000 0.000000 0.042244 0.000000 0.000000
# 5 0.000000 0.000000 0.000000 0.000000 0.054809 0.000000
# 6 0.000000 0.000000 0.000000 0.000000 0.000000 0.047214
#
#
# Mechanical properties :
#
#
# Convention : Reuss Voigt Hill
#
# Bulk Modulus (GPa) = 51.55074 56.26208 53.90641
# Shear Modulus (GPa) = 19.36394 20.09869 19.73131
#
# Velocity S-wave (km/s) = 3.64483 3.71333 3.67924
# Velocity P-wave (km/s) = 7.28558 7.54878 7.41835
#
# Compressibility (1/GPa) = 0.01939836
#
# Stress axis : x y z
#
# Youngs Moduli (GPa) = 37.39784 48.48511 62.21107
#
# Poissons Ratio (x) = 0.35863 0.51518
# Poissons Ratio (y) = 0.27662 0.39456
# Poissons Ratio (z) = 0.30970 0.30751
#
# Static dielectric constant tensor:
#      x y z
#    x 2.789040 0.000000 0.000000 
#    y 0.000000 2.764250 0.000000 
#    z 0.000000 0.000000 2.916370 
# 
# 
# High freq. dielectric constant tensor:
#      x y z
#    x 1.554740 0.000000 0.000000 
#    y 0.000000 1.526450 0.000000 
#    z 0.000000 0.000000 1.548910 
# 
# From -- ./inp_files/18667.got.cif
#   From: 2010.03.12/outbox.cif.g09.slc.cpg/sg46_10_cif.got.tgz:18667.got - 2010.04.14 02:56:35.
