data_PCOD8191065
_publ_section_title
;
Structure prediction by ZEFSAII (Michael W. Deem and Ramdas Pophale) SiO2 
 PCOD8191065
Probable space group: I B A 2
;
_chemical_formula_sum "Si O2"
_cell_formula_units_Z 64
_cell_length_a 21.437970
_cell_length_b 9.099774
_cell_length_c 13.556502
_cell_angle_alpha 90.000000
_cell_angle_beta 90.000000
_cell_angle_gamma 90.000000
_cell_volume 2644.611656
_symmetry_space_group_name_H-M "I B A 2"
_symmetry_group_IT_number 45
_symmetry_cell_setting 'orthorhombic'
loop_
_space_group_symop_operation_xyz
x,y,z
-x,-y,z
-x,y,1/2+z
x,-y,1/2+z
1/2+x,1/2+y,1/2+z
1/2-x,1/2-y,1/2+z
1/2-x,1/2+y,z
1/2+x,1/2-y,z
loop_
_atom_site_type_symbol
_atom_site_label
_atom_site_fract_x
_atom_site_fract_y
_atom_site_fract_z
Si Si1 0.672117 0.855028 0.000000
Si Si2 0.671811 0.081909 0.714382
Si Si3 0.286547 0.536408 0.481972
Si Si4 0.314627 0.464555 0.694643
Si Si5 0.532701 0.346500 0.011645
Si Si6 0.899972 0.288534 0.701383
Si Si7 0.453838 0.135280 0.897236
Si Si8 0.137455 0.162662 0.847305
O O1 0.701134 0.706172 0.951447
O O2 0.613443 0.912545 0.938177
O O3 0.713786 0.003156 0.997082
O O4 0.665673 0.816422 0.116538
O O5 0.742239 0.019614 0.728260
O O6 0.652708 0.170133 0.814048
O O7 0.620508 0.957147 0.694518
O O8 0.324940 0.496090 0.579608
O O9 0.305571 0.418694 0.400261
O O10 0.335960 0.299316 0.719340
O O11 0.365394 0.571109 0.745815
O O12 0.500000 0.500000 0.038972
O O13 0.476558 0.241003 0.983359
O O14 0.576366 0.352964 0.914395
O O15 0.567015 0.274214 0.104293
O O16 0.947315 0.276997 0.793941
O O17 0.500000 0.000000 0.881750
#
# Coordination Sequence:
#
# PCOD8191065 Si02
#       8
#     8   8   8   8   8   8   8   8
#     4  11  26  48  74 111 158 199 264 319 405 468
#     4  11  26  44  77 114 158 205 246 329 398 494
#     4  11  25  44  75 117 153 208 251 337 395 481
#     4  11  24  45  73 115 158 198 259 318 405 481
#     4  12  28  51  79 110 151 209 267 327 389 467
#     4  12  27  49  75 112 153 200 268 325 397 473
#     4  12  29  52  74 110 151 210 267 324 389 470
#     4  12  25  47  75 111 154 206 263 321 406 464
#
# _framework density 24.200150000000001
#
# number of rings (size 3 to 8) (size 9 to 14) (size 15 to 20)
#    0.000    0.500    2.500    4.500   10.500    5.000 
#    0.000    0.000    0.000    0.000    0.000    0.000 
#    0.000    0.000    0.000    0.000    0.000    0.000 
#
# Total GULP energy -396646.483210 kJ/mol
# GULP energy per Si atom -12395.202600 kJ/mol
# Density = 2.414507 g / cm^3
# Si number density = 24.200150 Si / 1000 Ang^3
#
#
#
# Elastic Constant Matrix: (Units=GPa)
#
#
# Indices 1 2 3 4 5 6 
#
# 1 107.2823 58.0757 55.5075 0.0000 0.0000 0.0000
# 2 58.0757 120.3868 41.3581 0.0000 0.0000 0.0000
# 3 55.5075 41.3581 113.8441 0.0000 0.0000 0.0000
# 4 0.0000 0.0000 0.0000 39.4970 0.0000 0.0000
# 5 0.0000 0.0000 0.0000 0.0000 36.7690 0.0000
# 6 0.0000 0.0000 0.0000 0.0000 0.0000 43.0292
#
#
#
# Elastic Compliance Matrix: (Units=1/GPa)
#
#
# Indices 1 2 3 4 5 6 
#
# 1 0.015020 -0.005404 -0.005360 0.000000 0.000000 0.000000
# 2 -0.005404 0.011436 -0.001519 0.000000 0.000000 0.000000
# 3 -0.005360 -0.001519 0.011949 0.000000 0.000000 0.000000
# 4 0.000000 0.000000 0.000000 0.025318 0.000000 0.000000
# 5 0.000000 0.000000 0.000000 0.000000 0.027197 0.000000
# 6 0.000000 0.000000 0.000000 0.000000 0.000000 0.023240
#
#
# Mechanical properties :
#
#
# Convention : Reuss Voigt Hill
#
# Bulk Modulus (GPa) = 72.26796 72.37733 72.32265
# Shear Modulus (GPa) = 34.88199 36.29717 35.58958
#
# Velocity S-wave (km/s) = 3.80069 3.87702 3.83905
# Velocity P-wave (km/s) = 7.01340 7.07209 7.04281
#
# Compressibility (1/GPa) = 0.01383739
#
# Stress axis : x y z
#
# Youngs Moduli (GPa) = 66.57751 87.44570 83.68665
#
# Poissons Ratio (x) = 0.47259 0.44857
# Poissons Ratio (y) = 0.35981 0.12715
# Poissons Ratio (z) = 0.35686 0.13286
#
# Static dielectric constant tensor:
#      x y z
#    x 4.185870 0.000000 0.000000 
#    y 0.000000 4.338400 0.000000 
#    z 0.000000 0.000000 4.720700 
# 
# 
# High freq. dielectric constant tensor:
#      x y z
#    x 1.951560 0.000000 0.000000 
#    y 0.000000 1.965110 0.000000 
#    z 0.000000 0.000000 1.980880 
# 
# From -- ./inp_files/7073.got.cif
#   From: 2010.03.12/outbox.cif.g09.slc.cpg/sg45_4_cif.got.tgz:7073.got - 2010.04.14 02:50:11.
