data_PCOD8191337
_publ_section_title
;
Structure prediction by ZEFSAII (Michael W. Deem and Ramdas Pophale) SiO2 
 PCOD8191337
Probable space group: I M A 2
;
_chemical_formula_sum "Si O2"
_cell_formula_units_Z 64
_cell_length_a 8.596297
_cell_length_b 26.442565
_cell_length_c 18.276744
_cell_angle_alpha 90.000000
_cell_angle_beta 90.000000
_cell_angle_gamma 90.000000
_cell_volume 4154.452724
_symmetry_space_group_name_H-M "I M A 2"
_symmetry_group_IT_number 46
_symmetry_cell_setting 'orthorhombic'
loop_
_space_group_symop_operation_xyz
x,y,z
-x,-y,z
1/2-x,y,z
1/2+x,-y,z
1/2+x,1/2+y,1/2+z
1/2-x,1/2-y,1/2+z
-x,1/2+y,1/2+z
x,1/2-y,1/2+z
loop_
_atom_site_type_symbol
_atom_site_label
_atom_site_fract_x
_atom_site_fract_y
_atom_site_fract_z
Si Si1 0.932640 0.746380 0.612160
Si Si2 0.430270 0.051858 0.948088
Si Si3 0.068644 0.748483 0.454716
Si Si4 0.929821 0.291481 0.241624
Si Si5 0.566061 0.350542 0.691475
Si Si6 0.431287 0.199819 0.323055
Si Si7 0.073288 0.644625 0.372607
Si Si8 0.434988 0.053615 0.113452
O O1 0.750000 0.749505 0.624883
O O2 0.969509 0.753807 0.527614
O O3 0.017932 0.792507 0.656682
O O4 0.993761 0.692066 0.638812
O O5 0.250000 0.042965 0.951497
O O6 0.465749 0.098249 0.894659
O O7 0.500000 0.000000 0.916136
O O8 0.492063 0.063190 0.029948
O O9 0.250000 0.753366 0.472391
O O10 0.028786 0.694652 0.417966
O O11 0.017022 0.794008 0.401036
O O12 0.750000 0.273724 0.249656
O O13 0.951458 0.344140 0.285600
O O14 0.044241 0.250567 0.276807
O O15 0.750000 0.345391 0.688365
O O16 0.506592 0.345365 0.775313
O O17 0.513014 0.404847 0.664158
O O18 0.250000 0.189429 0.335855
O O19 0.250000 0.628975 0.389016
O O20 0.250000 0.055915 0.121008
O O21 0.500000 0.000000 0.140823
#
# Coordination Sequence:
#
# PCOD8191337 Si02
#       8
#     8   8   8   8   8   8   8   8
#     4  11  20  29  43  65  89 115 148 185 218 256
#     4  10  20  31  45  62  85 113 144 181 219 255
#     4  10  19  31  45  63  88 118 147 178 217 264
#     4   9  17  30  44  60  84 115 145 177 216 260
#     4  11  20  31  46  63  86 119 151 181 219 263
#     4  10  18  29  44  63  86 112 144 183 217 254
#     4   9  18  30  45  62  83 112 147 179 213 256
#     4  10  20  33  46  64  87 114 148 186 223 260
#
# _framework density 15.405158999999999
#
# number of rings (size 3 to 8) (size 9 to 14) (size 15 to 20)
#    0.000    2.000    0.000    7.875    0.000    6.500 
#    0.000    0.000    0.000    0.000    0.000    0.000 
#    0.000    1.000    0.000    7.000    0.000    5.500 
#
# Total GULP energy -396720.814013 kJ/mol
# GULP energy per Si atom -12397.525438 kJ/mol
# Density = 1.537010 g / cm^3
# Si number density = 15.405159 Si / 1000 Ang^3
#
#
#
# Elastic Constant Matrix: (Units=GPa)
#
#
# Indices 1 2 3 4 5 6 
#
# 1 78.1978 30.6568 25.8751 0.0000 0.0000 0.0000
# 2 30.6568 80.0622 47.9344 0.0000 0.0000 0.0000
# 3 25.8751 47.9344 85.1950 0.0003 0.0000 0.0000
# 4 0.0000 0.0000 0.0003 24.5800 0.0000 0.0000
# 5 0.0000 0.0000 0.0000 0.0000 26.7708 0.0000
# 6 0.0000 0.0000 0.0000 0.0000 0.0000 24.2698
#
#
#
# Elastic Compliance Matrix: (Units=1/GPa)
#
#
# Indices 1 2 3 4 5 6 
#
# 1 0.015277 -0.004632 -0.002034 0.000000 0.000000 0.000000
# 2 -0.004632 0.020240 -0.009981 0.000000 0.000000 0.000000
# 3 -0.002034 -0.009981 0.017971 0.000000 0.000000 0.000000
# 4 0.000000 0.000000 0.000000 0.040683 0.000000 0.000000
# 5 0.000000 0.000000 0.000000 0.000000 0.037354 0.000000
# 6 0.000000 0.000000 0.000000 0.000000 0.000000 0.041204
#
#
# Mechanical properties :
#
#
# Convention : Reuss Voigt Hill
#
# Bulk Modulus (GPa) = 49.51851 50.26528 49.89189
# Shear Modulus (GPa) = 23.50135 24.39003 23.94569
#
# Velocity S-wave (km/s) = 3.91007 3.98331 3.94686
# Velocity P-wave (km/s) = 7.25250 7.33862 7.29569
#
# Compressibility (1/GPa) = 0.02019447
#
# Stress axis : x y z
#
# Youngs Moduli (GPa) = 65.45783 49.40780 55.64494
#
# Poissons Ratio (x) = 0.22887 0.11316
# Poissons Ratio (y) = 0.30321 0.55538
# Poissons Ratio (z) = 0.13311 0.49313
#
# Static dielectric constant tensor:
#      x y z
#    x 3.029670 0.000000 0.000000 
#    y 0.000000 2.728570 0.000000 
#    z 0.000000 0.000000 3.153790 
# 
# 
# High freq. dielectric constant tensor:
#      x y z
#    x 1.610500 0.000000 0.000000 
#    y 0.000000 1.552330 0.000000 
#    z 0.000000 0.000000 1.582190 
# 
# From -- ./inp_files/18642.got.cif
#   From: 2010.03.12/outbox.cif.g09.slc.cpg/sg46_10_cif.got.tgz:18642.got - 2010.04.14 02:56:35.
