data_PCOD8191585
_publ_section_title
;
Structure prediction by ZEFSAII (Michael W. Deem and Ramdas Pophale) SiO2 
 PCOD8191585
Probable space group: I M A 2
;
_chemical_formula_sum "Si O2"
_cell_formula_units_Z 48
_cell_length_a 15.518269
_cell_length_b 9.866892
_cell_length_c 14.283105
_cell_angle_alpha 90.000000
_cell_angle_beta 90.000000
_cell_angle_gamma 90.000000
_cell_volume 2186.987392
_symmetry_space_group_name_H-M "I M A 2"
_symmetry_group_IT_number 46
_symmetry_cell_setting 'orthorhombic'
loop_
_space_group_symop_operation_xyz
x,y,z
-x,-y,z
1/2-x,y,z
1/2+x,-y,z
1/2+x,1/2+y,1/2+z
1/2-x,1/2-y,1/2+z
-x,1/2+y,1/2+z
x,1/2-y,1/2+z
loop_
_atom_site_type_symbol
_atom_site_label
_atom_site_fract_x
_atom_site_fract_y
_atom_site_fract_z
Si Si1 0.147990 0.464564 0.831180
Si Si2 0.647252 0.096919 0.648403
Si Si3 0.352660 0.341622 0.031744
Si Si4 0.346464 0.662874 0.530875
Si Si5 0.852436 0.224126 0.833953
Si Si6 0.088749 0.078712 0.130762
O O1 0.250000 0.458332 0.821918
O O2 0.114188 0.619902 0.830951
O O3 0.106760 0.389691 0.740348
O O4 0.119992 0.387032 0.926561
O O5 0.750000 0.102975 0.648428
O O6 0.605908 0.217027 0.586214
O O7 0.610083 0.128845 0.751607
O O8 0.617117 0.954703 0.606385
O O9 0.250000 0.315583 0.036755
O O10 0.405438 0.210616 0.065315
O O11 0.250000 0.714686 0.512926
O O12 0.387797 0.650786 0.427601
O O13 0.340979 0.525529 0.590182
O O14 0.750000 0.227653 0.824916
O O15 0.000000 0.000000 0.113699
#
# Coordination Sequence:
#
# PCOD8191585 Si02
#       6
#     8   8   8   8   8   8
#     4  10  19  38  68  94 119 160 212 267 320 371
#     4   9  16  30  58  93 120 147 198 263 320 370
#     4  10  21  39  65  96 126 161 213 275 322 372
#     4  10  18  34  61  87 113 157 212 266 311 368
#     4   9  16  29  60  96 117 145 201 265 319 368
#     4  12  26  42  56  89 133 175 212 252 324 393
#
# _framework density 21.948001000000001
#
# number of rings (size 3 to 8) (size 9 to 14) (size 15 to 20)
#    0.000    2.000    3.333    1.500    0.000    1.333 
#    3.000    4.167    0.000    0.000    0.000    0.000 
#    0.000    0.000    0.000    0.000    0.000    0.000 
#
# Total GULP energy -297388.317570 kJ/mol
# GULP energy per Si atom -12391.179899 kJ/mol
# Density = 2.189805 g / cm^3
# Si number density = 21.948001 Si / 1000 Ang^3
#
#
#
# Elastic Constant Matrix: (Units=GPa)
#
#
# Indices 1 2 3 4 5 6 
#
# 1 24.9253 24.9961 30.6741 0.0000 0.0000 0.0000
# 2 24.9961 148.7888 81.1055 0.0000 0.0000 0.0000
# 3 30.6741 81.1055 203.9354 0.0000 0.0000 0.0000
# 4 0.0000 0.0000 0.0000 44.5009 0.0000 0.0000
# 5 0.0000 0.0000 0.0000 0.0000 7.2782 0.0000
# 6 0.0000 0.0000 0.0000 0.0000 0.0000 20.3516
#
#
#
# Elastic Compliance Matrix: (Units=1/GPa)
#
#
# Indices 1 2 3 4 5 6 
#
# 1 0.052893 -0.005808 -0.005646 0.000000 0.000000 0.000000
# 2 -0.005808 0.009219 -0.002793 0.000000 0.000000 0.000000
# 3 -0.005646 -0.002793 0.006863 0.000000 0.000000 0.000000
# 4 0.000000 0.000000 0.000000 0.022471 0.000000 0.000000
# 5 0.000000 0.000000 0.000000 0.000000 0.137397 0.000000
# 6 0.000000 0.000000 0.000000 0.000000 0.000000 0.049136
#
#
# Mechanical properties :
#
#
# Convention : Reuss Voigt Hill
#
# Bulk Modulus (GPa) = 24.70267 72.35565 48.52916
# Shear Modulus (GPa) = 15.62659 30.48439 23.05549
#
# Velocity S-wave (km/s) = 2.67119 3.73089 3.24460
# Velocity P-wave (km/s) = 4.55996 7.18316 6.01627
#
# Compressibility (1/GPa) = 0.04048146
#
# Stress axis : x y z
#
# Youngs Moduli (GPa) = 18.90625 108.47044 145.70086
#
# Poissons Ratio (x) = 0.63004 0.82257
# Poissons Ratio (y) = 0.10981 0.40691
# Poissons Ratio (z) = 0.10674 0.30294
#
# Static dielectric constant tensor:
#      x y z
#    x 3.404450 0.000000 0.000000 
#    y 0.000000 3.875330 0.000000 
#    z 0.000000 0.000000 4.435450 
# 
# 
# High freq. dielectric constant tensor:
#      x y z
#    x 1.816560 0.000000 0.000000 
#    y 0.000000 1.850700 0.000000 
#    z 0.000000 0.000000 1.885200 
# 
# From -- ./inp_files/16522.got.cif
#   From: 2010.03.12/outbox.cif.g09.slc.cpg/sg46_9_cif.got.tgz:16522.got - 2010.04.14 02:56:35.
