data_PCOD8191273
_publ_section_title
;
Structure prediction by ZEFSAII (Michael W. Deem and Ramdas Pophale) SiO2 
 PCOD8191273
Probable space group: I M A 2
;
_chemical_formula_sum "Si O2"
_cell_formula_units_Z 64
_cell_length_a 8.984070
_cell_length_b 26.427092
_cell_length_c 18.293398
_cell_angle_alpha 90.000000
_cell_angle_beta 90.000000
_cell_angle_gamma 90.000000
_cell_volume 4343.270587
_symmetry_space_group_name_H-M "I M A 2"
_symmetry_group_IT_number 46
_symmetry_cell_setting 'orthorhombic'
loop_
_space_group_symop_operation_xyz
x,y,z
-x,-y,z
1/2-x,y,z
1/2+x,-y,z
1/2+x,1/2+y,1/2+z
1/2-x,1/2-y,1/2+z
-x,1/2+y,1/2+z
x,1/2-y,1/2+z
loop_
_atom_site_type_symbol
_atom_site_label
_atom_site_fract_x
_atom_site_fract_y
_atom_site_fract_z
Si Si1 0.075611 0.746392 0.935400
Si Si2 0.085811 0.299226 0.555211
Si Si3 0.926299 0.947757 0.442981
Si Si4 0.573065 0.252729 0.769570
Si Si5 0.918175 0.803061 0.646795
Si Si6 0.925963 0.652217 0.698014
Si Si7 0.923431 0.949222 0.275247
Si Si8 0.927193 0.353412 0.019263
O O1 0.250000 0.747772 0.939780
O O2 0.019842 0.753942 0.853090
O O3 0.019313 0.692582 0.966897
O O4 0.018860 0.793178 0.984933
O O5 0.250000 0.310361 0.524727
O O6 0.083965 0.249063 0.603536
O O7 0.034993 0.343615 0.611227
O O8 0.750000 0.949831 0.455363
O O9 0.968549 0.937392 0.358675
O O10 0.997252 0.903967 0.490989
O O11 0.000000 0.000000 0.469211
O O12 0.750000 0.249786 0.760806
O O13 0.498472 0.207047 0.724223
O O14 0.518607 0.307517 0.744226
O O15 0.750000 0.822956 0.659672
O O16 0.012938 0.844040 0.601330
O O17 0.750000 0.662100 0.710895
O O18 0.976241 0.597075 0.724810
O O19 0.750000 0.958375 0.268457
O O20 0.000000 0.000000 0.246050
O O21 0.750000 0.359231 0.020538
#
# Coordination Sequence:
#
# PCOD8191273 Si02
#       8
#     8   8   8   8   8   8   8   8
#     4   9  18  28  39  58  84 109 135 167 203 241
#     4   8  15  26  40  56  76 103 135 166 198 237
#     4  10  19  30  43  60  82 110 141 175 210 244
#     4  10  18  27  40  60  83 108 137 169 202 241
#     4   9  17  29  42  58  80 107 137 169 203 243
#     4   9  17  29  42  58  80 108 139 171 205 243
#     4   9  18  30  43  59  82 109 140 176 211 244
#     4  10  18  29  44  61  82 110 141 173 207 245
#
# _framework density 14.735438
#
# number of rings (size 3 to 8) (size 9 to 14) (size 15 to 20)
#    0.000    2.750    0.000    3.000    0.000    5.500 
#    0.000    0.000    0.000    0.000    0.000    0.000 
#    0.000    1.000    0.000    5.250    0.000    4.875 
#
# Total GULP energy -396708.694402 kJ/mol
# GULP energy per Si atom -12397.146700 kJ/mol
# Density = 1.470190 g / cm^3
# Si number density = 14.735438 Si / 1000 Ang^3
#
#
#
# Elastic Constant Matrix: (Units=GPa)
#
#
# Indices 1 2 3 4 5 6 
#
# 1 55.4210 32.4188 40.6798 0.0000 0.0000 0.0000
# 2 32.4188 86.7778 57.0669 0.0000 0.0000 0.0000
# 3 40.6798 57.0669 109.0669 0.0000 0.0000 0.0000
# 4 0.0000 0.0000 0.0000 25.8150 0.0000 0.0000
# 5 0.0000 0.0000 0.0000 0.0000 24.2775 0.0000
# 6 0.0000 0.0000 0.0000 0.0000 0.0000 23.4081
#
#
#
# Elastic Compliance Matrix: (Units=1/GPa)
#
#
# Indices 1 2 3 4 5 6 
#
# 1 0.026267 -0.005138 -0.007109 0.000000 0.000000 0.000000
# 2 -0.005138 0.018574 -0.007802 0.000000 0.000000 0.000000
# 3 -0.007109 -0.007802 0.015902 0.000000 0.000000 0.000000
# 4 0.000000 0.000000 0.000000 0.038737 0.000000 0.000000
# 5 0.000000 0.000000 0.000000 0.000000 0.041190 0.000000
# 6 0.000000 0.000000 0.000000 0.000000 0.000000 0.042720
#
#
# Mechanical properties :
#
#
# Convention : Reuss Voigt Hill
#
# Bulk Modulus (GPa) = 48.43615 56.84408 52.64011
# Shear Modulus (GPa) = 21.70413 22.77348 22.23881
#
# Velocity S-wave (km/s) = 3.84203 3.93554 3.88906
# Velocity P-wave (km/s) = 7.25420 7.70139 7.48114
#
# Compressibility (1/GPa) = 0.02064574
#
# Stress axis : x y z
#
# Youngs Moduli (GPa) = 38.07032 53.83875 62.88397
#
# Poissons Ratio (x) = 0.27663 0.44702
# Poissons Ratio (y) = 0.19561 0.49062
# Poissons Ratio (z) = 0.27063 0.42005
#
# Static dielectric constant tensor:
#      x y z
#    x 2.936000 0.000000 0.000000 
#    y 0.000000 2.729440 0.000000 
#    z 0.000000 0.000000 3.008010 
# 
# 
# High freq. dielectric constant tensor:
#      x y z
#    x 1.574110 0.000000 0.000000 
#    y 0.000000 1.530770 0.000000 
#    z 0.000000 0.000000 1.553110 
# 
# From -- ./inp_files/18644.got.cif
#   From: 2010.03.12/outbox.cif.g09.slc.cpg/sg46_10_cif.got.tgz:18644.got - 2010.04.14 02:56:35.
