data_PCOD8191651
_publ_section_title
;
Structure prediction by ZEFSAII (Michael W. Deem and Ramdas Pophale) SiO2 
 PCOD8191651
Probable space group: I M A 2
;
_chemical_formula_sum "Si O2"
_cell_formula_units_Z 64
_cell_length_a 14.595144
_cell_length_b 27.772158
_cell_length_c 9.574748
_cell_angle_alpha 90.000000
_cell_angle_beta 90.000000
_cell_angle_gamma 90.000000
_cell_volume 3881.015382
_symmetry_space_group_name_H-M "I M A 2"
_symmetry_group_IT_number 46
_symmetry_cell_setting 'orthorhombic'
loop_
_space_group_symop_operation_xyz
x,y,z
-x,-y,z
1/2-x,y,z
1/2+x,-y,z
1/2+x,1/2+y,1/2+z
1/2-x,1/2-y,1/2+z
-x,1/2+y,1/2+z
x,1/2-y,1/2+z
loop_
_atom_site_type_symbol
_atom_site_label
_atom_site_fract_x
_atom_site_fract_y
_atom_site_fract_z
Si Si1 0.353079 0.467899 0.524750
Si Si2 0.852043 0.434467 0.033663
Si Si3 0.355666 0.206917 0.236475
Si Si4 0.643707 0.526075 0.215977
Si Si5 0.453967 0.105953 0.538333
Si Si6 0.441561 0.108643 0.221733
Si Si7 0.583780 0.463844 0.747761
Si Si8 0.644802 0.701278 0.059140
O O1 0.250000 0.458901 0.486754
O O2 0.399644 0.472964 0.372599
O O3 0.384077 0.422419 0.613451
O O4 0.363442 0.517102 0.612284
O O5 0.750000 0.410916 0.050358
O O6 0.868865 0.472538 0.156596
O O7 0.934315 0.395290 0.038308
O O8 0.852726 0.461889 0.884011
O O9 0.250000 0.192798 0.203178
O O10 0.424079 0.164461 0.185310
O O11 0.385880 0.254411 0.154898
O O12 0.368768 0.217271 0.399669
O O13 0.750000 0.541602 0.207746
O O14 0.583452 0.562440 0.127642
O O15 0.411302 0.100138 0.382828
O O16 0.420507 0.156780 0.600619
O O17 0.546662 0.090061 0.210176
O O18 0.500000 0.500000 0.781425
O O19 0.750000 0.686650 0.088971
#
# Coordination Sequence:
#
# PCOD8191651 Si02
#       8
#     8   8   8   8   8   8   8   8
#     4  10  19  29  42  65  95 125 153 184 223 267
#     4  10  19  31  47  66  88 120 158 194 228 263
#     4   9  17  30  46  65  90 116 142 178 221 270
#     4  10  20  30  43  66  96 126 155 186 224 269
#     4  10  19  32  48  67  91 121 155 190 225 268
#     4   9  18  30  45  65  88 118 154 185 221 264
#     4   9  17  29  45  65  89 120 156 189 223 265
#     4   9  18  31  48  69  92 116 143 178 223 272
#
# _framework density 16.49053
#
# number of rings (size 3 to 8) (size 9 to 14) (size 15 to 20)
#    0.000    2.500    0.000    3.750    0.000    6.500 
#    0.000    2.500    0.000    0.000    0.000    8.750 
#    0.000    0.000    0.000    0.000    0.000    0.000 
#
# Total GULP energy -396561.752437 kJ/mol
# GULP energy per Si atom -12392.554764 kJ/mol
# Density = 1.645300 g / cm^3
# Si number density = 16.490530 Si / 1000 Ang^3
#
#
#
# Elastic Constant Matrix: (Units=GPa)
#
#
# Indices 1 2 3 4 5 6 
#
# 1 74.6518 43.2113 27.4872 -0.0006 -0.0004 -0.0004
# 2 43.2113 74.1074 30.4113 0.0004 -0.0008 -0.0002
# 3 27.4872 30.4113 74.6408 -0.0180 0.0043 -0.0009
# 4 -0.0006 0.0004 -0.0180 24.4740 0.0018 0.0001
# 5 -0.0004 -0.0008 0.0043 0.0018 16.6420 0.0003
# 6 -0.0004 -0.0002 -0.0009 0.0001 0.0003 25.6915
#
#
#
# Elastic Compliance Matrix: (Units=1/GPa)
#
#
# Indices 1 2 3 4 5 6 
#
# 1 0.020866 -0.010823 -0.003274 -0.000002 0.000001 0.000000
# 2 -0.010823 0.021817 -0.004903 -0.000004 0.000002 0.000000
# 3 -0.003274 -0.004903 0.016601 0.000012 -0.000005 0.000000
# 4 -0.000002 -0.000004 0.000012 0.040860 -0.000005 0.000000
# 5 0.000001 0.000002 -0.000005 -0.000005 0.060089 -0.000001
# 6 0.000000 0.000000 0.000000 0.000000 -0.000001 0.038923
#
#
# Mechanical properties :
#
#
# Convention : Reuss Voigt Hill
#
# Bulk Modulus (GPa) = 46.98696 47.29108 47.13902
# Shear Modulus (GPa) = 20.47068 21.51416 20.99242
#
# Velocity S-wave (km/s) = 3.52712 3.61590 3.57178
# Velocity P-wave (km/s) = 6.71882 6.79506 6.75705
#
# Compressibility (1/GPa) = 0.02128250
#
# Stress axis : x y z
#
# Youngs Moduli (GPa) = 47.92489 45.83605 60.23689
#
# Poissons Ratio (x) = 0.49609 0.19724
# Poissons Ratio (y) = 0.51869 0.29536
# Poissons Ratio (z) = 0.15693 0.22475
#
# Static dielectric constant tensor:
#      x y z
#    x 3.119300 0.000000 0.000000 
#    y 0.000000 3.015700 0.000000 
#    z 0.000000 0.000000 3.321750 
# 
# 
# High freq. dielectric constant tensor:
#      x y z
#    x 1.618830 0.000000 0.000000 
#    y 0.000000 1.607730 0.000000 
#    z 0.000000 0.000000 1.644940 
# 
# From -- ./inp_files/6212.got.cif
#   From: 2010.03.12/outbox.cif.g09.slc.cpg/sg46_4_cif.got.tgz:6212.got - 2010.04.14 02:56:35.
