data_PCOD8191259
_publ_section_title
;
Structure prediction by ZEFSAII (Michael W. Deem and Ramdas Pophale) SiO2 
 PCOD8191259
Probable space group: I M A 2
;
_chemical_formula_sum "Si O2"
_cell_formula_units_Z 56
_cell_length_a 8.873331
_cell_length_b 22.084631
_cell_length_c 17.662248
_cell_angle_alpha 90.000000
_cell_angle_beta 90.000000
_cell_angle_gamma 90.000000
_cell_volume 3461.169021
_symmetry_space_group_name_H-M "I M A 2"
_symmetry_group_IT_number 46
_symmetry_cell_setting 'orthorhombic'
loop_
_space_group_symop_operation_xyz
x,y,z
-x,-y,z
1/2-x,y,z
1/2+x,-y,z
1/2+x,1/2+y,1/2+z
1/2-x,1/2-y,1/2+z
-x,1/2+y,1/2+z
x,1/2-y,1/2+z
loop_
_atom_site_type_symbol
_atom_site_label
_atom_site_fract_x
_atom_site_fract_y
_atom_site_fract_z
Si Si1 0.077804 0.814390 0.504380
Si Si2 0.072506 0.935021 0.242001
Si Si3 0.422656 0.147120 0.125141
Si Si4 0.578016 0.851337 0.363088
Si Si5 0.078349 0.305936 0.469855
Si Si6 0.418943 0.285880 0.308716
Si Si7 0.424230 0.772659 0.661823
O O1 0.250000 0.829078 0.484494
O O2 0.045405 0.821705 0.594635
O O3 0.974410 0.856680 0.451105
O O4 0.045557 0.744102 0.488541
O O5 0.250000 0.941891 0.240734
O O6 0.020105 0.905451 0.162965
O O7 0.024885 0.894070 0.312536
O O8 0.000000 0.000000 0.251692
O O9 0.250000 0.139067 0.151198
O O10 0.474087 0.213076 0.153216
O O11 0.438903 0.141584 0.033384
O O12 0.750000 0.872818 0.357066
O O13 0.554903 0.783039 0.335194
O O14 0.250000 0.278714 0.474424
O O15 0.051290 0.328333 0.383143
O O16 0.250000 0.295214 0.278279
O O17 0.532565 0.304000 0.241560
O O18 0.250000 0.752944 0.662079
#
# Coordination Sequence:
#
# PCOD8191259 Si02
#       7
#     8   8   8   8   8   8   8
#     4   9  17  27  40  61  87 116 150 184 220 264
#     4  12  24  36  50  67  88 116 153 193 230 269
#     4  10  18  31  47  62  85 117 151 189 229 267
#     4  10  19  32  47  63  85 116 151 187 228 269
#     4   8  16  28  42  60  84 116 151 183 219 266
#     4   9  16  26  42  63  89 119 151 183 219 266
#     4  10  18  26  40  64  92 122 153 184 220 264
#
# _framework density 16.179504000000001
#
# number of rings (size 3 to 8) (size 9 to 14) (size 15 to 20)
#    0.000    2.286    1.429    3.857    0.000    4.571 
#    0.000    0.000    0.000    0.000    0.000    0.000 
#    0.000    1.143    0.000    8.857    0.000    5.429 
#
# Total GULP energy -347002.262142 kJ/mol
# GULP energy per Si atom -12392.937934 kJ/mol
# Density = 1.614268 g / cm^3
# Si number density = 16.179504 Si / 1000 Ang^3
#
#
#
# Elastic Constant Matrix: (Units=GPa)
#
#
# Indices 1 2 3 4 5 6 
#
# 1 97.9679 19.9766 51.5110 0.0000 0.0000 0.0000
# 2 19.9766 28.3998 21.7994 0.0000 0.0000 0.0000
# 3 51.5110 21.7994 135.4794 0.0001 0.0000 0.0000
# 4 0.0000 0.0000 0.0001 9.5988 0.0000 0.0000
# 5 0.0000 0.0000 0.0000 0.0000 27.3889 0.0000
# 6 0.0000 0.0000 0.0000 0.0000 0.0000 17.8223
#
#
#
# Elastic Compliance Matrix: (Units=1/GPa)
#
#
# Indices 1 2 3 4 5 6 
#
# 1 0.013718 -0.006442 -0.004179 0.000000 0.000000 0.000000
# 2 -0.006442 0.043198 -0.004502 0.000000 0.000000 0.000000
# 3 -0.004179 -0.004502 0.009695 0.000000 0.000000 0.000000
# 4 0.000000 0.000000 0.000000 0.104179 0.000000 0.000000
# 5 0.000000 0.000000 0.000000 0.000000 0.036511 0.000000
# 6 0.000000 0.000000 0.000000 0.000000 0.000000 0.056109
#
#
# Mechanical properties :
#
#
# Convention : Reuss Voigt Hill
#
# Bulk Modulus (GPa) = 27.49839 49.82455 38.66147
# Shear Modulus (GPa) = 16.35174 22.19936 19.27555
#
# Velocity S-wave (km/s) = 3.18251 3.70816 3.45535
# Velocity P-wave (km/s) = 5.52605 7.01396 6.31399
#
# Compressibility (1/GPa) = 0.03636577
#
# Stress axis : x y z
#
# Youngs Moduli (GPa) = 72.89462 23.14925 103.15002
#
# Poissons Ratio (x) = 0.14912 0.43111
# Poissons Ratio (y) = 0.46955 0.46435
# Poissons Ratio (z) = 0.30466 0.10421
#
# Static dielectric constant tensor:
#      x y z
#    x 3.157250 0.000000 0.000000 
#    y 0.000000 2.517780 0.000000 
#    z 0.000000 0.000000 3.636290 
# 
# 
# High freq. dielectric constant tensor:
#      x y z
#    x 1.637740 0.000000 0.000000 
#    y 0.000000 1.536550 0.000000 
#    z 0.000000 0.000000 1.644890 
# 
# From -- ./inp_files/18444.got.cif
#   From: 2010.03.12/outbox.cif.g09.slc.cpg/sg46_10_cif.got.tgz:18444.got - 2010.04.14 02:56:35.
