data_PCOD8191827
_publ_section_title
;
Structure prediction by ZEFSAII (Michael W. Deem and Ramdas Pophale) SiO2 
 PCOD8191827
Probable space group: I M A 2
;
_chemical_formula_sum "Si O2"
_cell_formula_units_Z 56
_cell_length_a 9.298608
_cell_length_b 23.672429
_cell_length_c 13.408308
_cell_angle_alpha 90.000000
_cell_angle_beta 90.000000
_cell_angle_gamma 90.000000
_cell_volume 2951.445307
_symmetry_space_group_name_H-M "I M A 2"
_symmetry_group_IT_number 46
_symmetry_cell_setting 'orthorhombic'
loop_
_space_group_symop_operation_xyz
x,y,z
-x,-y,z
1/2-x,y,z
1/2+x,-y,z
1/2+x,1/2+y,1/2+z
1/2-x,1/2-y,1/2+z
-x,1/2+y,1/2+z
x,1/2-y,1/2+z
loop_
_atom_site_type_symbol
_atom_site_label
_atom_site_fract_x
_atom_site_fract_y
_atom_site_fract_z
Si Si1 0.916307 0.444824 0.432560
Si Si2 0.583492 0.832907 0.634071
Si Si3 0.918514 0.056431 0.162691
Si Si4 0.083592 0.379869 0.820492
Si Si5 0.580003 0.171117 0.833823
Si Si6 0.414874 0.233051 0.435271
Si Si7 0.917325 0.556291 0.018698
O O1 0.750000 0.458312 0.417807
O O2 0.950923 0.430811 0.547449
O O3 0.965617 0.391731 0.366868
O O4 0.000000 0.500000 0.394969
O O5 0.750000 0.830241 0.665644
O O6 0.485786 0.815240 0.726443
O O7 0.551973 0.788807 0.546058
O O8 0.541786 0.895703 0.598494
O O9 0.750000 0.049524 0.184439
O O10 0.982577 0.108385 0.225731
O O11 0.000000 0.000000 0.197574
O O12 0.250000 0.387967 0.790938
O O13 0.054888 0.316145 0.855330
O O14 0.039942 0.422848 0.908573
O O15 0.750000 0.178086 0.829923
O O16 0.518824 0.214720 0.914595
O O17 0.250000 0.252909 0.426953
O O18 0.750000 0.542952 0.023176
O O19 0.000000 0.500000 0.048448
#
# Coordination Sequence:
#
# PCOD8191827 Si02
#       7
#     8   8   8   8   8   8   8
#     4   9  21  39  55  76 107 140 176 219 264 315
#     4   9  20  39  58  78 107 143 183 222 261 314
#     4  10  19  32  51  76 108 144 181 221 267 317
#     4   9  18  33  52  77 108 141 180 222 264 314
#     4  11  23  38  58  84 111 138 173 221 274 322
#     4   9  20  39  59  79 107 143 183 223 262 316
#     4   9  18  32  51  76 108 143 178 220 266 314
#
# _framework density 18.973755000000001
#
# number of rings (size 3 to 8) (size 9 to 14) (size 15 to 20)
#    0.000    2.571    0.000    3.000    0.000    6.857 
#    0.000    8.571    0.000    0.000    0.000    0.000 
#    0.000    0.000    0.000    0.000    0.000    0.000 
#
# Total GULP energy -347276.490084 kJ/mol
# GULP energy per Si atom -12402.731789 kJ/mol
# Density = 1.893057 g / cm^3
# Si number density = 18.973755 Si / 1000 Ang^3
#
#
#
# Elastic Constant Matrix: (Units=GPa)
#
#
# Indices 1 2 3 4 5 6 
#
# 1 87.7624 64.1011 52.5334 0.0001 0.0000 0.0000
# 2 64.1011 116.3343 53.0282 0.0004 -0.0001 0.0000
# 3 52.5334 53.0282 87.0749 0.0013 -0.0003 -0.0001
# 4 0.0001 0.0004 0.0013 23.1784 -0.0002 -0.0001
# 5 0.0000 -0.0001 -0.0003 -0.0002 29.4771 0.0001
# 6 0.0000 0.0000 -0.0001 -0.0001 0.0001 36.5251
#
#
#
# Elastic Compliance Matrix: (Units=1/GPa)
#
#
# Indices 1 2 3 4 5 6 
#
# 1 0.022831 -0.008723 -0.008462 0.000001 0.000000 0.000000
# 2 -0.008723 0.015232 -0.004013 0.000000 0.000000 0.000000
# 3 -0.008462 -0.004013 0.019034 -0.000001 0.000000 0.000000
# 4 0.000001 0.000000 -0.000001 0.043144 0.000000 0.000000
# 5 0.000000 0.000000 0.000000 0.000000 0.033925 0.000000
# 6 0.000000 0.000000 0.000000 0.000000 0.000000 0.027378
#
#
# Mechanical properties :
#
#
# Convention : Reuss Voigt Hill
#
# Bulk Modulus (GPa) = 68.02815 70.05523 69.04169
# Shear Modulus (GPa) = 23.94192 25.93672 24.93932
#
# Velocity S-wave (km/s) = 3.55610 3.70128 3.62941
# Velocity P-wave (km/s) = 7.26586 7.43426 7.35055
#
# Compressibility (1/GPa) = 0.01469980
#
# Stress axis : x y z
#
# Youngs Moduli (GPa) = 43.80088 65.65288 52.53828
#
# Poissons Ratio (x) = 0.57267 0.44458
# Poissons Ratio (y) = 0.38206 0.21086
# Poissons Ratio (z) = 0.37064 0.26350
#
# Static dielectric constant tensor:
#      x y z
#    x 3.347550 0.000000 0.000000 
#    y 0.000000 3.418610 0.000000 
#    z 0.000000 0.000000 3.383710 
# 
# 
# High freq. dielectric constant tensor:
#      x y z
#    x 1.733460 0.000000 0.000000 
#    y 0.000000 1.736350 0.000000 
#    z 0.000000 0.000000 1.735290 
# 
# From -- ./inp_files/14229.got.cif
#   From: 2010.03.12/outbox.cif.g09.slc.cpg/sg46_8_cif.got.tgz:14229.got - 2010.04.14 02:56:35.
