data_PCOD8191692
_publ_section_title
;
Structure prediction by ZEFSAII (Michael W. Deem and Ramdas Pophale) SiO2 
 PCOD8191692
Probable space group: I M A 2
;
_chemical_formula_sum "Si O2"
_cell_formula_units_Z 64
_cell_length_a 8.971914
_cell_length_b 23.339561
_cell_length_c 19.059927
_cell_angle_alpha 90.000000
_cell_angle_beta 90.000000
_cell_angle_gamma 90.000000
_cell_volume 3991.158894
_symmetry_space_group_name_H-M "I M A 2"
_symmetry_group_IT_number 46
_symmetry_cell_setting 'orthorhombic'
loop_
_space_group_symop_operation_xyz
x,y,z
-x,-y,z
1/2-x,y,z
1/2+x,-y,z
1/2+x,1/2+y,1/2+z
1/2-x,1/2-y,1/2+z
-x,1/2+y,1/2+z
x,1/2-y,1/2+z
loop_
_atom_site_type_symbol
_atom_site_label
_atom_site_fract_x
_atom_site_fract_y
_atom_site_fract_z
Si Si1 0.424216 0.242793 0.004190
Si Si2 0.924395 0.941075 0.872620
Si Si3 0.920550 0.764218 0.657974
Si Si4 0.924790 0.164830 0.235509
Si Si5 0.924499 0.060090 0.148669
Si Si6 0.074397 0.770001 0.369383
Si Si7 0.578825 0.830284 0.790904
Si Si8 0.427179 0.880998 0.003808
O O1 0.250000 0.231573 0.992103
O O2 0.455394 0.277482 0.076471
O O3 0.489777 0.282315 0.942153
O O4 0.507722 0.182459 0.003299
O O5 0.750000 0.950552 0.887554
O O6 0.950857 0.896530 0.808753
O O7 0.001715 0.918671 0.942725
O O8 0.000000 0.000000 0.848554
O O9 0.750000 0.746382 0.666998
O O10 0.957848 0.818507 0.708473
O O11 0.013067 0.709133 0.679428
O O12 0.750000 0.171393 0.228931
O O13 0.974835 0.101168 0.213218
O O14 0.975777 0.180364 0.314618
O O15 0.750000 0.049864 0.148654
O O16 0.974822 0.088486 0.075833
O O17 0.000000 0.000000 0.161442
O O18 0.250000 0.769844 0.382535
O O19 0.026947 0.708132 0.339597
O O20 0.750000 0.813928 0.808117
O O21 0.250000 0.877775 0.994276
#
# Coordination Sequence:
#
# PCOD8191692 Si02
#       8
#     8   8   8   8   8   8   8   8
#     4  11  20  30  47  72 100 128 158 194 238 286
#     4  11  22  34  49  68  96 129 164 201 236 279
#     4   9  18  31  49  70  93 123 156 193 237 284
#     4   9  18  33  48  68  94 123 157 198 239 278
#     4  10  21  34  48  67  94 127 163 200 234 275
#     4  10  19  30  49  70  94 125 157 193 238 287
#     4   9  18  33  49  68  93 122 158 198 237 277
#     4  11  21  33  48  67  96 131 167 199 230 274
#
# _framework density 16.035443000000001
#
# number of rings (size 3 to 8) (size 9 to 14) (size 15 to 20)
#    0.000    2.000    2.500    1.875    0.000    4.000 
#    0.000    0.000    0.000    0.000    0.000    0.875 
#    0.000    6.000    0.000    0.000    0.000    0.000 
#
# Total GULP energy -396726.181296 kJ/mol
# GULP energy per Si atom -12397.693165 kJ/mol
# Density = 1.599895 g / cm^3
# Si number density = 16.035443 Si / 1000 Ang^3
#
#
#
# Elastic Constant Matrix: (Units=GPa)
#
#
# Indices 1 2 3 4 5 6 
#
# 1 55.0867 36.9317 44.1559 0.0000 0.0000 0.0000
# 2 36.9317 87.5091 66.6278 0.0000 0.0000 0.0000
# 3 44.1559 66.6278 132.0584 0.0000 0.0000 0.0000
# 4 0.0000 0.0000 0.0000 22.3510 0.0000 0.0000
# 5 0.0000 0.0000 0.0000 0.0000 22.8427 0.0000
# 6 0.0000 0.0000 0.0000 0.0000 0.0000 22.9233
#
#
#
# Elastic Compliance Matrix: (Units=1/GPa)
#
#
# Indices 1 2 3 4 5 6 
#
# 1 0.027519 -0.007482 -0.005426 0.000000 0.000000 0.000000
# 2 -0.007482 0.020590 -0.007886 0.000000 0.000000 0.000000
# 3 -0.005426 -0.007886 0.013366 0.000000 0.000000 0.000000
# 4 0.000000 0.000000 0.000000 0.044741 0.000000 0.000000
# 5 0.000000 0.000000 0.000000 0.000000 0.043778 0.000000
# 6 0.000000 0.000000 0.000000 0.000000 0.000000 0.043624
#
#
# Mechanical properties :
#
#
# Convention : Reuss Voigt Hill
#
# Bulk Modulus (GPa) = 50.29072 63.34278 56.81675
# Shear Modulus (GPa) = 20.67524 22.08600 21.38062
#
# Velocity S-wave (km/s) = 3.59464 3.71526 3.65545
# Velocity P-wave (km/s) = 6.97559 7.61523 7.30242
#
# Compressibility (1/GPa) = 0.01988439
#
# Stress axis : x y z
#
# Youngs Moduli (GPa) = 36.33820 48.56793 74.81843
#
# Poissons Ratio (x) = 0.36341 0.40599
# Poissons Ratio (y) = 0.27190 0.59004
# Poissons Ratio (z) = 0.19718 0.38302
#
# Static dielectric constant tensor:
#      x y z
#    x 3.140200 0.000000 0.000000 
#    y 0.000000 3.059230 0.000000 
#    z 0.000000 0.000000 3.410820 
# 
# 
# High freq. dielectric constant tensor:
#      x y z
#    x 1.627640 0.000000 0.000000 
#    y 0.000000 1.586660 0.000000 
#    z 0.000000 0.000000 1.617450 
# 
# From -- ./inp_files/18625.got.cif
#   From: 2010.03.12/outbox.cif.g09.slc.cpg/sg46_10_cif.got.tgz:18625.got - 2010.04.14 02:56:35.
