data_PCOD8192913
_publ_section_title
;
Structure prediction by ZEFSAII (Michael W. Deem and Ramdas Pophale) SiO2 
 PCOD8192913
Probable space group: I M A 2
;
_chemical_formula_sum "Si O2"
_cell_formula_units_Z 40
_cell_length_a 13.862256
_cell_length_b 9.355681
_cell_length_c 14.857380
_cell_angle_alpha 90.000000
_cell_angle_beta 90.000000
_cell_angle_gamma 90.000000
_cell_volume 1926.866168
_symmetry_space_group_name_H-M "I M A 2"
_symmetry_group_IT_number 46
_symmetry_cell_setting 'orthorhombic'
loop_
_space_group_symop_operation_xyz
x,y,z
-x,-y,z
1/2-x,y,z
1/2+x,-y,z
1/2+x,1/2+y,1/2+z
1/2-x,1/2-y,1/2+z
-x,1/2+y,1/2+z
x,1/2-y,1/2+z
loop_
_atom_site_type_symbol
_atom_site_label
_atom_site_fract_x
_atom_site_fract_y
_atom_site_fract_z
Si Si1 0.023258 0.834765 0.489160
Si Si2 0.857807 0.619254 0.465866
Si Si3 0.040791 0.769450 0.189043
Si Si4 0.141728 0.060782 0.171084
Si Si5 0.362748 0.657545 0.355607
O O1 0.053754 0.801211 0.591414
O O2 0.109335 0.786992 0.423051
O O3 0.927902 0.752716 0.456548
O O4 0.000000 0.000000 0.477206
O O5 0.750000 0.674576 0.445738
O O6 0.864905 0.550352 0.563996
O O7 0.889191 0.494360 0.398776
O O8 0.075327 0.657972 0.263844
O O9 0.929100 0.813828 0.205901
O O10 0.108465 0.906794 0.205024
O O11 0.250000 0.095224 0.204897
O O12 0.250000 0.671007 0.334035
#
# Coordination Sequence:
#
# PCOD8192913 Si02
#       5
#     8   8   8   8   8
#     4  11  24  40  62  94 130 166 206 267 322 370
#     4   9  19  40  66  90 121 167 213 255 310 379
#     4  10  21  37  61  94 126 164 210 261 314 378
#     4   9  17  35  64  91 122 164 207 255 315 376
#     4  11  23  39  65  93 124 169 215 259 313 381
#
# _framework density 20.759098000000002
#
# number of rings (size 3 to 8) (size 9 to 14) (size 15 to 20)
#    0.000    2.000    2.000    1.200    2.800    3.200 
#    0.000    1.000    0.000   10.800    0.000    0.000 
#    0.000    0.000    0.000    0.000    0.000    0.000 
#
# Total GULP energy -248034.194120 kJ/mol
# GULP energy per Si atom -12401.709706 kJ/mol
# Density = 2.071185 g / cm^3
# Si number density = 20.759098 Si / 1000 Ang^3
#
#
#
# Elastic Constant Matrix: (Units=GPa)
#
#
# Indices 1 2 3 4 5 6 
#
# 1 147.9936 54.1618 59.7574 0.0000 0.0000 0.0000
# 2 54.1618 115.2543 50.2378 0.0000 0.0000 0.0000
# 3 59.7574 50.2378 111.5337 0.0000 0.0000 0.0000
# 4 0.0000 0.0000 0.0000 26.3932 0.0000 0.0000
# 5 0.0000 0.0000 0.0000 0.0000 33.1220 0.0000
# 6 0.0000 0.0000 0.0000 0.0000 0.0000 28.3783
#
#
#
# Elastic Compliance Matrix: (Units=1/GPa)
#
#
# Indices 1 2 3 4 5 6 
#
# 1 0.009262 -0.002725 -0.003735 0.000000 0.000000 0.000000
# 2 -0.002725 0.011598 -0.003764 0.000000 0.000000 0.000000
# 3 -0.003735 -0.003764 0.012663 0.000000 0.000000 0.000000
# 4 0.000000 0.000000 0.000000 0.037889 0.000000 0.000000
# 5 0.000000 0.000000 0.000000 0.000000 0.030191 0.000000
# 6 0.000000 0.000000 0.000000 0.000000 0.000000 0.035238
#
#
# Mechanical properties :
#
#
# Convention : Reuss Voigt Hill
#
# Bulk Modulus (GPa) = 76.48415 78.12175 77.30295
# Shear Modulus (GPa) = 30.93157 31.62034 31.27595
#
# Velocity S-wave (km/s) = 3.86427 3.90706 3.88572
# Velocity P-wave (km/s) = 7.53882 7.62022 7.57963
#
# Compressibility (1/GPa) = 0.01307460
#
# Stress axis : x y z
#
# Youngs Moduli (GPa) = 107.96267 86.22530 78.97196
#
# Poissons Ratio (x) = 0.23492 0.29500
# Poissons Ratio (y) = 0.29415 0.29726
# Poissons Ratio (z) = 0.40329 0.32456
#
# Static dielectric constant tensor:
#      x y z
#    x 4.108340 0.000000 0.000000 
#    y 0.000000 3.496340 0.000000 
#    z 0.000000 0.000000 3.703320 
# 
# 
# High freq. dielectric constant tensor:
#      x y z
#    x 1.823780 0.000000 0.000000 
#    y 0.000000 1.797280 0.000000 
#    z 0.000000 0.000000 1.809830 
# 
# From -- ./inp_files/15666.got.cif
#   From: 2010.03.12/outbox.cif.g09.slc.cpg/sg46_8_cif.got.tgz:15666.got - 2010.04.14 02:56:35.
