data_PCOD8192115
_publ_section_title
;
Structure prediction by ZEFSAII (Michael W. Deem and Ramdas Pophale) SiO2 
 PCOD8192115
Probable space group: I M A 2
;
_chemical_formula_sum "Si O2"
_cell_formula_units_Z 48
_cell_length_a 13.600267
_cell_length_b 12.676916
_cell_length_c 13.757704
_cell_angle_alpha 90.000000
_cell_angle_beta 90.000000
_cell_angle_gamma 90.000000
_cell_volume 2371.958074
_symmetry_space_group_name_H-M "I M A 2"
_symmetry_group_IT_number 46
_symmetry_cell_setting 'orthorhombic'
loop_
_space_group_symop_operation_xyz
x,y,z
-x,-y,z
1/2-x,y,z
1/2+x,-y,z
1/2+x,1/2+y,1/2+z
1/2-x,1/2-y,1/2+z
-x,1/2+y,1/2+z
x,1/2-y,1/2+z
loop_
_atom_site_type_symbol
_atom_site_label
_atom_site_fract_x
_atom_site_fract_y
_atom_site_fract_z
Si Si1 0.137933 0.949440 0.350690
Si Si2 0.363660 0.648687 0.182611
Si Si3 0.014158 0.259011 0.561621
Si Si4 0.514159 0.240980 0.840827
Si Si5 0.636337 0.851309 0.219841
Si Si6 0.637936 0.949449 0.551746
O O1 0.250000 0.911763 0.361470
O O2 0.072110 0.849858 0.328143
O O3 0.124868 0.032450 0.263960
O O4 0.101170 0.999983 0.451224
O O5 0.250000 0.677379 0.199927
O O6 0.407672 0.738471 0.110312
O O7 0.423900 0.651408 0.284183
O O8 0.375111 0.532444 0.138492
O O9 0.076107 0.348577 0.618266
O O10 0.072102 0.150127 0.574285
O O11 0.999995 0.296094 0.451225
O O12 0.407670 0.261523 0.792143
O O13 0.750000 0.822631 0.202533
O O14 0.750000 0.911760 0.540949
#
# Coordination Sequence:
#
# PCOD8192115 Si02
#       6
#     8   8   8   8   8   8
#     4  10  19  34  59  88 118 152 193 244 292 348
#     4  10  22  35  53  88 122 154 196 244 298 349
#     4  11  21  35  59  86 116 158 199 249 290 350
#     4  11  21  35  59  86 116 158 199 249 290 350
#     4  10  22  35  53  88 122 154 196 244 298 349
#     4  10  19  34  59  88 118 152 193 244 292 348
#
# _framework density 20.236445
#
# number of rings (size 3 to 8) (size 9 to 14) (size 15 to 20)
#    0.000    1.667    3.333    2.000    0.000    1.333 
#    0.000    0.000    0.000   16.000    0.000   32.667 
#    0.000    0.000    0.000    0.000    0.000    0.000 
#
# Total GULP energy -297632.336787 kJ/mol
# GULP energy per Si atom -12401.347366 kJ/mol
# Density = 2.019039 g / cm^3
# Si number density = 20.236445 Si / 1000 Ang^3
#
#
#
# Elastic Constant Matrix: (Units=GPa)
#
#
# Indices 1 2 3 4 5 6 
#
# 1 99.8581 21.2334 40.6346 0.0000 0.0000 0.0000
# 2 21.2334 49.0317 31.0439 0.0000 0.0000 0.0000
# 3 40.6346 31.0439 161.0968 0.0000 0.0000 0.0000
# 4 0.0000 0.0000 0.0000 27.9369 0.0000 0.0000
# 5 0.0000 0.0000 0.0000 0.0000 27.4139 0.0000
# 6 0.0000 0.0000 0.0000 0.0000 0.0000 22.8349
#
#
#
# Elastic Compliance Matrix: (Units=1/GPa)
#
#
# Indices 1 2 3 4 5 6 
#
# 1 0.011705 -0.003644 -0.002250 0.000000 0.000000 0.000000
# 2 -0.003644 0.024364 -0.003776 0.000000 0.000000 0.000000
# 3 -0.002250 -0.003776 0.007503 0.000000 0.000000 0.000000
# 4 0.000000 0.000000 0.000000 0.035795 0.000000 0.000000
# 5 0.000000 0.000000 0.000000 0.000000 0.036478 0.000000
# 6 0.000000 0.000000 0.000000 0.000000 0.000000 0.043793
#
#
# Mechanical properties :
#
#
# Convention : Reuss Voigt Hill
#
# Bulk Modulus (GPa) = 41.26959 55.09007 48.17983
# Shear Modulus (GPa) = 26.73035 30.10880 28.41958
#
# Velocity S-wave (km/s) = 3.63836 3.86145 3.75157
# Velocity P-wave (km/s) = 6.17157 6.86756 6.52884
#
# Compressibility (1/GPa) = 0.02423092
#
# Stress axis : x y z
#
# Youngs Moduli (GPa) = 85.43572 41.04474 133.28676
#
# Poissons Ratio (x) = 0.14957 0.29991
# Poissons Ratio (y) = 0.31134 0.50326
# Poissons Ratio (z) = 0.19224 0.15498
#
# Static dielectric constant tensor:
#      x y z
#    x 4.085860 0.000000 0.000000 
#    y 0.000000 3.358190 0.000000 
#    z 0.000000 0.000000 3.874680 
# 
# 
# High freq. dielectric constant tensor:
#      x y z
#    x 1.815320 0.000000 0.000000 
#    y 0.000000 1.752210 0.000000 
#    z 0.000000 0.000000 1.790360 
# 
# From -- ./inp_files/11067.got.cif
#   From: 2010.03.12/outbox.cif.g09.slc.cpg/sg46_6_cif.got.tgz:11067.got - 2010.04.14 02:56:35.
