data_PCOD8192775
_publ_section_title
;
Structure prediction by ZEFSAII (Michael W. Deem and Ramdas Pophale) SiO2 
 PCOD8192775
Probable space group: I M A 2
;
_chemical_formula_sum "Si O2"
_cell_formula_units_Z 40
_cell_length_a 8.472900
_cell_length_b 28.975863
_cell_length_c 7.916294
_cell_angle_alpha 90.000000
_cell_angle_beta 90.000000
_cell_angle_gamma 90.000000
_cell_volume 1943.526091
_symmetry_space_group_name_H-M "I M A 2"
_symmetry_group_IT_number 46
_symmetry_cell_setting 'orthorhombic'
loop_
_space_group_symop_operation_xyz
x,y,z
-x,-y,z
1/2-x,y,z
1/2+x,-y,z
1/2+x,1/2+y,1/2+z
1/2-x,1/2-y,1/2+z
-x,1/2+y,1/2+z
x,1/2-y,1/2+z
loop_
_atom_site_type_symbol
_atom_site_label
_atom_site_fract_x
_atom_site_fract_y
_atom_site_fract_z
Si Si1 0.934619 0.893675 0.986150
Si Si2 0.932409 0.798072 0.835427
Si Si3 0.562538 0.551086 0.168390
Si Si4 0.568566 0.206943 0.478135
Si Si5 0.937197 0.886575 0.357647
O O1 0.750000 0.900639 0.970083
O O2 0.978621 0.840128 0.958399
O O3 0.009617 0.926150 0.839861
O O4 0.989086 0.907906 0.175457
O O5 0.750000 0.801334 0.779212
O O6 0.042633 0.803692 0.673743
O O7 0.961522 0.750455 0.930711
O O8 0.500000 0.500000 0.149592
O O9 0.750000 0.550738 0.170548
O O10 0.502187 0.580097 0.006458
O O11 0.750000 0.218856 0.442083
O O12 0.518754 0.163011 0.369183
O O13 0.750000 0.879190 0.366897
#
# Coordination Sequence:
#
# PCOD8192775 Si02
#       5
#     8   8   8   8   8
#     4   9  19  37  62  88 113 152 207 254 291 357
#     4  11  21  38  61  85 118 166 214 248 299 375
#     4  10  21  39  61  89 120 156 205 257 309 367
#     4  12  24  37  56  90 129 159 200 260 317 361
#     4  10  20  39  64  86 117 162 209 250 298 375
#
# _framework density 20.581150000000001
#
# number of rings (size 3 to 8) (size 9 to 14) (size 15 to 20)
#    0.000    1.600    2.000    3.600    0.000    3.200 
#    0.000    2.000    0.000    0.000    0.000    0.000 
#    0.000    0.000    0.000    0.000    0.000    0.000 
#
# Total GULP energy -248008.385571 kJ/mol
# GULP energy per Si atom -12400.419279 kJ/mol
# Density = 2.053431 g / cm^3
# Si number density = 20.581150 Si / 1000 Ang^3
#
#
#
# Elastic Constant Matrix: (Units=GPa)
#
#
# Indices 1 2 3 4 5 6 
#
# 1 36.3118 15.6509 15.4537 0.0032 0.0008 0.0001
# 2 15.6509 134.8741 59.6354 0.0053 0.0005 0.0002
# 3 15.4537 59.6354 168.2403 0.0013 0.0035 0.0012
# 4 0.0032 0.0053 0.0013 29.8744 0.0010 0.0009
# 5 0.0008 0.0005 0.0035 0.0010 13.5243 0.0021
# 6 0.0001 0.0002 0.0012 0.0009 0.0021 27.7606
#
#
#
# Elastic Compliance Matrix: (Units=1/GPa)
#
#
# Indices 1 2 3 4 5 6 
#
# 1 0.029427 -0.002632 -0.001770 -0.000003 -0.000001 0.000000
# 2 -0.002632 0.009028 -0.002958 -0.000001 0.000001 0.000000
# 3 -0.001770 -0.002958 0.007155 0.000000 -0.000002 0.000000
# 4 -0.000003 -0.000001 0.000000 0.033474 -0.000003 -0.000001
# 5 -0.000001 0.000001 -0.000002 -0.000003 0.073941 -0.000006
# 6 0.000000 0.000000 0.000000 -0.000001 -0.000006 0.036022
#
#
# Mechanical properties :
#
#
# Convention : Reuss Voigt Hill
#
# Bulk Modulus (GPa) = 32.37389 57.87847 45.12618
# Shear Modulus (GPa) = 23.35750 30.81091 27.08420
#
# Velocity S-wave (km/s) = 3.37248 3.87336 3.63157
# Velocity P-wave (km/s) = 5.56137 6.94169 6.28951
#
# Compressibility (1/GPa) = 0.03088909
#
# Stress axis : x y z
#
# Youngs Moduli (GPa) = 33.98234 110.76937 139.76102
#
# Poissons Ratio (x) = 0.29156 0.24738
# Poissons Ratio (y) = 0.08944 0.41345
# Poissons Ratio (z) = 0.06015 0.32769
#
# Static dielectric constant tensor:
#      x y z
#    x 3.382550 0.000000 0.000000 
#    y 0.000000 3.983680 -0.000010 
#    z 0.000000 -0.000010 4.139950 
# 
# 
# High freq. dielectric constant tensor:
#      x y z
#    x 1.774860 0.000000 0.000000 
#    y 0.000000 1.801710 0.000000 
#    z 0.000000 0.000000 1.823130 
# 
# From -- ./inp_files/3508.got.cif
#   From: 2010.03.12/outbox.cif.g09.slc.cpg/sg46_2_cif.got.tgz:3508.got - 2010.04.14 02:56:35.
