data_PCOD8192013
_publ_section_title
;
Structure prediction by ZEFSAII (Michael W. Deem and Ramdas Pophale) SiO2 
 PCOD8192013
Probable space group: I M A 2
;
_chemical_formula_sum "Si O2"
_cell_formula_units_Z 56
_cell_length_a 8.617446
_cell_length_b 15.457853
_cell_length_c 19.587462
_cell_angle_alpha 90.000000
_cell_angle_beta 90.000000
_cell_angle_gamma 90.000000
_cell_volume 2609.191233
_symmetry_space_group_name_H-M "I M A 2"
_symmetry_group_IT_number 46
_symmetry_cell_setting 'orthorhombic'
loop_
_space_group_symop_operation_xyz
x,y,z
-x,-y,z
1/2-x,y,z
1/2+x,-y,z
1/2+x,1/2+y,1/2+z
1/2-x,1/2-y,1/2+z
-x,1/2+y,1/2+z
x,1/2-y,1/2+z
loop_
_atom_site_type_symbol
_atom_site_label
_atom_site_fract_x
_atom_site_fract_y
_atom_site_fract_z
Si Si1 0.574926 0.420924 0.345080
Si Si2 0.433974 0.905530 0.579299
Si Si3 0.573996 0.271571 0.807467
Si Si4 0.425555 0.117943 0.982449
Si Si5 0.428884 0.185232 0.450259
Si Si6 0.927211 0.085133 0.111895
Si Si7 0.569874 0.750888 0.666262
O O1 0.500000 0.500000 0.300136
O O2 0.750000 0.440110 0.367700
O O3 0.566332 0.331858 0.305678
O O4 0.456893 0.418394 0.408050
O O5 0.250000 0.909425 0.579477
O O6 0.489902 0.880487 0.502914
O O7 0.484442 0.836323 0.637603
O O8 0.500000 0.000000 0.598423
O O9 0.750000 0.305082 0.801801
O O10 0.502054 0.317465 0.874098
O O11 0.482150 0.290911 0.738546
O O12 0.250000 0.095357 0.005441
O O13 0.450901 0.220929 0.982007
O O14 0.555387 0.072980 0.030401
O O15 0.250000 0.158466 0.443288
O O16 0.750000 0.098971 0.135350
O O17 0.033914 0.169620 0.118715
O O18 0.000000 0.000000 0.148999
O O19 0.750000 0.773549 0.667059
#
# Coordination Sequence:
#
# PCOD8192013 Si02
#       7
#     8   8   8   8   8   8   8
#     4  10  20  33  52  80 117 155 200 248 302 368
#     4  12  25  43  69 100 135 178 227 282 340 402
#     4  10  22  40  62  88 122 169 217 265 329 395
#     4  10  19  33  56  85 121 157 196 244 302 363
#     4  10  20  38  64  94 127 165 213 267 323 383
#     4  12  24  39  61  89 123 161 204 253 314 378
#     4  12  25  44  66  94 131 171 218 273 334 399
#
# _framework density 21.462591
#
# number of rings (size 3 to 8) (size 9 to 14) (size 15 to 20)
#    0.000    1.143    1.429    6.000    0.000    3.429 
#    0.000    2.143    0.000    0.000    0.000    0.000 
#    0.000    0.000    0.000    0.000    0.000    0.000 
#
# Total GULP energy -347003.101256 kJ/mol
# GULP energy per Si atom -12392.967902 kJ/mol
# Density = 2.141374 g / cm^3
# Si number density = 21.462591 Si / 1000 Ang^3
#
#
#
# Elastic Constant Matrix: (Units=GPa)
#
#
# Indices 1 2 3 4 5 6 
#
# 1 150.8122 30.1419 33.4485 0.0000 0.0000 0.0000
# 2 30.1419 86.9950 10.6456 0.0000 0.0000 0.0000
# 3 33.4485 10.6456 90.4552 0.0000 0.0000 0.0000
# 4 0.0000 0.0000 0.0000 12.7828 0.0000 0.0000
# 5 0.0000 0.0000 0.0000 0.0000 32.9439 0.0000
# 6 0.0000 0.0000 0.0000 0.0000 0.0000 34.9914
#
#
#
# Elastic Compliance Matrix: (Units=1/GPa)
#
#
# Indices 1 2 3 4 5 6 
#
# 1 0.007667 -0.002343 -0.002559 0.000000 0.000000 0.000000
# 2 -0.002343 0.012379 -0.000590 0.000000 0.000000 0.000000
# 3 -0.002559 -0.000590 0.012071 0.000000 0.000000 0.000000
# 4 0.000000 0.000000 0.000000 0.078230 0.000000 0.000000
# 5 0.000000 0.000000 0.000000 0.000000 0.030355 0.000000
# 6 0.000000 0.000000 0.000000 0.000000 0.000000 0.028578
#
#
# Mechanical properties :
#
#
# Convention : Reuss Voigt Hill
#
# Bulk Modulus (GPa) = 47.32357 52.97049 50.14703
# Shear Modulus (GPa) = 26.69382 33.07871 29.88627
#
# Velocity S-wave (km/s) = 3.53049 3.93010 3.73565
# Velocity P-wave (km/s) = 6.22225 6.73263 6.48246
#
# Compressibility (1/GPa) = 0.02113112
#
# Stress axis : x y z
#
# Youngs Moduli (GPa) = 130.43448 80.78178 82.84294
#
# Poissons Ratio (x) = 0.18929 0.21201
# Poissons Ratio (y) = 0.30563 0.04891
# Poissons Ratio (z) = 0.33381 0.04770
#
# Static dielectric constant tensor:
#      x y z
#    x 3.890860 0.000000 0.000000 
#    y 0.000000 4.436390 0.000000 
#    z 0.000000 0.000000 3.740640 
# 
# 
# High freq. dielectric constant tensor:
#      x y z
#    x 1.854530 0.000000 0.000000 
#    y 0.000000 1.844180 0.000000 
#    z 0.000000 0.000000 1.829500 
# 
# From -- ./inp_files/21105.got.cif
#   From: 2010.03.12/outbox.cif.g09.slc.cpg/sg46_11_cif.got.tgz:21105.got - 2010.04.14 02:56:35.
