data_PCOD8192530
_publ_section_title
;
Structure prediction by ZEFSAII (Michael W. Deem and Ramdas Pophale) SiO2 
 PCOD8192530
Probable space group: I M A 2
;
_chemical_formula_sum "Si O2"
_cell_formula_units_Z 64
_cell_length_a 8.643558
_cell_length_b 28.713871
_cell_length_c 12.436354
_cell_angle_alpha 90.000000
_cell_angle_beta 90.000000
_cell_angle_gamma 90.000000
_cell_volume 3086.578816
_symmetry_space_group_name_H-M "I M A 2"
_symmetry_group_IT_number 46
_symmetry_cell_setting 'orthorhombic'
loop_
_space_group_symop_operation_xyz
x,y,z
-x,-y,z
1/2-x,y,z
1/2+x,-y,z
1/2+x,1/2+y,1/2+z
1/2-x,1/2-y,1/2+z
-x,1/2+y,1/2+z
x,1/2-y,1/2+z
loop_
_atom_site_type_symbol
_atom_site_label
_atom_site_fract_x
_atom_site_fract_y
_atom_site_fract_z
Si Si1 0.567605 0.385900 0.630360
Si Si2 0.428644 0.045889 0.291612
Si Si3 0.068501 0.902781 0.732605
Si Si4 0.077486 0.163199 0.440540
Si Si5 0.067426 0.448619 0.441734
Si Si6 0.574076 0.427428 0.996640
Si Si7 0.075743 0.306280 0.173166
Si Si8 0.069090 0.204376 0.214616
O O1 0.750000 0.389666 0.619960
O O2 0.509731 0.408729 0.742038
O O3 0.492897 0.412484 0.530234
O O4 0.516480 0.331834 0.634603
O O5 0.250000 0.047778 0.264790
O O6 0.461822 0.042406 0.420048
O O7 0.500000 0.000000 0.235502
O O8 0.250000 0.905345 0.756808
O O9 0.026709 0.930369 0.622097
O O10 0.976542 0.929189 0.824993
O O11 0.022189 0.848612 0.723379
O O12 0.250000 0.140076 0.425715
O O13 0.078368 0.195619 0.544448
O O14 0.034250 0.193372 0.338102
O O15 0.944681 0.125409 0.457697
O O16 0.250000 0.452242 0.451538
O O17 0.000000 0.500000 0.460466
O O18 0.750000 0.443553 0.978406
O O19 0.250000 0.311432 0.218943
O O20 0.001853 0.256507 0.203259
O O21 0.250000 0.202841 0.185583
#
# Coordination Sequence:
#
# PCOD8192530 Si02
#       8
#     8   8   8   8   8   8   8   8
#     4  12  25  42  63  90 125 163 208 261 320 382
#     4  12  24  39  60  88 121 156 198 248 304 369
#     4  10  22  41  64  92 128 166 211 262 318 378
#     4   9  17  32  54  79 115 159 201 251 305 364
#     4  12  26  46  70  94 126 169 217 268 327 391
#     4  10  20  36  59  87 118 155 197 247 305 366
#     4   9  19  35  57  89 126 169 217 263 318 377
#     4  10  20  35  58  89 124 167 217 264 316 381
#
# _framework density 20.734931
#
# number of rings (size 3 to 8) (size 9 to 14) (size 15 to 20)
#    0.000    1.500    1.250    4.500    0.000    3.500 
#    0.000    2.500    0.000    0.000    0.000    0.000 
#    0.000    0.000    0.000    0.000    0.000    0.000 
#
# Total GULP energy -396747.526381 kJ/mol
# GULP energy per Si atom -12398.360199 kJ/mol
# Density = 2.068774 g / cm^3
# Si number density = 20.734931 Si / 1000 Ang^3
#
#
#
# Elastic Constant Matrix: (Units=GPa)
#
#
# Indices 1 2 3 4 5 6 
#
# 1 113.5246 22.2466 30.0795 -0.0013 0.0003 0.0002
# 2 22.2466 74.8537 12.8876 -0.0026 0.0008 0.0002
# 3 30.0795 12.8876 90.6367 0.0023 0.0018 0.0009
# 4 -0.0013 -0.0026 0.0023 26.1882 0.0004 0.0004
# 5 0.0003 0.0008 0.0018 0.0004 29.3082 0.0003
# 6 0.0002 0.0002 0.0009 0.0004 0.0003 33.9905
#
#
#
# Elastic Compliance Matrix: (Units=1/GPa)
#
#
# Indices 1 2 3 4 5 6 
#
# 1 0.010089 -0.002483 -0.002995 0.000001 0.000000 0.000000
# 2 -0.002483 0.014306 -0.001210 0.000001 0.000000 0.000000
# 3 -0.002995 -0.001210 0.012199 -0.000001 -0.000001 0.000000
# 4 0.000001 0.000001 -0.000001 0.038185 -0.000001 0.000000
# 5 0.000000 0.000000 -0.000001 -0.000001 0.034120 0.000000
# 6 0.000000 0.000000 0.000000 0.000000 0.000000 0.029420
#
#
# Mechanical properties :
#
#
# Convention : Reuss Voigt Hill
#
# Bulk Modulus (GPa) = 43.07103 45.49360 44.28232
# Shear Modulus (GPa) = 31.36095 32.15081 31.75588
#
# Velocity S-wave (km/s) = 3.89327 3.94199 3.91770
# Velocity P-wave (km/s) = 6.40526 6.53508 6.47049
#
# Compressibility (1/GPa) = 0.02321746
#
# Stress axis : x y z
#
# Youngs Moduli (GPa) = 99.12007 69.90259 81.97313
#
# Poissons Ratio (x) = 0.17355 0.24552
# Poissons Ratio (y) = 0.24609 0.09920
# Poissons Ratio (z) = 0.29688 0.08459
#
# Static dielectric constant tensor:
#      x y z
#    x 3.726520 0.000000 0.000000 
#    y 0.000000 3.795100 0.000000 
#    z 0.000000 0.000000 3.887560 
# 
# 
# High freq. dielectric constant tensor:
#      x y z
#    x 1.808910 0.000000 0.000000 
#    y 0.000000 1.812560 0.000000 
#    z 0.000000 0.000000 1.815730 
# 
# From -- ./inp_files/9759.got.cif
#   From: 2010.03.12/outbox.cif.g09.slc.cpg/sg46_5_cif.got.tgz:9759.got - 2010.04.14 02:56:35.
