data_PCOD8192369
_publ_section_title
;
Structure prediction by ZEFSAII (Michael W. Deem and Ramdas Pophale) SiO2 
 PCOD8192369
Probable space group: I M A 2
;
_chemical_formula_sum "Si O2"
_cell_formula_units_Z 48
_cell_length_a 8.631669
_cell_length_b 13.671411
_cell_length_c 23.523007
_cell_angle_alpha 90.000000
_cell_angle_beta 90.000000
_cell_angle_gamma 90.000000
_cell_volume 2775.881710
_symmetry_space_group_name_H-M "I M A 2"
_symmetry_group_IT_number 46
_symmetry_cell_setting 'orthorhombic'
loop_
_space_group_symop_operation_xyz
x,y,z
-x,-y,z
1/2-x,y,z
1/2+x,-y,z
1/2+x,1/2+y,1/2+z
1/2-x,1/2-y,1/2+z
-x,1/2+y,1/2+z
x,1/2-y,1/2+z
loop_
_atom_site_type_symbol
_atom_site_label
_atom_site_fract_x
_atom_site_fract_y
_atom_site_fract_z
Si Si1 0.568502 0.897740 0.547270
Si Si2 0.932683 0.289663 0.152369
Si Si3 0.931841 0.894572 0.094896
Si Si4 0.428134 0.208100 0.978900
Si Si5 0.431331 0.896397 0.877236
Si Si6 0.933192 0.605562 0.256865
O O1 0.750000 0.905532 0.559536
O O2 0.487439 0.868015 0.605853
O O3 0.534123 0.818363 0.498433
O O4 0.500000 0.000000 0.525459
O O5 0.750000 0.294672 0.157701
O O6 0.985178 0.180796 0.136798
O O7 0.008278 0.314294 0.212635
O O8 0.750000 0.891303 0.107122
O O9 0.967741 0.866035 0.029946
O O10 0.000000 0.000000 0.108242
O O11 0.250000 0.197284 0.960506
O O12 0.536203 0.183764 0.925582
O O13 0.250000 0.907999 0.867030
O O14 0.509969 0.861445 0.819004
O O15 0.500000 0.000000 0.897571
O O16 0.750000 0.599656 0.256168
O O17 0.000000 0.500000 0.240225
#
# Coordination Sequence:
#
# PCOD8192369 Si02
#       6
#     8   8   8   8   8   8
#     4  10  20  34  52  75 103 134 169 207 250 299
#     4  11  21  34  52  75 103 134 169 207 251 299
#     4  10  20  34  52  76 104 135 170 207 250 297
#     4   9  19  34  51  73 102 134 167 204 247 295
#     4  11  21  33  51  75 102 132 167 205 249 298
#     4  11  21  35  53  74 102 133 167 206 251 300
#
# _framework density 17.291803000000002
#
# number of rings (size 3 to 8) (size 9 to 14) (size 15 to 20)
#    0.000    1.667    0.000    8.500    0.000    5.333 
#    0.000    0.000    0.000    1.000    0.000    4.667 
#    0.000    0.000    0.000    0.000    0.000    0.000 
#
# Total GULP energy -297717.443185 kJ/mol
# GULP energy per Si atom -12404.893466 kJ/mol
# Density = 1.725245 g / cm^3
# Si number density = 17.291803 Si / 1000 Ang^3
#
#
#
# Elastic Constant Matrix: (Units=GPa)
#
#
# Indices 1 2 3 4 5 6 
#
# 1 150.5431 49.8045 58.7593 0.0000 0.0000 0.0000
# 2 49.8045 109.8219 58.2347 0.0000 0.0000 0.0000
# 3 58.7593 58.2347 109.1979 0.0000 0.0000 0.0000
# 4 0.0000 0.0000 0.0000 27.0162 0.0000 0.0000
# 5 0.0000 0.0000 0.0000 0.0000 30.5100 0.0000
# 6 0.0000 0.0000 0.0000 0.0000 0.0000 31.9294
#
#
#
# Elastic Compliance Matrix: (Units=1/GPa)
#
#
# Indices 1 2 3 4 5 6 
#
# 1 0.008726 -0.002046 -0.003604 0.000000 0.000000 0.000000
# 2 -0.002046 0.013176 -0.005925 0.000000 0.000000 0.000000
# 3 -0.003604 -0.005925 0.014257 0.000000 0.000000 0.000000
# 4 0.000000 0.000000 0.000000 0.037015 0.000000 0.000000
# 5 0.000000 0.000000 0.000000 0.000000 0.032776 0.000000
# 6 0.000000 0.000000 0.000000 0.000000 0.000000 0.031319
#
#
# Mechanical properties :
#
#
# Convention : Reuss Voigt Hill
#
# Bulk Modulus (GPa) = 76.88073 78.12886 77.50479
# Shear Modulus (GPa) = 30.34765 31.40875 30.87820
#
# Velocity S-wave (km/s) = 4.19385 4.26654 4.23035
# Velocity P-wave (km/s) = 8.24673 8.33978 8.29338
#
# Compressibility (1/GPa) = 0.01300716
#
# Stress axis : x y z
#
# Youngs Moduli (GPa) = 114.59444 75.89756 70.13950
#
# Poissons Ratio (x) = 0.15530 0.25282
# Poissons Ratio (y) = 0.23447 0.41561
# Poissons Ratio (z) = 0.41306 0.44973
#
# Static dielectric constant tensor:
#      x y z
#    x 3.336410 0.000000 0.000000 
#    y 0.000000 3.123730 0.000000 
#    z 0.000000 0.000000 3.138560 
# 
# 
# High freq. dielectric constant tensor:
#      x y z
#    x 1.688150 0.000000 0.000000 
#    y 0.000000 1.658800 0.000000 
#    z 0.000000 0.000000 1.657910 
# 
# From -- ./inp_files/20910.got.cif
#   From: 2010.03.12/outbox.cif.g09.slc.cpg/sg46_11_cif.got.tgz:20910.got - 2010.04.14 02:56:35.
