data_PCOD8192365
_publ_section_title
;
Structure prediction by ZEFSAII (Michael W. Deem and Ramdas Pophale) SiO2 
 PCOD8192365
Probable space group: I M A 2
;
_chemical_formula_sum "Si O2"
_cell_formula_units_Z 64
_cell_length_a 21.652149
_cell_length_b 29.455680
_cell_length_c 5.180066
_cell_angle_alpha 90.000000
_cell_angle_beta 90.000000
_cell_angle_gamma 90.000000
_cell_volume 3303.736134
_symmetry_space_group_name_H-M "I M A 2"
_symmetry_group_IT_number 46
_symmetry_cell_setting 'orthorhombic'
loop_
_space_group_symop_operation_xyz
x,y,z
-x,-y,z
1/2-x,y,z
1/2+x,-y,z
1/2+x,1/2+y,1/2+z
1/2-x,1/2-y,1/2+z
-x,1/2+y,1/2+z
x,1/2-y,1/2+z
loop_
_atom_site_type_symbol
_atom_site_label
_atom_site_fract_x
_atom_site_fract_y
_atom_site_fract_z
Si Si1 0.601128 0.128402 0.217230
Si Si2 0.679567 0.112230 0.716125
Si Si3 0.383447 0.222709 0.175888
Si Si4 0.176863 0.371450 0.703041
Si Si5 0.561367 0.471474 0.756783
Si Si6 0.136225 0.985143 0.756219
Si Si7 0.473339 0.779057 0.202168
Si Si8 0.320383 0.082908 0.702141
O O1 0.648601 0.129811 0.454224
O O2 0.556601 0.083654 0.228841
O O3 0.559770 0.172927 0.226116
O O4 0.640598 0.130546 0.956277
O O5 0.750000 0.129958 0.730262
O O6 0.680784 0.057659 0.718612
O O7 0.367360 0.260153 0.390160
O O8 0.339587 0.180708 0.229132
O O9 0.454575 0.208835 0.203539
O O10 0.250000 0.378005 0.697858
O O11 0.146533 0.393790 0.447922
O O12 0.146995 0.398248 0.944657
O O13 0.500000 0.500000 0.696756
O O14 0.611076 0.487669 0.547022
O O15 0.581115 0.483424 0.047797
O O16 0.177379 0.028980 0.710134
O O17 0.454494 0.747125 0.441704
O O18 0.250000 0.098935 0.699242
#
# Coordination Sequence:
#
# PCOD8192365 Si02
#       8
#     8   8   8   8   8   8   8   8
#     4  10  21  36  58  83 109 145 180 222 279 324
#     4  10  20  36  58  83 110 140 180 221 263 326
#     4  10  21  37  56  79 103 134 182 227 269 325
#     4  10  21  35  52  78 110 142 179 226 274 317
#     4  10  21  36  52  80 114 142 181 221 262 320
#     4  10  20  34  54  77 106 147 181 214 258 304
#     4  10  21  38  59  81 107 140 181 227 270 325
#     4  10  20  34  51  75 107 140 178 216 256 309
#
# _framework density 19.372005999999999
#
# number of rings (size 3 to 8) (size 9 to 14) (size 15 to 20)
#    0.000    2.000    0.000    3.375    0.000    2.500 
#    0.000    3.750    0.000    7.500    0.000    0.000 
#    0.000    0.000    0.000    0.000    0.000    0.000 
#
# Total GULP energy -396786.045288 kJ/mol
# GULP energy per Si atom -12399.563915 kJ/mol
# Density = 1.932791 g / cm^3
# Si number density = 19.372006 Si / 1000 Ang^3
#
#
#
# Elastic Constant Matrix: (Units=GPa)
#
#
# Indices 1 2 3 4 5 6 
#
# 1 23.4043 13.7742 19.7334 0.0000 0.0000 0.0000
# 2 13.7742 91.1928 37.3065 0.0000 0.0000 0.0000
# 3 19.7334 37.3065 116.4268 0.0000 0.0000 0.0000
# 4 0.0000 0.0000 0.0000 23.0816 0.0000 0.0000
# 5 0.0000 0.0000 0.0000 0.0000 12.4709 0.0000
# 6 0.0000 0.0000 0.0000 0.0000 0.0000 22.4412
#
#
#
# Elastic Compliance Matrix: (Units=1/GPa)
#
#
# Indices 1 2 3 4 5 6 
#
# 1 0.051656 -0.004857 -0.007199 0.000000 0.000000 0.000000
# 2 -0.004857 0.013077 -0.003367 0.000000 0.000000 0.000000
# 3 -0.007199 -0.003367 0.010888 0.000000 0.000000 0.000000
# 4 0.000000 0.000000 0.000000 0.043325 0.000000 0.000000
# 5 0.000000 0.000000 0.000000 0.000000 0.080187 0.000000
# 6 0.000000 0.000000 0.000000 0.000000 0.000000 0.044561
#
#
# Mechanical properties :
#
#
# Convention : Reuss Voigt Hill
#
# Bulk Modulus (GPa) = 22.33414 41.40578 31.86996
# Shear Modulus (GPa) = 17.27335 22.27941 19.77638
#
# Velocity S-wave (km/s) = 2.98932 3.39497 3.19858
# Velocity P-wave (km/s) = 4.84446 6.06532 5.48894
#
# Compressibility (1/GPa) = 0.04477450
#
# Stress axis : x y z
#
# Youngs Moduli (GPa) = 19.35898 76.47111 91.84357
#
# Poissons Ratio (x) = 0.37144 0.66116
# Poissons Ratio (y) = 0.09403 0.30923
# Poissons Ratio (z) = 0.13936 0.25747
#
# Static dielectric constant tensor:
#      x y z
#    x 3.178580 0.000000 0.000000 
#    y 0.000000 3.422680 0.000000 
#    z 0.000000 0.000000 4.021770 
# 
# 
# High freq. dielectric constant tensor:
#      x y z
#    x 1.726220 0.000000 0.000000 
#    y 0.000000 1.752400 0.000000 
#    z 0.000000 0.000000 1.782430 
# 
# From -- ./inp_files/2213.got.cif
#   From: 2010.03.12/outbox.cif.g09.slc.cpg/sg46_2_cif.got.tgz:2213.got - 2010.04.14 02:56:35.
