data_PCOD8192641
_publ_section_title
;
Structure prediction by ZEFSAII (Michael W. Deem and Ramdas Pophale) SiO2 
 PCOD8192641
Probable space group: I M A 2
;
_chemical_formula_sum "Si O2"
_cell_formula_units_Z 48
_cell_length_a 8.455218
_cell_length_b 30.974098
_cell_length_c 9.043234
_cell_angle_alpha 90.000000
_cell_angle_beta 90.000000
_cell_angle_gamma 90.000000
_cell_volume 2368.357430
_symmetry_space_group_name_H-M "I M A 2"
_symmetry_group_IT_number 46
_symmetry_cell_setting 'orthorhombic'
loop_
_space_group_symop_operation_xyz
x,y,z
-x,-y,z
1/2-x,y,z
1/2+x,-y,z
1/2+x,1/2+y,1/2+z
1/2-x,1/2-y,1/2+z
-x,1/2+y,1/2+z
x,1/2-y,1/2+z
loop_
_atom_site_type_symbol
_atom_site_label
_atom_site_fract_x
_atom_site_fract_y
_atom_site_fract_z
Si Si1 0.563695 0.544829 0.697640
Si Si2 0.562420 0.545254 0.031540
Si Si3 0.434348 0.289536 0.012475
Si Si4 0.437994 0.369793 0.534286
Si Si5 0.562229 0.871194 0.699117
Si Si6 0.432636 0.787541 0.191482
O O1 0.500000 0.500000 0.630201
O O2 0.750000 0.542779 0.700518
O O3 0.498632 0.551524 0.864301
O O4 0.506079 0.583809 0.594692
O O5 0.500000 0.500000 0.097434
O O6 0.750000 0.545275 0.035863
O O7 0.494323 0.584506 0.129834
O O8 0.250000 0.294460 0.972028
O O9 0.535814 0.285545 0.865218
O O10 0.497841 0.330813 0.103182
O O11 0.457491 0.247132 0.110470
O O12 0.250000 0.363618 0.548255
O O13 0.498663 0.365792 0.366273
O O14 0.525028 0.334615 0.632665
O O15 0.750000 0.872520 0.698973
O O16 0.250000 0.776952 0.160873
#
# Coordination Sequence:
#
# PCOD8192641 Si02
#       6
#     8   8   8   8   8   8
#     4   9  18  32  53  78 109 147 191 238 285 339
#     4   9  17  32  51  76 107 142 183 230 279 330
#     4  11  22  40  64  86 111 152 197 234 279 347
#     4  10  20  37  59  83 111 151 196 235 280 347
#     4   9  19  35  58  83 108 141 190 238 273 323
#     4  12  25  40  59  88 121 149 183 239 296 340
#
# _framework density 20.267213000000002
#
# number of rings (size 3 to 8) (size 9 to 14) (size 15 to 20)
#    0.000    2.000    0.000    4.000    0.000    5.333 
#    0.000    6.667    0.000    0.000    0.000    0.000 
#    0.000    0.000    0.000    0.000    0.000    0.000 
#
# Total GULP energy -297681.304705 kJ/mol
# GULP energy per Si atom -12403.387696 kJ/mol
# Density = 2.022108 g / cm^3
# Si number density = 20.267213 Si / 1000 Ang^3
#
#
#
# Elastic Constant Matrix: (Units=GPa)
#
#
# Indices 1 2 3 4 5 6 
#
# 1 31.8788 14.6599 10.6637 0.0011 -0.0002 -0.0001
# 2 14.6599 152.5558 61.6489 0.0030 0.0002 0.0001
# 3 10.6637 61.6489 122.6120 0.0057 0.0007 0.0006
# 4 0.0011 0.0030 0.0057 41.4614 0.0007 0.0005
# 5 -0.0002 0.0002 0.0007 0.0007 21.4792 0.0007
# 6 -0.0001 0.0001 0.0006 0.0005 0.0007 28.9581
#
#
#
# Elastic Compliance Matrix: (Units=1/GPa)
#
#
# Indices 1 2 3 4 5 6 
#
# 1 0.033069 -0.002529 -0.001604 0.000000 0.000000 0.000000
# 2 -0.002529 0.008420 -0.004014 0.000000 0.000000 0.000000
# 3 -0.001604 -0.004014 0.010313 -0.000001 0.000000 0.000000
# 4 0.000000 0.000000 -0.000001 0.024119 -0.000001 0.000000
# 5 0.000000 0.000000 0.000000 -0.000001 0.046557 -0.000001
# 6 0.000000 0.000000 0.000000 0.000000 -0.000001 0.034533
#
#
# Mechanical properties :
#
#
# Convention : Reuss Voigt Hill
#
# Bulk Modulus (GPa) = 28.16307 53.44351 40.80329
# Shear Modulus (GPa) = 27.00654 33.05134 30.02894
#
# Velocity S-wave (km/s) = 3.65434 4.04267 3.85340
# Velocity P-wave (km/s) = 5.63308 6.94389 6.32255
#
# Compressibility (1/GPa) = 0.03550750
#
# Stress axis : x y z
#
# Youngs Moduli (GPa) = 30.24013 118.76560 96.96195
#
# Poissons Ratio (x) = 0.30041 0.15555
# Poissons Ratio (y) = 0.07649 0.38916
# Poissons Ratio (z) = 0.04851 0.47667
#
# Static dielectric constant tensor:
#      x y z
#    x 3.338920 0.000000 0.000000 
#    y 0.000000 3.931720 0.000000 
#    z 0.000000 0.000000 3.825700 
# 
# 
# High freq. dielectric constant tensor:
#      x y z
#    x 1.763300 0.000000 0.000000 
#    y 0.000000 1.808910 0.000000 
#    z 0.000000 0.000000 1.795310 
# 
# From -- ./inp_files/3923.got.cif
#   From: 2010.03.12/outbox.cif.g09.slc.cpg/sg46_2_cif.got.tgz:3923.got - 2010.04.14 02:56:35.
