data_PCOD8192443
_publ_section_title
;
Structure prediction by ZEFSAII (Michael W. Deem and Ramdas Pophale) SiO2 
 PCOD8192443
Probable space group: I M A 2
;
_chemical_formula_sum "Si O2"
_cell_formula_units_Z 56
_cell_length_a 14.184469
_cell_length_b 11.927853
_cell_length_c 15.207440
_cell_angle_alpha 90.000000
_cell_angle_beta 90.000000
_cell_angle_gamma 90.000000
_cell_volume 2572.950744
_symmetry_space_group_name_H-M "I M A 2"
_symmetry_group_IT_number 46
_symmetry_cell_setting 'orthorhombic'
loop_
_space_group_symop_operation_xyz
x,y,z
-x,-y,z
1/2-x,y,z
1/2+x,-y,z
1/2+x,1/2+y,1/2+z
1/2-x,1/2-y,1/2+z
-x,1/2+y,1/2+z
x,1/2-y,1/2+z
loop_
_atom_site_type_symbol
_atom_site_label
_atom_site_fract_x
_atom_site_fract_y
_atom_site_fract_z
Si Si1 0.400666 0.521994 0.459740
Si Si2 0.362885 0.719205 0.172480
Si Si3 0.857841 0.502700 0.269041
Si Si4 0.052933 0.737799 0.983617
Si Si5 0.475386 0.869656 0.305128
Si Si6 0.855979 0.748609 0.232939
Si Si7 0.648302 0.811600 0.039811
O O1 0.500000 0.500000 0.507824
O O2 0.411247 0.480781 0.359962
O O3 0.380505 0.654160 0.463524
O O4 0.330093 0.440912 0.511919
O O5 0.250000 0.733139 0.166305
O O6 0.396987 0.605137 0.218830
O O7 0.408050 0.697571 0.076871
O O8 0.405893 0.824790 0.227040
O O9 0.750000 0.480042 0.292915
O O10 0.872766 0.616446 0.213901
O O11 0.939811 0.760122 0.986732
O O12 0.069615 0.650791 0.902711
O O13 0.572074 0.798528 0.303722
O O14 0.500000 0.000000 0.290776
O O15 0.750000 0.768107 0.269034
O O16 0.875287 0.812210 0.142476
O O17 0.750000 0.748585 0.023279
#
# Coordination Sequence:
#
# PCOD8192443 Si02
#       7
#     8   8   8   8   8   8   8
#     4  10  20  34  62  94 128 169 219 274 327 398
#     4  11  26  46  69 100 138 183 238 294 349 424
#     4  10  21  40  66  96 129 170 223 278 341 411
#     4  11  24  43  65  98 134 182 230 283 349 418
#     4  12  27  46  69 102 142 188 236 288 360 431
#     4  10  22  41  68 102 135 174 222 282 352 418
#     4  10  21  37  63  99 136 170 221 286 343 410
#
# _framework density 21.764894999999999
#
# number of rings (size 3 to 8) (size 9 to 14) (size 15 to 20)
#    0.000    1.429    2.857    2.143    2.000    5.143 
#    0.000    0.000    0.000    0.000    0.000    0.000 
#    0.000    0.000    0.000    0.000    0.000    0.000 
#
# Total GULP energy -346895.834433 kJ/mol
# GULP energy per Si atom -12389.136944 kJ/mol
# Density = 2.171536 g / cm^3
# Si number density = 21.764895 Si / 1000 Ang^3
#
#
#
# Elastic Constant Matrix: (Units=GPa)
#
#
# Indices 1 2 3 4 5 6 
#
# 1 99.2882 23.4919 25.0166 0.0000 0.0000 0.0000
# 2 23.4919 134.6189 54.1491 0.0000 0.0000 0.0000
# 3 25.0166 54.1491 137.9681 0.0000 0.0000 0.0000
# 4 0.0000 0.0000 0.0000 38.5017 0.0000 0.0000
# 5 0.0000 0.0000 0.0000 0.0000 30.2452 0.0000
# 6 0.0000 0.0000 0.0000 0.0000 0.0000 23.3662
#
#
#
# Elastic Compliance Matrix: (Units=1/GPa)
#
#
# Indices 1 2 3 4 5 6 
#
# 1 0.010741 -0.001295 -0.001439 0.000000 0.000000 0.000000
# 2 -0.001295 0.008977 -0.003288 0.000000 0.000000 0.000000
# 3 -0.001439 -0.003288 0.008800 0.000000 0.000000 0.000000
# 4 0.000000 0.000000 0.000000 0.025973 0.000000 0.000000
# 5 0.000000 0.000000 0.000000 0.000000 0.033063 0.000000
# 6 0.000000 0.000000 0.000000 0.000000 0.000000 0.042797
#
#
# Mechanical properties :
#
#
# Convention : Reuss Voigt Hill
#
# Bulk Modulus (GPa) = 60.71054 64.13225 62.42140
# Shear Modulus (GPa) = 33.80958 36.37045 35.09002
#
# Velocity S-wave (km/s) = 3.94560 4.09230 4.01961
# Velocity P-wave (km/s) = 6.97935 7.20132 7.09120
#
# Compressibility (1/GPa) = 0.01647160
#
# Stress axis : x y z
#
# Youngs Moduli (GPa) = 93.10299 111.39353 113.64134
#
# Poissons Ratio (x) = 0.14431 0.16354
# Poissons Ratio (y) = 0.12061 0.37370
# Poissons Ratio (z) = 0.13398 0.36631
#
# Static dielectric constant tensor:
#      x y z
#    x 3.942380 0.000000 0.000000 
#    y 0.000000 3.876820 0.000000 
#    z 0.000000 0.000000 3.848390 
# 
# 
# High freq. dielectric constant tensor:
#      x y z
#    x 1.866750 0.000000 0.000000 
#    y 0.000000 1.838670 0.000000 
#    z 0.000000 0.000000 1.854930 
# 
# From -- ./inp_files/15948.got.cif
#   From: 2010.03.12/outbox.cif.g09.slc.cpg/sg46_8_cif.got.tgz:15948.got - 2010.04.14 02:56:35.
