data_PCOD8192199
_publ_section_title
;
Structure prediction by ZEFSAII (Michael W. Deem and Ramdas Pophale) SiO2 
 PCOD8192199
Probable space group: I M A 2
;
_chemical_formula_sum "Si O2"
_cell_formula_units_Z 56
_cell_length_a 16.861006
_cell_length_b 4.933648
_cell_length_c 30.608363
_cell_angle_alpha 90.000000
_cell_angle_beta 90.000000
_cell_angle_gamma 90.000000
_cell_volume 2546.195504
_symmetry_space_group_name_H-M "I M A 2"
_symmetry_group_IT_number 46
_symmetry_cell_setting 'orthorhombic'
loop_
_space_group_symop_operation_xyz
x,y,z
-x,-y,z
1/2-x,y,z
1/2+x,-y,z
1/2+x,1/2+y,1/2+z
1/2-x,1/2-y,1/2+z
-x,1/2+y,1/2+z
x,1/2-y,1/2+z
loop_
_atom_site_type_symbol
_atom_site_label
_atom_site_fract_x
_atom_site_fract_y
_atom_site_fract_z
Si Si1 0.339984 0.476062 0.808920
Si Si2 0.341425 0.101729 0.500491
Si Si3 0.909606 0.420897 0.455059
Si Si4 0.087913 0.510768 0.171119
Si Si5 0.158710 0.016628 0.212503
Si Si6 0.159326 0.510162 0.365191
Si Si7 0.052997 0.271011 0.077244
O O1 0.250000 0.372103 0.802447
O O2 0.380294 0.492607 0.760979
O O3 0.377874 0.263878 0.843763
O O4 0.344271 0.776074 0.826604
O O5 0.250000 0.026506 0.507852
O O6 0.351864 0.323485 0.462863
O O7 0.374092 0.257917 0.543843
O O8 0.387306 0.831255 0.485751
O O9 0.895902 0.369024 0.403747
O O10 0.000000 0.500000 0.466076
O O11 0.116340 0.820360 0.177143
O O12 0.086186 0.405770 0.121464
O O13 0.000000 0.500000 0.191330
O O14 0.148939 0.323864 0.196998
O O15 0.250000 0.932963 0.214071
O O16 0.250000 0.470660 0.381976
O O17 0.000000 0.500000 0.054168
O O18 0.000000 0.000000 0.085141
#
# Coordination Sequence:
#
# PCOD8192199 Si02
#       7
#     8   8   8   8   8   8   8
#     4   9  19  35  58  86 118 159 205 257 314 371
#     4  12  25  42  66  95 124 160 212 265 314 375
#     4  12  25  42  63  92 129 166 204 256 324 388
#     4  11  23  41  62  90 127 168 206 254 321 386
#     4  11  22  39  64  93 124 163 214 264 313 375
#     4  10  19  36  60  85 117 160 210 257 308 374
#     4  11  23  43  66  89 124 168 208 251 315 383
#
# _framework density 21.993596
#
# number of rings (size 3 to 8) (size 9 to 14) (size 15 to 20)
#    0.000    1.143    0.000    8.143    0.000    4.571 
#    0.000    4.286    0.000    0.000    0.000    0.000 
#    0.000    0.000    0.000    0.000    0.000    0.000 
#
# Total GULP energy -347075.743024 kJ/mol
# GULP energy per Si atom -12395.562251 kJ/mol
# Density = 2.194354 g / cm^3
# Si number density = 21.993596 Si / 1000 Ang^3
#
#
#
# Elastic Constant Matrix: (Units=GPa)
#
#
# Indices 1 2 3 4 5 6 
#
# 1 75.6193 23.3468 41.8922 0.0000 0.0000 0.0000
# 2 23.3468 111.5503 29.3110 0.0000 0.0000 0.0000
# 3 41.8922 29.3110 111.6023 0.0000 0.0000 0.0000
# 4 0.0000 0.0000 0.0000 37.4935 0.0000 0.0000
# 5 0.0000 0.0000 0.0000 0.0000 22.6182 0.0000
# 6 0.0000 0.0000 0.0000 0.0000 0.0000 34.1695
#
#
#
# Elastic Compliance Matrix: (Units=1/GPa)
#
#
# Indices 1 2 3 4 5 6 
#
# 1 0.017115 -0.002034 -0.005890 0.000000 0.000000 0.000000
# 2 -0.002034 0.009871 -0.001829 0.000000 0.000000 0.000000
# 3 -0.005890 -0.001829 0.011652 0.000000 0.000000 0.000000
# 4 0.000000 0.000000 0.000000 0.026671 0.000000 0.000000
# 5 0.000000 0.000000 0.000000 0.000000 0.044212 0.000000
# 6 0.000000 0.000000 0.000000 0.000000 0.000000 0.029266
#
#
# Mechanical properties :
#
#
# Convention : Reuss Voigt Hill
#
# Bulk Modulus (GPa) = 52.27119 54.20797 53.23958
# Shear Modulus (GPa) = 30.36350 32.47103 31.41726
#
# Velocity S-wave (km/s) = 3.71962 3.84654 3.78362
# Velocity P-wave (km/s) = 6.50120 6.66547 6.58385
#
# Compressibility (1/GPa) = 0.01913100
#
# Stress axis : x y z
#
# Youngs Moduli (GPa) = 58.42691 101.30787 85.82404
#
# Poissons Ratio (x) = 0.20610 0.50553
# Poissons Ratio (y) = 0.11886 0.15696
# Poissons Ratio (z) = 0.34415 0.18527
#
# Static dielectric constant tensor:
#      x y z
#    x 3.807080 0.000000 0.000000 
#    y 0.000000 3.977680 0.000000 
#    z 0.000000 0.000000 3.912410 
# 
# 
# High freq. dielectric constant tensor:
#      x y z
#    x 1.839990 0.000000 0.000000 
#    y 0.000000 1.879740 0.000000 
#    z 0.000000 0.000000 1.874520 
# 
# From -- ./inp_files/25388.got.cif
#   From: 2010.03.12/outbox.cif.g09.slc.cpg/sg46_13_cif.got.tgz:25388.got - 2010.04.14 02:56:35.
