data_PCOD8192748
_publ_section_title
;
Structure prediction by ZEFSAII (Michael W. Deem and Ramdas Pophale) SiO2 
 PCOD8192748
Probable space group: I M A 2
;
_chemical_formula_sum "Si O2"
_cell_formula_units_Z 48
_cell_length_a 29.821088
_cell_length_b 8.420168
_cell_length_c 9.852665
_cell_angle_alpha 90.000000
_cell_angle_beta 90.000000
_cell_angle_gamma 90.000000
_cell_volume 2473.990101
_symmetry_space_group_name_H-M "I M A 2"
_symmetry_group_IT_number 46
_symmetry_cell_setting 'orthorhombic'
loop_
_space_group_symop_operation_xyz
x,y,z
-x,-y,z
1/2-x,y,z
1/2+x,-y,z
1/2+x,1/2+y,1/2+z
1/2-x,1/2-y,1/2+z
-x,1/2+y,1/2+z
x,1/2-y,1/2+z
loop_
_atom_site_type_symbol
_atom_site_label
_atom_site_fract_x
_atom_site_fract_y
_atom_site_fract_z
Si Si1 0.570227 0.665361 0.595760
Si Si2 0.348757 0.122544 0.504280
Si Si3 0.043126 0.404775 0.309428
Si Si4 0.698359 0.941304 0.995013
Si Si5 0.637434 0.427971 0.258556
Si Si6 0.639662 0.443914 0.724167
O O1 0.605393 0.787984 0.533868
O O2 0.537145 0.627058 0.470606
O O3 0.543628 0.742422 0.721842
O O4 0.595435 0.507762 0.647510
O O5 0.308879 0.251045 0.494627
O O6 0.339249 0.997754 0.623848
O O7 0.353871 0.030553 0.365523
O O8 0.088234 0.502826 0.283133
O O9 0.000000 0.500000 0.257692
O O10 0.750000 0.978664 0.968137
O O11 0.669140 0.027035 0.881689
O O12 0.684146 0.017083 0.138407
O O13 0.633121 0.240813 0.246476
#
# Coordination Sequence:
#
# PCOD8192748 Si02
#       6
#     8   8   8   8   8   8
#     4  10  20  42  62  91 126 172 208 263 310 373
#     4  10  20  38  65  86 124 166 210 253 318 384
#     4  11  23  42  66  94 131 171 220 258 307 381
#     4  11  23  41  64  91 125 169 217 259 317 391
#     4  11  23  40  64  95 129 166 208 268 323 375
#     4  11  21  39  66  91 126 167 209 265 328 370
#
# _framework density 19.401858000000001
#
# number of rings (size 3 to 8) (size 9 to 14) (size 15 to 20)
#    0.000    1.333    5.000    3.000    0.000    4.667 
#    3.000    2.500    0.000    0.000    0.000    0.000 
#    0.000    0.000    0.000    0.000    0.000    0.000 
#
# Total GULP energy -297638.402381 kJ/mol
# GULP energy per Si atom -12401.600099 kJ/mol
# Density = 1.935770 g / cm^3
# Si number density = 19.401858 Si / 1000 Ang^3
#
#
#
# Elastic Constant Matrix: (Units=GPa)
#
#
# Indices 1 2 3 4 5 6 
#
# 1 98.7898 24.9051 32.8021 0.0000 0.0000 0.0000
# 2 24.9051 152.9583 59.0710 0.0000 0.0000 0.0000
# 3 32.8021 59.0710 144.8825 0.0000 0.0000 0.0000
# 4 0.0000 0.0000 0.0000 26.3394 0.0000 0.0000
# 5 0.0000 0.0000 0.0000 0.0000 5.5634 0.0000
# 6 0.0000 0.0000 0.0000 0.0000 0.0000 16.3356
#
#
#
# Elastic Compliance Matrix: (Units=1/GPa)
#
#
# Indices 1 2 3 4 5 6 
#
# 1 0.011070 -0.000991 -0.002103 0.000000 0.000000 0.000000
# 2 -0.000991 0.007848 -0.002976 0.000000 0.000000 0.000000
# 3 -0.002103 -0.002976 0.008591 0.000000 0.000000 0.000000
# 4 0.000000 0.000000 0.000000 0.037966 0.000000 0.000000
# 5 0.000000 0.000000 0.000000 0.000000 0.179746 0.000000
# 6 0.000000 0.000000 0.000000 0.000000 0.000000 0.061216
#
#
# Mechanical properties :
#
#
# Convention : Reuss Voigt Hill
#
# Bulk Modulus (GPa) = 65.05076 70.02078 67.53577
# Shear Modulus (GPa) = 15.44642 28.30451 21.87547
#
# Velocity S-wave (km/s) = 2.82464 3.82364 3.36146
# Velocity P-wave (km/s) = 6.65124 7.46068 7.06756
#
# Compressibility (1/GPa) = 0.01537261
#
# Stress axis : x y z
#
# Youngs Moduli (GPa) = 90.33148 127.41873 116.39618
#
# Poissons Ratio (x) = 0.12621 0.24473
# Poissons Ratio (y) = 0.08948 0.34634
# Poissons Ratio (z) = 0.18992 0.37914
#
# Static dielectric constant tensor:
#      x y z
#    x 3.307070 0.000000 0.000000 
#    y 0.000000 3.805830 0.000000 
#    z 0.000000 0.000000 3.955190 
# 
# 
# High freq. dielectric constant tensor:
#      x y z
#    x 1.731140 0.000000 0.000000 
#    y 0.000000 1.758730 0.000000 
#    z 0.000000 0.000000 1.779590 
# 
# From -- ./inp_files/8381.got.cif
#   From: 2010.03.12/outbox.cif.g09.slc.cpg/sg46_5_cif.got.tgz:8381.got - 2010.04.14 02:56:35.
