data_PCOD8192781
_publ_section_title
;
Structure prediction by ZEFSAII (Michael W. Deem and Ramdas Pophale) SiO2 
 PCOD8192781
Probable space group: I M A 2
;
_chemical_formula_sum "Si O2"
_cell_formula_units_Z 32
_cell_length_a 16.370211
_cell_length_b 13.781194
_cell_length_c 5.174086
_cell_angle_alpha 90.000000
_cell_angle_beta 90.000000
_cell_angle_gamma 90.000000
_cell_volume 1167.279253
_symmetry_space_group_name_H-M "I M A 2"
_symmetry_group_IT_number 46
_symmetry_cell_setting 'orthorhombic'
loop_
_space_group_symop_operation_xyz
x,y,z
-x,-y,z
1/2-x,y,z
1/2+x,-y,z
1/2+x,1/2+y,1/2+z
1/2-x,1/2-y,1/2+z
-x,1/2+y,1/2+z
x,1/2-y,1/2+z
loop_
_atom_site_type_symbol
_atom_site_label
_atom_site_fract_x
_atom_site_fract_y
_atom_site_fract_z
Si Si1 0.842439 0.311809 0.455300
Si Si2 0.750000 0.670100 0.422245
Si Si3 0.250000 0.047303 0.422108
Si Si4 0.077564 0.203344 0.953616
Si Si5 0.411542 0.505392 0.681017
O O1 0.750000 0.353041 0.477987
O O2 0.857553 0.229717 0.670677
O O3 0.907137 0.398947 0.498964
O O4 0.750000 0.583667 0.213934
O O5 0.670987 0.740447 0.399819
O O6 0.750000 0.628470 0.708046
O O7 0.164596 0.987473 0.381110
O O8 0.033018 0.261603 0.188671
O O9 0.088082 0.088335 0.992593
O O10 0.500000 0.500000 0.825706
#
# Coordination Sequence:
#
# PCOD8192781 Si02
#       5
#     8   4   4   8   8
#     4  10  23  46  74 102 138 191 250 307 361 426
#     4  10  20  39  66  95 135 184 229 279 358 447
#     4  10  22  43  66  99 139 184 241 295 362 445
#     4  11  23  41  65 101 144 189 233 292 371 455
#     4  11  25  46  74 108 149 197 252 318 379 444
#
# _framework density 27.414179000000001
#
# number of rings (size 3 to 8) (size 9 to 14) (size 15 to 20)
#    0.000    1.500    1.250    3.750    0.000    8.000 
#    0.000   17.500    0.000    0.000    0.000    0.000 
#    0.000    0.000    0.000    0.000    0.000    0.000 
#
# Total GULP energy -198225.422207 kJ/mol
# GULP energy per Si atom -12389.088888 kJ/mol
# Density = 2.735178 g / cm^3
# Si number density = 27.414179 Si / 1000 Ang^3
#
#
#
# Elastic Constant Matrix: (Units=GPa)
#
#
# Indices 1 2 3 4 5 6 
#
# 1 163.6391 -9.4251 -7.8009 0.0000 0.0000 0.0000
# 2 -9.4251 115.5749 20.7944 0.0000 0.0000 0.0000
# 3 -7.8009 20.7944 93.4314 0.0000 0.0000 0.0000
# 4 0.0000 0.0000 0.0000 30.0873 0.0000 0.0000
# 5 0.0000 0.0000 0.0000 0.0000 -0.4437 0.0000
# 6 0.0000 0.0000 0.0000 0.0000 0.0000 15.8341
#
#
#
# Elastic Compliance Matrix: (Units=1/GPa)
#
#
# Indices 1 2 3 4 5 6 
#
# 1 0.006156 0.000427 0.000419 0.000000 0.000000 0.000000
# 2 0.000427 0.009043 -0.001977 0.000000 0.000000 0.000000
# 3 0.000419 -0.001977 0.011178 0.000000 0.000000 0.000000
# 4 0.000000 0.000000 0.000000 0.033237 0.000000 0.000000
# 5 0.000000 0.000000 0.000000 0.000000 -2.253756 0.000000
# 6 0.000000 0.000000 0.000000 0.000000 0.000000 0.063155
#
#
# Mechanical properties :
#
#
# Convention : Reuss Voigt Hill
#
# Bulk Modulus (GPa) = 41.47024 42.19802 41.83413
# Shear Modulus (GPa) = -2.35773 33.70067 15.67147
#
# Velocity S-wave (km/s) = -0.92839 3.50996 2.39353
# Velocity P-wave (km/s) = 3.74312 5.64381 4.78871
#
# Compressibility (1/GPa) = 0.02411368
#
# Stress axis : x y z
#
# Youngs Moduli (GPa) = 162.45489 110.58408 89.46120
#
# Poissons Ratio (x) = -0.04717 -0.03748
# Poissons Ratio (y) = -0.06930 0.17686
# Poissons Ratio (z) = -0.06807 0.21862
#
# Static dielectric constant tensor:
#      x y z
#    x 5.994310 0.000000 0.000000 
#    y 0.000000 4.633420 0.000000 
#    z 0.000000 0.000000 4.736680 
# 
# 
# High freq. dielectric constant tensor:
#      x y z
#    x 2.121810 0.000000 0.000000 
#    y 0.000000 2.094710 0.000000 
#    z 0.000000 0.000000 2.094980 
# 
# From -- ./inp_files/1530.got.cif
#   From: 2010.03.12/outbox.cif.g09.slc.cpg/sg46_1_cif.got.tgz:1530.got - 2010.04.14 02:56:35.
