data_PCOD8192162
_publ_section_title
;
Structure prediction by ZEFSAII (Michael W. Deem and Ramdas Pophale) SiO2 
 PCOD8192162
Probable space group: I M A 2
;
_chemical_formula_sum "Si O2"
_cell_formula_units_Z 64
_cell_length_a 16.715597
_cell_length_b 13.664290
_cell_length_c 14.135433
_cell_angle_alpha 90.000000
_cell_angle_beta 90.000000
_cell_angle_gamma 90.000000
_cell_volume 3228.628522
_symmetry_space_group_name_H-M "I M A 2"
_symmetry_group_IT_number 46
_symmetry_cell_setting 'orthorhombic'
loop_
_space_group_symop_operation_xyz
x,y,z
-x,-y,z
1/2-x,y,z
1/2+x,-y,z
1/2+x,1/2+y,1/2+z
1/2-x,1/2-y,1/2+z
-x,1/2+y,1/2+z
x,1/2-y,1/2+z
loop_
_atom_site_type_symbol
_atom_site_label
_atom_site_fract_x
_atom_site_fract_y
_atom_site_fract_z
Si Si1 0.158231 0.214981 0.399530
Si Si2 0.658193 0.121104 0.003596
Si Si3 0.913399 0.110834 0.806005
Si Si4 0.603173 0.780490 0.600616
Si Si5 0.458051 0.411410 0.775809
Si Si6 0.603013 0.891656 0.790157
Si Si7 0.065585 0.733356 0.661470
Si Si8 0.159022 0.438110 0.620187
O O1 0.250000 0.190383 0.380902
O O2 0.133689 0.174977 0.502548
O O3 0.105051 0.153161 0.329306
O O4 0.141963 0.330188 0.377065
O O5 0.750000 0.146712 0.985906
O O6 0.628949 0.184479 0.092356
O O7 0.645246 0.006025 0.027655
O O8 0.610540 0.150495 0.909259
O O9 0.886573 0.183991 0.721802
O O10 0.008487 0.108520 0.801764
O O11 0.870397 0.005275 0.791486
O O12 0.631843 0.843796 0.690809
O O13 0.506828 0.777266 0.598517
O O14 0.645127 0.675128 0.598721
O O15 0.500000 0.500000 0.834913
O O16 0.526080 0.340996 0.735562
O O17 0.407783 0.469938 0.695795
O O18 0.250000 0.453889 0.657115
#
# Coordination Sequence:
#
# PCOD8192162 Si02
#       8
#     8   8   8   8   8   8   8   8
#     4  12  23  38  61  94 128 160 202 257 316 370
#     4  11  23  37  61  91 116 158 207 258 312 357
#     4  10  21  40  63  89 122 157 211 253 299 368
#     4  10  21  36  60  90 120 158 201 243 313 373
#     4  11  21  38  58  89 119 163 205 252 303 368
#     4  10  21  39  62  92 121 164 199 250 307 367
#     4  10  21  40  62  84 120 159 205 255 302 362
#     4  10  19  35  59  89 124 153 192 256 312 361
#
# _framework density 19.822659000000002
#
# number of rings (size 3 to 8) (size 9 to 14) (size 15 to 20)
#    0.000    1.500    5.000    2.250    0.000    5.500 
#    4.500    0.000    0.000    1.500    0.000    0.000 
#    0.000    0.000    0.000    0.000    0.000    0.000 
#
# Total GULP energy -396607.681445 kJ/mol
# GULP energy per Si atom -12393.990045 kJ/mol
# Density = 1.977754 g / cm^3
# Si number density = 19.822659 Si / 1000 Ang^3
#
#
#
# Elastic Constant Matrix: (Units=GPa)
#
#
# Indices 1 2 3 4 5 6 
#
# 1 53.5601 46.5908 31.5385 0.0000 0.0000 0.0000
# 2 46.5908 97.5239 54.5217 0.0000 0.0000 0.0000
# 3 31.5385 54.5217 112.0246 0.0000 0.0000 0.0000
# 4 0.0000 0.0000 0.0000 25.1032 0.0000 0.0000
# 5 0.0000 0.0000 0.0000 0.0000 -24.4888 0.0000
# 6 0.0000 0.0000 0.0000 0.0000 0.0000 22.2362
#
#
#
# Elastic Compliance Matrix: (Units=1/GPa)
#
#
# Indices 1 2 3 4 5 6 
#
# 1 0.032329 -0.014227 -0.002177 0.000000 0.000000 0.000000
# 2 -0.014227 0.020348 -0.005898 0.000000 0.000000 0.000000
# 3 -0.002177 -0.005898 0.012410 0.000000 0.000000 0.000000
# 4 0.000000 0.000000 0.000000 0.039836 0.000000 0.000000
# 5 0.000000 0.000000 0.000000 0.000000 -0.040835 0.000000
# 6 0.000000 0.000000 0.000000 0.000000 0.000000 0.044972
#
#
# Mechanical properties :
#
#
# Convention : Reuss Voigt Hill
#
# Bulk Modulus (GPa) = 48.82343 58.71228 53.76785
# Shear Modulus (GPa) = 31.15430 13.26729 22.21079
#
# Velocity S-wave (km/s) = 3.96871 2.58989 3.35098
# Velocity P-wave (km/s) = 6.75902 6.21502 6.49272
#
# Compressibility (1/GPa) = 0.02048197
#
# Stress axis : x y z
#
# Youngs Moduli (GPa) = 30.93221 49.14452 80.58025
#
# Poissons Ratio (x) = 0.69920 0.17543
# Poissons Ratio (y) = 0.44009 0.47525
# Poissons Ratio (z) = 0.06734 0.28985
#
# Static dielectric constant tensor:
#      x y z
#    x 3.556310 0.000000 0.000000 
#    y 0.000000 3.847950 0.000000 
#    z 0.000000 0.000000 3.746540 
# 
# 
# High freq. dielectric constant tensor:
#      x y z
#    x 1.767460 0.000000 0.000000 
#    y 0.000000 1.765950 0.000000 
#    z 0.000000 0.000000 1.766290 
# 
# From -- ./inp_files/16840.got.cif
#   From: 2010.03.12/outbox.cif.g09.slc.cpg/sg46_9_cif.got.tgz:16840.got - 2010.04.14 02:56:35.
