data_PCOD8192656
_publ_section_title
;
Structure prediction by ZEFSAII (Michael W. Deem and Ramdas Pophale) SiO2 
 PCOD8192656
Probable space group: I M A 2
;
_chemical_formula_sum "Si O2"
_cell_formula_units_Z 64
_cell_length_a 16.485153
_cell_length_b 8.382998
_cell_length_c 23.708232
_cell_angle_alpha 90.000000
_cell_angle_beta 90.000000
_cell_angle_gamma 90.000000
_cell_volume 3276.359231
_symmetry_space_group_name_H-M "I M A 2"
_symmetry_group_IT_number 46
_symmetry_cell_setting 'orthorhombic'
loop_
_space_group_symop_operation_xyz
x,y,z
-x,-y,z
1/2-x,y,z
1/2+x,-y,z
1/2+x,1/2+y,1/2+z
1/2-x,1/2-y,1/2+z
-x,1/2+y,1/2+z
x,1/2-y,1/2+z
loop_
_atom_site_type_symbol
_atom_site_label
_atom_site_fract_x
_atom_site_fract_y
_atom_site_fract_z
Si Si1 0.423778 0.607422 0.912210
Si Si2 0.574976 0.107609 0.208421
Si Si3 0.345332 0.344132 0.311471
Si Si4 0.343657 0.297195 0.928975
Si Si5 0.516023 0.683896 0.499531
Si Si6 0.516879 0.682615 0.122138
Si Si7 0.843031 0.703492 0.694535
Si Si8 0.153543 0.789553 0.808865
O O1 0.500000 0.500000 0.892484
O O2 0.358598 0.485382 0.939502
O O3 0.449978 0.741345 0.957003
O O4 0.379451 0.690703 0.860883
O O5 0.548411 0.206088 0.153497
O O6 0.607079 0.231818 0.253788
O O7 0.500000 0.000000 0.230991
O O8 0.648175 0.988076 0.192505
O O9 0.250000 0.324964 0.307971
O O10 0.376431 0.248202 0.366193
O O11 0.380553 0.268070 0.253953
O O12 0.371243 0.527345 0.317515
O O13 0.250000 0.252395 0.936971
O O14 0.393705 0.195203 0.974160
O O15 0.500000 0.500000 0.512030
O O16 0.510619 0.784954 0.556199
O O17 0.500000 0.500000 0.135194
O O18 0.607541 0.718886 0.143462
O O19 0.750000 0.753152 0.686548
O O20 0.250000 0.765785 0.802831
#
# Coordination Sequence:
#
# PCOD8192656 Si02
#       8
#     8   8   8   8   8   8   8   8
#     4  10  21  36  56  83 114 149 189 230 283 341
#     4  10  21  36  56  83 114 149 189 230 283 341
#     4   9  19  33  52  82 115 146 178 223 282 334
#     4  10  20  37  60  85 116 151 190 235 283 334
#     4  11  23  41  61  82 112 150 192 236 283 338
#     4  11  23  41  61  82 112 150 192 236 283 338
#     4  10  20  37  60  85 116 151 190 235 283 334
#     4  11  20  33  55  84 117 148 187 235 281 334
#
# _framework density 19.533878000000001
#
# number of rings (size 3 to 8) (size 9 to 14) (size 15 to 20)
#    0.000    1.750    0.000    5.625    0.000    4.500 
#    0.000    7.500    0.000    5.250    0.000    0.000 
#    0.000    0.000    0.000    0.000    0.000    0.000 
#
# Total GULP energy -396828.694851 kJ/mol
# GULP energy per Si atom -12400.896714 kJ/mol
# Density = 1.948942 g / cm^3
# Si number density = 19.533878 Si / 1000 Ang^3
#
#
#
# Elastic Constant Matrix: (Units=GPa)
#
#
# Indices 1 2 3 4 5 6 
#
# 1 69.9681 23.0113 36.1728 0.0000 0.0000 0.0000
# 2 23.0113 102.5856 14.2823 0.0000 0.0000 0.0000
# 3 36.1728 14.2823 80.0806 0.0000 0.0000 0.0000
# 4 0.0000 0.0000 0.0000 38.0246 0.0000 0.0000
# 5 0.0000 0.0000 0.0000 0.0000 16.8258 0.0000
# 6 0.0000 0.0000 0.0000 0.0000 0.0000 28.5386
#
#
#
# Elastic Compliance Matrix: (Units=1/GPa)
#
#
# Indices 1 2 3 4 5 6 
#
# 1 0.019651 -0.003253 -0.008296 0.000000 0.000000 0.000000
# 2 -0.003253 0.010535 -0.000409 0.000000 0.000000 0.000000
# 3 -0.008296 -0.000409 0.016308 0.000000 0.000000 0.000000
# 4 0.000000 0.000000 0.000000 0.026299 0.000000 0.000000
# 5 0.000000 0.000000 0.000000 0.000000 0.059432 0.000000
# 6 0.000000 0.000000 0.000000 0.000000 0.000000 0.035040
#
#
# Mechanical properties :
#
#
# Convention : Reuss Voigt Hill
#
# Bulk Modulus (GPa) = 44.29444 44.39633 44.34539
# Shear Modulus (GPa) = 25.16248 28.62231 26.89239
#
# Velocity S-wave (km/s) = 3.59297 3.83203 3.71442
# Velocity P-wave (km/s) = 6.31961 6.50819 6.41459
#
# Compressibility (1/GPa) = 0.02257620
#
# Stress axis : x y z
#
# Youngs Moduli (GPa) = 50.88732 94.92483 61.31962
#
# Poissons Ratio (x) = 0.30879 0.50873
# Poissons Ratio (y) = 0.16554 0.02511
# Poissons Ratio (z) = 0.42218 0.03887
#
# Static dielectric constant tensor:
#      x y z
#    x 3.524640 0.000000 0.000000 
#    y 0.000000 3.742800 0.000000 
#    z 0.000000 0.000000 3.524850 
# 
# 
# High freq. dielectric constant tensor:
#      x y z
#    x 1.756690 0.000000 0.000000 
#    y 0.000000 1.777300 0.000000 
#    z 0.000000 0.000000 1.754680 
# 
# From -- ./inp_files/23776.got.cif
#   From: 2010.03.12/outbox.cif.g09.slc.cpg/sg46_12_cif.got.tgz:23776.got - 2010.04.14 02:56:35.
