data_PCOD8192862
_publ_section_title
;
Structure prediction by ZEFSAII (Michael W. Deem and Ramdas Pophale) SiO2 
 PCOD8192862
Probable space group: I M A 2
;
_chemical_formula_sum "Si O2"
_cell_formula_units_Z 56
_cell_length_a 14.360307
_cell_length_b 11.263417
_cell_length_c 16.879231
_cell_angle_alpha 90.000000
_cell_angle_beta 90.000000
_cell_angle_gamma 90.000000
_cell_volume 2730.150224
_symmetry_space_group_name_H-M "I M A 2"
_symmetry_group_IT_number 46
_symmetry_cell_setting 'orthorhombic'
loop_
_space_group_symop_operation_xyz
x,y,z
-x,-y,z
1/2-x,y,z
1/2+x,-y,z
1/2+x,1/2+y,1/2+z
1/2-x,1/2-y,1/2+z
-x,1/2+y,1/2+z
x,1/2-y,1/2+z
loop_
_atom_site_type_symbol
_atom_site_label
_atom_site_fract_x
_atom_site_fract_y
_atom_site_fract_z
Si Si1 0.999103 0.132911 0.091950
Si Si2 0.853580 0.063077 0.836113
Si Si3 0.526469 0.238912 0.750268
Si Si4 0.354183 0.320207 0.838816
Si Si5 0.146390 0.129943 0.958969
Si Si6 0.851007 0.236385 0.977293
Si Si7 0.860662 0.412610 0.856050
O O1 0.989076 0.235568 0.157135
O O2 0.915144 0.156295 0.031784
O O3 0.093044 0.136719 0.041330
O O4 0.000000 0.000000 0.129089
O O5 0.750000 0.028238 0.801760
O O6 0.924328 0.109611 0.766404
O O7 0.896322 0.955271 0.889389
O O8 0.840450 0.174391 0.892724
O O9 0.422420 0.240944 0.785332
O O10 0.589405 0.343804 0.784934
O O11 0.250000 0.318670 0.801190
O O12 0.351625 0.263284 0.926010
O O13 0.394221 0.451937 0.849139
O O14 0.250000 0.081256 0.977747
O O15 0.750000 0.248438 0.019312
O O16 0.888836 0.364245 0.945141
O O17 0.750000 0.403497 0.844507
#
# Coordination Sequence:
#
# PCOD8192862 Si02
#       7
#     8   8   8   8   8   8   8
#     4  12  23  33  53  89 126 154 187 250 324 369
#     4   9  18  37  61  83 108 151 205 248 287 350
#     4  11  22  34  55  86 120 151 188 244 309 361
#     4  10  21  36  58  82 108 151 199 242 293 365
#     4  10  21  38  62  85 109 155 209 249 292 356
#     4   9  18  33  56  81 111 152 198 244 294 355
#     4   9  18  36  59  83 109 148 199 247 295 358
#
# _framework density 20.511690000000002
#
# number of rings (size 3 to 8) (size 9 to 14) (size 15 to 20)
#    0.000    2.000    1.429    4.286    0.000    1.714 
#    0.000    0.000    6.286    0.000    0.000    0.000 
#    0.000    0.000    0.000    0.000    0.000    0.000 
#
# Total GULP energy -346869.129981 kJ/mol
# GULP energy per Si atom -12388.183214 kJ/mol
# Density = 2.046500 g / cm^3
# Si number density = 20.511690 Si / 1000 Ang^3
#
#
#
# Elastic Constant Matrix: (Units=GPa)
#
#
# Indices 1 2 3 4 5 6 
#
# 1 80.4280 22.9230 38.6486 0.0000 0.0000 0.0000
# 2 22.9230 59.5394 31.2385 0.0000 0.0000 0.0000
# 3 38.6486 31.2385 90.8021 0.0000 0.0000 0.0000
# 4 0.0000 0.0000 0.0000 26.0189 0.0000 0.0000
# 5 0.0000 0.0000 0.0000 0.0000 9.0202 0.0000
# 6 0.0000 0.0000 0.0000 0.0000 0.0000 27.4929
#
#
#
# Elastic Compliance Matrix: (Units=1/GPa)
#
#
# Indices 1 2 3 4 5 6 
#
# 1 0.016109 -0.003178 -0.005763 0.000000 0.000000 0.000000
# 2 -0.003178 0.021122 -0.005914 0.000000 0.000000 0.000000
# 3 -0.005763 -0.005914 0.015500 0.000000 0.000000 0.000000
# 4 0.000000 0.000000 0.000000 0.038434 0.000000 0.000000
# 5 0.000000 0.000000 0.000000 0.000000 0.110862 0.000000
# 6 0.000000 0.000000 0.000000 0.000000 0.000000 0.036373
#
#
# Mechanical properties :
#
#
# Convention : Reuss Voigt Hill
#
# Bulk Modulus (GPa) = 43.43861 46.26551 44.85206
# Shear Modulus (GPa) = 18.13015 21.70370 19.91693
#
# Velocity S-wave (km/s) = 2.97626 3.25639 3.11947
# Velocity P-wave (km/s) = 5.74755 6.06164 5.90668
#
# Compressibility (1/GPa) = 0.02302099
#
# Stress axis : x y z
#
# Youngs Moduli (GPa) = 62.07844 47.34389 64.51442
#
# Poissons Ratio (x) = 0.15047 0.37180
# Poissons Ratio (y) = 0.19730 0.38153
# Poissons Ratio (z) = 0.35776 0.27998
#
# Static dielectric constant tensor:
#      x y z
#    x 3.981920 0.000000 0.000000 
#    y 0.000000 3.988200 0.000000 
#    z 0.000000 0.000000 3.290690 
# 
# 
# High freq. dielectric constant tensor:
#      x y z
#    x 1.816960 0.000000 0.000000 
#    y 0.000000 1.805340 0.000000 
#    z 0.000000 0.000000 1.750460 
# 
# From -- ./inp_files/15925.got.cif
#   From: 2010.03.12/outbox.cif.g09.slc.cpg/sg46_8_cif.got.tgz:15925.got - 2010.04.14 02:56:35.
