data_PCOD8192299
_publ_section_title
;
Structure prediction by ZEFSAII (Michael W. Deem and Ramdas Pophale) SiO2 
 PCOD8192299
Probable space group: I M A 2
;
_chemical_formula_sum "Si O2"
_cell_formula_units_Z 56
_cell_length_a 16.358175
_cell_length_b 19.052350
_cell_length_c 8.701420
_cell_angle_alpha 90.000000
_cell_angle_beta 90.000000
_cell_angle_gamma 90.000000
_cell_volume 2711.899136
_symmetry_space_group_name_H-M "I M A 2"
_symmetry_group_IT_number 46
_symmetry_cell_setting 'orthorhombic'
loop_
_space_group_symop_operation_xyz
x,y,z
-x,-y,z
1/2-x,y,z
1/2+x,-y,z
1/2+x,1/2+y,1/2+z
1/2-x,1/2-y,1/2+z
-x,1/2+y,1/2+z
x,1/2-y,1/2+z
loop_
_atom_site_type_symbol
_atom_site_label
_atom_site_fract_x
_atom_site_fract_y
_atom_site_fract_z
Si Si1 0.064285 0.559490 0.662880
Si Si2 0.428808 0.264149 0.349746
Si Si3 0.411670 0.805349 0.670314
Si Si4 0.514591 0.622743 0.948478
Si Si5 0.341121 0.323009 0.615307
Si Si6 0.342190 0.451901 0.841888
Si Si7 0.343410 0.673675 0.482066
O O1 0.137639 0.525647 0.762768
O O2 0.103882 0.604845 0.527110
O O3 0.000000 0.500000 0.602730
O O4 0.018651 0.613183 0.776038
O O5 0.513139 0.284339 0.275563
O O6 0.443930 0.198539 0.463214
O O7 0.397014 0.326123 0.461798
O O8 0.362183 0.243395 0.222760
O O9 0.440256 0.875087 0.572832
O O10 0.381620 0.744017 0.556591
O O11 0.342054 0.823113 0.795595
O O12 0.587823 0.564727 0.972915
O O13 0.250000 0.311964 0.555833
O O14 0.351247 0.394350 0.708552
O O15 0.250000 0.452976 0.911264
O O16 0.250000 0.665777 0.538278
#
# Coordination Sequence:
#
# PCOD8192299 Si02
#       7
#     8   8   8   8   8   8   8
#     4  10  21  39  65  87 114 161 208 239 286 354
#     4  11  18  33  55  82 116 153 184 230 291 349
#     4  12  22  38  62  87 123 150 192 248 306 364
#     4  10  20  36  58  87 115 153 195 238 289 359
#     4  10  20  32  53  86 120 150 191 235 286 342
#     4   9  20  38  61  86 117 156 200 246 283 342
#     4  12  24  40  62  92 120 153 195 250 309 356
#
# _framework density 20.649736000000001
#
# number of rings (size 3 to 8) (size 9 to 14) (size 15 to 20)
#    0.000    1.429    4.286    1.286    4.000    0.571 
#    0.000    4.286    0.000    0.000    0.000    0.000 
#    0.000    0.000    0.000    0.000    0.000    0.000 
#
# Total GULP energy -346921.905146 kJ/mol
# GULP energy per Si atom -12390.068041 kJ/mol
# Density = 2.060274 g / cm^3
# Si number density = 20.649736 Si / 1000 Ang^3
#
#
#
# Elastic Constant Matrix: (Units=GPa)
#
#
# Indices 1 2 3 4 5 6 
#
# 1 115.0897 22.5282 30.9046 0.0000 0.0000 0.0000
# 2 22.5282 61.9248 22.0109 0.0000 0.0000 0.0000
# 3 30.9046 22.0109 78.3547 0.0000 0.0000 0.0000
# 4 0.0000 0.0000 0.0000 19.4276 0.0000 0.0000
# 5 0.0000 0.0000 0.0000 0.0000 27.4559 0.0000
# 6 0.0000 0.0000 0.0000 0.0000 0.0000 24.6746
#
#
#
# Elastic Compliance Matrix: (Units=1/GPa)
#
#
# Indices 1 2 3 4 5 6 
#
# 1 0.010054 -0.002498 -0.003264 0.000000 0.000000 0.000000
# 2 -0.002498 0.018560 -0.004229 0.000000 0.000000 0.000000
# 3 -0.003264 -0.004229 0.015238 0.000000 0.000000 0.000000
# 4 0.000000 0.000000 0.000000 0.051473 0.000000 0.000000
# 5 0.000000 0.000000 0.000000 0.000000 0.036422 0.000000
# 6 0.000000 0.000000 0.000000 0.000000 0.000000 0.040528
#
#
# Mechanical properties :
#
#
# Convention : Reuss Voigt Hill
#
# Bulk Modulus (GPa) = 41.89056 45.13961 43.51509
# Shear Modulus (GPa) = 24.97340 26.30663 25.64002
#
# Velocity S-wave (km/s) = 3.48139 3.57311 3.52755
# Velocity P-wave (km/s) = 6.04073 6.23938 6.14086
#
# Compressibility (1/GPa) = 0.02387172
#
# Stress axis : x y z
#
# Youngs Moduli (GPa) = 99.46066 53.87832 65.62639
#
# Poissons Ratio (x) = 0.13456 0.21420
# Poissons Ratio (y) = 0.24841 0.27752
# Poissons Ratio (z) = 0.32464 0.22784
#
# Static dielectric constant tensor:
#      x y z
#    x 4.109200 0.000000 0.000000 
#    y 0.000000 3.668380 0.000000 
#    z 0.000000 0.000000 3.723300 
# 
# 
# High freq. dielectric constant tensor:
#      x y z
#    x 1.823090 0.000000 0.000000 
#    y 0.000000 1.785540 0.000000 
#    z 0.000000 0.000000 1.784300 
# 
# From -- ./inp_files/6889.got.cif
#   From: 2010.03.12/outbox.cif.g09.slc.cpg/sg46_4_cif.got.tgz:6889.got - 2010.04.14 02:56:35.
