data_PCOD8192080
_publ_section_title
;
Structure prediction by ZEFSAII (Michael W. Deem and Ramdas Pophale) SiO2 
 PCOD8192080
Probable space group: I M A 2
;
_chemical_formula_sum "Si O2"
_cell_formula_units_Z 56
_cell_length_a 21.962850
_cell_length_b 5.072252
_cell_length_c 26.447483
_cell_angle_alpha 90.000000
_cell_angle_beta 90.000000
_cell_angle_gamma 90.000000
_cell_volume 2946.278959
_symmetry_space_group_name_H-M "I M A 2"
_symmetry_group_IT_number 46
_symmetry_cell_setting 'orthorhombic'
loop_
_space_group_symop_operation_xyz
x,y,z
-x,-y,z
1/2-x,y,z
1/2+x,-y,z
1/2+x,1/2+y,1/2+z
1/2-x,1/2-y,1/2+z
-x,1/2+y,1/2+z
x,1/2-y,1/2+z
loop_
_atom_site_type_symbol
_atom_site_label
_atom_site_fract_x
_atom_site_fract_y
_atom_site_fract_z
Si Si1 0.250000 0.473604 0.867930
Si Si2 0.930122 0.954074 0.299073
Si Si3 0.071841 0.490413 0.578305
Si Si4 0.750000 0.027168 0.797771
Si Si5 0.118915 0.464545 0.909383
Si Si6 0.622592 0.045323 0.750731
Si Si7 0.427665 0.508808 0.140904
Si Si8 0.572328 0.035822 0.964571
O O1 0.250000 0.188511 0.841983
O O2 0.191154 0.504995 0.903492
O O3 0.250000 0.688526 0.823805
O O4 0.914392 0.014772 0.356618
O O5 0.915462 0.651803 0.286317
O O6 0.892983 0.152468 0.263250
O O7 0.000000 0.000000 0.287923
O O8 0.094684 0.730946 0.612339
O O9 0.097462 0.499304 0.521436
O O10 0.000000 0.500000 0.574300
O O11 0.094160 0.226312 0.605050
O O12 0.693096 0.992637 0.760905
O O13 0.090660 0.669979 0.948759
O O14 0.106064 0.170287 0.928436
O O15 0.608162 0.984028 0.692926
O O16 0.500000 0.500000 0.151442
O O17 0.500000 0.000000 0.960320
#
# Coordination Sequence:
#
# PCOD8192080 Si02
#       8
#     4   8   8   4   8   8   8   8
#     4  12  24  44  60  79 114 163 212 232 276 338
#     4  12  23  37  56  88 123 151 184 243 303 348
#     4   9  19  35  57  83 117 150 185 234 290 357
#     4  12  22  44  60  79 116 161 210 234 274 340
#     4  12  23  39  60  84 119 157 198 242 279 350
#     4  12  23  38  60  85 118 158 197 241 282 348
#     4  10  19  34  56  86 116 149 189 235 294 347
#     4  11  22  38  61  92 120 151 191 240 303 351
#
# _framework density 19.007024000000001
#
# number of rings (size 3 to 8) (size 9 to 14) (size 15 to 20)
#    0.000    0.857    2.857    6.000    0.000    3.429 
#    0.000    0.000    0.000    5.143    0.000    0.000 
#    0.000    0.000    0.000    0.000    0.000    0.000 
#
# Total GULP energy -347364.650987 kJ/mol
# GULP energy per Si atom -12405.880392 kJ/mol
# Density = 1.896376 g / cm^3
# Si number density = 19.007024 Si / 1000 Ang^3
#
#
#
# Elastic Constant Matrix: (Units=GPa)
#
#
# Indices 1 2 3 4 5 6 
#
# 1 102.3045 14.5899 33.1744 0.0000 0.0000 0.0000
# 2 14.5899 82.6817 14.6870 0.0000 0.0000 0.0000
# 3 33.1744 14.6870 110.8555 0.0000 0.0000 0.0000
# 4 0.0000 0.0000 0.0000 38.7922 0.0000 0.0000
# 5 0.0000 0.0000 0.0000 0.0000 32.2888 0.0000
# 6 0.0000 0.0000 0.0000 0.0000 0.0000 24.1033
#
#
#
# Elastic Compliance Matrix: (Units=1/GPa)
#
#
# Indices 1 2 3 4 5 6 
#
# 1 0.010978 -0.001386 -0.003102 0.000000 0.000000 0.000000
# 2 -0.001386 0.012561 -0.001249 0.000000 0.000000 0.000000
# 3 -0.003102 -0.001249 0.010114 0.000000 0.000000 0.000000
# 4 0.000000 0.000000 0.000000 0.025778 0.000000 0.000000
# 5 0.000000 0.000000 0.000000 0.000000 0.030970 0.000000
# 6 0.000000 0.000000 0.000000 0.000000 0.000000 0.041488
#
#
# Mechanical properties :
#
#
# Convention : Reuss Voigt Hill
#
# Bulk Modulus (GPa) = 45.08709 46.74937 45.91823
# Shear Modulus (GPa) = 33.16565 34.59621 33.88093
#
# Velocity S-wave (km/s) = 4.18175 4.27099 4.22660
# Velocity P-wave (km/s) = 6.86213 6.99793 6.93036
#
# Compressibility (1/GPa) = 0.02217930
#
# Stress axis : x y z
#
# Youngs Moduli (GPa) = 91.08947 79.61073 98.86826
#
# Poissons Ratio (x) = 0.11036 0.30666
# Poissons Ratio (y) = 0.12627 0.12352
# Poissons Ratio (z) = 0.28253 0.09946
#
# Static dielectric constant tensor:
#      x y z
#    x 1.965440 0.000000 0.000000 
#    y 0.000000 3.692640 0.000000 
#    z 0.000000 0.000000 3.555460 
# 
# 
# High freq. dielectric constant tensor:
#      x y z
#    x 1.715770 0.000000 0.000000 
#    y 0.000000 1.760990 0.000000 
#    z 0.000000 0.000000 1.743430 
# 
# From -- ./inp_files/22561.got.cif
#   From: 2010.03.12/outbox.cif.g09.slc.cpg/sg46_12_cif.got.tgz:22561.got - 2010.04.14 02:56:35.
