data_PCOD8192248
_publ_section_title
;
Structure prediction by ZEFSAII (Michael W. Deem and Ramdas Pophale) SiO2 
 PCOD8192248
Probable space group: I M A 2
;
_chemical_formula_sum "Si O2"
_cell_formula_units_Z 48
_cell_length_a 29.976445
_cell_length_b 8.344915
_cell_length_c 9.741885
_cell_angle_alpha 90.000000
_cell_angle_beta 90.000000
_cell_angle_gamma 90.000000
_cell_volume 2436.941159
_symmetry_space_group_name_H-M "I M A 2"
_symmetry_group_IT_number 46
_symmetry_cell_setting 'orthorhombic'
loop_
_space_group_symop_operation_xyz
x,y,z
-x,-y,z
1/2-x,y,z
1/2+x,-y,z
1/2+x,1/2+y,1/2+z
1/2-x,1/2-y,1/2+z
-x,1/2+y,1/2+z
x,1/2-y,1/2+z
loop_
_atom_site_type_symbol
_atom_site_label
_atom_site_fract_x
_atom_site_fract_y
_atom_site_fract_z
Si Si1 0.452180 0.442313 0.048470
Si Si2 0.330198 0.160094 0.439760
Si Si3 0.411056 0.377145 0.530033
Si Si4 0.298996 0.409278 0.232369
Si Si5 0.109843 0.572688 0.280515
Si Si6 0.600967 0.441799 0.808832
O O1 0.500000 0.500000 0.103647
O O2 0.413549 0.477466 0.158171
O O3 0.452066 0.249989 0.021307
O O4 0.441183 0.539611 0.909995
O O5 0.366577 0.282859 0.494940
O O6 0.303360 0.241521 0.314849
O O7 0.299048 0.118717 0.568403
O O8 0.353689 0.998566 0.383473
O O9 0.415228 0.521011 0.420564
O O10 0.409064 0.445887 0.681078
O O11 0.250000 0.481892 0.267073
O O12 0.337575 0.531368 0.279765
O O13 0.105374 0.760973 0.258884
#
# Coordination Sequence:
#
# PCOD8192248 Si02
#       6
#     8   8   8   8   8   8
#     4  11  23  41  64  92 121 159 209 256 307 369
#     4  10  19  38  62  88 118 160 206 259 300 365
#     4  10  20  39  65  85 120 163 202 249 303 367
#     4  11  21  38  63  92 122 163 214 254 306 372
#     4  11  23  39  63  90 130 162 201 256 312 365
#     4  11  21  39  63  89 123 165 203 250 316 364
#
# _framework density 19.696822999999998
#
# number of rings (size 3 to 8) (size 9 to 14) (size 15 to 20)
#    0.000    1.333    5.000    3.500    0.000    2.667 
#    0.000    4.167    0.000    0.000    0.000    0.000 
#    0.000    0.000    0.000    0.000    0.000    0.000 
#
# Total GULP energy -297587.960971 kJ/mol
# GULP energy per Si atom -12399.498374 kJ/mol
# Density = 1.965199 g / cm^3
# Si number density = 19.696823 Si / 1000 Ang^3
#
#
#
# Elastic Constant Matrix: (Units=GPa)
#
#
# Indices 1 2 3 4 5 6 
#
# 1 101.1484 30.6256 20.2326 0.0000 0.0000 0.0000
# 2 30.6256 91.0299 14.8800 0.0000 0.0000 0.0000
# 3 20.2326 14.8800 105.6744 0.0000 0.0000 0.0000
# 4 0.0000 0.0000 0.0000 25.6516 0.0000 0.0000
# 5 0.0000 0.0000 0.0000 0.0000 13.4255 0.0000
# 6 0.0000 0.0000 0.0000 0.0000 0.0000 17.4466
#
#
#
# Elastic Compliance Matrix: (Units=1/GPa)
#
#
# Indices 1 2 3 4 5 6 
#
# 1 0.011287 -0.003525 -0.001665 0.000000 0.000000 0.000000
# 2 -0.003525 0.012345 -0.001063 0.000000 0.000000 0.000000
# 3 -0.001665 -0.001063 0.009931 0.000000 0.000000 0.000000
# 4 0.000000 0.000000 0.000000 0.038984 0.000000 0.000000
# 5 0.000000 0.000000 0.000000 0.000000 0.074485 0.000000
# 6 0.000000 0.000000 0.000000 0.000000 0.000000 0.057318
#
#
# Mechanical properties :
#
#
# Convention : Reuss Voigt Hill
#
# Bulk Modulus (GPa) = 47.48984 47.70324 47.59654
# Shear Modulus (GPa) = 22.33385 26.77905 24.55645
#
# Velocity S-wave (km/s) = 3.37097 3.69122 3.53472
# Velocity P-wave (km/s) = 6.27009 6.51446 6.39344
#
# Compressibility (1/GPa) = 0.02105714
#
# Stress axis : x y z
#
# Youngs Moduli (GPa) = 88.59925 81.00312 100.68999
#
# Poissons Ratio (x) = 0.28555 0.16761
# Poissons Ratio (y) = 0.31233 0.10707
# Poissons Ratio (z) = 0.14748 0.08614
#
# Static dielectric constant tensor:
#      x y z
#    x 3.385940 0.000000 0.000000 
#    y 0.000000 3.536200 0.000000 
#    z 0.000000 0.000000 3.903800 
# 
# 
# High freq. dielectric constant tensor:
#      x y z
#    x 1.747150 0.000000 0.000000 
#    y 0.000000 1.756940 0.000000 
#    z 0.000000 0.000000 1.787230 
# 
# From -- ./inp_files/8399.got.cif
#   From: 2010.03.12/outbox.cif.g09.slc.cpg/sg46_5_cif.got.tgz:8399.got - 2010.04.14 02:56:35.
