data_PCOD8192328
_publ_section_title
;
Structure prediction by ZEFSAII (Michael W. Deem and Ramdas Pophale) SiO2 
 PCOD8192328
Probable space group: I M A 2
;
_chemical_formula_sum "Si O2"
_cell_formula_units_Z 64
_cell_length_a 8.787939
_cell_length_b 29.339482
_cell_length_c 13.187856
_cell_angle_alpha 90.000000
_cell_angle_beta 90.000000
_cell_angle_gamma 90.000000
_cell_volume 3400.272100
_symmetry_space_group_name_H-M "I M A 2"
_symmetry_group_IT_number 46
_symmetry_cell_setting 'orthorhombic'
loop_
_space_group_symop_operation_xyz
x,y,z
-x,-y,z
1/2-x,y,z
1/2+x,-y,z
1/2+x,1/2+y,1/2+z
1/2-x,1/2-y,1/2+z
-x,1/2+y,1/2+z
x,1/2-y,1/2+z
loop_
_atom_site_type_symbol
_atom_site_label
_atom_site_fract_x
_atom_site_fract_y
_atom_site_fract_z
Si Si1 0.921831 0.296243 0.914290
Si Si2 0.070594 0.392621 0.911572
Si Si3 0.071272 0.548757 0.087987
Si Si4 0.920965 0.786327 0.009972
Si Si5 0.918319 0.400436 0.705505
Si Si6 0.071195 0.951139 0.820328
Si Si7 0.430494 0.110136 0.993510
Si Si8 0.087290 0.794454 0.196477
O O1 0.750000 0.312042 0.940354
O O2 0.933693 0.271403 0.805151
O O3 0.033303 0.339169 0.923181
O O4 0.968918 0.254501 0.983462
O O5 0.250000 0.399225 0.910944
O O6 0.007624 0.416341 0.807537
O O7 0.001416 0.415564 0.011317
O O8 0.250000 0.546002 0.068776
O O9 0.036065 0.563690 0.204332
O O10 0.000000 0.500000 0.065143
O O11 0.750000 0.776625 0.974735
O O12 0.976685 0.836715 0.976530
O O13 0.936811 0.785101 0.131728
O O14 0.750000 0.423591 0.701671
O O15 0.899014 0.347386 0.721435
O O16 0.004270 0.410633 0.599011
O O17 0.250000 0.953576 0.840997
O O18 0.996797 0.915210 0.896406
O O19 0.000000 0.000000 0.844078
O O20 0.250000 0.104975 0.998418
O O21 0.250000 0.778904 0.146489
#
# Coordination Sequence:
#
# PCOD8192328 Si02
#       8
#     8   8   8   8   8   8   8   8
#     4  10  20  35  54  76 105 143 185 228 273 327
#     4  11  21  35  57  84 113 146 185 230 282 338
#     4  10  21  39  61  85 113 149 190 233 282 339
#     4  10  20  33  51  77 107 142 179 225 276 326
#     4   9  17  32  55  80 108 143 181 221 269 327
#     4  10  21  38  61  85 112 149 189 232 282 338
#     4  10  20  35  56  83 114 147 186 231 280 336
#     4   8  16  31  50  70  95 135 177 216 262 319
#
# _framework density 18.822023999999999
#
# number of rings (size 3 to 8) (size 9 to 14) (size 15 to 20)
#    0.000    2.250    0.000    4.125    0.000    6.500 
#    2.250    0.625    0.000    0.000    0.000    0.000 
#    0.000    0.000    0.000    0.000    0.000    0.000 
#
# Total GULP energy -396487.390295 kJ/mol
# GULP energy per Si atom -12390.230947 kJ/mol
# Density = 1.877918 g / cm^3
# Si number density = 18.822024 Si / 1000 Ang^3
#
#
#
# Elastic Constant Matrix: (Units=GPa)
#
#
# Indices 1 2 3 4 5 6 
#
# 1 116.2349 40.2960 56.1351 0.0004 0.0001 0.0000
# 2 40.2960 65.4977 53.3956 0.0010 0.0003 0.0001
# 3 56.1351 53.3956 117.2034 0.0035 0.0008 0.0003
# 4 0.0004 0.0010 0.0035 24.1538 0.0002 0.0001
# 5 0.0001 0.0003 0.0008 0.0002 32.4455 0.0004
# 6 0.0000 0.0001 0.0003 0.0001 0.0004 28.0053
#
#
#
# Elastic Compliance Matrix: (Units=1/GPa)
#
#
# Indices 1 2 3 4 5 6 
#
# 1 0.011893 -0.004253 -0.003759 0.000001 0.000000 0.000000
# 2 -0.004253 0.025809 -0.009721 0.000000 0.000000 0.000000
# 3 -0.003759 -0.009721 0.014761 -0.000002 0.000000 0.000000
# 4 0.000001 0.000000 -0.000002 0.041401 0.000000 0.000000
# 5 0.000000 0.000000 0.000000 0.000000 0.030821 0.000000
# 6 0.000000 0.000000 0.000000 0.000000 0.000000 0.035708
#
#
# Mechanical properties :
#
#
# Convention : Reuss Voigt Hill
#
# Bulk Modulus (GPa) = 58.83068 66.50993 62.67031
# Shear Modulus (GPa) = 24.81089 26.86152 25.83621
#
# Velocity S-wave (km/s) = 3.63462 3.78184 3.70896
# Velocity P-wave (km/s) = 6.99558 7.38124 7.19099
#
# Compressibility (1/GPa) = 0.01699793
#
# Stress axis : x y z
#
# Youngs Moduli (GPa) = 84.08456 38.74598 67.74471
#
# Poissons Ratio (x) = 0.16477 0.25463
# Poissons Ratio (y) = 0.35757 0.65857
# Poissons Ratio (z) = 0.31605 0.37666
#
# Static dielectric constant tensor:
#      x y z
#    x 3.637360 0.000000 0.000000 
#    y 0.000000 3.191120 0.000000 
#    z 0.000000 0.000000 3.641230 
# 
# 
# High freq. dielectric constant tensor:
#      x y z
#    x 1.746420 0.000000 0.000000 
#    y 0.000000 1.700400 0.000000 
#    z 0.000000 0.000000 1.739450 
# 
# From -- ./inp_files/9714.got.cif
#   From: 2010.03.12/outbox.cif.g09.slc.cpg/sg46_5_cif.got.tgz:9714.got - 2010.04.14 02:56:35.
