data_PCOD8192865
_publ_section_title
;
Structure prediction by ZEFSAII (Michael W. Deem and Ramdas Pophale) SiO2 
 PCOD8192865
Probable space group: I M A 2
;
_chemical_formula_sum "Si O2"
_cell_formula_units_Z 64
_cell_length_a 8.827453
_cell_length_b 23.695744
_cell_length_c 15.375695
_cell_angle_alpha 90.000000
_cell_angle_beta 90.000000
_cell_angle_gamma 90.000000
_cell_volume 3216.181272
_symmetry_space_group_name_H-M "I M A 2"
_symmetry_group_IT_number 46
_symmetry_cell_setting 'orthorhombic'
loop_
_space_group_symop_operation_xyz
x,y,z
-x,-y,z
1/2-x,y,z
1/2+x,-y,z
1/2+x,1/2+y,1/2+z
1/2-x,1/2-y,1/2+z
-x,1/2+y,1/2+z
x,1/2-y,1/2+z
loop_
_atom_site_type_symbol
_atom_site_label
_atom_site_fract_x
_atom_site_fract_y
_atom_site_fract_z
Si Si1 0.928621 0.869895 0.860180
Si Si2 0.929982 0.124218 0.680158
Si Si3 0.576709 0.857570 0.179760
Si Si4 0.428935 0.061143 0.029793
Si Si5 0.428956 0.440531 0.022933
Si Si6 0.576633 0.645533 0.873324
Si Si7 0.072377 0.757525 0.923352
Si Si8 0.928378 0.253076 0.121849
O O1 0.750000 0.871639 0.845600
O O2 0.011960 0.893810 0.775105
O O3 0.979697 0.806080 0.875841
O O4 0.979415 0.908761 0.940770
O O5 0.750000 0.119840 0.675594
O O6 0.988729 0.187275 0.658060
O O7 0.000649 0.080772 0.612555
O O8 0.750000 0.846606 0.154203
O O9 0.507092 0.901813 0.110624
O O10 0.559796 0.882018 0.277354
O O11 0.494925 0.797364 0.178334
O O12 0.250000 0.054804 0.035907
O O13 0.500000 0.000000 0.034980
O O14 0.500000 0.500000 0.998258
O O15 0.250000 0.445868 0.033227
O O16 0.475974 0.399432 0.944500
O O17 0.750000 0.664597 0.889849
O O18 0.466390 0.698851 0.877782
O O19 0.250000 0.770001 0.913618
O O20 0.018722 0.754350 0.022847
O O21 0.750000 0.251317 0.130070
#
# Coordination Sequence:
#
# PCOD8192865 Si02
#       8
#     8   8   8   8   8   8   8   8
#     4  11  23  40  61  90 122 159 201 245 298 360
#     4  11  23  41  63  91 123 158 198 248 303 360
#     4  10  21  39  61  88 120 155 195 243 293 354
#     4  10  23  41  61  84 115 153 198 245 293 345
#     4  11  24  42  63  88 119 159 205 253 303 359
#     4  10  22  39  62  90 121 158 200 244 300 360
#     4  11  21  36  60  90 124 158 196 245 300 356
#     4  10  21  36  58  89 122 156 194 239 297 356
#
# _framework density 19.899376
#
# number of rings (size 3 to 8) (size 9 to 14) (size 15 to 20)
#    0.000    1.500    2.500    2.250    0.000    7.000 
#    0.000    1.250    0.000    0.000    0.000    0.000 
#    0.000    0.000    0.000    0.000    0.000    0.000 
#
# Total GULP energy -396961.668435 kJ/mol
# GULP energy per Si atom -12405.052139 kJ/mol
# Density = 1.985408 g / cm^3
# Si number density = 19.899376 Si / 1000 Ang^3
#
#
#
# Elastic Constant Matrix: (Units=GPa)
#
#
# Indices 1 2 3 4 5 6 
#
# 1 45.5631 21.9744 24.0238 0.0000 0.0001 0.0000
# 2 21.9744 104.2044 29.0649 0.0001 0.0001 0.0000
# 3 24.0238 29.0649 117.7427 0.0002 0.0001 0.0000
# 4 0.0000 0.0001 0.0002 12.3943 0.0000 0.0000
# 5 0.0001 0.0001 0.0001 0.0000 23.5142 0.0000
# 6 0.0000 0.0000 0.0000 0.0000 0.0000 34.6426
#
#
#
# Elastic Compliance Matrix: (Units=1/GPa)
#
#
# Indices 1 2 3 4 5 6 
#
# 1 0.026310 -0.004350 -0.004294 0.000000 0.000000 0.000000
# 2 -0.004350 0.011025 -0.001834 0.000000 0.000000 0.000000
# 3 -0.004294 -0.001834 0.009822 0.000000 0.000000 0.000000
# 4 0.000000 0.000000 0.000000 0.080682 0.000000 0.000000
# 5 0.000000 0.000000 0.000000 0.000000 0.042528 0.000000
# 6 0.000000 0.000000 0.000000 0.000000 0.000000 0.028866
#
#
# Mechanical properties :
#
#
# Convention : Reuss Voigt Hill
#
# Bulk Modulus (GPa) = 38.16788 46.40402 42.28595
# Shear Modulus (GPa) = 21.84131 26.94003 24.39067
#
# Velocity S-wave (km/s) = 3.31658 3.68341 3.50480
# Velocity P-wave (km/s) = 5.82137 6.43894 6.13793
#
# Compressibility (1/GPa) = 0.02620004
#
# Stress axis : x y z
#
# Youngs Moduli (GPa) = 38.00845 90.69906 101.81218
#
# Poissons Ratio (x) = 0.39458 0.43721
# Poissons Ratio (y) = 0.16535 0.18672
# Poissons Ratio (z) = 0.16322 0.16634
#
# Static dielectric constant tensor:
#      x y z
#    x 3.576380 0.000000 0.000000 
#    y 0.000000 3.667040 0.000000 
#    z 0.000000 0.000000 3.895440 
# 
# 
# High freq. dielectric constant tensor:
#      x y z
#    x 1.773450 0.000000 0.000000 
#    y 0.000000 1.769220 0.000000 
#    z 0.000000 0.000000 1.794810 
# 
# From -- ./inp_files/14422.got.cif
#   From: 2010.03.12/outbox.cif.g09.slc.cpg/sg46_8_cif.got.tgz:14422.got - 2010.04.14 02:56:35.
