data_PCOD8192182
_publ_section_title
;
Structure prediction by ZEFSAII (Michael W. Deem and Ramdas Pophale) SiO2 
 PCOD8192182
Probable space group: I M A 2
;
_chemical_formula_sum "Si O2"
_cell_formula_units_Z 52
_cell_length_a 21.533439
_cell_length_b 22.042767
_cell_length_c 4.953563
_cell_angle_alpha 90.000000
_cell_angle_beta 90.000000
_cell_angle_gamma 90.000000
_cell_volume 2351.241265
_symmetry_space_group_name_H-M "I M A 2"
_symmetry_group_IT_number 46
_symmetry_cell_setting 'orthorhombic'
loop_
_space_group_symop_operation_xyz
x,y,z
-x,-y,z
1/2-x,y,z
1/2+x,-y,z
1/2+x,1/2+y,1/2+z
1/2-x,1/2-y,1/2+z
-x,1/2+y,1/2+z
x,1/2-y,1/2+z
loop_
_atom_site_type_symbol
_atom_site_label
_atom_site_fract_x
_atom_site_fract_y
_atom_site_fract_z
Si Si1 0.032240 0.113990 0.919740
Si Si2 0.442745 0.460647 0.915691
Si Si3 0.621854 0.710115 0.193186
Si Si4 0.179823 0.624404 0.401503
Si Si5 0.750000 0.710416 0.330564
Si Si6 0.571096 0.292072 0.477897
Si Si7 0.322136 0.957383 0.401399
O O1 0.032313 0.058411 0.710555
O O2 0.067725 0.165958 0.762284
O O3 0.965217 0.143719 0.969742
O O4 0.063821 0.094692 0.202610
O O5 0.500000 0.500000 0.793975
O O6 0.374668 0.491138 0.944173
O O7 0.617502 0.769928 0.382488
O O8 0.687142 0.674750 0.252413
O O9 0.250000 0.646567 0.428303
O O10 0.141921 0.685944 0.456817
O O11 0.166316 0.569516 0.606442
O O12 0.165331 0.597629 0.106885
O O13 0.750000 0.727978 0.645347
O O14 0.554883 0.256488 0.748963
O O15 0.250000 0.981688 0.433330
#
# Coordination Sequence:
#
# PCOD8192182 Si02
#       7
#     8   8   8   8   4   8   8
#     4  12  24  39  59  88 114 156 197 242 302 340
#     4  12  24  41  62  86 117 154 200 249 298 356
#     4  10  19  36  56  79 111 146 185 225 277 336
#     4  10  21  39  64  89 120 161 198 239 302 368
#     4   8  16  30  52  74 100 142 178 210 260 322
#     4  12  24  39  60  90 126 160 200 248 294 356
#     4  10  21  41  64  89 120 158 201 250 306 361
#
# _framework density 22.11598
#
# number of rings (size 3 to 8) (size 9 to 14) (size 15 to 20)
#    0.000    1.231    0.000    6.923    0.000    0.615 
#    2.769    0.000    0.000    0.000    0.000    0.000 
#    0.000    0.000    0.000    0.000    0.000    0.000 
#
# Total GULP energy -322282.114055 kJ/mol
# GULP energy per Si atom -12395.465925 kJ/mol
# Density = 2.206564 g / cm^3
# Si number density = 22.115980 Si / 1000 Ang^3
#
#
#
# Elastic Constant Matrix: (Units=GPa)
#
#
# Indices 1 2 3 4 5 6 
#
# 1 108.8386 38.7381 8.7348 0.0000 0.0000 0.0000
# 2 38.7381 62.1082 9.4130 0.0000 0.0000 0.0000
# 3 8.7348 9.4130 68.5531 0.0000 0.0000 0.0000
# 4 0.0000 0.0000 0.0000 22.7385 0.0000 0.0000
# 5 0.0000 0.0000 0.0000 0.0000 28.0590 0.0000
# 6 0.0000 0.0000 0.0000 0.0000 0.0000 33.2073
#
#
#
# Elastic Compliance Matrix: (Units=1/GPa)
#
#
# Indices 1 2 3 4 5 6 
#
# 1 0.011827 -0.007300 -0.000505 0.000000 0.000000 0.000000
# 2 -0.007300 0.020949 -0.001946 0.000000 0.000000 0.000000
# 3 -0.000505 -0.001946 0.014919 0.000000 0.000000 0.000000
# 4 0.000000 0.000000 0.000000 0.043978 0.000000 0.000000
# 5 0.000000 0.000000 0.000000 0.000000 0.035639 0.000000
# 6 0.000000 0.000000 0.000000 0.000000 0.000000 0.030114
#
#
# Mechanical properties :
#
#
# Convention : Reuss Voigt Hill
#
# Bulk Modulus (GPa) = 35.47028 39.25241 37.36134
# Shear Modulus (GPa) = 26.83478 28.97523 27.90500
#
# Velocity S-wave (km/s) = 3.48712 3.62352 3.55598
# Velocity P-wave (km/s) = 5.68212 5.94084 5.81292
#
# Compressibility (1/GPa) = 0.02819262
#
# Stress axis : x y z
#
# Youngs Moduli (GPa) = 84.55473 47.73471 67.02966
#
# Poissons Ratio (x) = 0.34847 0.03382
# Poissons Ratio (y) = 0.61725 0.13046
# Poissons Ratio (z) = 0.04266 0.09291
#
# Static dielectric constant tensor:
#      x y z
#    x 4.333520 0.000000 0.000000 
#    y 0.000000 3.897340 0.000000 
#    z 0.000000 0.000000 4.252320 
# 
# 
# High freq. dielectric constant tensor:
#      x y z
#    x 1.888600 0.000000 0.000000 
#    y 0.000000 1.836140 0.000000 
#    z 0.000000 0.000000 1.890750 
# 
# From -- ./inp_files/2088.got.cif
#   From: 2010.03.12/outbox.cif.g09.slc.cpg/sg46_2_cif.got.tgz:2088.got - 2010.04.14 02:56:35.
