data_PCOD8192415
_publ_section_title
;
Structure prediction by ZEFSAII (Michael W. Deem and Ramdas Pophale) SiO2 
 PCOD8192415
Probable space group: I M A 2
;
_chemical_formula_sum "Si O2"
_cell_formula_units_Z 64
_cell_length_a 10.350788
_cell_length_b 21.111563
_cell_length_c 15.704843
_cell_angle_alpha 90.000000
_cell_angle_beta 90.000000
_cell_angle_gamma 90.000000
_cell_volume 3431.842912
_symmetry_space_group_name_H-M "I M A 2"
_symmetry_group_IT_number 46
_symmetry_cell_setting 'orthorhombic'
loop_
_space_group_symop_operation_xyz
x,y,z
-x,-y,z
1/2-x,y,z
1/2+x,-y,z
1/2+x,1/2+y,1/2+z
1/2-x,1/2-y,1/2+z
-x,1/2+y,1/2+z
x,1/2-y,1/2+z
loop_
_atom_site_type_symbol
_atom_site_label
_atom_site_fract_x
_atom_site_fract_y
_atom_site_fract_z
Si Si1 0.111341 0.453519 0.625000
Si Si2 0.605646 0.852314 0.256337
Si Si3 0.391383 0.355910 0.473922
Si Si4 0.894752 0.745467 0.605727
Si Si5 0.603187 0.056813 0.687655
Si Si6 0.893723 0.163654 0.567659
Si Si7 0.603968 0.201694 0.371973
Si Si8 0.602755 0.349346 0.343858
O O1 0.250000 0.489229 0.627025
O O2 0.086542 0.422030 0.716822
O O3 0.116368 0.400841 0.553909
O O4 0.000000 0.500000 0.599139
O O5 0.750000 0.845660 0.295813
O O6 0.585635 0.802208 0.182258
O O7 0.497170 0.844114 0.326836
O O8 0.250000 0.355012 0.427973
O O9 0.421814 0.286764 0.513510
O O10 0.502358 0.379994 0.410437
O O11 0.750000 0.774020 0.606657
O O12 0.998807 0.799787 0.621617
O O13 0.750000 0.029940 0.698876
O O14 0.588378 0.089259 0.593818
O O15 0.579780 0.114432 0.754913
O O16 0.500000 0.000000 0.699546
O O17 0.750000 0.185017 0.597559
O O18 0.911079 0.180803 0.469507
O O19 0.750000 0.187178 0.341676
O O20 0.570858 0.274219 0.345867
O O21 0.750000 0.359674 0.375464
#
# Coordination Sequence:
#
# PCOD8192415 Si02
#       8
#     8   8   8   8   8   8   8   8
#     4   9  19  35  52  73 103 140 181 219 259 315
#     4   9  19  34  51  75 108 140 173 217 267 323
#     4   9  18  32  51  78 111 141 173 217 268 324
#     4   9  17  31  52  79 109 141 174 212 269 335
#     4  10  23  41  58  78 109 150 194 233 270 324
#     4  10  20  36  58  80 106 140 180 229 277 327
#     4  10  20  34  55  85 112 135 173 225 283 334
#     4  10  20  35  55  82 112 141 180 226 271 324
#
# _framework density 18.648871
#
# number of rings (size 3 to 8) (size 9 to 14) (size 15 to 20)
#    0.000    2.500    1.250    2.250    0.000    5.000 
#    0.000    5.625    0.000    3.000    0.000    0.000 
#    0.000    0.000    0.000    0.000    0.000    0.000 
#
# Total GULP energy -396451.327760 kJ/mol
# GULP energy per Si atom -12389.103993 kJ/mol
# Density = 1.860643 g / cm^3
# Si number density = 18.648871 Si / 1000 Ang^3
#
#
#
# Elastic Constant Matrix: (Units=GPa)
#
#
# Indices 1 2 3 4 5 6 
#
# 1 120.4920 38.1399 40.8263 0.0000 0.0000 0.0000
# 2 38.1399 52.4489 26.4624 0.0000 0.0000 0.0000
# 3 40.8263 26.4624 56.4651 0.0001 0.0000 0.0000
# 4 0.0000 0.0000 0.0001 16.0686 0.0000 0.0000
# 5 0.0000 0.0000 0.0000 0.0000 45.5538 0.0000
# 6 0.0000 0.0000 0.0000 0.0000 0.0000 26.6391
#
#
#
# Elastic Compliance Matrix: (Units=1/GPa)
#
#
# Indices 1 2 3 4 5 6 
#
# 1 0.012202 -0.005791 -0.006109 0.000000 0.000000 0.000000
# 2 -0.005791 0.027719 -0.008803 0.000000 0.000000 0.000000
# 3 -0.006109 -0.008803 0.026252 0.000000 0.000000 0.000000
# 4 0.000000 0.000000 0.000000 0.062233 0.000000 0.000000
# 5 0.000000 0.000000 0.000000 0.000000 0.021952 0.000000
# 6 0.000000 0.000000 0.000000 0.000000 0.000000 0.037539
#
#
# Mechanical properties :
#
#
# Convention : Reuss Voigt Hill
#
# Bulk Modulus (GPa) = 40.37545 48.91813 44.64679
# Shear Modulus (GPa) = 21.04734 25.91744 23.48239
#
# Velocity S-wave (km/s) = 3.36313 3.73199 3.55235
# Velocity P-wave (km/s) = 6.06450 6.69764 6.38892
#
# Compressibility (1/GPa) = 0.02476752
#
# Stress axis : x y z
#
# Youngs Moduli (GPa) = 81.95245 36.07632 38.09174
#
# Poissons Ratio (x) = 0.20893 0.23269
# Poissons Ratio (y) = 0.47461 0.33533
# Poissons Ratio (z) = 0.50061 0.31759
#
# Static dielectric constant tensor:
#      x y z
#    x 3.353490 0.000000 0.000000 
#    y 0.000000 3.323090 0.000000 
#    z 0.000000 0.000000 3.342650 
# 
# 
# High freq. dielectric constant tensor:
#      x y z
#    x 1.743870 0.000000 0.000000 
#    y 0.000000 1.693460 0.000000 
#    z 0.000000 0.000000 1.711310 
# 
# From -- ./inp_files/15357.got.cif
#   From: 2010.03.12/outbox.cif.g09.slc.cpg/sg46_8_cif.got.tgz:15357.got - 2010.04.14 02:56:35.
