data_PCOD8192568
_publ_section_title
;
Structure prediction by ZEFSAII (Michael W. Deem and Ramdas Pophale) SiO2 
 PCOD8192568
Probable space group: I M A 2
;
_chemical_formula_sum "Si O2"
_cell_formula_units_Z 64
_cell_length_a 14.305405
_cell_length_b 11.928053
_cell_length_c 18.567158
_cell_angle_alpha 90.000000
_cell_angle_beta 90.000000
_cell_angle_gamma 90.000000
_cell_volume 3168.218685
_symmetry_space_group_name_H-M "I M A 2"
_symmetry_group_IT_number 46
_symmetry_cell_setting 'orthorhombic'
loop_
_space_group_symop_operation_xyz
x,y,z
-x,-y,z
1/2-x,y,z
1/2+x,-y,z
1/2+x,1/2+y,1/2+z
1/2-x,1/2-y,1/2+z
-x,1/2+y,1/2+z
x,1/2-y,1/2+z
loop_
_atom_site_type_symbol
_atom_site_label
_atom_site_fract_x
_atom_site_fract_y
_atom_site_fract_z
Si Si1 0.526558 0.847235 0.990950
Si Si2 0.959149 0.727362 0.342943
Si Si3 0.354238 0.432520 0.897784
Si Si4 0.354452 0.833280 0.337130
Si Si5 0.020786 0.372548 0.194875
Si Si6 0.145039 0.699190 0.675604
Si Si7 0.061765 0.389576 0.041318
Si Si8 0.859194 0.034849 0.046088
O O1 0.572812 0.849223 0.910471
O O2 0.505839 0.720857 0.016409
O O3 0.424777 0.905729 0.986430
O O4 0.600405 0.907079 0.046117
O O5 0.917553 0.851354 0.349894
O O6 0.929024 0.679370 0.265173
O O7 0.072145 0.733774 0.350753
O O8 0.250000 0.416072 0.869233
O O9 0.387210 0.559060 0.882951
O O10 0.354941 0.406815 0.983922
O O11 0.250000 0.794378 0.360200
O O12 0.357403 0.862252 0.252428
O O13 0.090760 0.371921 0.125368
O O14 0.000000 0.500000 0.215910
O O15 0.927077 0.303524 0.172405
O O16 0.250000 0.746029 0.659395
O O17 0.119859 0.599275 0.620481
O O18 0.000000 0.500000 0.036186
O O19 0.750000 0.036708 0.025241
#
# Coordination Sequence:
#
# PCOD8192568 Si02
#       8
#     8   8   8   8   8   8   8   8
#     4  10  21  36  58  87 117 152 198 240 293 354
#     4  10  21  36  58  83 121 154 192 237 292 353
#     4  10  20  36  57  85 118 155 195 241 294 344
#     4   9  18  34  60  91 117 146 192 245 293 345
#     4  10  21  37  59  84 112 156 196 239 297 356
#     4   9  18  37  61  89 118 147 192 249 301 350
#     4  10  20  38  59  83 116 153 197 243 289 346
#     4  10  21  37  59  86 116 152 193 245 297 344
#
# _framework density 20.200624999999999
#
# number of rings (size 3 to 8) (size 9 to 14) (size 15 to 20)
#    0.000    2.250    1.250    1.875    1.750    3.500 
#    2.250    4.375    0.000    0.000    0.000    0.000 
#    0.000    0.000    0.000    0.000    0.000    0.000 
#
# Total GULP energy -396421.100704 kJ/mol
# GULP energy per Si atom -12388.159397 kJ/mol
# Density = 2.015465 g / cm^3
# Si number density = 20.200625 Si / 1000 Ang^3
#
#
#
# Elastic Constant Matrix: (Units=GPa)
#
#
# Indices 1 2 3 4 5 6 
#
# 1 64.2610 31.0722 13.8323 0.0000 0.0000 0.0000
# 2 31.0722 102.1235 40.2445 0.0000 0.0000 0.0000
# 3 13.8323 40.2445 118.6046 0.0000 0.0000 0.0000
# 4 0.0000 0.0000 0.0000 32.8392 0.0000 0.0000
# 5 0.0000 0.0000 0.0000 0.0000 22.2881 0.0000
# 6 0.0000 0.0000 0.0000 0.0000 0.0000 18.0866
#
#
#
# Elastic Compliance Matrix: (Units=1/GPa)
#
#
# Indices 1 2 3 4 5 6 
#
# 1 0.018254 -0.005443 -0.000282 0.000000 0.000000 0.000000
# 2 -0.005443 0.012926 -0.003751 0.000000 0.000000 0.000000
# 3 -0.000282 -0.003751 0.009737 0.000000 0.000000 0.000000
# 4 0.000000 0.000000 0.000000 0.030451 0.000000 0.000000
# 5 0.000000 0.000000 0.000000 0.000000 0.044867 0.000000
# 6 0.000000 0.000000 0.000000 0.000000 0.000000 0.055290
#
#
# Mechanical properties :
#
#
# Convention : Reuss Voigt Hill
#
# Bulk Modulus (GPa) = 45.52672 50.58746 48.05709
# Shear Modulus (GPa) = 25.27808 27.96546 26.62177
#
# Velocity S-wave (km/s) = 3.54128 3.72477 3.63418
# Velocity P-wave (km/s) = 6.26954 6.60268 6.43827
#
# Compressibility (1/GPa) = 0.02196512
#
# Stress axis : x y z
#
# Youngs Moduli (GPa) = 54.78242 77.36080 102.69919
#
# Poissons Ratio (x) = 0.42106 0.02896
# Poissons Ratio (y) = 0.29817 0.38526
# Poissons Ratio (z) = 0.01545 0.29021
#
# Static dielectric constant tensor:
#      x y z
#    x 3.531240 0.000000 0.000000 
#    y 0.000000 3.692600 0.000000 
#    z 0.000000 0.000000 3.975410 
# 
# 
# High freq. dielectric constant tensor:
#      x y z
#    x 1.761160 0.000000 0.000000 
#    y 0.000000 1.787640 0.000000 
#    z 0.000000 0.000000 1.796160 
# 
# From -- ./inp_files/19667.got.cif
#   From: 2010.03.12/outbox.cif.g09.slc.cpg/sg46_10_cif.got.tgz:19667.got - 2010.04.14 02:56:35.
