data_PCOD8192098
_publ_section_title
;
Structure prediction by ZEFSAII (Michael W. Deem and Ramdas Pophale) SiO2 
 PCOD8192098
Probable space group: I M A 2
;
_chemical_formula_sum "Si O2"
_cell_formula_units_Z 64
_cell_length_a 8.547000
_cell_length_b 24.904867
_cell_length_c 15.253313
_cell_angle_alpha 90.000000
_cell_angle_beta 90.000000
_cell_angle_gamma 90.000000
_cell_volume 3246.849160
_symmetry_space_group_name_H-M "I M A 2"
_symmetry_group_IT_number 46
_symmetry_cell_setting 'orthorhombic'
loop_
_space_group_symop_operation_xyz
x,y,z
-x,-y,z
1/2-x,y,z
1/2+x,-y,z
1/2+x,1/2+y,1/2+z
1/2-x,1/2-y,1/2+z
-x,1/2+y,1/2+z
x,1/2-y,1/2+z
loop_
_atom_site_type_symbol
_atom_site_label
_atom_site_fract_x
_atom_site_fract_y
_atom_site_fract_z
Si Si1 0.435148 0.650272 0.327510
Si Si2 0.933753 0.941970 0.946530
Si Si3 0.932690 0.216999 0.172869
Si Si4 0.932540 0.763836 0.357609
Si Si5 0.433058 0.441882 0.808457
Si Si6 0.933673 0.609530 0.628737
Si Si7 0.933666 0.165498 0.634196
Si Si8 0.933465 0.138017 0.448506
O O1 0.250000 0.659125 0.328386
O O2 0.481296 0.598360 0.381284
O O3 0.514284 0.702482 0.370388
O O4 0.498589 0.643447 0.227188
O O5 0.750000 0.939775 0.929193
O O6 0.975709 0.928015 0.046752
O O7 0.000000 0.000000 0.924363
O O8 0.750000 0.215948 0.197767
O O9 0.977753 0.271615 0.122467
O O10 0.034103 0.213755 0.260899
O O11 0.978667 0.166111 0.113512
O O12 0.750000 0.769222 0.378593
O O13 0.030992 0.800618 0.423501
O O14 0.500000 0.500000 0.828752
O O15 0.250000 0.447359 0.799293
O O16 0.500343 0.418670 0.716771
O O17 0.472562 0.403291 0.888951
O O18 0.750000 0.620582 0.635204
O O19 0.750000 0.159408 0.635316
O O20 0.993878 0.132029 0.549721
O O21 0.750000 0.126191 0.438696
#
# Coordination Sequence:
#
# PCOD8192098 Si02
#       8
#     8   8   8   8   8   8   8   8
#     4  10  21  41  64  87 116 156 200 252 304 357
#     4  11  24  42  62  89 119 157 203 252 304 359
#     4  10  19  34  57  86 118 159 200 236 290 354
#     4  11  21  35  55  86 123 158 194 241 294 355
#     4  11  23  40  60  85 118 158 200 244 294 354
#     4  10  22  38  57  85 123 158 195 243 297 356
#     4   8  19  37  58  86 119 152 195 245 296 352
#     4  11  21  37  60  88 119 156 199 247 295 354
#
# _framework density 19.71142
#
# number of rings (size 3 to 8) (size 9 to 14) (size 15 to 20)
#    0.000    1.750    1.250    4.125    1.750    1.500 
#    0.000    7.500    0.000    0.000    0.000    0.000 
#    0.000    0.000    0.000    0.000    0.000    0.000 
#
# Total GULP energy -396806.366017 kJ/mol
# GULP energy per Si atom -12400.198938 kJ/mol
# Density = 1.966656 g / cm^3
# Si number density = 19.711420 Si / 1000 Ang^3
#
#
#
# Elastic Constant Matrix: (Units=GPa)
#
#
# Indices 1 2 3 4 5 6 
#
# 1 44.4183 12.9103 10.8275 0.0001 0.0000 0.0000
# 2 12.9103 110.9041 50.4298 0.0001 0.0000 0.0000
# 3 10.8275 50.4298 106.4717 0.0007 0.0000 0.0000
# 4 0.0001 0.0001 0.0007 30.5628 0.0000 0.0000
# 5 0.0000 0.0000 0.0000 0.0000 24.1336 0.0001
# 6 0.0000 0.0000 0.0000 0.0000 0.0001 34.9788
#
#
#
# Elastic Compliance Matrix: (Units=1/GPa)
#
#
# Indices 1 2 3 4 5 6 
#
# 1 0.023462 -0.002098 -0.001392 0.000000 0.000000 0.000000
# 2 -0.002098 0.011679 -0.005319 0.000000 0.000000 0.000000
# 3 -0.001392 -0.005319 0.012053 0.000000 0.000000 0.000000
# 4 0.000000 0.000000 0.000000 0.032720 0.000000 0.000000
# 5 0.000000 0.000000 0.000000 0.000000 0.041436 0.000000
# 6 0.000000 0.000000 0.000000 0.000000 0.000000 0.028589
#
#
# Mechanical properties :
#
#
# Convention : Reuss Voigt Hill
#
# Bulk Modulus (GPa) = 33.81014 45.56990 39.69002
# Shear Modulus (GPa) = 28.18236 30.44347 29.31292
#
# Velocity S-wave (km/s) = 3.78530 3.93422 3.86048
# Velocity P-wave (km/s) = 6.02449 6.61863 6.32853
#
# Compressibility (1/GPa) = 0.02957693
#
# Stress axis : x y z
#
# Youngs Moduli (GPa) = 42.62127 85.62027 82.96795
#
# Poissons Ratio (x) = 0.17965 0.11551
# Poissons Ratio (y) = 0.08943 0.44127
# Poissons Ratio (z) = 0.05934 0.45538
#
# Static dielectric constant tensor:
#      x y z
#    x 3.471850 0.000000 0.000000 
#    y 0.000000 3.568960 0.000000 
#    z 0.000000 0.000000 3.925350 
# 
# 
# High freq. dielectric constant tensor:
#      x y z
#    x 1.763730 0.000000 0.000000 
#    y 0.000000 1.762300 0.000000 
#    z 0.000000 0.000000 1.770890 
# 
# From -- ./inp_files/14550.got.cif
#   From: 2010.03.12/outbox.cif.g09.slc.cpg/sg46_8_cif.got.tgz:14550.got - 2010.04.14 02:56:35.
