data_PCOD8192828
_publ_section_title
;
Structure prediction by ZEFSAII (Michael W. Deem and Ramdas Pophale) SiO2 
 PCOD8192828
Probable space group: I M A 2
;
_chemical_formula_sum "Si O2"
_cell_formula_units_Z 64
_cell_length_a 9.096939
_cell_length_b 23.028681
_cell_length_c 18.967462
_cell_angle_alpha 90.000000
_cell_angle_beta 90.000000
_cell_angle_gamma 90.000000
_cell_volume 3973.503218
_symmetry_space_group_name_H-M "I M A 2"
_symmetry_group_IT_number 46
_symmetry_cell_setting 'orthorhombic'
loop_
_space_group_symop_operation_xyz
x,y,z
-x,-y,z
1/2-x,y,z
1/2+x,-y,z
1/2+x,1/2+y,1/2+z
1/2-x,1/2-y,1/2+z
-x,1/2+y,1/2+z
x,1/2-y,1/2+z
loop_
_atom_site_type_symbol
_atom_site_label
_atom_site_fract_x
_atom_site_fract_y
_atom_site_fract_z
Si Si1 0.078546 0.770998 0.043820
Si Si2 0.921012 0.881586 0.397829
Si Si3 0.078729 0.061163 0.546999
Si Si4 0.581580 0.344803 0.129086
Si Si5 0.921239 0.275762 0.265726
Si Si6 0.076997 0.832198 0.179526
Si Si7 0.423956 0.940148 0.268716
Si Si8 0.577161 0.752629 0.902420
O O1 0.250000 0.776728 0.025489
O O2 0.043110 0.708999 0.078526
O O3 0.025354 0.820877 0.099165
O O4 0.985669 0.780243 0.973625
O O5 0.750000 0.889033 0.378332
O O6 0.957564 0.907132 0.473988
O O7 0.969713 0.814672 0.396846
O O8 0.018562 0.917221 0.343122
O O9 0.250000 0.050863 0.557549
O O10 0.021310 0.101091 0.610653
O O11 0.000000 0.000000 0.549096
O O12 0.750000 0.363320 0.118044
O O13 0.552816 0.327834 0.210452
O O14 0.750000 0.269500 0.284585
O O15 0.987446 0.216235 0.232617
O O16 0.010220 0.288406 0.337086
O O17 0.250000 0.821888 0.180940
O O18 0.031825 0.895820 0.206143
O O19 0.250000 0.948615 0.274499
O O20 0.500000 0.000000 0.248070
O O21 0.750000 0.760410 0.903141
#
# Coordination Sequence:
#
# PCOD8192828 Si02
#       8
#     8   8   8   8   8   8   8   8
#     4   9  17  31  51  70  92 124 161 197 238 290
#     4  10  21  34  45  66  99 133 168 199 229 279
#     4  11  22  35  49  67  97 132 170 205 240 284
#     4   9  18  32  51  72  94 122 162 205 243 288
#     4   9  17  32  51  71  94 125 163 197 238 293
#     4   8  16  31  49  69  91 122 163 201 234 279
#     4  11  21  33  50  69  95 129 167 204 238 279
#     4  11  20  30  46  74 104 128 157 196 243 289
#
# _framework density 16.106694000000001
#
# number of rings (size 3 to 8) (size 9 to 14) (size 15 to 20)
#    0.000    2.250    2.500    3.000    0.000    3.000 
#    0.000    3.125    0.000    0.000    0.000    0.875 
#    0.000    2.000    0.000    0.000    0.000    0.000 
#
# Total GULP energy -396805.042341 kJ/mol
# GULP energy per Si atom -12400.157573 kJ/mol
# Density = 1.607003 g / cm^3
# Si number density = 16.106694 Si / 1000 Ang^3
#
#
#
# Elastic Constant Matrix: (Units=GPa)
#
#
# Indices 1 2 3 4 5 6 
#
# 1 70.2294 41.2249 52.6297 0.0000 0.0000 0.0000
# 2 41.2249 63.8350 41.2458 0.0000 0.0000 0.0000
# 3 52.6297 41.2458 120.2296 -0.0001 0.0000 0.0000
# 4 0.0000 0.0000 -0.0001 21.5421 0.0000 0.0000
# 5 0.0000 0.0000 0.0000 0.0000 21.5292 0.0000
# 6 0.0000 0.0000 0.0000 0.0000 0.0000 24.1072
#
#
#
# Elastic Compliance Matrix: (Units=1/GPa)
#
#
# Indices 1 2 3 4 5 6 
#
# 1 0.027483 -0.012816 -0.007634 0.000000 0.000000 0.000000
# 2 -0.012816 0.026103 -0.003345 0.000000 0.000000 0.000000
# 3 -0.007634 -0.003345 0.012806 0.000000 0.000000 0.000000
# 4 0.000000 0.000000 0.000000 0.046421 0.000000 0.000000
# 5 0.000000 0.000000 0.000000 0.000000 0.046448 0.000000
# 6 0.000000 0.000000 0.000000 0.000000 0.000000 0.041481
#
#
# Mechanical properties :
#
#
# Convention : Reuss Voigt Hill
#
# Bulk Modulus (GPa) = 53.18214 58.27720 55.72967
# Shear Modulus (GPa) = 19.63863 21.38195 20.51029
#
# Velocity S-wave (km/s) = 3.49561 3.64747 3.57235
# Velocity P-wave (km/s) = 7.02729 7.34842 7.18964
#
# Compressibility (1/GPa) = 0.01880331
#
# Stress axis : x y z
#
# Youngs Moduli (GPa) = 36.38635 38.30939 78.08539
#
# Poissons Ratio (x) = 0.49098 0.59608
# Poissons Ratio (y) = 0.46633 0.26118
# Poissons Ratio (z) = 0.27776 0.12814
#
# Static dielectric constant tensor:
#      x y z
#    x 2.943530 0.000000 0.000000 
#    y 0.000000 2.966210 0.000000 
#    z 0.000000 0.000000 3.083050 
# 
# 
# High freq. dielectric constant tensor:
#      x y z
#    x 1.615690 0.000000 0.000000 
#    y 0.000000 1.593370 0.000000 
#    z 0.000000 0.000000 1.617560 
# 
# From -- ./inp_files/18539.got.cif
#   From: 2010.03.12/outbox.cif.g09.slc.cpg/sg46_10_cif.got.tgz:18539.got - 2010.04.14 02:56:35.
