data_PCOD8192197
_publ_section_title
;
Structure prediction by ZEFSAII (Michael W. Deem and Ramdas Pophale) SiO2 
 PCOD8192197
Probable space group: I M A 2
;
_chemical_formula_sum "Si O2"
_cell_formula_units_Z 64
_cell_length_a 8.687594
_cell_length_b 24.832659
_cell_length_c 14.900709
_cell_angle_alpha 90.000000
_cell_angle_beta 90.000000
_cell_angle_gamma 90.000000
_cell_volume 3214.620241
_symmetry_space_group_name_H-M "I M A 2"
_symmetry_group_IT_number 46
_symmetry_cell_setting 'orthorhombic'
loop_
_space_group_symop_operation_xyz
x,y,z
-x,-y,z
1/2-x,y,z
1/2+x,-y,z
1/2+x,1/2+y,1/2+z
1/2-x,1/2-y,1/2+z
-x,1/2+y,1/2+z
x,1/2-y,1/2+z
loop_
_atom_site_type_symbol
_atom_site_label
_atom_site_fract_x
_atom_site_fract_y
_atom_site_fract_z
Si Si1 0.430218 0.389380 0.136350
Si Si2 0.931314 0.941761 0.448551
Si Si3 0.433152 0.868643 0.298931
Si Si4 0.568941 0.231619 0.408023
Si Si5 0.932488 0.220814 0.609558
Si Si6 0.068117 0.650231 0.433479
Si Si7 0.067972 0.943912 0.801880
Si Si8 0.431731 0.166435 0.125247
O O1 0.250000 0.389001 0.153614
O O2 0.499673 0.330928 0.160157
O O3 0.505864 0.432658 0.202488
O O4 0.471882 0.405328 0.034710
O O5 0.750000 0.945500 0.432435
O O6 0.012038 0.917401 0.361054
O O7 0.000000 0.000000 0.466949
O O8 0.250000 0.869968 0.291103
O O9 0.498998 0.812052 0.339295
O O10 0.508601 0.875276 0.200802
O O11 0.750000 0.225165 0.407137
O O12 0.508831 0.217973 0.507310
O O13 0.521655 0.293203 0.385094
O O14 0.750000 0.221000 0.620456
O O15 0.996513 0.275706 0.651745
O O16 0.250000 0.648866 0.450992
O O17 0.011080 0.602263 0.370133
O O18 0.986773 0.644714 0.529278
O O19 0.250000 0.947126 0.798866
O O20 0.000000 0.000000 0.837332
O O21 0.250000 0.170304 0.125767
#
# Coordination Sequence:
#
# PCOD8192197 Si02
#       8
#     8   8   8   8   8   8   8   8
#     4  11  23  38  59  91 127 160 200 249 304 361
#     4  11  24  41  61  87 123 163 205 252 300 360
#     4  11  21  37  62  90 121 161 205 251 303 361
#     4   8  16  32  57  86 114 149 196 242 290 354
#     4  10  19  36  59  86 121 162 204 241 292 361
#     4   9  20  41  63  87 115 156 207 252 304 364
#     4  11  24  41  64  89 120 159 207 257 305 361
#     4  11  23  38  58  90 127 160 197 251 310 364
#
# _framework density 19.909039
#
# number of rings (size 3 to 8) (size 9 to 14) (size 15 to 20)
#    0.000    1.750    1.250    4.125    1.750    3.500 
#    0.000    1.250    0.000    1.500    0.000    0.000 
#    0.000    0.000    0.000    0.000    0.000    0.000 
#
# Total GULP energy -396864.305278 kJ/mol
# GULP energy per Si atom -12402.009540 kJ/mol
# Density = 1.986372 g / cm^3
# Si number density = 19.909039 Si / 1000 Ang^3
#
#
#
# Elastic Constant Matrix: (Units=GPa)
#
#
# Indices 1 2 3 4 5 6 
#
# 1 81.9696 36.0192 31.1838 0.0000 0.0001 0.0000
# 2 36.0192 99.4749 23.4485 0.0000 0.0000 0.0000
# 3 31.1838 23.4485 62.6335 -0.0078 0.0002 0.0001
# 4 0.0000 0.0000 -0.0078 -544.0674 0.0012 -0.0011
# 5 0.0001 0.0000 0.0002 0.0012 27.9568 -0.0001
# 6 0.0000 0.0000 0.0001 -0.0011 -0.0001 34.1997
#
#
#
# Elastic Compliance Matrix: (Units=1/GPa)
#
#
# Indices 1 2 3 4 5 6 
#
# 1 0.016692 -0.004480 -0.006633 0.000000 0.000000 0.000000
# 2 -0.004480 0.012228 -0.002347 0.000000 0.000000 0.000000
# 3 -0.006633 -0.002347 0.020147 0.000000 0.000000 0.000000
# 4 0.000000 0.000000 0.000000 -0.001838 0.000000 0.000000
# 5 0.000000 0.000000 0.000000 0.000000 0.035769 0.000000
# 6 0.000000 0.000000 0.000000 0.000000 0.000000 0.029240
#
#
# Mechanical properties :
#
#
# Convention : Reuss Voigt Hill
#
# Bulk Modulus (GPa) = 45.15552 47.26454 46.21003
# Shear Modulus (GPa) = 34.11972 -86.15375 -26.01701
#
# Velocity S-wave (km/s) = 4.14427 -6.58541 -3.61888
# Velocity P-wave (km/s) = 6.75501 5.83367 2.40816
#
# Compressibility (1/GPa) = 0.02214569
#
# Stress axis : x y z
#
# Youngs Moduli (GPa) = 59.90930 81.77652 49.63472
#
# Poissons Ratio (x) = 0.36639 0.32923
# Poissons Ratio (y) = 0.26842 0.11651
# Poissons Ratio (z) = 0.39739 0.19196
#
# Static dielectric constant tensor:
#      x y z
#    x 3.477340 0.000000 0.000000 
#    y 0.000000 3.818930 0.000000 
#    z 0.000000 0.000000 3.635710 
# 
# 
# High freq. dielectric constant tensor:
#      x y z
#    x 1.772240 0.000000 0.000000 
#    y 0.000000 1.773090 0.000000 
#    z 0.000000 0.000000 1.776320 
# 
# From -- ./inp_files/14437.got.cif
#   From: 2010.03.12/outbox.cif.g09.slc.cpg/sg46_8_cif.got.tgz:14437.got - 2010.04.14 02:56:35.
