data_PCOD8192710
_publ_section_title
;
Structure prediction by ZEFSAII (Michael W. Deem and Ramdas Pophale) SiO2 
 PCOD8192710
Probable space group: I M A 2
;
_chemical_formula_sum "Si O2"
_cell_formula_units_Z 64
_cell_length_a 9.134145
_cell_length_b 26.997851
_cell_length_c 13.075889
_cell_angle_alpha 90.000000
_cell_angle_beta 90.000000
_cell_angle_gamma 90.000000
_cell_volume 3224.544115
_symmetry_space_group_name_H-M "I M A 2"
_symmetry_group_IT_number 46
_symmetry_cell_setting 'orthorhombic'
loop_
_space_group_symop_operation_xyz
x,y,z
-x,-y,z
1/2-x,y,z
1/2+x,-y,z
1/2+x,1/2+y,1/2+z
1/2-x,1/2-y,1/2+z
-x,1/2+y,1/2+z
x,1/2-y,1/2+z
loop_
_atom_site_type_symbol
_atom_site_label
_atom_site_fract_x
_atom_site_fract_y
_atom_site_fract_z
Si Si1 0.921684 0.373885 0.961560
Si Si2 0.919892 0.104093 0.068456
Si Si3 0.585429 0.717879 0.876678
Si Si4 0.079660 0.949419 0.859684
Si Si5 0.577923 0.126053 0.691948
Si Si6 0.585146 0.705197 0.539481
Si Si7 0.078213 0.947650 0.280179
Si Si8 0.423108 0.736770 0.198964
O O1 0.750000 0.361457 0.951549
O O2 0.968719 0.414854 0.878056
O O3 0.011725 0.323807 0.946515
O O4 0.959388 0.392711 0.076679
O O5 0.750000 0.120445 0.072721
O O6 0.969435 0.079781 0.175516
O O7 0.019684 0.150769 0.043765
O O8 0.948648 0.065922 0.976734
O O9 0.750000 0.700438 0.850807
O O10 0.490734 0.722909 0.775127
O O11 0.589031 0.772883 0.925384
O O12 0.250000 0.957034 0.838541
O O13 0.012222 0.910165 0.778401
O O14 0.000000 0.000000 0.836783
O O15 0.750000 0.128774 0.706888
O O16 0.516015 0.181125 0.713352
O O17 0.750000 0.704727 0.585972
O O18 0.476962 0.744502 0.590417
O O19 0.250000 0.957691 0.279429
O O20 0.000000 0.000000 0.288540
O O21 0.250000 0.739243 0.206960
#
# Coordination Sequence:
#
# PCOD8192710 Si02
#       8
#     8   8   8   8   8   8   8   8
#     4  10  20  38  60  83 114 153 202 245 285 352
#     4  10  21  38  59  85 117 153 199 245 291 359
#     4  11  23  37  55  85 123 156 189 239 298 351
#     4  10  21  38  59  84 114 149 196 251 303 354
#     4   9  19  36  58  83 112 150 196 245 287 342
#     4  11  23  37  56  87 123 154 188 237 298 354
#     4  10  22  38  59  85 112 148 192 246 301 351
#     4  11  21  36  60  84 112 157 203 240 283 343
#
# _framework density 19.847767000000001
#
# number of rings (size 3 to 8) (size 9 to 14) (size 15 to 20)
#    0.000    1.750    1.250    3.000    0.000    5.500 
#    0.000    1.875    0.000    0.000    0.000    0.000 
#    0.000    0.000    0.000    0.000    0.000    0.000 
#
# Total GULP energy -396739.395729 kJ/mol
# GULP energy per Si atom -12398.106117 kJ/mol
# Density = 1.980259 g / cm^3
# Si number density = 19.847767 Si / 1000 Ang^3
#
#
#
# Elastic Constant Matrix: (Units=GPa)
#
#
# Indices 1 2 3 4 5 6 
#
# 1 68.4128 39.1631 26.6077 0.0000 0.0000 0.0000
# 2 39.1631 103.1235 23.8586 -0.0002 0.0000 0.0000
# 3 26.6077 23.8586 97.8735 -0.0013 -0.0002 0.0001
# 4 0.0000 -0.0002 -0.0013 33.8339 0.0000 0.0000
# 5 0.0000 0.0000 -0.0002 0.0000 15.5915 -0.0001
# 6 0.0000 0.0000 0.0001 0.0000 -0.0001 37.6737
#
#
#
# Elastic Compliance Matrix: (Units=1/GPa)
#
#
# Indices 1 2 3 4 5 6 
#
# 1 0.019918 -0.006689 -0.003784 0.000000 0.000000 0.000000
# 2 -0.006689 0.012523 -0.001234 0.000000 0.000000 0.000000
# 3 -0.003784 -0.001234 0.011547 0.000000 0.000000 0.000000
# 4 0.000000 0.000000 0.000000 0.029556 0.000000 0.000000
# 5 0.000000 0.000000 0.000000 0.000000 0.064138 0.000000
# 6 0.000000 0.000000 0.000000 0.000000 0.000000 0.026544
#
#
# Mechanical properties :
#
#
# Convention : Reuss Voigt Hill
#
# Bulk Modulus (GPa) = 48.60729 49.85208 49.22968
# Shear Modulus (GPa) = 25.70728 29.40518 27.55623
#
# Velocity S-wave (km/s) = 3.60282 3.85325 3.73014
# Velocity P-wave (km/s) = 6.46918 6.70585 6.58858
#
# Compressibility (1/GPa) = 0.02057305
#
# Stress axis : x y z
#
# Youngs Moduli (GPa) = 50.20600 79.85412 86.60280
#
# Poissons Ratio (x) = 0.53412 0.32774
# Poissons Ratio (y) = 0.33581 0.10690
# Poissons Ratio (z) = 0.19000 0.09857
#
# Static dielectric constant tensor:
#      x y z
#    x 3.465020 0.000000 0.000000 
#    y 0.000000 3.595360 0.000000 
#    z 0.000000 0.000000 3.834610 
# 
# 
# High freq. dielectric constant tensor:
#      x y z
#    x 1.759750 0.000000 0.000000 
#    y 0.000000 1.772340 0.000000 
#    z 0.000000 0.000000 1.787300 
# 
# From -- ./inp_files/9708.got.cif
#   From: 2010.03.12/outbox.cif.g09.slc.cpg/sg46_5_cif.got.tgz:9708.got - 2010.04.14 02:56:35.
