data_PCOD8192991
_publ_section_title
;
Structure prediction by ZEFSAII (Michael W. Deem and Ramdas Pophale) SiO2 
 PCOD8192991
Probable space group: I M A 2
;
_chemical_formula_sum "Si O2"
_cell_formula_units_Z 64
_cell_length_a 13.955528
_cell_length_b 25.703987
_cell_length_c 8.624948
_cell_angle_alpha 90.000000
_cell_angle_beta 90.000000
_cell_angle_gamma 90.000000
_cell_volume 3093.878473
_symmetry_space_group_name_H-M "I M A 2"
_symmetry_group_IT_number 46
_symmetry_cell_setting 'orthorhombic'
loop_
_space_group_symop_operation_xyz
x,y,z
-x,-y,z
1/2-x,y,z
1/2+x,-y,z
1/2+x,1/2+y,1/2+z
1/2-x,1/2-y,1/2+z
-x,1/2+y,1/2+z
x,1/2-y,1/2+z
loop_
_atom_site_type_symbol
_atom_site_label
_atom_site_fract_x
_atom_site_fract_y
_atom_site_fract_z
Si Si1 0.982671 0.939850 0.303950
Si Si2 0.143193 0.800330 0.078719
Si Si3 0.143283 0.581388 0.580790
Si Si4 0.970253 0.229917 0.372928
Si Si5 0.974507 0.635747 0.076773
Si Si6 0.140657 0.407627 0.515070
Si Si7 0.516656 0.444846 0.304865
Si Si8 0.140149 0.191655 0.833517
O O1 0.942442 0.906117 0.447449
O O2 0.903930 0.929088 0.173062
O O3 0.086348 0.921016 0.242786
O O4 0.000000 0.000000 0.347585
O O5 0.250000 0.783019 0.132197
O O6 0.144583 0.859545 0.024723
O O7 0.062829 0.792136 0.208889
O O8 0.111024 0.769884 0.925883
O O9 0.250000 0.559395 0.607847
O O10 0.092827 0.548597 0.444381
O O11 0.971037 0.183517 0.497637
O O12 0.073536 0.257640 0.355323
O O13 0.045718 0.602046 0.188434
O O14 0.887415 0.659429 0.177709
O O15 0.250000 0.425081 0.512617
O O16 0.088450 0.433791 0.371317
O O17 0.129905 0.344964 0.487098
O O18 0.500000 0.500000 0.217935
O O19 0.250000 0.210478 0.814640
#
# Coordination Sequence:
#
# PCOD8192991 Si02
#       8
#     8   8   8   8   8   8   8   8
#     4  11  22  37  61  91 123 160 202 251 310 362
#     4  11  23  39  63  92 122 161 204 246 306 372
#     4  10  21  39  62  90 121 155 201 253 298 358
#     4  12  22  41  63  88 125 163 198 253 305 367
#     4  11  23  40  61  85 128 159 198 249 307 355
#     4   9  19  37  63  90 120 157 202 251 301 363
#     4  10  21  39  62  86 116 160 208 249 298 359
#     4  10  23  42  65  92 122 163 210 251 304 374
#
# _framework density 20.68601
#
# number of rings (size 3 to 8) (size 9 to 14) (size 15 to 20)
#    0.000    1.500    2.500    4.500    0.000    3.000 
#    0.000    1.250    0.000    3.000    0.000    0.000 
#    0.000    0.000    0.000    0.000    0.000    0.000 
#
# Total GULP energy -396575.512519 kJ/mol
# GULP energy per Si atom -12392.984766 kJ/mol
# Density = 2.063893 g / cm^3
# Si number density = 20.686010 Si / 1000 Ang^3
#
#
#
# Elastic Constant Matrix: (Units=GPa)
#
#
# Indices 1 2 3 4 5 6 
#
# 1 127.8554 36.7189 18.7816 0.0026 0.0003 0.0001
# 2 36.7189 108.2978 28.2165 -0.0014 0.0000 -0.0008
# 3 18.7816 28.2165 74.1138 -0.0069 -0.0001 -0.0014
# 4 0.0026 -0.0014 -0.0069 34.4101 0.0000 -0.0004
# 5 0.0003 0.0000 -0.0001 0.0000 19.0875 -0.0001
# 6 0.0001 -0.0008 -0.0014 -0.0004 -0.0001 20.2156
#
#
#
# Elastic Compliance Matrix: (Units=1/GPa)
#
#
# Indices 1 2 3 4 5 6 
#
# 1 0.008762 -0.002656 -0.001209 -0.000001 0.000000 0.000000
# 2 -0.002656 0.011055 -0.003536 0.000000 0.000000 0.000000
# 3 -0.001209 -0.003536 0.015145 0.000003 0.000000 0.000001
# 4 -0.000001 0.000000 0.000003 0.029061 0.000000 0.000001
# 5 0.000000 0.000000 0.000000 0.000000 0.052390 0.000000
# 6 0.000000 0.000000 0.000001 0.000001 0.000000 0.049467
#
#
# Mechanical properties :
#
#
# Convention : Reuss Voigt Hill
#
# Bulk Modulus (GPa) = 49.60150 53.07788 51.33969
# Shear Modulus (GPa) = 26.68050 29.84600 28.26325
#
# Velocity S-wave (km/s) = 3.59525 3.80256 3.70036
# Velocity P-wave (km/s) = 6.42377 6.70774 6.56729
#
# Compressibility (1/GPa) = 0.02016068
#
# Stress axis : x y z
#
# Youngs Moduli (GPa) = 114.13388 90.45279 66.02639
#
# Poissons Ratio (x) = 0.24021 0.07985
# Poissons Ratio (y) = 0.30309 0.23347
# Poissons Ratio (z) = 0.13802 0.31985
#
# Static dielectric constant tensor:
#      x y z
#    x 3.708880 -0.000010 0.000000 
#    y -0.000010 3.921810 0.000000 
#    z 0.000000 0.000000 3.768430 
# 
# 
# High freq. dielectric constant tensor:
#      x y z
#    x 1.793040 0.000000 0.000000 
#    y 0.000000 1.825130 0.000000 
#    z 0.000000 0.000000 1.800890 
# 
# From -- ./inp_files/6098.got.cif
#   From: 2010.03.12/outbox.cif.g09.slc.cpg/sg46_4_cif.got.tgz:6098.got - 2010.04.14 02:56:35.
