data_PCOD8192354
_publ_section_title
;
Structure prediction by ZEFSAII (Michael W. Deem and Ramdas Pophale) SiO2 
 PCOD8192354
Probable space group: I M A 2
;
_chemical_formula_sum "Si O2"
_cell_formula_units_Z 56
_cell_length_a 13.532404
_cell_length_b 21.661210
_cell_length_c 9.332314
_cell_angle_alpha 90.000000
_cell_angle_beta 90.000000
_cell_angle_gamma 90.000000
_cell_volume 2735.564823
_symmetry_space_group_name_H-M "I M A 2"
_symmetry_group_IT_number 46
_symmetry_cell_setting 'orthorhombic'
loop_
_space_group_symop_operation_xyz
x,y,z
-x,-y,z
1/2-x,y,z
1/2+x,-y,z
1/2+x,1/2+y,1/2+z
1/2-x,1/2-y,1/2+z
-x,1/2+y,1/2+z
x,1/2-y,1/2+z
loop_
_atom_site_type_symbol
_atom_site_label
_atom_site_fract_x
_atom_site_fract_y
_atom_site_fract_z
Si Si1 0.636339 0.832994 0.052070
Si Si2 0.862242 0.431885 0.795695
Si Si3 0.498450 0.868538 0.505307
Si Si4 0.137119 0.276618 0.855962
Si Si5 0.472053 0.566877 0.506818
Si Si6 0.141455 0.021317 0.547953
Si Si7 0.862884 0.100465 0.733420
O O1 0.750000 0.855392 0.063600
O O2 0.609324 0.789977 0.190393
O O3 0.620749 0.794561 0.904117
O O4 0.568365 0.893510 0.049632
O O5 0.750000 0.406637 0.791042
O O6 0.900865 0.446939 0.639190
O O7 0.867503 0.494508 0.887548
O O8 0.933128 0.380628 0.864497
O O9 0.573122 0.814822 0.468912
O O10 0.557568 0.927971 0.565002
O O11 0.423682 0.851048 0.634389
O O12 0.250000 0.295708 0.884011
O O13 0.500000 0.500000 0.443796
O O14 0.408163 0.603450 0.390881
O O15 0.250000 0.051438 0.568254
O O16 0.127788 0.967380 0.663952
O O17 0.750000 0.122580 0.739737
#
# Coordination Sequence:
#
# PCOD8192354 Si02
#       7
#     8   8   8   8   8   8   8
#     4  10  24  44  65  95 128 162 204 255 314 375
#     4  10  20  33  54  82 118 156 200 254 310 363
#     4  11  18  35  60  87 112 160 208 253 306 361
#     4  10  22  41  65  93 125 159 201 253 309 372
#     4  12  23  39  60  91 123 167 207 259 321 370
#     4   9  18  33  53  84 120 156 200 255 311 372
#     4  10  22  37  54  82 125 166 207 255 306 366
#
# _framework density 20.471091999999999
#
# number of rings (size 3 to 8) (size 9 to 14) (size 15 to 20)
#    0.000    1.714    1.429    5.571    2.000    1.143 
#    0.000    0.714    0.000    5.143    0.000    0.000 
#    0.000    0.000    0.000    0.000    0.000    0.000 
#
# Total GULP energy -347133.406951 kJ/mol
# GULP energy per Si atom -12397.621677 kJ/mol
# Density = 2.042450 g / cm^3
# Si number density = 20.471092 Si / 1000 Ang^3
#
#
#
# Elastic Constant Matrix: (Units=GPa)
#
#
# Indices 1 2 3 4 5 6 
#
# 1 127.4262 32.7259 34.3600 -0.0015 0.0003 -0.0001
# 2 32.7259 54.8521 7.3860 -0.0005 -0.0004 -0.0002
# 3 34.3600 7.3860 97.5743 0.0019 -0.0027 -0.0001
# 4 -0.0015 -0.0005 0.0019 15.7963 -0.0016 -0.0001
# 5 0.0003 -0.0004 -0.0027 -0.0016 34.0683 0.0002
# 6 -0.0001 -0.0002 -0.0001 -0.0001 0.0002 27.0786
#
#
#
# Elastic Compliance Matrix: (Units=1/GPa)
#
#
# Indices 1 2 3 4 5 6 
#
# 1 0.010141 -0.005627 -0.003145 0.000001 0.000000 0.000000
# 2 -0.005627 0.021541 0.000351 0.000000 0.000000 0.000000
# 3 -0.003145 0.000351 0.011330 -0.000002 0.000001 0.000000
# 4 0.000001 0.000000 -0.000002 0.063306 0.000003 0.000000
# 5 0.000000 0.000000 0.000001 0.000003 0.029353 0.000000
# 6 0.000000 0.000000 0.000000 0.000000 0.000000 0.036930
#
#
# Mechanical properties :
#
#
# Convention : Reuss Voigt Hill
#
# Bulk Modulus (GPa) = 38.21301 47.64404 42.92853
# Shear Modulus (GPa) = 25.23160 29.08069 27.15614
#
# Velocity S-wave (km/s) = 3.51458 3.77314 3.64615
# Velocity P-wave (km/s) = 5.93102 6.50434 6.22428
#
# Compressibility (1/GPa) = 0.02616910
#
# Stress axis : x y z
#
# Youngs Moduli (GPa) = 98.61151 46.42397 88.26476
#
# Poissons Ratio (x) = 0.26121 0.27760
# Poissons Ratio (y) = 0.55486 -0.03097
# Poissons Ratio (z) = 0.31014 -0.01629
#
# Static dielectric constant tensor:
#      x y z
#    x 4.032290 0.000000 0.000000 
#    y 0.000000 3.219790 0.000000 
#    z 0.000000 0.000000 3.741740 
# 
# 
# High freq. dielectric constant tensor:
#      x y z
#    x 1.821820 0.000000 0.000000 
#    y 0.000000 1.749530 0.000000 
#    z 0.000000 0.000000 1.808450 
# 
# From -- ./inp_files/5924.got.cif
#   From: 2010.03.12/outbox.cif.g09.slc.cpg/sg46_3_cif.got.tgz:5924.got - 2010.04.14 02:56:35.
