data_PCOD8192031
_publ_section_title
;
Structure prediction by ZEFSAII (Michael W. Deem and Ramdas Pophale) SiO2 
 PCOD8192031
Probable space group: I M A 2
;
_chemical_formula_sum "Si O2"
_cell_formula_units_Z 64
_cell_length_a 8.645900
_cell_length_b 30.107452
_cell_length_c 14.179909
_cell_angle_alpha 90.000000
_cell_angle_beta 90.000000
_cell_angle_gamma 90.000000
_cell_volume 3691.115665
_symmetry_space_group_name_H-M "I M A 2"
_symmetry_group_IT_number 46
_symmetry_cell_setting 'orthorhombic'
loop_
_space_group_symop_operation_xyz
x,y,z
-x,-y,z
1/2-x,y,z
1/2+x,-y,z
1/2+x,1/2+y,1/2+z
1/2-x,1/2-y,1/2+z
-x,1/2+y,1/2+z
x,1/2-y,1/2+z
loop_
_atom_site_type_symbol
_atom_site_label
_atom_site_fract_x
_atom_site_fract_y
_atom_site_fract_z
Si Si1 0.076720 0.316003 0.691530
Si Si2 0.566624 0.545832 0.778404
Si Si3 0.433345 0.453760 0.561972
Si Si4 0.073532 0.774060 0.710212
Si Si5 0.067961 0.864976 0.026998
Si Si6 0.424014 0.367490 0.881170
Si Si7 0.069975 0.212325 0.907078
Si Si8 0.571384 0.201882 0.504855
O O1 0.250000 0.300985 0.662169
O O2 0.077405 0.331899 0.797968
O O3 0.956240 0.276371 0.678756
O O4 0.020765 0.355232 0.624311
O O5 0.500000 0.500000 0.820292
O O6 0.750000 0.545388 0.781928
O O7 0.511605 0.551967 0.670659
O O8 0.504026 0.586105 0.843778
O O9 0.500000 0.500000 0.522046
O O10 0.250000 0.452844 0.551140
O O11 0.509272 0.414324 0.499565
O O12 0.250000 0.779282 0.743986
O O13 0.038938 0.802788 0.616690
O O14 0.961112 0.787093 0.795268
O O15 0.250000 0.864630 0.042398
O O16 0.024355 0.829003 0.948368
O O17 0.250000 0.374888 0.918922
O O18 0.527151 0.346348 0.963644
O O19 0.250000 0.204311 0.924358
O O20 0.024831 0.258531 0.956664
O O21 0.750000 0.212441 0.484956
#
# Coordination Sequence:
#
# PCOD8192031 Si02
#       8
#     8   8   8   8   8   8   8   8
#     4  11  20  32  51  75 106 143 180 218 260 308
#     4   9  18  32  49  73 104 137 173 214 259 308
#     4  10  19  34  52  76 108 140 177 218 265 319
#     4  11  23  38  53  74 106 139 177 224 267 311
#     4  12  23  35  52  77 107 144 183 221 266 315
#     4  10  20  34  51  74 105 141 178 216 258 311
#     4  12  24  37  55  76 103 140 181 222 264 316
#     4  11  23  36  53  77 105 138 177 219 264 316
#
# _framework density 17.338932
#
# number of rings (size 3 to 8) (size 9 to 14) (size 15 to 20)
#    0.000    1.250    3.750    3.750    0.000    3.000 
#    0.000    0.000    0.000    0.000    0.000    0.875 
#    0.000    4.000    0.000    0.000    0.000    0.000 
#
# Total GULP energy -396834.257169 kJ/mol
# GULP energy per Si atom -12401.070537 kJ/mol
# Density = 1.729947 g / cm^3
# Si number density = 17.338932 Si / 1000 Ang^3
#
#
#
# Elastic Constant Matrix: (Units=GPa)
#
#
# Indices 1 2 3 4 5 6 
#
# 1 66.3623 16.8961 25.9364 0.0004 0.0000 0.0000
# 2 16.8961 97.7565 18.9739 0.0007 0.0000 0.0000
# 3 25.9364 18.9739 56.1623 -0.0001 0.0007 0.0000
# 4 0.0004 0.0007 -0.0001 23.6300 0.0004 0.0000
# 5 0.0000 0.0000 0.0007 0.0004 19.2147 -0.0001
# 6 0.0000 0.0000 0.0000 0.0000 -0.0001 31.0811
#
#
#
# Elastic Compliance Matrix: (Units=1/GPa)
#
#
# Indices 1 2 3 4 5 6 
#
# 1 0.018636 -0.001659 -0.008046 0.000000 0.000000 0.000000
# 2 -0.001659 0.011095 -0.002982 0.000000 0.000000 0.000000
# 3 -0.008046 -0.002982 0.022529 0.000000 -0.000001 0.000000
# 4 0.000000 0.000000 0.000000 0.042319 -0.000001 0.000000
# 5 0.000000 0.000000 -0.000001 -0.000001 0.052043 0.000000
# 6 0.000000 0.000000 0.000000 0.000000 0.000000 0.032174
#
#
# Mechanical properties :
#
#
# Convention : Reuss Voigt Hill
#
# Bulk Modulus (GPa) = 37.19500 38.21042 37.70271
# Shear Modulus (GPa) = 23.45968 25.35014 24.40491
#
# Velocity S-wave (km/s) = 3.68231 3.82781 3.75576
# Velocity P-wave (km/s) = 6.29107 6.45146 6.37177
#
# Compressibility (1/GPa) = 0.02688533
#
# Stress axis : x y z
#
# Youngs Moduli (GPa) = 53.66031 90.12987 44.38816
#
# Poissons Ratio (x) = 0.14956 0.35713
# Poissons Ratio (y) = 0.08904 0.13237
# Poissons Ratio (z) = 0.43173 0.26877
#
# Static dielectric constant tensor:
#      x y z
#    x 3.267010 0.000000 0.000000 
#    y 0.000000 3.310110 0.000000 
#    z 0.000000 0.000000 3.062400 
# 
# 
# High freq. dielectric constant tensor:
#      x y z
#    x 1.680860 0.000000 0.000000 
#    y 0.000000 1.662980 0.000000 
#    z 0.000000 0.000000 1.638370 
# 
# From -- ./inp_files/14744.got.cif
#   From: 2010.03.12/outbox.cif.g09.slc.cpg/sg46_8_cif.got.tgz:14744.got - 2010.04.14 02:56:35.
