data_PCOD8192339
_publ_section_title
;
Structure prediction by ZEFSAII (Michael W. Deem and Ramdas Pophale) SiO2 
 PCOD8192339
Probable space group: I M A 2
;
_chemical_formula_sum "Si O2"
_cell_formula_units_Z 64
_cell_length_a 8.804302
_cell_length_b 16.144928
_cell_length_c 22.431924
_cell_angle_alpha 90.000000
_cell_angle_beta 90.000000
_cell_angle_gamma 90.000000
_cell_volume 3188.581841
_symmetry_space_group_name_H-M "I M A 2"
_symmetry_group_IT_number 46
_symmetry_cell_setting 'orthorhombic'
loop_
_space_group_symop_operation_xyz
x,y,z
-x,-y,z
1/2-x,y,z
1/2+x,-y,z
1/2+x,1/2+y,1/2+z
1/2-x,1/2-y,1/2+z
-x,1/2+y,1/2+z
x,1/2-y,1/2+z
loop_
_atom_site_type_symbol
_atom_site_label
_atom_site_fract_x
_atom_site_fract_y
_atom_site_fract_z
Si Si1 0.579719 0.883546 0.658550
Si Si2 0.568356 0.087555 0.990397
Si Si3 0.073730 0.238042 0.458067
Si Si4 0.915973 0.700423 0.701528
Si Si5 0.077336 0.578987 0.624387
Si Si6 0.927715 0.079285 0.781906
Si Si7 0.568915 0.086920 0.532528
Si Si8 0.577328 0.764306 0.826546
O O1 0.750000 0.920583 0.650371
O O2 0.591212 0.786562 0.667804
O O3 0.500258 0.920552 0.716341
O O4 0.479244 0.904703 0.601149
O O5 0.750000 0.087425 0.981509
O O6 0.498488 0.170058 0.961097
O O7 0.500000 0.000000 0.965168
O O8 0.513155 0.096957 0.058691
O O9 0.250000 0.241224 0.477812
O O10 0.057115 0.214227 0.388081
O O11 0.990468 0.167095 0.496085
O O12 0.750000 0.657394 0.694725
O O13 0.960933 0.704643 0.771067
O O14 0.050454 0.653678 0.668873
O O15 0.250000 0.558373 0.617647
O O16 0.000000 0.500000 0.654100
O O17 0.750000 0.070424 0.775755
O O18 0.965708 0.157594 0.822974
O O19 0.000000 0.000000 0.815342
O O20 0.750000 0.084595 0.527030
O O21 0.500000 0.000000 0.507150
O O22 0.750000 0.797248 0.819094
#
# Coordination Sequence:
#
# PCOD8192339 Si02
#       8
#     8   8   8   8   8   8   8   8
#     4  10  20  36  58  85 117 150 184 226 283 345
#     4  10  21  37  58  87 121 155 192 235 285 346
#     4  11  23  41  63  85 114 154 198 245 296 347
#     4   9  18  34  56  80 108 141 177 221 274 331
#     4  10  20  33  52  79 110 141 176 220 271 330
#     4  11  21  34  55  83 116 150 185 227 278 336
#     4  12  25  41  61  87 118 152 196 245 295 352
#     4   9  21  40  58  78 107 145 189 233 278 335
#
# _framework density 20.071618999999998
#
# number of rings (size 3 to 8) (size 9 to 14) (size 15 to 20)
#    0.000    1.750    0.000    5.625    0.000    7.500 
#    0.000    0.625    0.000    0.000    0.000    0.000 
#    0.000    0.000    0.000    0.000    0.000    0.000 
#
# Total GULP energy -396642.971692 kJ/mol
# GULP energy per Si atom -12395.092865 kJ/mol
# Density = 2.002594 g / cm^3
# Si number density = 20.071619 Si / 1000 Ang^3
#
#
#
# Elastic Constant Matrix: (Units=GPa)
#
#
# Indices 1 2 3 4 5 6 
#
# 1 124.3444 37.9452 28.4935 0.0000 0.0000 0.0000
# 2 37.9452 80.4150 30.6768 0.0000 0.0000 0.0000
# 3 28.4935 30.6768 72.8252 0.0000 0.0000 0.0000
# 4 0.0000 0.0000 0.0000 -4.5822 0.0000 0.0000
# 5 0.0000 0.0000 0.0000 0.0000 71.7010 0.0000
# 6 0.0000 0.0000 0.0000 0.0000 0.0000 37.6506
#
#
#
# Elastic Compliance Matrix: (Units=1/GPa)
#
#
# Indices 1 2 3 4 5 6 
#
# 1 0.009688 -0.003724 -0.002222 0.000000 0.000000 0.000000
# 2 -0.003724 0.016248 -0.005387 0.000000 0.000000 0.000000
# 3 -0.002222 -0.005387 0.016870 0.000000 0.000000 0.000000
# 4 0.000000 0.000000 0.000000 -0.218236 0.000000 0.000000
# 5 0.000000 0.000000 0.000000 0.000000 0.013947 0.000000
# 6 0.000000 0.000000 0.000000 0.000000 0.000000 0.026560
#
#
# Mechanical properties :
#
#
# Convention : Reuss Voigt Hill
#
# Bulk Modulus (GPa) = 49.65248 52.42397 51.03822
# Shear Modulus (GPa) = -47.37341 32.98515 -7.19413
#
# Velocity S-wave (km/s) = -4.86348 4.05825 -1.89526
# Velocity P-wave (km/s) = 2.59741 6.93789 4.54906
#
# Compressibility (1/GPa) = 0.02013998
#
# Stress axis : x y z
#
# Youngs Moduli (GPa) = 103.22428 61.54708 59.27640
#
# Poissons Ratio (x) = 0.22918 0.13170
# Poissons Ratio (y) = 0.38438 0.31934
# Poissons Ratio (z) = 0.22934 0.33157
#
# Static dielectric constant tensor:
#      x y z
#    x 3.711330 0.000000 0.000000 
#    y 0.000000 3.354300 0.000000 
#    z 0.000000 0.000000 3.643990 
# 
# 
# High freq. dielectric constant tensor:
#      x y z
#    x 1.794230 0.000000 0.000000 
#    y 0.000000 1.777390 0.000000 
#    z 0.000000 0.000000 1.777720 
# 
# From -- ./inp_files/23152.got.cif
#   From: 2010.03.12/outbox.cif.g09.slc.cpg/sg46_12_cif.got.tgz:23152.got - 2010.04.14 02:56:35.
