data_PCOD8192035
_publ_section_title
;
Structure prediction by ZEFSAII (Michael W. Deem and Ramdas Pophale) SiO2 
 PCOD8192035
Probable space group: I M A 2
;
_chemical_formula_sum "Si O2"
_cell_formula_units_Z 28
_cell_length_a 37.180905
_cell_length_b 7.443151
_cell_length_c 4.940384
_cell_angle_alpha 90.000000
_cell_angle_beta 90.000000
_cell_angle_gamma 90.000000
_cell_volume 1367.217135
_symmetry_space_group_name_H-M "I M A 2"
_symmetry_group_IT_number 46
_symmetry_cell_setting 'orthorhombic'
loop_
_space_group_symop_operation_xyz
x,y,z
-x,-y,z
1/2-x,y,z
1/2+x,-y,z
1/2+x,1/2+y,1/2+z
1/2-x,1/2-y,1/2+z
-x,1/2+y,1/2+z
x,1/2-y,1/2+z
loop_
_atom_site_type_symbol
_atom_site_label
_atom_site_fract_x
_atom_site_fract_y
_atom_site_fract_z
Si Si1 0.175907 0.631573 0.963050
Si Si2 0.401616 0.625640 0.064144
Si Si3 0.967180 0.630204 0.970234
Si Si4 0.750000 0.372157 0.105553
O O1 0.176731 0.687723 0.649361
O O2 0.212622 0.519291 0.037905
O O3 0.138037 0.533329 0.028365
O O4 0.406749 0.706491 0.362197
O O5 0.429844 0.469699 0.016408
O O6 0.969529 0.696573 0.662623
O O7 0.000000 0.500000 0.036478
O O8 0.750000 0.193284 0.914404
#
# Coordination Sequence:
#
# PCOD8192035 Si02
#       4
#     8   8   8   4
#     4   8  14  23  40  64  94 125 157 197 241 281
#     4  10  19  34  53  76 103 133 166 206 250 295
#     4  12  24  39  57  78 102 132 166 206 250 300
#     4   8  12  20  34  60  92 122 154 194 238 278
#
# _framework density 20.479555000000001
#
# number of rings (size 3 to 8) (size 9 to 14) (size 15 to 20)
#    0.000    2.286    0.000    4.286    0.000    0.000 
#    0.000    0.000    0.000    0.000    0.000    2.000 
#    0.000    0.000    0.000    0.000    0.000    0.000 
#
# Total GULP energy -173453.370846 kJ/mol
# GULP energy per Si atom -12389.526489 kJ/mol
# Density = 2.043294 g / cm^3
# Si number density = 20.479555 Si / 1000 Ang^3
#
#
#
# Elastic Constant Matrix: (Units=GPa)
#
#
# Indices 1 2 3 4 5 6 
#
# 1 208.8154 43.5584 8.9830 -0.0018 -0.0010 -0.0003
# 2 43.5584 37.8224 3.2506 -0.0021 -0.0007 -0.0006
# 3 8.9830 3.2506 73.1216 -0.0023 -0.0013 -0.0004
# 4 -0.0018 -0.0021 -0.0023 25.8828 -0.0011 -0.0007
# 5 -0.0010 -0.0007 -0.0013 -0.0011 29.7734 -0.0017
# 6 -0.0003 -0.0006 -0.0004 -0.0007 -0.0017 20.4297
#
#
#
# Elastic Compliance Matrix: (Units=1/GPa)
#
#
# Indices 1 2 3 4 5 6 
#
# 1 0.006318 -0.007237 -0.000454 0.000000 0.000000 0.000000
# 2 -0.007237 0.034831 -0.000659 0.000002 0.000001 0.000001
# 3 -0.000454 -0.000659 0.013761 0.000001 0.000001 0.000000
# 4 0.000000 0.000002 0.000001 0.038636 0.000001 0.000001
# 5 0.000000 0.000001 0.000001 0.000001 0.033587 0.000003
# 6 0.000000 0.000001 0.000000 0.000001 0.000003 0.048948
#
#
# Mechanical properties :
#
#
# Convention : Reuss Voigt Hill
#
# Bulk Modulus (GPa) = 26.17258 47.92706 37.04982
# Shear Modulus (GPa) = 24.32863 32.81499 28.57181
#
# Velocity S-wave (km/s) = 3.45040 4.00725 3.73921
# Velocity P-wave (km/s) = 5.35549 6.69806 6.06404
#
# Compressibility (1/GPa) = 0.03820792
#
# Stress axis : x y z
#
# Youngs Moduli (GPa) = 158.27425 28.71018 72.66916
#
# Poissons Ratio (x) = 0.20778 0.03302
# Poissons Ratio (y) = 1.14547 0.04791
# Poissons Ratio (z) = 0.07193 0.01893
#
# Static dielectric constant tensor:
#      x y z
#    x 4.560850 0.000000 0.000000 
#    y 0.000000 2.830700 0.000000 
#    z 0.000000 0.000000 3.875020 
# 
# 
# High freq. dielectric constant tensor:
#      x y z
#    x 1.847130 0.000000 0.000000 
#    y 0.000000 1.695950 0.000000 
#    z 0.000000 0.000000 1.827290 
# 
# From -- ./inp_files/2656.got.cif
#   From: 2010.03.12/outbox.cif.g09.slc.cpg/sg46_2_cif.got.tgz:2656.got - 2010.04.14 02:56:35.
