data_PCOD8192133
_publ_section_title
;
Structure prediction by ZEFSAII (Michael W. Deem and Ramdas Pophale) SiO2 
 PCOD8192133
Probable space group: I M A 2
;
_chemical_formula_sum "Si O2"
_cell_formula_units_Z 64
_cell_length_a 9.015294
_cell_length_b 24.880324
_cell_length_c 14.835592
_cell_angle_alpha 90.000000
_cell_angle_beta 90.000000
_cell_angle_gamma 90.000000
_cell_volume 3327.674256
_symmetry_space_group_name_H-M "I M A 2"
_symmetry_group_IT_number 46
_symmetry_cell_setting 'orthorhombic'
loop_
_space_group_symop_operation_xyz
x,y,z
-x,-y,z
1/2-x,y,z
1/2+x,-y,z
1/2+x,1/2+y,1/2+z
1/2-x,1/2-y,1/2+z
-x,1/2+y,1/2+z
x,1/2-y,1/2+z
loop_
_atom_site_type_symbol
_atom_site_label
_atom_site_fract_x
_atom_site_fract_y
_atom_site_fract_z
Si Si1 0.923557 0.887478 0.435280
Si Si2 0.576919 0.135253 0.763243
Si Si3 0.577934 0.279860 0.946920
Si Si4 0.577735 0.555521 0.751004
Si Si5 0.420192 0.761142 0.654856
Si Si6 0.075533 0.329536 0.428620
Si Si7 0.924103 0.653493 0.632712
Si Si8 0.424574 0.942702 0.602762
O O1 0.750000 0.881174 0.456657
O O2 0.951704 0.929150 0.354601
O O3 0.990593 0.830285 0.405234
O O4 0.008908 0.907828 0.522592
O O5 0.750000 0.136942 0.786735
O O6 0.523657 0.190740 0.717626
O O7 0.482687 0.127448 0.855032
O O8 0.541145 0.085921 0.697375
O O9 0.750000 0.282789 0.919225
O O10 0.508135 0.225939 0.906239
O O11 0.554599 0.281033 0.053634
O O12 0.500000 0.500000 0.727106
O O13 0.750000 0.547782 0.731692
O O14 0.512699 0.601631 0.684987
O O15 0.250000 0.747623 0.673009
O O16 0.510018 0.707318 0.676765
O O17 0.250000 0.320607 0.420407
O O18 0.031858 0.351188 0.527535
O O19 0.750000 0.657594 0.646677
O O20 0.250000 0.948576 0.585543
O O21 0.500000 0.000000 0.605387
#
# Coordination Sequence:
#
# PCOD8192133 Si02
#       8
#     8   8   8   8   8   8   8   8
#     4  11  22  36  57  87 119 153 193 237 288 347
#     4  10  21  38  57  83 118 153 193 239 288 344
#     4  10  19  35  56  82 119 157 191 231 281 342
#     4  10  23  41  59  82 112 147 191 239 285 338
#     4   9  18  34  55  82 112 148 188 226 278 341
#     4  10  21  36  57  85 117 153 193 239 292 345
#     4   9  20  39  58  81 114 148 186 239 289 337
#     4  11  23  41  61  84 117 156 197 241 292 350
#
# _framework density 19.232651000000001
#
# number of rings (size 3 to 8) (size 9 to 14) (size 15 to 20)
#    0.000    2.000    1.250    1.875    1.750    5.000 
#    0.000    0.625    0.000    3.000    0.000    0.000 
#    0.000    0.000    0.000    0.000    0.000    0.000 
#
# Total GULP energy -396894.434898 kJ/mol
# GULP energy per Si atom -12402.951091 kJ/mol
# Density = 1.918888 g / cm^3
# Si number density = 19.232651 Si / 1000 Ang^3
#
#
#
# Elastic Constant Matrix: (Units=GPa)
#
#
# Indices 1 2 3 4 5 6 
#
# 1 76.5216 39.5040 28.2914 -0.0001 0.0000 0.0000
# 2 39.5040 91.0615 12.2010 0.0002 0.0000 0.0000
# 3 28.2914 12.2010 45.8448 0.0001 -0.0002 -0.0001
# 4 -0.0001 0.0002 0.0001 32.1400 0.0000 0.0000
# 5 0.0000 0.0000 -0.0002 0.0000 28.4295 0.0000
# 6 0.0000 0.0000 -0.0001 0.0000 0.0000 34.6561
#
#
#
# Elastic Compliance Matrix: (Units=1/GPa)
#
#
# Indices 1 2 3 4 5 6 
#
# 1 0.021088 -0.007679 -0.010970 0.000000 0.000000 0.000000
# 2 -0.007679 0.014184 0.000964 0.000000 0.000000 0.000000
# 3 -0.010970 0.000964 0.028326 0.000000 0.000000 0.000000
# 4 0.000000 0.000000 0.000000 0.031114 0.000000 0.000000
# 5 0.000000 0.000000 0.000000 0.000000 0.035175 0.000000
# 6 0.000000 0.000000 0.000000 0.000000 0.000000 0.028855
#
#
# Mechanical properties :
#
#
# Convention : Reuss Voigt Hill
#
# Bulk Modulus (GPa) = 35.42609 41.49117 38.45863
# Shear Modulus (GPa) = 24.56756 27.94055 26.25405
#
# Velocity S-wave (km/s) = 3.57793 3.81565 3.69870
# Velocity P-wave (km/s) = 5.96058 6.40565 6.18712
#
# Compressibility (1/GPa) = 0.02822778
#
# Stress axis : x y z
#
# Youngs Moduli (GPa) = 47.42014 70.50435 35.30318
#
# Poissons Ratio (x) = 0.54137 0.38728
# Poissons Ratio (y) = 0.36412 -0.03402
# Poissons Ratio (z) = 0.52021 -0.06795
#
# Static dielectric constant tensor:
#      x y z
#    x 3.478360 0.000000 0.000000 
#    y 0.000000 3.418860 0.000000 
#    z 0.000000 0.000000 3.591100 
# 
# 
# High freq. dielectric constant tensor:
#      x y z
#    x 1.749340 0.000000 0.000000 
#    y 0.000000 1.741540 0.000000 
#    z 0.000000 0.000000 1.752200 
# 
# From -- ./inp_files/14425.got.cif
#   From: 2010.03.12/outbox.cif.g09.slc.cpg/sg46_8_cif.got.tgz:14425.got - 2010.04.14 02:56:35.
