data_PCOD8192330
_publ_section_title
;
Structure prediction by ZEFSAII (Michael W. Deem and Ramdas Pophale) SiO2 
 PCOD8192330
Probable space group: I M A 2
;
_chemical_formula_sum "Si O2"
_cell_formula_units_Z 64
_cell_length_a 9.276554
_cell_length_b 24.810287
_cell_length_c 15.081770
_cell_angle_alpha 90.000000
_cell_angle_beta 90.000000
_cell_angle_gamma 90.000000
_cell_volume 3471.129197
_symmetry_space_group_name_H-M "I M A 2"
_symmetry_group_IT_number 46
_symmetry_cell_setting 'orthorhombic'
loop_
_space_group_symop_operation_xyz
x,y,z
-x,-y,z
1/2-x,y,z
1/2+x,-y,z
1/2+x,1/2+y,1/2+z
1/2-x,1/2-y,1/2+z
-x,1/2+y,1/2+z
x,1/2-y,1/2+z
loop_
_atom_site_type_symbol
_atom_site_label
_atom_site_fract_x
_atom_site_fract_y
_atom_site_fract_z
Si Si1 0.416275 0.782822 0.909690
Si Si2 0.586655 0.821788 0.388038
Si Si3 0.583452 0.260009 0.612800
Si Si4 0.581801 0.889099 0.883408
Si Si5 0.419181 0.055320 0.065603
Si Si6 0.914536 0.853276 0.199420
Si Si7 0.081603 0.153527 0.583767
Si Si8 0.917803 0.554162 0.201970
O O1 0.250000 0.784693 0.882085
O O2 0.484353 0.728922 0.869352
O O3 0.494659 0.834337 0.868507
O O4 0.438550 0.783201 0.014799
O O5 0.750000 0.799824 0.395358
O O6 0.571876 0.863226 0.305487
O O7 0.545352 0.852442 0.479026
O O8 0.750000 0.252146 0.636915
O O9 0.513551 0.302474 0.678719
O O10 0.505294 0.203055 0.625500
O O11 0.750000 0.874286 0.887344
O O12 0.545485 0.928277 0.802044
O O13 0.530684 0.918315 0.973162
O O14 0.250000 0.043668 0.064915
O O15 0.465981 0.094016 0.146561
O O16 0.500000 0.000000 0.081242
O O17 0.750000 0.839793 0.171849
O O18 0.250000 0.164122 0.601206
O O19 0.030175 0.099576 0.632772
O O20 0.750000 0.542651 0.190689
O O21 0.000000 0.500000 0.177707
#
# Coordination Sequence:
#
# PCOD8192330 Si02
#       8
#     8   8   8   8   8   8   8   8
#     4  10  20  33  51  80 114 145 176 215 269 323
#     4   9  19  35  56  77 106 146 184 223 265 319
#     4  10  20  33  52  81 113 143 175 218 270 323
#     4  10  20  35  54  78 108 145 182 218 265 324
#     4  10  21  36  55  77 106 142 182 225 269 321
#     4  10  20  35  55  79 107 145 186 221 265 322
#     4   9  19  37  57  78 106 142 184 227 269 320
#     4  10  22  38  57  80 106 140 185 229 272 322
#
# _framework density 18.437802999999999
#
# number of rings (size 3 to 8) (size 9 to 14) (size 15 to 20)
#    0.000    2.250    1.250    1.125    1.750    3.500 
#    0.000    0.625    0.000    0.000    0.000    0.000 
#    0.000    0.000    0.000    0.000    0.000    0.000 
#
# Total GULP energy -396875.272860 kJ/mol
# GULP energy per Si atom -12402.352277 kJ/mol
# Density = 1.839584 g / cm^3
# Si number density = 18.437803 Si / 1000 Ang^3
#
#
#
# Elastic Constant Matrix: (Units=GPa)
#
#
# Indices 1 2 3 4 5 6 
#
# 1 69.3327 58.8945 34.5270 0.0000 -0.0001 0.0000
# 2 58.8945 139.3734 67.1428 -0.0001 0.0000 0.0000
# 3 34.5270 67.1428 101.3539 -0.0004 -0.0002 0.0000
# 4 0.0000 -0.0001 -0.0004 25.6242 0.0000 0.0000
# 5 -0.0001 0.0000 -0.0002 0.0000 13.8392 0.0000
# 6 0.0000 0.0000 0.0000 0.0000 0.0000 36.9599
#
#
#
# Elastic Compliance Matrix: (Units=1/GPa)
#
#
# Indices 1 2 3 4 5 6 
#
# 1 0.022781 -0.008648 -0.002032 0.000000 0.000000 0.000000
# 2 -0.008648 0.013821 -0.006210 0.000000 0.000000 0.000000
# 3 -0.002032 -0.006210 0.014672 0.000000 0.000000 0.000000
# 4 0.000000 0.000000 0.000000 0.039026 0.000000 0.000000
# 5 0.000000 0.000000 0.000000 0.000000 0.072258 0.000000
# 6 0.000000 0.000000 0.000000 0.000000 0.000000 0.027056
#
#
# Mechanical properties :
#
#
# Convention : Reuss Voigt Hill
#
# Bulk Modulus (GPa) = 57.15774 70.13205 63.64489
# Shear Modulus (GPa) = 21.81273 25.25103 23.53188
#
# Velocity S-wave (km/s) = 3.44327 3.70472 3.57639
# Velocity P-wave (km/s) = 6.84659 7.51130 7.18663
#
# Compressibility (1/GPa) = 0.01749544
#
# Stress axis : x y z
#
# Youngs Moduli (GPa) = 43.89691 72.35534 68.15571
#
# Poissons Ratio (x) = 0.62570 0.13848
# Poissons Ratio (y) = 0.37960 0.42323
# Poissons Ratio (z) = 0.08919 0.44931
#
# Static dielectric constant tensor:
#      x y z
#    x 3.346040 0.000000 0.000000 
#    y 0.000000 3.194970 0.000000 
#    z 0.000000 0.000000 3.537250 
# 
# 
# High freq. dielectric constant tensor:
#      x y z
#    x 1.711740 0.000000 0.000000 
#    y 0.000000 1.699270 0.000000 
#    z 0.000000 0.000000 1.722620 
# 
# From -- ./inp_files/14445.got.cif
#   From: 2010.03.12/outbox.cif.g09.slc.cpg/sg46_8_cif.got.tgz:14445.got - 2010.04.14 02:56:35.
