data_PCOD8192857
_publ_section_title
;
Structure prediction by ZEFSAII (Michael W. Deem and Ramdas Pophale) SiO2 
 PCOD8192857
Probable space group: I M A 2
;
_chemical_formula_sum "Si O2"
_cell_formula_units_Z 56
_cell_length_a 16.996580
_cell_length_b 5.067803
_cell_length_c 32.475874
_cell_angle_alpha 90.000000
_cell_angle_beta 90.000000
_cell_angle_gamma 90.000000
_cell_volume 2797.319770
_symmetry_space_group_name_H-M "I M A 2"
_symmetry_group_IT_number 46
_symmetry_cell_setting 'orthorhombic'
loop_
_space_group_symop_operation_xyz
x,y,z
-x,-y,z
1/2-x,y,z
1/2+x,-y,z
1/2+x,1/2+y,1/2+z
1/2-x,1/2-y,1/2+z
-x,1/2+y,1/2+z
x,1/2-y,1/2+z
loop_
_atom_site_type_symbol
_atom_site_label
_atom_site_fract_x
_atom_site_fract_y
_atom_site_fract_z
Si Si1 0.342554 0.192581 0.171930
Si Si2 0.447401 0.743508 0.800729
Si Si3 0.052041 0.257464 0.095976
Si Si4 0.052706 0.243686 0.503574
Si Si5 0.657026 0.193642 0.722814
Si Si6 0.087745 0.905049 0.390845
Si Si7 0.658308 0.889507 0.930536
O O1 0.250000 0.193444 0.166990
O O2 0.374809 0.220219 0.126045
O O3 0.371457 0.427896 0.201036
O O4 0.373335 0.927874 0.193568
O O5 0.500000 0.500000 0.785349
O O6 0.380461 0.797190 0.767624
O O7 0.404432 0.672574 0.843244
O O8 0.500000 0.000000 0.807998
O O9 0.000000 0.500000 0.111889
O O10 0.084107 0.313639 0.049837
O O11 0.000000 0.000000 0.096600
O O12 0.127949 0.282671 0.474486
O O13 0.000000 0.500000 0.502972
O O14 0.000000 0.000000 0.487570
O O15 0.750000 0.207425 0.729121
O O16 0.110830 0.652662 0.418250
O O17 0.145457 0.153488 0.397874
O O18 0.000000 0.000000 0.402461
O O19 0.750000 0.959541 0.933589
#
# Coordination Sequence:
#
# PCOD8192857 Si02
#       7
#     8   8   8   8   8   8   8
#     4  10  21  37  56  80 113 151 185 224 283 342
#     4  11  23  39  60  86 111 145 194 238 279 334
#     4  10  21  36  57  85 111 144 191 235 276 329
#     4  10  21  38  59  82 114 153 188 229 288 346
#     4  10  22  38  56  81 114 150 184 226 286 342
#     4  11  23  42  62  84 118 158 193 235 294 352
#     4  12  24  38  61  92 118 149 197 243 286 341
#
# _framework density 20.019162999999999
#
# number of rings (size 3 to 8) (size 9 to 14) (size 15 to 20)
#    0.000    1.429    0.000    6.429    0.000    5.143 
#    0.000    1.429    0.000    8.571    0.000    0.000 
#    0.000    0.000    0.000    0.000    0.000    0.000 
#
# Total GULP energy -347311.155776 kJ/mol
# GULP energy per Si atom -12403.969849 kJ/mol
# Density = 1.997360 g / cm^3
# Si number density = 20.019163 Si / 1000 Ang^3
#
#
#
# Elastic Constant Matrix: (Units=GPa)
#
#
# Indices 1 2 3 4 5 6 
#
# 1 73.0856 33.1249 59.7691 0.0000 0.0000 0.0000
# 2 33.1249 116.9352 21.0283 0.0000 0.0000 0.0000
# 3 59.7691 21.0283 122.5033 0.0000 0.0000 0.0000
# 4 0.0000 0.0000 0.0000 37.7472 0.0000 0.0000
# 5 0.0000 0.0000 0.0000 0.0000 48.3864 0.0000
# 6 0.0000 0.0000 0.0000 0.0000 0.0000 20.7677
#
#
#
# Elastic Compliance Matrix: (Units=1/GPa)
#
#
# Indices 1 2 3 4 5 6 
#
# 1 0.025438 -0.005133 -0.011530 0.000000 0.000000 0.000000
# 2 -0.005133 0.009860 0.000812 0.000000 0.000000 0.000000
# 3 -0.011530 0.000812 0.013649 0.000000 0.000000 0.000000
# 4 0.000000 0.000000 0.000000 0.026492 0.000000 0.000000
# 5 0.000000 0.000000 0.000000 0.000000 0.020667 0.000000
# 6 0.000000 0.000000 0.000000 0.000000 0.000000 0.048152
#
#
# Mechanical properties :
#
#
# Convention : Reuss Voigt Hill
#
# Bulk Modulus (GPa) = 57.98772 60.04097 59.01434
# Shear Modulus (GPa) = 27.51663 34.62039 31.06851
#
# Velocity S-wave (km/s) = 3.71147 4.16307 3.94374
# Velocity P-wave (km/s) = 6.88445 7.29144 7.09086
#
# Compressibility (1/GPa) = 0.01724503
#
# Stress axis : x y z
#
# Youngs Moduli (GPa) = 39.31102 101.42288 73.26403
#
# Poissons Ratio (x) = 0.52056 0.84475
# Poissons Ratio (y) = 0.20177 -0.05947
# Poissons Ratio (z) = 0.45326 -0.08233
#
# Static dielectric constant tensor:
#      x y z
#    x 3.350890 0.000000 0.000000 
#    y 0.000000 4.055720 0.000000 
#    z 0.000000 0.000000 3.824060 
# 
# 
# High freq. dielectric constant tensor:
#      x y z
#    x 1.759920 0.000000 0.000000 
#    y 0.000000 1.807400 0.000000 
#    z 0.000000 0.000000 1.793110 
# 
# From -- ./inp_files/25384.got.cif
#   From: 2010.03.12/outbox.cif.g09.slc.cpg/sg46_13_cif.got.tgz:25384.got - 2010.04.14 02:56:35.
