data_PCOD8192539
_publ_section_title
;
Structure prediction by ZEFSAII (Michael W. Deem and Ramdas Pophale) SiO2 
 PCOD8192539
Probable space group: I M A 2
;
_chemical_formula_sum "Si O2"
_cell_formula_units_Z 56
_cell_length_a 20.443605
_cell_length_b 13.583398
_cell_length_c 9.873852
_cell_angle_alpha 90.000000
_cell_angle_beta 90.000000
_cell_angle_gamma 90.000000
_cell_volume 2741.905738
_symmetry_space_group_name_H-M "I M A 2"
_symmetry_group_IT_number 46
_symmetry_cell_setting 'orthorhombic'
loop_
_space_group_symop_operation_xyz
x,y,z
-x,-y,z
1/2-x,y,z
1/2+x,-y,z
1/2+x,1/2+y,1/2+z
1/2-x,1/2-y,1/2+z
-x,1/2+y,1/2+z
x,1/2-y,1/2+z
loop_
_atom_site_type_symbol
_atom_site_label
_atom_site_fract_x
_atom_site_fract_y
_atom_site_fract_z
Si Si1 0.324882 0.478965 0.858790
Si Si2 0.105846 0.760317 0.987165
Si Si3 0.827879 0.868009 0.902042
Si Si4 0.178484 0.687411 0.746017
Si Si5 0.570562 0.039218 0.861184
Si Si6 0.326720 0.294138 0.693754
Si Si7 0.934334 0.445455 0.043936
O O1 0.250000 0.461889 0.910149
O O2 0.327575 0.569893 0.755241
O O3 0.354688 0.386991 0.776685
O O4 0.370682 0.498065 0.987761
O O5 0.167722 0.738499 0.891248
O O6 0.070796 0.858430 0.940211
O O7 0.126640 0.770852 0.141812
O O8 0.058683 0.664752 0.982620
O O9 0.750000 0.893647 0.901433
O O10 0.849919 0.806930 0.767440
O O11 0.870106 0.967884 0.907333
O O12 0.845739 0.801333 0.034883
O O13 0.250000 0.717553 0.695097
O O14 0.575842 0.058625 0.703117
O O15 0.500000 0.000000 0.902342
O O16 0.250000 0.299962 0.709508
O O17 0.000000 0.500000 0.999377
#
# Coordination Sequence:
#
# PCOD8192539 Si02
#       7
#     8   8   8   8   8   8   8
#     4   9  19  36  61  91 124 161 210 260 308 372
#     4  11  21  42  62  90 125 166 206 257 314 379
#     4  10  22  40  65  97 130 170 212 263 318 374
#     4  10  20  35  61  94 126 160 204 256 313 371
#     4  11  25  44  62  93 129 165 214 262 315 380
#     4   9  19  37  61  94 131 163 208 262 315 373
#     4  10  23  42  64  89 126 165 209 262 321 377
#
# _framework density 20.423750999999999
#
# number of rings (size 3 to 8) (size 9 to 14) (size 15 to 20)
#    0.000    2.000    1.429    1.286    2.000    4.571 
#    2.571    6.429    0.000    0.000    0.000    0.000 
#    0.000    0.000    0.000    0.000    0.000    0.000 
#
# Total GULP energy -347106.273846 kJ/mol
# GULP energy per Si atom -12396.652637 kJ/mol
# Density = 2.037727 g / cm^3
# Si number density = 20.423751 Si / 1000 Ang^3
#
#
#
# Elastic Constant Matrix: (Units=GPa)
#
#
# Indices 1 2 3 4 5 6 
#
# 1 101.1510 51.4360 42.4957 0.0000 0.0000 0.0000
# 2 51.4360 118.8337 41.5181 0.0000 0.0000 0.0000
# 3 42.4957 41.5181 88.3954 0.0000 0.0000 0.0000
# 4 0.0000 0.0000 0.0000 30.8374 0.0000 0.0000
# 5 0.0000 0.0000 0.0000 0.0000 18.0311 0.0000
# 6 0.0000 0.0000 0.0000 0.0000 0.0000 20.4252
#
#
#
# Elastic Compliance Matrix: (Units=1/GPa)
#
#
# Indices 1 2 3 4 5 6 
#
# 1 0.014135 -0.004479 -0.004692 0.000000 0.000000 0.000000
# 2 -0.004479 0.011486 -0.003242 0.000000 0.000000 0.000000
# 3 -0.004692 -0.003242 0.015091 0.000000 0.000000 0.000000
# 4 0.000000 0.000000 0.000000 0.032428 0.000000 0.000000
# 5 0.000000 0.000000 0.000000 0.000000 0.055460 0.000000
# 6 0.000000 0.000000 0.000000 0.000000 0.000000 0.048959
#
#
# Mechanical properties :
#
#
# Convention : Reuss Voigt Hill
#
# Bulk Modulus (GPa) = 62.94247 64.36441 63.65344
# Shear Modulus (GPa) = 24.07559 25.38745 24.73152
#
# Velocity S-wave (km/s) = 3.43710 3.52950 3.48360
# Velocity P-wave (km/s) = 6.82911 6.94210 6.88583
#
# Compressibility (1/GPa) = 0.01588752
#
# Stress axis : x y z
#
# Youngs Moduli (GPa) = 70.74729 87.05943 66.26537
#
# Poissons Ratio (x) = 0.38994 0.31089
# Poissons Ratio (y) = 0.31688 0.21482
# Poissons Ratio (z) = 0.33191 0.28223
#
# Static dielectric constant tensor:
#      x y z
#    x 3.477230 0.000000 0.000000 
#    y 0.000000 3.941800 0.000000 
#    z 0.000000 0.000000 3.731070 
# 
# 
# High freq. dielectric constant tensor:
#      x y z
#    x 1.772360 0.000000 0.000000 
#    y 0.000000 1.810140 0.000000 
#    z 0.000000 0.000000 1.803480 
# 
# From -- ./inp_files/7411.got.cif
#   From: 2010.03.12/outbox.cif.g09.slc.cpg/sg46_4_cif.got.tgz:7411.got - 2010.04.14 02:56:35.
