data_PCOD8192373
_publ_section_title
;
Structure prediction by ZEFSAII (Michael W. Deem and Ramdas Pophale) SiO2 
 PCOD8192373
Probable space group: I M A 2
;
_chemical_formula_sum "Si O2"
_cell_formula_units_Z 56
_cell_length_a 9.221218
_cell_length_b 19.886090
_cell_length_c 14.607363
_cell_angle_alpha 90.000000
_cell_angle_beta 90.000000
_cell_angle_gamma 90.000000
_cell_volume 2678.610160
_symmetry_space_group_name_H-M "I M A 2"
_symmetry_group_IT_number 46
_symmetry_cell_setting 'orthorhombic'
loop_
_space_group_symop_operation_xyz
x,y,z
-x,-y,z
1/2-x,y,z
1/2+x,-y,z
1/2+x,1/2+y,1/2+z
1/2-x,1/2-y,1/2+z
-x,1/2+y,1/2+z
x,1/2-y,1/2+z
loop_
_atom_site_type_symbol
_atom_site_label
_atom_site_fract_x
_atom_site_fract_y
_atom_site_fract_z
Si Si1 0.418060 0.171249 0.985530
Si Si2 0.577298 0.072151 0.853213
Si Si3 0.584699 0.186100 0.708804
Si Si4 0.092964 0.942388 0.237765
Si Si5 0.082725 0.697188 0.995749
Si Si6 0.083764 0.316437 0.701624
Si Si7 0.594536 0.443416 0.943132
O O1 0.250000 0.167152 0.955713
O O2 0.507522 0.109831 0.940984
O O3 0.486653 0.242368 0.955353
O O4 0.436504 0.169570 0.094225
O O5 0.750000 0.062287 0.868549
O O6 0.545557 0.117690 0.763155
O O7 0.500000 0.000000 0.840195
O O8 0.750000 0.207330 0.730257
O O9 0.558849 0.177648 0.601352
O O10 0.478416 0.246090 0.739202
O O11 0.250000 0.933100 0.188477
O O12 0.120433 0.968630 0.340132
O O13 0.007987 0.873682 0.249529
O O14 0.000000 0.000000 0.184518
O O15 0.250000 0.715434 0.975029
O O16 0.025689 0.630937 0.943530
O O17 0.250000 0.320802 0.731227
O O18 0.500000 0.500000 0.995254
O O19 0.750000 0.439193 0.994767
#
# Coordination Sequence:
#
# PCOD8192373 Si02
#       7
#     8   8   8   8   8   8   8
#     4  10  22  39  58  84 113 145 189 236 285 341
#     4  11  24  41  61  86 117 154 196 241 292 347
#     4   9  20  38  59  83 112 148 189 231 280 339
#     4  10  20  34  52  78 112 147 185 225 272 329
#     4   9  18  36  59  83 113 149 188 231 280 335
#     4  10  21  37  58  84 113 146 187 235 286 339
#     4   9  19  33  51  78 111 145 181 221 267 324
#
# _framework density 20.906364
#
# number of rings (size 3 to 8) (size 9 to 14) (size 15 to 20)
#    0.000    2.286    0.000    1.714    2.000    5.143 
#    0.000    0.000    0.000    0.000    0.000    0.000 
#    0.000    0.000    0.000    0.000    0.000    0.000 
#
# Total GULP energy -347007.661421 kJ/mol
# GULP energy per Si atom -12393.130765 kJ/mol
# Density = 2.085878 g / cm^3
# Si number density = 20.906364 Si / 1000 Ang^3
#
#
#
# Elastic Constant Matrix: (Units=GPa)
#
#
# Indices 1 2 3 4 5 6 
#
# 1 160.6605 97.2820 29.7961 0.0000 0.0000 0.0000
# 2 97.2820 174.8740 24.9552 0.0000 0.0000 0.0000
# 3 29.7961 24.9552 34.2641 0.0000 0.0000 0.0000
# 4 0.0000 0.0000 0.0000 21.8099 0.0000 0.0000
# 5 0.0000 0.0000 0.0000 0.0000 20.2438 0.0000
# 6 0.0000 0.0000 0.0000 0.0000 0.0000 46.6359
#
#
#
# Elastic Compliance Matrix: (Units=1/GPa)
#
#
# Indices 1 2 3 4 5 6 
#
# 1 0.010174 -0.004907 -0.005273 0.000000 0.000000 0.000000
# 2 -0.004907 0.008748 -0.002105 0.000000 0.000000 0.000000
# 3 -0.005273 -0.002105 0.035303 0.000000 0.000000 0.000000
# 4 0.000000 0.000000 0.000000 0.045851 0.000000 0.000000
# 5 0.000000 0.000000 0.000000 0.000000 0.049398 0.000000
# 6 0.000000 0.000000 0.000000 0.000000 0.000000 0.021443
#
#
# Mechanical properties :
#
#
# Convention : Reuss Voigt Hill
#
# Bulk Modulus (GPa) = 33.71989 74.87391 54.29690
# Shear Modulus (GPa) = 24.34619 32.25562 28.30091
#
# Velocity S-wave (km/s) = 3.41623 3.93219 3.68326
# Velocity P-wave (km/s) = 5.63248 7.51717 6.64201
#
# Compressibility (1/GPa) = 0.02965609
#
# Stress axis : x y z
#
# Youngs Moduli (GPa) = 98.29455 114.30546 28.32601
#
# Poissons Ratio (x) = 0.56090 0.14936
# Poissons Ratio (y) = 0.48233 0.05961
# Poissons Ratio (z) = 0.51831 0.24056
#
# Static dielectric constant tensor:
#      x y z
#    x 4.160650 0.000000 0.000000 
#    y 0.000000 3.822750 0.000000 
#    z 0.000000 0.000000 3.529300 
# 
# 
# High freq. dielectric constant tensor:
#      x y z
#    x 1.826370 0.000000 0.000000 
#    y 0.000000 1.825080 0.000000 
#    z 0.000000 0.000000 1.794850 
# 
# From -- ./inp_files/14164.got.cif
#   From: 2010.03.12/outbox.cif.g09.slc.cpg/sg46_8_cif.got.tgz:14164.got - 2010.04.14 02:56:35.
