data_PCOD8192432
_publ_section_title
;
Structure prediction by ZEFSAII (Michael W. Deem and Ramdas Pophale) SiO2 
 PCOD8192432
Probable space group: I M A 2
;
_chemical_formula_sum "Si O2"
_cell_formula_units_Z 64
_cell_length_a 8.808948
_cell_length_b 32.483373
_cell_length_c 11.521182
_cell_angle_alpha 90.000000
_cell_angle_beta 90.000000
_cell_angle_gamma 90.000000
_cell_volume 3296.721061
_symmetry_space_group_name_H-M "I M A 2"
_symmetry_group_IT_number 46
_symmetry_cell_setting 'orthorhombic'
loop_
_space_group_symop_operation_xyz
x,y,z
-x,-y,z
1/2-x,y,z
1/2+x,-y,z
1/2+x,1/2+y,1/2+z
1/2-x,1/2-y,1/2+z
-x,1/2+y,1/2+z
x,1/2-y,1/2+z
loop_
_atom_site_type_symbol
_atom_site_label
_atom_site_fract_x
_atom_site_fract_y
_atom_site_fract_z
Si Si1 0.418403 0.896849 0.376820
Si Si2 0.929385 0.123067 0.823935
Si Si3 0.574960 0.724369 0.937445
Si Si4 0.928110 0.957032 0.198163
Si Si5 0.571377 0.643964 0.080656
Si Si6 0.583316 0.185490 0.238141
Si Si7 0.573891 0.816366 0.004822
Si Si8 0.429311 0.043791 0.932907
O O1 0.250000 0.915243 0.401397
O O2 0.509025 0.923878 0.286016
O O3 0.512407 0.892452 0.496145
O O4 0.401222 0.852242 0.323872
O O5 0.750000 0.117563 0.822767
O O6 0.986109 0.139839 0.701573
O O7 0.003597 0.078952 0.850763
O O8 0.974122 0.156632 0.919115
O O9 0.750000 0.719907 0.903922
O O10 0.530708 0.689052 0.029847
O O11 0.536973 0.768286 0.992047
O O12 0.484792 0.722194 0.816004
O O13 0.750000 0.960318 0.212743
O O14 0.972372 0.945279 0.066077
O O15 0.000000 0.000000 0.234014
O O16 0.750000 0.638561 0.099754
O O17 0.750000 0.198252 0.190352
O O18 0.471105 0.172424 0.135450
O O19 0.750000 0.826854 0.983644
O O20 0.250000 0.041356 0.915290
O O21 0.500000 0.000000 0.896869
#
# Coordination Sequence:
#
# PCOD8192432 Si02
#       8
#     8   8   8   8   8   8   8   8
#     4  10  20  36  57  82 114 149 187 233 286 344
#     4  12  25  40  59  88 121 158 201 249 300 358
#     4   9  21  39  59  81 110 151 195 240 292 351
#     4  10  20  34  57  88 119 151 189 235 290 346
#     4  10  21  40  62  83 112 154 200 245 295 355
#     4  10  21  36  56  83 112 144 184 234 289 342
#     4  11  23  38  58  84 115 153 197 244 292 349
#     4  10  21  39  63  91 123 160 199 246 299 357
#
# _framework density 19.413226999999999
#
# number of rings (size 3 to 8) (size 9 to 14) (size 15 to 20)
#    0.000    1.750    0.000    4.125    1.750    6.500 
#    0.000    0.625    0.000    0.000    0.000    0.000 
#    0.000    0.000    0.000    0.000    0.000    0.000 
#
# Total GULP energy -396864.560719 kJ/mol
# GULP energy per Si atom -12402.017522 kJ/mol
# Density = 1.936904 g / cm^3
# Si number density = 19.413227 Si / 1000 Ang^3
#
#
#
# Elastic Constant Matrix: (Units=GPa)
#
#
# Indices 1 2 3 4 5 6 
#
# 1 101.3522 44.9275 40.5471 -0.0006 0.0005 -0.0002
# 2 44.9275 83.1405 36.5544 0.0079 0.0028 0.0009
# 3 40.5471 36.5544 99.8828 0.0111 0.0072 0.0016
# 4 -0.0006 0.0079 0.0111 16.8818 0.0046 0.0013
# 5 0.0005 0.0028 0.0072 0.0046 28.8019 0.0018
# 6 -0.0002 0.0009 0.0016 0.0013 0.0018 33.3192
#
#
#
# Elastic Compliance Matrix: (Units=1/GPa)
#
#
# Indices 1 2 3 4 5 6 
#
# 1 0.013905 -0.005997 -0.003450 0.000006 0.000001 0.000000
# 2 -0.005997 0.016921 -0.003758 -0.000006 -0.000001 0.000000
# 3 -0.003450 -0.003758 0.012788 -0.000007 -0.000003 -0.000001
# 4 0.000006 -0.000006 -0.000007 0.059235 -0.000009 -0.000002
# 5 0.000001 -0.000001 -0.000003 -0.000009 0.034720 -0.000002
# 6 0.000000 0.000000 -0.000001 -0.000002 -0.000002 0.030013
#
#
# Mechanical properties :
#
#
# Convention : Reuss Voigt Hill
#
# Bulk Modulus (GPa) = 58.12860 58.71484 58.42172
# Shear Modulus (GPa) = 25.03419 26.62367 25.82893
#
# Velocity S-wave (km/s) = 3.59492 3.70729 3.65153
# Velocity P-wave (km/s) = 6.87306 6.97393 6.92368
#
# Compressibility (1/GPa) = 0.01720324
#
# Stress axis : x y z
#
# Youngs Moduli (GPa) = 71.91523 59.09836 78.20091
#
# Poissons Ratio (x) = 0.35443 0.26979
# Poissons Ratio (y) = 0.43130 0.29388
# Poissons Ratio (z) = 0.24810 0.22209
#
# Static dielectric constant tensor:
#      x y z
#    x 3.831360 0.000000 0.000000 
#    y 0.000000 3.544310 0.000000 
#    z 0.000000 0.000000 3.528770 
# 
# 
# High freq. dielectric constant tensor:
#      x y z
#    x 1.772320 0.000000 0.000000 
#    y 0.000000 1.750610 0.000000 
#    z 0.000000 0.000000 1.754030 
# 
# From -- ./inp_files/9738.got.cif
#   From: 2010.03.12/outbox.cif.g09.slc.cpg/sg46_5_cif.got.tgz:9738.got - 2010.04.14 02:56:35.
