data_PCOD8192545
_publ_section_title
;
Structure prediction by ZEFSAII (Michael W. Deem and Ramdas Pophale) SiO2 
 PCOD8192545
Probable space group: I M A 2
;
_chemical_formula_sum "Si O2"
_cell_formula_units_Z 48
_cell_length_a 8.479633
_cell_length_b 9.480629
_cell_length_c 31.091340
_cell_angle_alpha 90.000000
_cell_angle_beta 90.000000
_cell_angle_gamma 90.000000
_cell_volume 2499.502919
_symmetry_space_group_name_H-M "I M A 2"
_symmetry_group_IT_number 46
_symmetry_cell_setting 'orthorhombic'
loop_
_space_group_symop_operation_xyz
x,y,z
-x,-y,z
1/2-x,y,z
1/2+x,-y,z
1/2+x,1/2+y,1/2+z
1/2-x,1/2-y,1/2+z
-x,1/2+y,1/2+z
x,1/2-y,1/2+z
loop_
_atom_site_type_symbol
_atom_site_label
_atom_site_fract_x
_atom_site_fract_y
_atom_site_fract_z
Si Si1 0.562984 0.153558 0.297210
Si Si2 0.435393 0.340901 0.554500
Si Si3 0.065279 0.844850 0.873327
Si Si4 0.564392 0.156889 0.630670
Si Si5 0.435613 0.154135 0.205696
Si Si6 0.935143 0.155593 0.967033
O O1 0.750000 0.152614 0.296395
O O2 0.493093 0.250594 0.335243
O O3 0.501441 0.207843 0.251301
O O4 0.500000 0.000000 0.307169
O O5 0.500000 0.500000 0.557564
O O6 0.250000 0.339011 0.563801
O O7 0.524720 0.244433 0.588292
O O8 0.473427 0.273921 0.507288
O O9 0.250000 0.856252 0.867443
O O10 0.028116 0.774073 0.920378
O O11 0.000000 0.000000 0.868658
O O12 0.750000 0.153310 0.638025
O O13 0.483128 0.230276 0.671101
O O14 0.500000 0.000000 0.625416
O O15 0.250000 0.141071 0.208583
O O16 0.500000 0.000000 0.192801
O O17 0.750000 0.154206 0.977621
O O18 0.000000 0.000000 0.962348
#
# Coordination Sequence:
#
# PCOD8192545 Si02
#       6
#     8   8   8   8   8   8
#     4  10  20  36  55  80 110 144 183 227 272 323
#     4  11  21  36  58  85 112 146 187 229 272 323
#     4   9  19  33  53  79 110 143 182 227 274 323
#     4  12  25  42  60  83 113 145 179 224 276 331
#     4  11  22  39  61  85 110 144 185 228 272 324
#     4   9  16  30  51  78 108 142 182 229 273 318
#
# _framework density 19.203817999999998
#
# number of rings (size 3 to 8) (size 9 to 14) (size 15 to 20)
#    0.000    1.667    0.000    8.000    0.000    2.667 
#    0.000    2.500    0.000    2.000    0.000    0.000 
#    0.000    0.000    0.000    0.000    0.000    0.000 
#
# Total GULP energy -297517.568102 kJ/mol
# GULP energy per Si atom -12396.565338 kJ/mol
# Density = 1.916011 g / cm^3
# Si number density = 19.203818 Si / 1000 Ang^3
#
#
#
# Elastic Constant Matrix: (Units=GPa)
#
#
# Indices 1 2 3 4 5 6 
#
# 1 70.5729 6.2362 13.1918 0.0000 0.0000 0.0000
# 2 6.2362 73.6245 63.1157 0.0000 0.0000 0.0000
# 3 13.1918 63.1157 154.5726 0.0000 0.0000 0.0000
# 4 0.0000 0.0000 0.0000 32.9400 0.0000 0.0000
# 5 0.0000 0.0000 0.0000 0.0000 30.3911 0.0000
# 6 0.0000 0.0000 0.0000 0.0000 0.0000 28.6400
#
#
#
# Elastic Compliance Matrix: (Units=1/GPa)
#
#
# Indices 1 2 3 4 5 6 
#
# 1 0.014403 -0.000256 -0.001125 0.000000 0.000000 0.000000
# 2 -0.000256 0.020902 -0.008513 0.000000 0.000000 0.000000
# 3 -0.001125 -0.008513 0.010041 0.000000 0.000000 0.000000
# 4 0.000000 0.000000 0.000000 0.030358 0.000000 0.000000
# 5 0.000000 0.000000 0.000000 0.000000 0.032904 0.000000
# 6 0.000000 0.000000 0.000000 0.000000 0.000000 0.034916
#
#
# Mechanical properties :
#
#
# Convention : Reuss Voigt Hill
#
# Bulk Modulus (GPa) = 39.12490 51.53971 45.33230
# Shear Modulus (GPa) = 29.09829 32.80930 30.95380
#
# Velocity S-wave (km/s) = 3.89682 4.13786 4.01915
# Velocity P-wave (km/s) = 6.37689 7.05164 6.72274
#
# Compressibility (1/GPa) = 0.02555917
#
# Stress axis : x y z
#
# Youngs Moduli (GPa) = 69.43196 47.84248 99.58694
#
# Poissons Ratio (x) = 0.01223 0.11201
# Poissons Ratio (y) = 0.01776 0.84778
# Poissons Ratio (z) = 0.07809 0.40728
#
# Static dielectric constant tensor:
#      x y z
#    x 3.644760 0.000000 0.000000 
#    y 0.000000 3.251220 0.000000 
#    z 0.000000 0.000000 4.319350 
# 
# 
# High freq. dielectric constant tensor:
#      x y z
#    x 1.762940 0.000000 0.000000 
#    y 0.000000 1.715920 0.000000 
#    z 0.000000 0.000000 1.773790 
# 
# From -- ./inp_files/25015.got.cif
#   From: 2010.03.12/outbox.cif.g09.slc.cpg/sg46_13_cif.got.tgz:25015.got - 2010.04.14 02:56:35.
