data_PCOD8192910
_publ_section_title
;
Structure prediction by ZEFSAII (Michael W. Deem and Ramdas Pophale) SiO2 
 PCOD8192910
Probable space group: I M A 2
;
_chemical_formula_sum "Si O2"
_cell_formula_units_Z 56
_cell_length_a 13.956144
_cell_length_b 21.634600
_cell_length_c 9.566040
_cell_angle_alpha 90.000000
_cell_angle_beta 90.000000
_cell_angle_gamma 90.000000
_cell_volume 2888.327960
_symmetry_space_group_name_H-M "I M A 2"
_symmetry_group_IT_number 46
_symmetry_cell_setting 'orthorhombic'
loop_
_space_group_symop_operation_xyz
x,y,z
-x,-y,z
1/2-x,y,z
1/2+x,-y,z
1/2+x,1/2+y,1/2+z
1/2-x,1/2-y,1/2+z
-x,1/2+y,1/2+z
x,1/2-y,1/2+z
loop_
_atom_site_type_symbol
_atom_site_label
_atom_site_fract_x
_atom_site_fract_y
_atom_site_fract_z
Si Si1 0.136762 0.498967 0.099090
Si Si2 0.999893 0.896896 0.668742
Si Si3 0.009667 0.825192 0.954545
Si Si4 0.637658 0.986012 0.283491
Si Si5 0.505510 0.315173 0.899538
Si Si6 0.863437 0.853572 0.178824
Si Si7 0.363810 0.882135 0.186070
O O1 0.250000 0.497175 0.117814
O O2 0.098853 0.565104 0.152197
O O3 0.089526 0.443680 0.188082
O O4 0.098561 0.488717 0.941241
O O5 0.006112 0.854708 0.803452
O O6 0.981275 0.853052 0.537614
O O7 0.034999 0.753503 0.941803
O O8 0.094742 0.856736 0.041747
O O9 0.906894 0.833424 0.030391
O O10 0.750000 0.985437 0.295524
O O11 0.603267 0.924400 0.204949
O O12 0.603060 0.046194 0.198952
O O13 0.410334 0.313031 0.802526
O O14 0.594991 0.344565 0.817452
O O15 0.750000 0.843518 0.178211
O O16 0.250000 0.875142 0.187181
#
# Coordination Sequence:
#
# PCOD8192910 Si02
#       7
#     8   8   8   8   8   8   8
#     4  10  21  37  61  92 119 150 198 248 300 356
#     4  11  22  37  62  91 121 157 188 246 311 345
#     4  11  26  40  55  90 131 158 194 239 295 361
#     4   9  17  35  64  91 109 143 203 250 287 347
#     4  11  22  41  63  85 118 160 208 241 278 353
#     4  10  22  41  66  89 115 156 201 248 297 347
#     4  10  22  41  66  89 115 156 201 248 297 347
#
# _framework density 19.388379
#
# number of rings (size 3 to 8) (size 9 to 14) (size 15 to 20)
#    0.000    1.714    2.857    1.714    0.000    6.857 
#    0.000    4.286    0.000    0.000    0.000    0.000 
#    0.000    0.000    0.000    0.000    0.000    0.000 
#
# Total GULP energy -347234.381019 kJ/mol
# GULP energy per Si atom -12401.227894 kJ/mol
# Density = 1.934425 g / cm^3
# Si number density = 19.388379 Si / 1000 Ang^3
#
#
#
# Elastic Constant Matrix: (Units=GPa)
#
#
# Indices 1 2 3 4 5 6 
#
# 1 82.8051 7.8604 20.0468 0.0016 -0.0001 0.0000
# 2 7.8604 90.1885 11.6664 -0.0006 -0.0001 0.0000
# 3 20.0468 11.6664 74.8757 -0.0027 -0.0004 -0.0002
# 4 0.0016 -0.0006 -0.0027 48.3276 -0.0004 -0.0003
# 5 -0.0001 -0.0001 -0.0004 -0.0004 24.8054 0.0000
# 6 0.0000 0.0000 -0.0002 -0.0003 0.0000 22.9637
#
#
#
# Elastic Compliance Matrix: (Units=1/GPa)
#
#
# Indices 1 2 3 4 5 6 
#
# 1 0.012956 -0.000694 -0.003361 -0.000001 0.000000 0.000000
# 2 -0.000694 0.011353 -0.001583 0.000000 0.000000 0.000000
# 3 -0.003361 -0.001583 0.014502 0.000001 0.000000 0.000000
# 4 -0.000001 0.000000 0.000001 0.020692 0.000000 0.000000
# 5 0.000000 0.000000 0.000000 0.000000 0.040314 0.000000
# 6 0.000000 0.000000 0.000000 0.000000 0.000000 0.043547
#
#
# Mechanical properties :
#
#
# Convention : Reuss Voigt Hill
#
# Bulk Modulus (GPa) = 36.31743 36.33516 36.32629
# Shear Modulus (GPa) = 30.52158 33.10572 31.81365
#
# Velocity S-wave (km/s) = 3.97195 4.13668 4.05515
# Velocity P-wave (km/s) = 6.30931 6.44961 6.37985
#
# Compressibility (1/GPa) = 0.02753499
#
# Stress axis : x y z
#
# Youngs Moduli (GPa) = 77.18395 88.08104 68.95671
#
# Poissons Ratio (x) = 0.06117 0.23173
# Poissons Ratio (y) = 0.05360 0.10916
# Poissons Ratio (z) = 0.25938 0.13943
#
# Static dielectric constant tensor:
#      x y z
#    x 3.496740 0.000000 0.000000 
#    y 0.000000 3.744690 0.000000 
#    z 0.000000 0.000000 3.537580 
# 
# 
# High freq. dielectric constant tensor:
#      x y z
#    x 1.758420 0.000000 0.000000 
#    y 0.000000 1.764490 0.000000 
#    z 0.000000 0.000000 1.749390 
# 
# From -- ./inp_files/5945.got.cif
#   From: 2010.03.12/outbox.cif.g09.slc.cpg/sg46_3_cif.got.tgz:5945.got - 2010.04.14 02:56:35.
