data_PCOD8192671
_publ_section_title
;
Structure prediction by ZEFSAII (Michael W. Deem and Ramdas Pophale) SiO2 
 PCOD8192671
Probable space group: I M A 2
;
_chemical_formula_sum "Si O2"
_cell_formula_units_Z 48
_cell_length_a 15.407303
_cell_length_b 8.711051
_cell_length_c 18.759807
_cell_angle_alpha 90.000000
_cell_angle_beta 90.000000
_cell_angle_gamma 90.000000
_cell_volume 2517.825026
_symmetry_space_group_name_H-M "I M A 2"
_symmetry_group_IT_number 46
_symmetry_cell_setting 'orthorhombic'
loop_
_space_group_symop_operation_xyz
x,y,z
-x,-y,z
1/2-x,y,z
1/2+x,-y,z
1/2+x,1/2+y,1/2+z
1/2-x,1/2-y,1/2+z
-x,1/2+y,1/2+z
x,1/2-y,1/2+z
loop_
_atom_site_type_symbol
_atom_site_label
_atom_site_fract_x
_atom_site_fract_y
_atom_site_fract_z
Si Si1 0.006483 0.320334 0.623090
Si Si2 0.155233 0.305338 0.031394
Si Si3 0.083736 0.891184 0.518126
Si Si4 0.650059 0.811965 0.368518
Si Si5 0.149055 0.829810 0.368437
Si Si6 0.501689 0.320562 0.276952
O O1 0.930938 0.234667 0.579198
O O2 0.001778 0.273335 0.704491
O O3 0.000000 0.500000 0.615429
O O4 0.098136 0.277256 0.589726
O O5 0.250000 0.237076 0.043061
O O6 0.157846 0.490132 0.043658
O O7 0.124078 0.275929 0.950199
O O8 0.114309 0.799840 0.448195
O O9 0.000000 0.000000 0.503530
O O10 0.750000 0.763940 0.353722
O O11 0.585006 0.714447 0.321046
O O12 0.637505 0.991041 0.350154
O O13 0.250000 0.779975 0.361386
O O14 0.090324 0.726844 0.316623
O O15 0.500000 0.500000 0.259802
#
# Coordination Sequence:
#
# PCOD8192671 Si02
#       6
#     8   8   8   8   8   8
#     4  11  23  38  56  79 111 151 188 227 278 330
#     4   9  18  36  60  86 112 142 181 226 274 331
#     4   9  17  34  60  86 112 145 182 221 273 332
#     4   9  19  37  63  88 113 146 184 225 276 333
#     4  10  20  37  61  87 112 145 185 228 277 333
#     4  12  24  38  56  80 115 153 188 231 279 329
#
# _framework density 19.064074000000002
#
# number of rings (size 3 to 8) (size 9 to 14) (size 15 to 20)
#    0.000    2.000    0.000    7.500    0.000    4.000 
#    0.000    7.500    0.000    0.000    0.000    0.000 
#    0.000    0.000    0.000    0.000    0.000    0.000 
#
# Total GULP energy -297526.312736 kJ/mol
# GULP energy per Si atom -12396.929697 kJ/mol
# Density = 1.902068 g / cm^3
# Si number density = 19.064074 Si / 1000 Ang^3
#
#
#
# Elastic Constant Matrix: (Units=GPa)
#
#
# Indices 1 2 3 4 5 6 
#
# 1 87.0645 17.5106 50.6407 0.0000 0.0000 0.0000
# 2 17.5106 73.5024 43.2630 0.0000 0.0000 0.0000
# 3 50.6407 43.2630 116.4427 0.0000 0.0000 0.0000
# 4 0.0000 0.0000 0.0000 35.2710 0.0000 0.0000
# 5 0.0000 0.0000 0.0000 0.0000 13.8984 0.0000
# 6 0.0000 0.0000 0.0000 0.0000 0.0000 19.7087
#
#
#
# Elastic Compliance Matrix: (Units=1/GPa)
#
#
# Indices 1 2 3 4 5 6 
#
# 1 0.015382 0.000349 -0.006819 0.000000 0.000000 0.000000
# 2 0.000349 0.017421 -0.006624 0.000000 0.000000 0.000000
# 3 -0.006819 -0.006624 0.014015 0.000000 0.000000 0.000000
# 4 0.000000 0.000000 0.000000 0.028352 0.000000 0.000000
# 5 0.000000 0.000000 0.000000 0.000000 0.071951 0.000000
# 6 0.000000 0.000000 0.000000 0.000000 0.000000 0.050739
#
#
# Mechanical properties :
#
#
# Convention : Reuss Voigt Hill
#
# Bulk Modulus (GPa) = 48.47602 55.53756 52.00679
# Shear Modulus (GPa) = 21.65208 24.81532 23.23370
#
# Velocity S-wave (km/s) = 3.37375 3.61179 3.49480
# Velocity P-wave (km/s) = 6.37647 6.82559 6.60485
#
# Compressibility (1/GPa) = 0.02062875
#
# Stress axis : x y z
#
# Youngs Moduli (GPa) = 65.01141 57.40237 71.35264
#
# Poissons Ratio (x) = -0.02006 0.48658
# Poissons Ratio (y) = -0.02271 0.47267
# Poissons Ratio (z) = 0.44334 0.38026
#
# Static dielectric constant tensor:
#      x y z
#    x 3.569220 0.000000 0.000000 
#    y 0.000000 3.376700 0.000000 
#    z 0.000000 0.000000 3.434270 
# 
# 
# High freq. dielectric constant tensor:
#      x y z
#    x 1.749740 0.000000 0.000000 
#    y 0.000000 1.728170 0.000000 
#    z 0.000000 0.000000 1.738520 
# 
# From -- ./inp_files/19432.got.cif
#   From: 2010.03.12/outbox.cif.g09.slc.cpg/sg46_10_cif.got.tgz:19432.got - 2010.04.14 02:56:35.
