data_PCOD8192203
_publ_section_title
;
Structure prediction by ZEFSAII (Michael W. Deem and Ramdas Pophale) SiO2 
 PCOD8192203
Probable space group: I M A 2
;
_chemical_formula_sum "Si O2"
_cell_formula_units_Z 40
_cell_length_a 8.898779
_cell_length_b 14.631763
_cell_length_c 13.577282
_cell_angle_alpha 90.000000
_cell_angle_beta 90.000000
_cell_angle_gamma 90.000000
_cell_volume 1767.827631
_symmetry_space_group_name_H-M "I M A 2"
_symmetry_group_IT_number 46
_symmetry_cell_setting 'orthorhombic'
loop_
_space_group_symop_operation_xyz
x,y,z
-x,-y,z
1/2-x,y,z
1/2+x,-y,z
1/2+x,1/2+y,1/2+z
1/2-x,1/2-y,1/2+z
-x,1/2+y,1/2+z
x,1/2-y,1/2+z
loop_
_atom_site_type_symbol
_atom_site_label
_atom_site_fract_x
_atom_site_fract_y
_atom_site_fract_z
Si Si1 0.928065 0.242992 0.314650
Si Si2 0.070554 0.284421 0.011015
Si Si3 0.586079 0.583118 0.737697
Si Si4 0.570568 0.899655 0.701706
Si Si5 0.589191 0.581834 0.515593
O O1 0.750000 0.254325 0.317903
O O2 0.991500 0.186036 0.409366
O O3 0.984337 0.174617 0.229532
O O4 0.005028 0.342175 0.295071
O O5 0.250000 0.286438 0.005581
O O6 0.017576 0.347966 0.101488
O O7 0.008143 0.180198 0.017455
O O8 0.500000 0.500000 0.793593
O O9 0.750000 0.601868 0.787848
O O10 0.616834 0.550502 0.627143
O O11 0.750000 0.904960 0.709176
O O12 0.500000 0.000000 0.701482
O O13 0.500000 0.500000 0.460390
O O14 0.750000 0.589721 0.460759
#
# Coordination Sequence:
#
# PCOD8192203 Si02
#       5
#     8   8   8   8   8
#     4  12  25  40  63  96 131 173 219 267 325 394
#     4  10  22  42  65  90 127 172 216 270 330 388
#     4  10  19  36  60  89 121 157 200 252 312 373
#     4  11  24  46  71  96 131 177 226 279 338 399
#     4   9  18  34  58  87 116 152 193 243 308 367
#
# _framework density 22.626639999999998
#
# number of rings (size 3 to 8) (size 9 to 14) (size 15 to 20)
#    0.000    1.600    2.000    3.000    0.000    4.800 
#    0.000    4.000    0.000    0.000    0.000    0.000 
#    0.000    0.000    0.000    0.000    0.000    0.000 
#
# Total GULP energy -247786.258982 kJ/mol
# GULP energy per Si atom -12389.312949 kJ/mol
# Density = 2.257514 g / cm^3
# Si number density = 22.626640 Si / 1000 Ang^3
#
#
#
# Elastic Constant Matrix: (Units=GPa)
#
#
# Indices 1 2 3 4 5 6 
#
# 1 113.0855 43.0552 8.9367 0.0000 0.0000 0.0000
# 2 43.0552 137.1826 -9.0454 0.0000 0.0000 0.0000
# 3 8.9367 -9.0454 43.2303 -0.0001 0.0000 0.0000
# 4 0.0000 0.0000 -0.0001 19.4829 0.0000 0.0000
# 5 0.0000 0.0000 0.0000 0.0000 19.8457 0.0000
# 6 0.0000 0.0000 0.0000 0.0000 0.0000 41.9558
#
#
#
# Elastic Compliance Matrix: (Units=1/GPa)
#
#
# Indices 1 2 3 4 5 6 
#
# 1 0.010382 -0.003448 -0.002868 0.000000 0.000000 0.000000
# 2 -0.003448 0.008536 0.002499 0.000000 0.000000 0.000000
# 3 -0.002868 0.002499 0.024248 0.000000 0.000000 0.000000
# 4 0.000000 0.000000 0.000000 0.051327 0.000000 0.000000
# 5 0.000000 0.000000 0.000000 0.000000 0.050389 0.000000
# 6 0.000000 0.000000 0.000000 0.000000 0.000000 0.023835
#
#
# Mechanical properties :
#
#
# Convention : Reuss Voigt Hill
#
# Bulk Modulus (GPa) = 28.14252 42.15457 35.14855
# Shear Modulus (GPa) = 26.56840 32.96034 29.76437
#
# Velocity S-wave (km/s) = 3.43039 3.82082 3.63086
# Velocity P-wave (km/s) = 5.30612 6.17542 5.75720
#
# Compressibility (1/GPa) = 0.03553342
#
# Stress axis : x y z
#
# Youngs Moduli (GPa) = 96.32006 117.14633 41.24126
#
# Poissons Ratio (x) = 0.40386 0.11826
# Poissons Ratio (y) = 0.33207 -0.10305
# Poissons Ratio (z) = 0.27620 -0.29273
#
# Static dielectric constant tensor:
#      x y z
#    x 4.384630 0.000000 0.000000 
#    y 0.000000 4.078930 0.000000 
#    z 0.000000 0.000000 3.991310 
# 
# 
# High freq. dielectric constant tensor:
#      x y z
#    x 1.885320 0.000000 0.000000 
#    y 0.000000 1.899770 0.000000 
#    z 0.000000 0.000000 1.875730 
# 
# From -- ./inp_files/13647.got.cif
#   From: 2010.03.12/outbox.cif.g09.slc.cpg/sg46_7_cif.got.tgz:13647.got - 2010.04.14 02:56:35.
