data_PCOD8192337
_publ_section_title
;
Structure prediction by ZEFSAII (Michael W. Deem and Ramdas Pophale) SiO2 
 PCOD8192337
Probable space group: I M A 2
;
_chemical_formula_sum "Si O2"
_cell_formula_units_Z 64
_cell_length_a 16.732175
_cell_length_b 16.583114
_cell_length_c 12.850599
_cell_angle_alpha 90.000000
_cell_angle_beta 90.000000
_cell_angle_gamma 90.000000
_cell_volume 3565.675822
_symmetry_space_group_name_H-M "I M A 2"
_symmetry_group_IT_number 46
_symmetry_cell_setting 'orthorhombic'
loop_
_space_group_symop_operation_xyz
x,y,z
-x,-y,z
1/2-x,y,z
1/2+x,-y,z
1/2+x,1/2+y,1/2+z
1/2-x,1/2-y,1/2+z
-x,1/2+y,1/2+z
x,1/2-y,1/2+z
loop_
_atom_site_type_symbol
_atom_site_label
_atom_site_fract_x
_atom_site_fract_y
_atom_site_fract_z
Si Si1 0.062396 0.180554 0.452190
Si Si2 0.655500 0.986393 0.898351
Si Si3 0.656256 0.961939 0.349665
Si Si4 0.843364 0.744969 0.628458
Si Si5 0.155786 0.437192 0.620108
Si Si6 0.940786 0.425924 0.237024
Si Si7 0.568422 0.433644 0.007946
Si Si8 0.077926 0.174363 0.812066
O O1 0.110051 0.118993 0.379130
O O2 0.111298 0.189025 0.558689
O O3 0.053728 0.269710 0.407657
O O4 0.972224 0.149327 0.471294
O O5 0.750000 0.990313 0.890023
O O6 0.625082 0.903626 0.849636
O O7 0.620942 0.062136 0.832896
O O8 0.626380 0.989168 0.019786
O O9 0.750000 0.945186 0.359038
O O10 0.631514 0.980629 0.229078
O O11 0.634457 0.037457 0.424390
O O12 0.750000 0.749200 0.602608
O O13 0.877662 0.654322 0.613960
O O14 0.860313 0.773532 0.744868
O O15 0.250000 0.429333 0.614756
O O16 0.895369 0.421744 0.124769
O O17 0.000000 0.500000 0.237517
O O18 0.994777 0.346485 0.253613
O O19 0.500000 0.500000 0.014031
#
# Coordination Sequence:
#
# PCOD8192337 Si02
#       8
#     8   8   8   8   8   8   8   8
#     4  11  20  33  52  76 107 138 172 211 263 314
#     4  10  20  33  52  77 104 138 175 215 260 309
#     4  10  20  33  52  77 104 138 175 215 260 309
#     4  11  20  30  48  78 111 140 167 206 262 318
#     4   9  18  32  48  75 111 135 162 210 261 312
#     4   9  19  35  50  71 104 140 175 214 256 302
#     4   9  19  35  50  71 104 140 175 214 256 302
#     4  11  20  33  52  76 107 138 172 211 263 314
#
# _framework density 17.948912
#
# number of rings (size 3 to 8) (size 9 to 14) (size 15 to 20)
#    0.000    2.000    3.750    0.750    1.750    1.500 
#    0.000    6.875    0.000    0.750    0.000    0.000 
#    0.000    0.000    0.000    0.000    0.000    0.000 
#
# Total GULP energy -396590.318379 kJ/mol
# GULP energy per Si atom -12393.447449 kJ/mol
# Density = 1.790806 g / cm^3
# Si number density = 17.948912 Si / 1000 Ang^3
#
#
#
# Elastic Constant Matrix: (Units=GPa)
#
#
# Indices 1 2 3 4 5 6 
#
# 1 50.4330 28.0375 43.3837 0.0000 0.0000 0.0000
# 2 28.0375 32.8157 15.2573 0.0000 0.0000 0.0000
# 3 43.3837 15.2573 131.5595 0.0000 0.0000 0.0000
# 4 0.0000 0.0000 0.0000 25.3859 0.0000 0.0000
# 5 0.0000 0.0000 0.0000 0.0000 27.4036 0.0000
# 6 0.0000 0.0000 0.0000 0.0000 0.0000 24.5278
#
#
#
# Elastic Compliance Matrix: (Units=1/GPa)
#
#
# Indices 1 2 3 4 5 6 
#
# 1 0.052415 -0.038841 -0.012780 0.000000 0.000000 0.000000
# 2 -0.038841 0.060992 0.005735 0.000000 0.000000 0.000000
# 3 -0.012780 0.005735 0.011150 0.000000 0.000000 0.000000
# 4 0.000000 0.000000 0.000000 0.039392 0.000000 0.000000
# 5 0.000000 0.000000 0.000000 0.000000 0.036492 0.000000
# 6 0.000000 0.000000 0.000000 0.000000 0.000000 0.040770
#
#
# Mechanical properties :
#
#
# Convention : Reuss Voigt Hill
#
# Bulk Modulus (GPa) = 30.50139 43.12946 36.81543
# Shear Modulus (GPa) = 14.53857 24.00544 19.27200
#
# Velocity S-wave (km/s) = 2.84913 3.66106 3.28031
# Velocity P-wave (km/s) = 5.27766 6.47706 5.90788
#
# Compressibility (1/GPa) = 0.03278539
#
# Stress axis : x y z
#
# Youngs Moduli (GPa) = 19.07840 16.39550 89.68219
#
# Poissons Ratio (x) = 0.63682 1.14616
# Poissons Ratio (y) = 0.74103 -0.51433
# Poissons Ratio (z) = 0.24383 -0.09403
#
# Static dielectric constant tensor:
#      x y z
#    x 3.126620 0.000000 0.000000 
#    y 0.000000 3.190480 0.000000 
#    z 0.000000 0.000000 3.829130 
# 
# 
# High freq. dielectric constant tensor:
#      x y z
#    x 1.662090 0.000000 0.000000 
#    y 0.000000 1.664090 0.000000 
#    z 0.000000 0.000000 1.718270 
# 
# From -- ./inp_files/11999.got.cif
#   From: 2010.03.12/outbox.cif.g09.slc.cpg/sg46_6_cif.got.tgz:11999.got - 2010.04.14 02:56:35.
