data_PCOD8192792
_publ_section_title
;
Structure prediction by ZEFSAII (Michael W. Deem and Ramdas Pophale) SiO2 
 PCOD8192792
Probable space group: I M A 2
;
_chemical_formula_sum "Si O2"
_cell_formula_units_Z 48
_cell_length_a 7.456556
_cell_length_b 33.904761
_cell_length_c 9.641897
_cell_angle_alpha 90.000000
_cell_angle_beta 90.000000
_cell_angle_gamma 90.000000
_cell_volume 2437.594487
_symmetry_space_group_name_H-M "I M A 2"
_symmetry_group_IT_number 46
_symmetry_cell_setting 'orthorhombic'
loop_
_space_group_symop_operation_xyz
x,y,z
-x,-y,z
1/2-x,y,z
1/2+x,-y,z
1/2+x,1/2+y,1/2+z
1/2-x,1/2-y,1/2+z
-x,1/2+y,1/2+z
x,1/2-y,1/2+z
loop_
_atom_site_type_symbol
_atom_site_label
_atom_site_fract_x
_atom_site_fract_y
_atom_site_fract_z
Si Si1 0.547429 0.669102 0.365450
Si Si2 0.034106 0.135258 0.406633
Si Si3 0.250000 0.701091 0.948879
Si Si4 0.750000 0.225792 0.761176
Si Si5 0.037805 0.113117 0.104106
Si Si6 0.539656 0.954816 0.913960
Si Si7 0.451365 0.094461 0.671061
O O1 0.750000 0.684902 0.381934
O O2 0.426432 0.705455 0.322454
O O3 0.477140 0.650066 0.509653
O O4 0.537286 0.636034 0.248245
O O5 0.250000 0.142600 0.413747
O O6 0.965958 0.118938 0.259052
O O7 0.967320 0.102111 0.518265
O O8 0.931964 0.175653 0.440344
O O9 0.250000 0.729731 0.816261
O O10 0.250000 0.725124 0.093897
O O11 0.250000 0.111093 0.105501
O O12 0.961627 0.072026 0.039277
O O13 0.750000 0.946893 0.905134
O O14 0.454258 0.939431 0.766735
O O15 0.500000 0.000000 0.943535
O O16 0.250000 0.080471 0.647074
#
# Coordination Sequence:
#
# PCOD8192792 Si02
#       7
#     8   8   4   4   8   8   8
#     4   9  18  37  60  80 105 148 196 228 280 347
#     4  10  20  40  62  82 110 152 197 241 282 337
#     4  12  28  40  56  88 120 146 196 244 294 354
#     4  12  26  40  56  84 120 150 178 254 300 334
#     4   8  17  34  60  83 108 150 193 231 276 343
#     4   9  17  33  52  83 118 145 184 233 286 341
#     4   8  15  32  58  76 103 147 191 232 271 326
#
# _framework density 19.691544
#
# number of rings (size 3 to 8) (size 9 to 14) (size 15 to 20)
#    0.000    2.667    1.667    2.000    2.333    0.667 
#    9.000    0.833    0.000    0.000    0.000    0.000 
#    0.000    0.000    0.000    0.000    0.000    0.000 
#
# Total GULP energy -297341.470670 kJ/mol
# GULP energy per Si atom -12389.227945 kJ/mol
# Density = 1.964673 g / cm^3
# Si number density = 19.691544 Si / 1000 Ang^3
#
#
#
# Elastic Constant Matrix: (Units=GPa)
#
#
# Indices 1 2 3 4 5 6 
#
# 1 59.0679 22.1128 18.0480 0.0000 -0.0001 0.0000
# 2 22.1128 89.9503 51.9274 0.0001 0.0000 0.0000
# 3 18.0480 51.9274 178.9157 0.0020 -0.0005 0.0001
# 4 0.0000 0.0001 0.0020 25.7625 -0.0007 0.0002
# 5 -0.0001 0.0000 -0.0005 -0.0007 20.0611 0.0000
# 6 0.0000 0.0000 0.0001 0.0002 0.0000 23.5554
#
#
#
# Elastic Compliance Matrix: (Units=1/GPa)
#
#
# Indices 1 2 3 4 5 6 
#
# 1 0.018711 -0.004217 -0.000664 0.000000 0.000000 0.000000
# 2 -0.004217 0.014305 -0.003726 0.000000 0.000000 0.000000
# 3 -0.000664 -0.003726 0.006738 0.000000 0.000000 0.000000
# 4 0.000000 0.000000 0.000000 0.038816 0.000001 0.000000
# 5 0.000000 0.000000 0.000000 0.000001 0.049848 0.000000
# 6 0.000000 0.000000 0.000000 0.000000 0.000000 0.042453
#
#
# Mechanical properties :
#
#
# Convention : Reuss Voigt Hill
#
# Bulk Modulus (GPa) = 44.36506 56.90114 50.63310
# Shear Modulus (GPa) = 25.56265 29.59884 27.58075
#
# Velocity S-wave (km/s) = 3.60690 3.88122 3.74657
# Velocity P-wave (km/s) = 6.31864 7.00315 6.66968
#
# Compressibility (1/GPa) = 0.02254026
#
# Stress axis : x y z
#
# Youngs Moduli (GPa) = 53.44448 69.90511 148.41828
#
# Poissons Ratio (x) = 0.29477 0.09850
# Poissons Ratio (y) = 0.22536 0.55308
# Poissons Ratio (z) = 0.03547 0.26050
#
# Static dielectric constant tensor:
#      x y z
#    x 3.365530 0.000000 0.000000 
#    y 0.000000 3.758760 0.000000 
#    z 0.000000 0.000000 4.164180 
# 
# 
# High freq. dielectric constant tensor:
#      x y z
#    x 1.757190 0.000000 0.000000 
#    y 0.000000 1.736880 0.000000 
#    z 0.000000 0.000000 1.780260 
# 
# From -- ./inp_files/3973.got.cif
#   From: 2010.03.12/outbox.cif.g09.slc.cpg/sg46_2_cif.got.tgz:3973.got - 2010.04.14 02:56:35.
