data_PCOD8192163
_publ_section_title
;
Structure prediction by ZEFSAII (Michael W. Deem and Ramdas Pophale) SiO2 
 PCOD8192163
Probable space group: I M A 2
;
_chemical_formula_sum "Si O2"
_cell_formula_units_Z 28
_cell_length_a 7.273766
_cell_length_b 24.596701
_cell_length_c 8.918438
_cell_angle_alpha 90.000000
_cell_angle_beta 90.000000
_cell_angle_gamma 90.000000
_cell_volume 1595.603517
_symmetry_space_group_name_H-M "I M A 2"
_symmetry_group_IT_number 46
_symmetry_cell_setting 'orthorhombic'
loop_
_space_group_symop_operation_xyz
x,y,z
-x,-y,z
1/2-x,y,z
1/2+x,-y,z
1/2+x,1/2+y,1/2+z
1/2-x,1/2-y,1/2+z
-x,1/2+y,1/2+z
x,1/2-y,1/2+z
loop_
_atom_site_type_symbol
_atom_site_label
_atom_site_fract_x
_atom_site_fract_y
_atom_site_fract_z
Si Si1 0.250000 0.787494 0.821060
Si Si2 0.535304 0.651299 0.133366
Si Si3 0.750000 0.379381 0.556037
Si Si4 0.250000 0.661113 0.885520
Si Si5 0.543480 0.561990 0.373598
O O1 0.433809 0.801062 0.726392
O O2 0.250000 0.724964 0.858800
O O3 0.250000 0.820668 0.976550
O O4 0.750000 0.666232 0.112341
O O5 0.506106 0.594784 0.220650
O O6 0.435711 0.644821 0.973653
O O7 0.750000 0.372438 0.733078
O O8 0.573981 0.414642 0.510055
O O9 0.500000 0.500000 0.336464
O O10 0.750000 0.569310 0.428531
#
# Coordination Sequence:
#
# PCOD8192163 Si02
#       5
#     4   8   4   4   8
#     4   9  19  37  57  77 107 151 185 213 259 323
#     4   9  20  36  55  82 107 141 188 220 262 326
#     4  10  20  34  54  84 112 138 176 225 271 326
#     4  11  21  35  55  81 121 143 169 228 280 313
#     4  10  19  35  60  76  99 142 190 224 263 319
#
# _framework density 17.548217999999999
#
# number of rings (size 3 to 8) (size 9 to 14) (size 15 to 20)
#    0.000    2.286    1.429    2.571    0.000    2.286 
#    0.000    7.143    0.000    0.000    0.000    0.000 
#    0.000    0.000    0.000    0.000    0.000    0.000 
#
# Total GULP energy -173607.070162 kJ/mol
# GULP energy per Si atom -12400.505012 kJ/mol
# Density = 1.750828 g / cm^3
# Si number density = 17.548218 Si / 1000 Ang^3
#
#
#
# Elastic Constant Matrix: (Units=GPa)
#
#
# Indices 1 2 3 4 5 6 
#
# 1 172.1533 58.2286 78.3229 -0.0001 0.0000 0.0000
# 2 58.2286 121.4688 54.2479 -0.0004 0.0001 -0.0002
# 3 78.3229 54.2479 139.7099 -0.0008 0.0002 -0.0007
# 4 -0.0001 -0.0004 -0.0008 13.9166 0.0002 -0.0006
# 5 0.0000 0.0001 0.0002 0.0002 17.3827 0.0001
# 6 0.0000 -0.0002 -0.0007 -0.0006 0.0001 -2.0436
#
#
#
# Elastic Compliance Matrix: (Units=1/GPa)
#
#
# Indices 1 2 3 4 5 6 
#
# 1 0.008296 -0.002298 -0.003758 0.000000 0.000000 0.000001
# 2 -0.002298 0.010596 -0.002826 0.000000 0.000000 0.000000
# 3 -0.003758 -0.002826 0.010362 0.000001 0.000000 -0.000003
# 4 0.000000 0.000000 0.000001 0.071857 -0.000001 -0.000019
# 5 0.000000 0.000000 0.000000 -0.000001 0.057529 0.000004
# 6 0.000001 0.000000 -0.000003 -0.000019 0.000004 -0.489323
#
#
# Mechanical properties :
#
#
# Convention : Reuss Voigt Hill
#
# Bulk Modulus (GPa) = 87.04039 90.54785 88.79412
# Shear Modulus (GPa) = -16.17661 22.01996 2.92167
#
# Velocity S-wave (km/s) = -3.03947 3.54620 1.29173
# Velocity P-wave (km/s) = 6.11478 8.27519 7.27562
#
# Compressibility (1/GPa) = 0.01148892
#
# Stress axis : x y z
#
# Youngs Moduli (GPa) = 120.53810 94.37138 96.50626
#
# Poissons Ratio (x) = 0.21690 0.36271
# Poissons Ratio (y) = 0.27704 0.27272
# Poissons Ratio (z) = 0.45304 0.26669
#
# Static dielectric constant tensor:
#      x y z
#    x 3.600670 0.000000 0.000000 
#    y 0.000000 3.246750 0.000000 
#    z 0.000000 0.000000 3.172970 
# 
# 
# High freq. dielectric constant tensor:
#      x y z
#    x 1.693120 0.000000 0.000000 
#    y 0.000000 1.676410 0.000000 
#    z 0.000000 0.000000 1.666670 
# 
# From -- ./inp_files/3290.got.cif
#   From: 2010.03.12/outbox.cif.g09.slc.cpg/sg46_2_cif.got.tgz:3290.got - 2010.04.14 02:56:35.
