data_PCOD8192984
_publ_section_title
;
Structure prediction by ZEFSAII (Michael W. Deem and Ramdas Pophale) SiO2 
 PCOD8192984
Probable space group: I M A 2
;
_chemical_formula_sum "Si O2"
_cell_formula_units_Z 64
_cell_length_a 8.675034
_cell_length_b 29.297239
_cell_length_c 12.805381
_cell_angle_alpha 90.000000
_cell_angle_beta 90.000000
_cell_angle_gamma 90.000000
_cell_volume 3254.545774
_symmetry_space_group_name_H-M "I M A 2"
_symmetry_group_IT_number 46
_symmetry_cell_setting 'orthorhombic'
loop_
_space_group_symop_operation_xyz
x,y,z
-x,-y,z
1/2-x,y,z
1/2+x,-y,z
1/2+x,1/2+y,1/2+z
1/2-x,1/2-y,1/2+z
-x,1/2+y,1/2+z
x,1/2-y,1/2+z
loop_
_atom_site_type_symbol
_atom_site_label
_atom_site_fract_x
_atom_site_fract_y
_atom_site_fract_z
Si Si1 0.421169 0.784378 0.614880
Si Si2 0.072894 0.247595 0.925038
Si Si3 0.932259 0.049757 0.302093
Si Si4 0.569336 0.854313 0.915971
Si Si5 0.931299 0.950811 0.519917
Si Si6 0.931153 0.880185 0.141415
Si Si7 0.429377 0.375522 0.187507
Si Si8 0.578408 0.201387 0.255858
O O1 0.250000 0.785304 0.563297
O O2 0.549761 0.759860 0.545151
O O3 0.468165 0.835126 0.643829
O O4 0.417962 0.753286 0.716737
O O5 0.250000 0.248283 0.891294
O O6 0.000856 0.197053 0.904741
O O7 0.987797 0.290540 0.870837
O O8 0.750000 0.046668 0.309857
O O9 0.996584 0.069332 0.412530
O O10 0.978766 0.081516 0.205702
O O11 0.000000 0.000000 0.280647
O O12 0.750000 0.848256 0.933240
O O13 0.531077 0.883219 0.810883
O O14 0.508174 0.880057 0.020494
O O15 0.750000 0.954790 0.502414
O O16 0.972129 0.919904 0.620057
O O17 0.000000 0.000000 0.545426
O O18 0.750000 0.890217 0.149017
O O19 0.967007 0.830765 0.189328
O O20 0.250000 0.362760 0.175208
O O21 0.750000 0.179610 0.258680
#
# Coordination Sequence:
#
# PCOD8192984 Si02
#       8
#     8   8   8   8   8   8   8   8
#     4  11  23  36  53  81 119 155 194 244 295 344
#     4  11  21  36  57  78 109 157 204 246 290 341
#     4  11  23  42  66  91 120 151 188 240 297 354
#     4   9  19  36  59  84 114 155 200 245 285 340
#     4  10  21  39  65  91 118 150 187 238 295 355
#     4  11  22  39  62  88 117 156 202 243 292 351
#     4  10  21  39  61  86 115 154 202 241 287 351
#     4  11  23  37  53  81 118 156 196 245 296 345
#
# _framework density 19.664802000000002
#
# number of rings (size 3 to 8) (size 9 to 14) (size 15 to 20)
#    0.000    1.500    2.500    3.750    1.750    2.000 
#    0.000    1.875    0.000    1.500    0.000    0.000 
#    0.000    0.000    0.000    0.000    0.000    0.000 
#
# Total GULP energy -396681.454889 kJ/mol
# GULP energy per Si atom -12396.295465 kJ/mol
# Density = 1.962004 g / cm^3
# Si number density = 19.664802 Si / 1000 Ang^3
#
#
#
# Elastic Constant Matrix: (Units=GPa)
#
#
# Indices 1 2 3 4 5 6 
#
# 1 82.7596 36.9663 36.5166 0.0001 0.0002 0.0000
# 2 36.9663 94.1766 64.0330 0.0003 0.0002 0.0001
# 3 36.5166 64.0330 138.1639 0.0006 0.0016 0.0005
# 4 0.0001 0.0003 0.0006 38.9411 0.0004 0.0001
# 5 0.0002 0.0002 0.0016 0.0004 19.6267 0.0005
# 6 0.0000 0.0001 0.0005 0.0001 0.0005 30.5631
#
#
#
# Elastic Compliance Matrix: (Units=1/GPa)
#
#
# Indices 1 2 3 4 5 6 
#
# 1 0.014952 -0.004646 -0.001799 0.000000 0.000000 0.000000
# 2 -0.004646 0.016948 -0.006626 0.000000 0.000000 0.000000
# 3 -0.001799 -0.006626 0.010784 0.000000 -0.000001 0.000000
# 4 0.000000 0.000000 0.000000 0.025680 0.000000 0.000000
# 5 0.000000 0.000000 -0.000001 0.000000 0.050951 -0.000001
# 6 0.000000 0.000000 0.000000 0.000000 -0.000001 0.032719
#
#
# Mechanical properties :
#
#
# Convention : Reuss Voigt Hill
#
# Bulk Modulus (GPa) = 60.45389 65.57020 63.01204
# Shear Modulus (GPa) = 27.21978 29.66514 28.44246
#
# Velocity S-wave (km/s) = 3.72450 3.88821 3.80723
# Velocity P-wave (km/s) = 7.02174 7.31942 7.17212
#
# Compressibility (1/GPa) = 0.01654153
#
# Stress axis : x y z
#
# Youngs Moduli (GPa) = 66.88047 59.00560 92.72805
#
# Poissons Ratio (x) = 0.27415 0.16678
# Poissons Ratio (y) = 0.31073 0.61446
# Poissons Ratio (z) = 0.12029 0.39100
#
# Static dielectric constant tensor:
#      x y z
#    x 3.569120 0.000000 0.000000 
#    y 0.000000 3.402680 0.000000 
#    z 0.000000 0.000000 3.776230 
# 
# 
# High freq. dielectric constant tensor:
#      x y z
#    x 1.764510 0.000000 0.000000 
#    y 0.000000 1.748590 0.000000 
#    z 0.000000 0.000000 1.775980 
# 
# From -- ./inp_files/9734.got.cif
#   From: 2010.03.12/outbox.cif.g09.slc.cpg/sg46_5_cif.got.tgz:9734.got - 2010.04.14 02:56:35.
