data_PCOD8192295
_publ_section_title
;
Structure prediction by ZEFSAII (Michael W. Deem and Ramdas Pophale) SiO2 
 PCOD8192295
Probable space group: I M A 2
;
_chemical_formula_sum "Si O2"
_cell_formula_units_Z 64
_cell_length_a 15.559137
_cell_length_b 23.121621
_cell_length_c 8.994931
_cell_angle_alpha 90.000000
_cell_angle_beta 90.000000
_cell_angle_gamma 90.000000
_cell_volume 3235.948634
_symmetry_space_group_name_H-M "I M A 2"
_symmetry_group_IT_number 46
_symmetry_cell_setting 'orthorhombic'
loop_
_space_group_symop_operation_xyz
x,y,z
-x,-y,z
1/2-x,y,z
1/2+x,-y,z
1/2+x,1/2+y,1/2+z
1/2-x,1/2-y,1/2+z
-x,1/2+y,1/2+z
x,1/2-y,1/2+z
loop_
_atom_site_type_symbol
_atom_site_label
_atom_site_fract_x
_atom_site_fract_y
_atom_site_fract_z
Si Si1 0.567351 0.381060 0.139520
Si Si2 0.958661 0.573271 0.383897
Si Si3 0.543535 0.569362 0.895289
Si Si4 0.649742 0.323662 0.671976
Si Si5 0.154330 0.423196 0.637645
Si Si6 0.647046 0.997287 0.640318
Si Si7 0.648418 0.280194 0.985180
Si Si8 0.085085 0.548283 0.640392
O O1 0.509945 0.379175 0.288672
O O2 0.635179 0.433843 0.145604
O O3 0.500517 0.385307 0.003671
O O4 0.620345 0.322655 0.119544
O O5 0.888709 0.604127 0.489897
O O6 0.907209 0.528260 0.278235
O O7 0.025576 0.542105 0.495212
O O8 0.608344 0.602517 0.784165
O O9 0.470361 0.540690 0.790398
O O10 0.599764 0.523069 0.989782
O O11 0.750000 0.314477 0.686902
O O12 0.608159 0.301279 0.827902
O O13 0.616072 0.283864 0.534731
O O14 0.632625 0.390486 0.639551
O O15 0.250000 0.400857 0.640926
O O16 0.150020 0.493871 0.635826
O O17 0.750000 0.982161 0.644594
O O18 0.750000 0.282172 0.975068
#
# Coordination Sequence:
#
# PCOD8192295 Si02
#       8
#     8   8   8   8   8   8   8   8
#     4  11  19  35  53  75 105 150 179 210 259 315
#     4  10  22  34  50  73 110 144 181 217 256 307
#     4  10  20  32  50  75 106 138 179 221 260 307
#     4  10  22  38  55  79 109 139 177 223 262 305
#     4  11  20  32  50  77 109 144 179 215 257 312
#     4  11  20  32  50  77 109 144 179 215 257 312
#     4  10  22  38  55  79 109 139 177 223 262 305
#     4  11  19  35  53  75 105 150 179 210 259 315
#
# _framework density 19.777816000000001
#
# number of rings (size 3 to 8) (size 9 to 14) (size 15 to 20)
#    0.000    1.500    1.250    7.500    1.750    0.000 
#    0.000    1.250    0.000    0.000    0.000    0.000 
#    0.000   70.000    0.000    0.000    0.000    0.000 
#
# Total GULP energy -396420.350903 kJ/mol
# GULP energy per Si atom -12388.135966 kJ/mol
# Density = 1.973280 g / cm^3
# Si number density = 19.777816 Si / 1000 Ang^3
#
#
#
# Elastic Constant Matrix: (Units=GPa)
#
#
# Indices 1 2 3 4 5 6 
#
# 1 57.6284 -6.6839 26.8218 0.0000 0.0000 0.0000
# 2 -6.6839 48.3995 5.6484 0.0000 0.0000 0.0000
# 3 26.8218 5.6484 121.6048 0.0001 0.0000 0.0000
# 4 0.0000 0.0000 0.0001 18.1847 0.0000 0.0000
# 5 0.0000 0.0000 0.0000 0.0000 29.5146 0.0000
# 6 0.0000 0.0000 0.0000 0.0000 0.0000 20.5739
#
#
#
# Elastic Compliance Matrix: (Units=1/GPa)
#
#
# Indices 1 2 3 4 5 6 
#
# 1 0.019839 0.003268 -0.004528 0.000000 0.000000 0.000000
# 2 0.003268 0.021312 -0.001711 0.000000 0.000000 0.000000
# 3 -0.004528 -0.001711 0.009301 0.000000 0.000000 0.000000
# 4 0.000000 0.000000 0.000000 0.054991 0.000000 0.000000
# 5 0.000000 0.000000 0.000000 0.000000 0.033882 0.000000
# 6 0.000000 0.000000 0.000000 0.000000 0.000000 0.048605
#
#
# Mechanical properties :
#
#
# Convention : Reuss Voigt Hill
#
# Bulk Modulus (GPa) = 22.46574 31.02279 26.74426
# Shear Modulus (GPa) = 23.95683 27.11105 25.53394
#
# Velocity S-wave (km/s) = 3.48415 3.70642 3.59700
# Velocity P-wave (km/s) = 5.25066 5.83408 5.55004
#
# Compressibility (1/GPa) = 0.04451223
#
# Stress axis : x y z
#
# Youngs Moduli (GPa) = 50.40611 46.92118 107.51018
#
# Poissons Ratio (x) = -0.15334 0.48676
# Poissons Ratio (y) = -0.16473 0.18392
# Poissons Ratio (z) = 0.22822 0.08027
#
# Static dielectric constant tensor:
#      x y z
#    x 3.591440 0.000000 0.000000 
#    y 0.000000 3.233380 0.000000 
#    z 0.000000 0.000000 4.477250 
# 
# 
# High freq. dielectric constant tensor:
#      x y z
#    x 1.757260 0.000000 0.000000 
#    y 0.000000 1.722270 0.000000 
#    z 0.000000 0.000000 1.802290 
# 
# From -- ./inp_files/6114.got.cif
#   From: 2010.03.12/outbox.cif.g09.slc.cpg/sg46_4_cif.got.tgz:6114.got - 2010.04.14 02:56:35.
