data_PCOD8192452
_publ_section_title
;
Structure prediction by ZEFSAII (Michael W. Deem and Ramdas Pophale) SiO2 
 PCOD8192452
Probable space group: I M A 2
;
_chemical_formula_sum "Si O2"
_cell_formula_units_Z 64
_cell_length_a 9.317939
_cell_length_b 29.554889
_cell_length_c 12.609977
_cell_angle_alpha 90.000000
_cell_angle_beta 90.000000
_cell_angle_gamma 90.000000
_cell_volume 3472.669799
_symmetry_space_group_name_H-M "I M A 2"
_symmetry_group_IT_number 46
_symmetry_cell_setting 'orthorhombic'
loop_
_space_group_symop_operation_xyz
x,y,z
-x,-y,z
1/2-x,y,z
1/2+x,-y,z
1/2+x,1/2+y,1/2+z
1/2-x,1/2-y,1/2+z
-x,1/2+y,1/2+z
x,1/2-y,1/2+z
loop_
_atom_site_type_symbol
_atom_site_label
_atom_site_fract_x
_atom_site_fract_y
_atom_site_fract_z
Si Si1 0.592005 0.756882 0.083890
Si Si2 0.907544 0.711078 0.879870
Si Si3 0.582856 0.454026 0.162376
Si Si4 0.081104 0.382050 0.778606
Si Si5 0.580687 0.453148 0.921347
Si Si6 0.082291 0.781090 0.769737
Si Si7 0.080699 0.620122 0.332856
Si Si8 0.584111 0.858700 0.038239
O O1 0.750000 0.763926 0.136819
O O2 0.470917 0.743345 0.164889
O O3 0.547468 0.805297 0.033522
O O4 0.603580 0.713610 0.006389
O O5 0.750000 0.719419 0.828837
O O6 0.968617 0.664408 0.835000
O O7 0.013689 0.752837 0.863807
O O8 0.500000 0.500000 0.185183
O O9 0.750000 0.464256 0.176518
O O10 0.529498 0.418018 0.249800
O O11 0.553183 0.435987 0.042363
O O12 0.250000 0.391256 0.798106
O O13 0.044672 0.379393 0.653720
O O14 0.985584 0.419801 0.834483
O O15 0.500000 0.500000 0.904345
O O16 0.750000 0.458917 0.899489
O O17 0.250000 0.776375 0.776005
O O18 0.033775 0.832958 0.778021
O O19 0.250000 0.617833 0.352473
O O20 0.005496 0.615015 0.447553
O O21 0.750000 0.867340 0.013002
#
# Coordination Sequence:
#
# PCOD8192452 Si02
#       8
#     8   8   8   8   8   8   8   8
#     4  10  20  35  53  74 107 151 193 235 278 322
#     4  10  20  36  55  76 109 151 194 235 273 322
#     4   9  20  40  62  85 113 142 176 225 281 335
#     4  10  21  37  56  83 115 147 188 235 280 327
#     4  10  21  39  64  88 113 144 179 225 282 339
#     4  11  22  33  51  79 113 150 187 231 279 331
#     4  10  22  38  55  81 117 150 183 229 282 334
#     4  10  20  36  58  80 110 151 194 235 271 321
#
# _framework density 18.429622999999999
#
# number of rings (size 3 to 8) (size 9 to 14) (size 15 to 20)
#    0.000    2.000    2.500    0.750    1.750    3.500 
#    0.000    0.625    0.000    1.500    0.000    0.000 
#    0.000    0.000    0.000    0.000    0.000    0.000 
#
# Total GULP energy -396582.343762 kJ/mol
# GULP energy per Si atom -12393.198243 kJ/mol
# Density = 1.838768 g / cm^3
# Si number density = 18.429623 Si / 1000 Ang^3
#
#
#
# Elastic Constant Matrix: (Units=GPa)
#
#
# Indices 1 2 3 4 5 6 
#
# 1 67.5303 53.2286 43.7298 0.0002 0.0000 0.0000
# 2 53.2286 105.5716 60.1486 0.0010 0.0000 0.0000
# 3 43.7298 60.1486 111.1023 0.0026 -0.0003 -0.0001
# 4 0.0002 0.0010 0.0026 30.5862 -0.0001 0.0000
# 5 0.0000 0.0000 -0.0003 -0.0001 33.8465 0.0000
# 6 0.0000 0.0000 -0.0001 0.0000 0.0000 31.3315
#
#
#
# Elastic Compliance Matrix: (Units=1/GPa)
#
#
# Indices 1 2 3 4 5 6 
#
# 1 0.026072 -0.010554 -0.004548 0.000001 0.000000 0.000000
# 2 -0.010554 0.017970 -0.005574 0.000000 0.000000 0.000000
# 3 -0.004548 -0.005574 0.013809 -0.000001 0.000000 0.000000
# 4 0.000001 0.000000 -0.000001 0.032694 0.000000 0.000000
# 5 0.000000 0.000000 0.000000 0.000000 0.029545 0.000000
# 6 0.000000 0.000000 0.000000 0.000000 0.000000 0.031917
#
#
# Mechanical properties :
#
#
# Convention : Reuss Voigt Hill
#
# Bulk Modulus (GPa) = 60.61617 66.49090 63.55353
# Shear Modulus (GPa) = 25.14338 27.62599 26.38469
#
# Velocity S-wave (km/s) = 3.69764 3.87589 3.78781
# Velocity P-wave (km/s) = 7.15486 7.49577 7.32730
#
# Compressibility (1/GPa) = 0.01649725
#
# Stress axis : x y z
#
# Youngs Moduli (GPa) = 38.35463 55.64980 72.41841
#
# Poissons Ratio (x) = 0.58734 0.32937
# Poissons Ratio (y) = 0.40481 0.40367
# Poissons Ratio (z) = 0.17445 0.31020
#
# Static dielectric constant tensor:
#      x y z
#    x 3.328450 0.000000 0.000000 
#    y 0.000000 3.340590 0.000000 
#    z 0.000000 0.000000 3.476690 
# 
# 
# High freq. dielectric constant tensor:
#      x y z
#    x 1.712620 0.000000 0.000000 
#    y 0.000000 1.700280 0.000000 
#    z 0.000000 0.000000 1.723640 
# 
# From -- ./inp_files/9798.got.cif
#   From: 2010.03.12/outbox.cif.g09.slc.cpg/sg46_5_cif.got.tgz:9798.got - 2010.04.14 02:56:35.
