data_PCOD8192128
_publ_section_title
;
Structure prediction by ZEFSAII (Michael W. Deem and Ramdas Pophale) SiO2 
 PCOD8192128
Probable space group: I M A 2
;
_chemical_formula_sum "Si O2"
_cell_formula_units_Z 60
_cell_length_a 9.302088
_cell_length_b 18.827637
_cell_length_c 18.221855
_cell_angle_alpha 90.000000
_cell_angle_beta 90.000000
_cell_angle_gamma 90.000000
_cell_volume 3191.308924
_symmetry_space_group_name_H-M "I M A 2"
_symmetry_group_IT_number 46
_symmetry_cell_setting 'orthorhombic'
loop_
_space_group_symop_operation_xyz
x,y,z
-x,-y,z
1/2-x,y,z
1/2+x,-y,z
1/2+x,1/2+y,1/2+z
1/2-x,1/2-y,1/2+z
-x,1/2+y,1/2+z
x,1/2-y,1/2+z
loop_
_atom_site_type_symbol
_atom_site_label
_atom_site_fract_x
_atom_site_fract_y
_atom_site_fract_z
Si Si1 0.909709 0.126807 0.487600
Si Si2 0.579614 0.433722 0.627526
Si Si3 0.910149 0.826418 0.035213
Si Si4 0.000000 0.500000 0.892675
Si Si5 0.580516 0.270751 0.408507
Si Si6 0.916119 0.739880 0.265811
Si Si7 0.592846 0.821329 0.611456
Si Si8 0.591664 0.907662 0.263123
O O1 0.750000 0.144271 0.513588
O O2 0.959272 0.190046 0.432612
O O3 0.998347 0.123222 0.564240
O O4 0.909092 0.051566 0.445504
O O5 0.500000 0.500000 0.587701
O O6 0.750000 0.434731 0.615886
O O7 0.507539 0.363684 0.596090
O O8 0.539005 0.437871 0.713940
O O9 0.750000 0.860624 0.026177
O O10 0.891065 0.746791 0.060858
O O11 0.999391 0.827629 0.959951
O O12 0.093445 0.446941 0.841951
O O13 0.750000 0.285052 0.410686
O O14 0.520772 0.289114 0.328334
O O15 0.750000 0.719774 0.280767
O O16 0.970745 0.703054 0.190265
O O17 0.933726 0.824198 0.267580
O O18 0.750000 0.855975 0.623221
O O19 0.750000 0.921319 0.226999
#
# Coordination Sequence:
#
# PCOD8192128 Si02
#       8
#     8   8   8   4   8   8   8   8
#     4  10  22  36  51  79 113 149 191 231 277 337
#     4  12  24  36  53  78 111 148 186 225 272 334
#     4  10  19  36  56  77 107 145 185 231 280 333
#     4  12  22  36  56  80 118 160 194 230 278 350
#     4  10  20  34  52  81 112 141 182 231 286 336
#     4  10  19  35  55  80 108 141 185 231 279 336
#     4   9  19  35  56  78 105 145 192 236 282 333
#     4  11  22  35  52  77 112 153 190 226 273 329
#
# _framework density 18.801064
#
# number of rings (size 3 to 8) (size 9 to 14) (size 15 to 20)
#    0.000    1.600    3.333    2.400    0.000    3.733 
#    0.000    0.000    0.000    0.000    1.733    0.000 
#    0.000    0.000    0.000    0.000    0.000    0.000 
#
# Total GULP energy -371746.903658 kJ/mol
# GULP energy per Si atom -12391.563455 kJ/mol
# Density = 1.875827 g / cm^3
# Si number density = 18.801064 Si / 1000 Ang^3
#
#
#
# Elastic Constant Matrix: (Units=GPa)
#
#
# Indices 1 2 3 4 5 6 
#
# 1 125.1643 26.4562 57.3086 0.0000 0.0000 0.0000
# 2 26.4562 47.0790 32.3733 0.0000 0.0000 0.0000
# 3 57.3086 32.3733 132.5893 0.0000 0.0000 0.0000
# 4 0.0000 0.0000 0.0000 32.2703 0.0000 0.0000
# 5 0.0000 0.0000 0.0000 0.0000 32.2653 0.0000
# 6 0.0000 0.0000 0.0000 0.0000 0.0000 19.0852
#
#
#
# Elastic Compliance Matrix: (Units=1/GPa)
#
#
# Indices 1 2 3 4 5 6 
#
# 1 0.010370 -0.003299 -0.003677 0.000000 0.000000 0.000000
# 2 -0.003299 0.026576 -0.005063 0.000000 0.000000 0.000000
# 3 -0.003677 -0.005063 0.010367 0.000000 0.000000 0.000000
# 4 0.000000 0.000000 0.000000 0.030988 0.000000 0.000000
# 5 0.000000 0.000000 0.000000 0.000000 0.030993 0.000000
# 6 0.000000 0.000000 0.000000 0.000000 0.000000 0.052397
#
#
# Mechanical properties :
#
#
# Convention : Reuss Voigt Hill
#
# Bulk Modulus (GPa) = 43.03634 59.67875 51.35754
# Shear Modulus (GPa) = 25.83772 29.30380 27.57076
#
# Velocity S-wave (km/s) = 3.71114 3.95222 3.83358
# Velocity P-wave (km/s) = 6.42677 7.25520 6.85352
#
# Compressibility (1/GPa) = 0.02323618
#
# Stress axis : x y z
#
# Youngs Moduli (GPa) = 96.42870 37.62736 96.45576
#
# Poissons Ratio (x) = 0.12415 0.35464
# Poissons Ratio (y) = 0.31815 0.48834
# Poissons Ratio (z) = 0.35454 0.19050
#
# Static dielectric constant tensor:
#      x y z
#    x 3.587360 0.000000 0.000000 
#    y 0.000000 3.226310 0.000000 
#    z 0.000000 0.000000 3.454290 
# 
# 
# High freq. dielectric constant tensor:
#      x y z
#    x 1.735680 0.000000 0.000000 
#    y 0.000000 1.695460 0.000000 
#    z 0.000000 0.000000 1.721710 
# 
# From -- ./inp_files/18352.got.cif
#   From: 2010.03.12/outbox.cif.g09.slc.cpg/sg46_10_cif.got.tgz:18352.got - 2010.04.14 02:56:35.
