data_PCOD8192044
_publ_section_title
;
Structure prediction by ZEFSAII (Michael W. Deem and Ramdas Pophale) SiO2 
 PCOD8192044
Probable space group: I M A 2
;
_chemical_formula_sum "Si O2"
_cell_formula_units_Z 48
_cell_length_a 8.900062
_cell_length_b 31.158370
_cell_length_c 9.253193
_cell_angle_alpha 90.000000
_cell_angle_beta 90.000000
_cell_angle_gamma 90.000000
_cell_volume 2566.016135
_symmetry_space_group_name_H-M "I M A 2"
_symmetry_group_IT_number 46
_symmetry_cell_setting 'orthorhombic'
loop_
_space_group_symop_operation_xyz
x,y,z
-x,-y,z
1/2-x,y,z
1/2+x,-y,z
1/2+x,1/2+y,1/2+z
1/2-x,1/2-y,1/2+z
-x,1/2+y,1/2+z
x,1/2-y,1/2+z
loop_
_atom_site_type_symbol
_atom_site_label
_atom_site_fract_x
_atom_site_fract_y
_atom_site_fract_z
Si Si1 0.572747 0.787645 0.158840
Si Si2 0.571283 0.795504 0.829246
Si Si3 0.914358 0.540669 0.825931
Si Si4 0.918103 0.541674 0.168309
Si Si5 0.071608 0.870171 0.657239
Si Si6 0.569856 0.865902 0.350116
O O1 0.750000 0.788382 0.172085
O O2 0.512847 0.744935 0.236680
O O3 0.510779 0.830036 0.239226
O O4 0.521214 0.787214 0.993649
O O5 0.750000 0.802552 0.814657
O O6 0.483176 0.837166 0.777884
O O7 0.750000 0.538692 0.756499
O O8 0.986303 0.587461 0.790841
O O9 0.000000 0.500000 0.757142
O O10 0.907059 0.536136 0.997345
O O11 0.750000 0.545826 0.233383
O O12 0.000000 0.500000 0.235821
O O13 0.014591 0.583351 0.208363
O O14 0.250000 0.870727 0.644798
O O15 0.001054 0.855837 0.505174
O O16 0.750000 0.866369 0.369789
#
# Coordination Sequence:
#
# PCOD8192044 Si02
#       6
#     8   8   8   8   8   8
#     4   9  18  33  57  80  98 125 168 216 264 315
#     4  10  19  34  55  77  98 127 167 214 263 314
#     4   8  14  23  40  66  98 129 160 198 241 285
#     4   9  16  28  47  73 103 135 170 213 256 298
#     4  11  21  32  48  74 106 141 175 210 251 301
#     4   9  17  32  52  76 102 131 169 215 259 305
#
# _framework density 18.706039000000001
#
# number of rings (size 3 to 8) (size 9 to 14) (size 15 to 20)
#    0.000    2.667    0.000    4.000    0.000    6.667 
#    0.000    4.167    0.000    1.000    0.000    2.333 
#    0.000    0.000    0.000    0.000    0.000    0.000 
#
# Total GULP energy -297509.835859 kJ/mol
# GULP energy per Si atom -12396.243161 kJ/mol
# Density = 1.866346 g / cm^3
# Si number density = 18.706039 Si / 1000 Ang^3
#
#
#
# Elastic Constant Matrix: (Units=GPa)
#
#
# Indices 1 2 3 4 5 6 
#
# 1 74.5337 44.2377 28.6164 0.0003 0.0001 0.0000
# 2 44.2377 165.5198 65.2154 0.0004 0.0000 0.0000
# 3 28.6164 65.2154 85.5109 0.0004 -0.0001 0.0000
# 4 0.0003 0.0004 0.0004 24.3199 -0.0001 0.0000
# 5 0.0001 0.0000 -0.0001 -0.0001 10.8491 0.0001
# 6 0.0000 0.0000 0.0000 0.0000 0.0001 29.6214
#
#
#
# Elastic Compliance Matrix: (Units=1/GPa)
#
#
# Indices 1 2 3 4 5 6 
#
# 1 0.016497 -0.003193 -0.003085 0.000000 0.000000 0.000000
# 2 -0.003193 0.009255 -0.005990 0.000000 0.000000 0.000000
# 3 -0.003085 -0.005990 0.017295 0.000000 0.000000 0.000000
# 4 0.000000 0.000000 0.000000 0.041119 0.000000 0.000000
# 5 0.000000 0.000000 0.000000 0.000000 0.092173 0.000000
# 6 0.000000 0.000000 0.000000 0.000000 0.000000 0.033759
#
#
# Mechanical properties :
#
#
# Convention : Reuss Voigt Hill
#
# Bulk Modulus (GPa) = 54.02472 66.85593 60.44033
# Shear Modulus (GPa) = 20.76373 25.45776 23.11074
#
# Velocity S-wave (km/s) = 3.33528 3.69309 3.51874
# Velocity P-wave (km/s) = 6.61632 7.34868 6.99210
#
# Compressibility (1/GPa) = 0.01851005
#
# Stress axis : x y z
#
# Youngs Moduli (GPa) = 60.61842 108.04930 57.82033
#
# Poissons Ratio (x) = 0.34505 0.17838
# Poissons Ratio (y) = 0.19358 0.34633
# Poissons Ratio (z) = 0.18702 0.64718
#
# Static dielectric constant tensor:
#      x y z
#    x 3.301390 0.000000 0.000000 
#    y 0.000000 3.813170 0.000000 
#    z 0.000000 0.000000 3.099290 
# 
# 
# High freq. dielectric constant tensor:
#      x y z
#    x 1.702030 0.000000 0.000000 
#    y 0.000000 1.749990 0.000000 
#    z 0.000000 0.000000 1.682370 
# 
# From -- ./inp_files/3956.got.cif
#   From: 2010.03.12/outbox.cif.g09.slc.cpg/sg46_2_cif.got.tgz:3956.got - 2010.04.14 02:56:35.
