data_PCOD8192637
_publ_section_title
;
Structure prediction by ZEFSAII (Michael W. Deem and Ramdas Pophale) SiO2 
 PCOD8192637
Probable space group: I M A 2
;
_chemical_formula_sum "Si O2"
_cell_formula_units_Z 40
_cell_length_a 22.681146
_cell_length_b 12.194594
_cell_length_c 7.375157
_cell_angle_alpha 90.000000
_cell_angle_beta 90.000000
_cell_angle_gamma 90.000000
_cell_volume 2039.875255
_symmetry_space_group_name_H-M "I M A 2"
_symmetry_group_IT_number 46
_symmetry_cell_setting 'orthorhombic'
loop_
_space_group_symop_operation_xyz
x,y,z
-x,-y,z
1/2-x,y,z
1/2+x,-y,z
1/2+x,1/2+y,1/2+z
1/2-x,1/2-y,1/2+z
-x,1/2+y,1/2+z
x,1/2-y,1/2+z
loop_
_atom_site_type_symbol
_atom_site_label
_atom_site_fract_x
_atom_site_fract_y
_atom_site_fract_z
Si Si1 0.901378 0.028869 0.125000
Si Si2 0.861334 0.363305 0.276839
Si Si3 0.683304 0.129940 0.401141
Si Si4 0.009740 0.618187 0.147067
Si Si5 0.982683 0.848316 0.043652
O O1 0.857395 0.044834 0.292289
O O2 0.955846 0.114964 0.137185
O O3 0.926785 0.905083 0.141583
O O4 0.866146 0.046137 0.935230
O O5 0.840663 0.252250 0.372647
O O6 0.922742 0.347867 0.170746
O O7 0.816784 0.398291 0.116302
O O8 0.750000 0.119992 0.329022
O O9 0.978047 0.716245 0.036918
O O10 0.978554 0.606101 0.340681
O O11 0.000000 0.500000 0.046687
#
# Coordination Sequence:
#
# PCOD8192637 Si02
#       5
#     8   8   8   8   8
#     4  10  21  39  55  83 129 158 194 250 305 371
#     4  11  20  36  53  82 129 158 194 253 299 366
#     4  12  23  34  58  90 119 165 211 248 310 359
#     4  11  20  36  58  88 125 160 195 246 307 372
#     4  10  20  37  57  89 124 161 195 239 313 376
#
# _framework density 19.609041000000001
#
# number of rings (size 3 to 8) (size 9 to 14) (size 15 to 20)
#    0.000    1.200    8.000    1.800    0.000    2.400 
#    0.000    0.000    0.000    0.000    0.000    7.000 
#    0.000    0.000    0.000    0.000    0.000    0.000 
#
# Total GULP energy -247935.335625 kJ/mol
# GULP energy per Si atom -12396.766781 kJ/mol
# Density = 1.956441 g / cm^3
# Si number density = 19.609041 Si / 1000 Ang^3
#
#
#
# Elastic Constant Matrix: (Units=GPa)
#
#
# Indices 1 2 3 4 5 6 
#
# 1 87.1197 36.7874 27.4729 0.0000 0.0000 0.0000
# 2 36.7874 143.3636 22.6066 0.0000 0.0000 0.0000
# 3 27.4729 22.6066 71.7710 0.0000 0.0000 0.0000
# 4 0.0000 0.0000 0.0000 19.4658 0.0000 0.0000
# 5 0.0000 0.0000 0.0000 0.0000 27.0441 0.0000
# 6 0.0000 0.0000 0.0000 0.0000 0.0000 19.3439
#
#
#
# Elastic Compliance Matrix: (Units=1/GPa)
#
#
# Indices 1 2 3 4 5 6 
#
# 1 0.014126 -0.002917 -0.004488 0.000000 0.000000 0.000000
# 2 -0.002917 0.007942 -0.001385 0.000000 0.000000 0.000000
# 3 -0.004488 -0.001385 0.016088 0.000000 0.000000 0.000000
# 4 0.000000 0.000000 0.000000 0.051372 0.000000 0.000000
# 5 0.000000 0.000000 0.000000 0.000000 0.036977 0.000000
# 6 0.000000 0.000000 0.000000 0.000000 0.000000 0.051696
#
#
# Mechanical properties :
#
#
# Convention : Reuss Voigt Hill
#
# Bulk Modulus (GPa) = 48.60340 52.88755 50.74548
# Shear Modulus (GPa) = 24.67449 27.52994 26.10221
#
# Velocity S-wave (km/s) = 3.55113 3.75099 3.65243
# Velocity P-wave (km/s) = 6.45400 6.76679 6.61224
#
# Compressibility (1/GPa) = 0.02057469
#
# Stress axis : x y z
#
# Youngs Moduli (GPa) = 70.79384 125.91033 62.15990
#
# Poissons Ratio (x) = 0.36727 0.27899
# Poissons Ratio (y) = 0.20650 0.08610
# Poissons Ratio (z) = 0.31774 0.17440
#
# Static dielectric constant tensor:
#      x y z
#    x 3.396830 0.000000 0.000000 
#    y 0.000000 3.617120 0.000000 
#    z 0.000000 0.000000 3.676700 
# 
# 
# High freq. dielectric constant tensor:
#      x y z
#    x 1.732280 0.000000 0.000000 
#    y 0.000000 1.736710 0.000000 
#    z 0.000000 0.000000 1.774100 
# 
# From -- ./inp_files/7241.got.cif
#   From: 2010.03.12/outbox.cif.g09.slc.cpg/sg46_4_cif.got.tgz:7241.got - 2010.04.14 02:56:35.
