data_PCOD8192219
_publ_section_title
;
Structure prediction by ZEFSAII (Michael W. Deem and Ramdas Pophale) SiO2 
 PCOD8192219
Probable space group: I M A 2
;
_chemical_formula_sum "Si O2"
_cell_formula_units_Z 40
_cell_length_a 13.592779
_cell_length_b 16.356649
_cell_length_c 7.691388
_cell_angle_alpha 90.000000
_cell_angle_beta 90.000000
_cell_angle_gamma 90.000000
_cell_volume 1710.044100
_symmetry_space_group_name_H-M "I M A 2"
_symmetry_group_IT_number 46
_symmetry_cell_setting 'orthorhombic'
loop_
_space_group_symop_operation_xyz
x,y,z
-x,-y,z
1/2-x,y,z
1/2+x,-y,z
1/2+x,1/2+y,1/2+z
1/2-x,1/2-y,1/2+z
-x,1/2+y,1/2+z
x,1/2-y,1/2+z
loop_
_atom_site_type_symbol
_atom_site_label
_atom_site_fract_x
_atom_site_fract_y
_atom_site_fract_z
Si Si1 0.362438 0.105733 0.422650
Si Si2 0.639068 0.474719 0.220814
Si Si3 0.451106 0.675428 0.067734
Si Si4 0.863776 0.510077 0.595482
Si Si5 0.863299 0.164135 0.211725
O O1 0.250000 0.140050 0.418661
O O2 0.436885 0.174739 0.493477
O O3 0.369926 0.028259 0.549174
O O4 0.403476 0.077603 0.232410
O O5 0.750000 0.441637 0.246738
O O6 0.565987 0.397177 0.208105
O O7 0.611845 0.529080 0.393150
O O8 0.434138 0.763141 0.150988
O O9 0.370479 0.658646 0.919261
O O10 0.750000 0.506664 0.640741
O O11 0.906187 0.419448 0.630408
O O12 0.750000 0.180253 0.157595
#
# Coordination Sequence:
#
# PCOD8192219 Si02
#       5
#     8   8   8   8   8
#     4  10  22  43  64  90 129 175 225 278 327 395
#     4  10  19  36  63  94 128 163 213 276 336 395
#     4  12  23  39  60  98 132 177 221 274 346 408
#     4   9  19  38  65  93 124 167 211 268 336 396
#     4  11  22  38  62  92 131 167 209 271 341 406
#
# _framework density 23.391209
#
# number of rings (size 3 to 8) (size 9 to 14) (size 15 to 20)
#    0.000    1.600    2.000    3.600    0.000    1.600 
#   10.800    1.000    0.000    0.000    0.000    0.000 
#    0.000    0.000    0.000    0.000    0.000    0.000 
#
# Total GULP energy -247919.790303 kJ/mol
# GULP energy per Si atom -12395.989515 kJ/mol
# Density = 2.333797 g / cm^3
# Si number density = 23.391209 Si / 1000 Ang^3
#
#
#
# Elastic Constant Matrix: (Units=GPa)
#
#
# Indices 1 2 3 4 5 6 
#
# 1 128.4813 19.6945 13.5715 0.0000 0.0000 0.0000
# 2 19.6945 25.1012 -3.0981 0.0000 0.0000 0.0000
# 3 13.5715 -3.0981 117.6949 0.0000 0.0000 0.0000
# 4 0.0000 0.0000 0.0000 30.8159 0.0000 0.0000
# 5 0.0000 0.0000 0.0000 0.0000 26.3813 0.0000
# 6 0.0000 0.0000 0.0000 0.0000 0.0000 1.7769
#
#
#
# Elastic Compliance Matrix: (Units=1/GPa)
#
#
# Indices 1 2 3 4 5 6 
#
# 1 0.009022 -0.007230 -0.001231 0.000000 0.000000 0.000000
# 2 -0.007230 0.045763 0.002038 0.000000 0.000000 0.000000
# 3 -0.001231 0.002038 0.008692 0.000000 0.000000 0.000000
# 4 0.000000 0.000000 0.000000 0.032451 0.000000 0.000000
# 5 0.000000 0.000000 0.000000 0.000000 0.037906 0.000000
# 6 0.000000 0.000000 0.000000 0.000000 0.000000 0.562790
#
#
# Mechanical properties :
#
#
# Convention : Reuss Voigt Hill
#
# Bulk Modulus (GPa) = 19.75038 36.84589 28.29814
# Shear Modulus (GPa) = 6.88378 27.86880 17.37629
#
# Velocity S-wave (km/s) = 1.71735 3.45544 2.72849
# Velocity P-wave (km/s) = 3.52054 5.63084 4.69577
#
# Compressibility (1/GPa) = 0.05063194
#
# Stress axis : x y z
#
# Youngs Moduli (GPa) = 110.84611 21.85162 115.04694
#
# Poissons Ratio (x) = 0.15799 0.14158
# Poissons Ratio (y) = 0.80144 -0.23451
# Poissons Ratio (z) = 0.13641 -0.04454
#
# Static dielectric constant tensor:
#      x y z
#    x 4.331730 0.000000 0.000000 
#    y 0.000000 3.705720 0.000000 
#    z 0.000000 0.000000 4.387870 
# 
# 
# High freq. dielectric constant tensor:
#      x y z
#    x 1.932920 0.000000 0.000000 
#    y 0.000000 1.880830 0.000000 
#    z 0.000000 0.000000 1.940380 
# 
# From -- ./inp_files/5407.got.cif
#   From: 2010.03.12/outbox.cif.g09.slc.cpg/sg46_3_cif.got.tgz:5407.got - 2010.04.14 02:56:35.
