data_PCOD8192288
_publ_section_title
;
Structure prediction by ZEFSAII (Michael W. Deem and Ramdas Pophale) SiO2 
 PCOD8192288
Probable space group: I M A 2
;
_chemical_formula_sum "Si O2"
_cell_formula_units_Z 64
_cell_length_a 8.679467
_cell_length_b 14.646639
_cell_length_c 27.415539
_cell_angle_alpha 90.000000
_cell_angle_beta 90.000000
_cell_angle_gamma 90.000000
_cell_volume 3485.200940
_symmetry_space_group_name_H-M "I M A 2"
_symmetry_group_IT_number 46
_symmetry_cell_setting 'orthorhombic'
loop_
_space_group_symop_operation_xyz
x,y,z
-x,-y,z
1/2-x,y,z
1/2+x,-y,z
1/2+x,1/2+y,1/2+z
1/2-x,1/2-y,1/2+z
-x,1/2+y,1/2+z
x,1/2-y,1/2+z
loop_
_atom_site_type_symbol
_atom_site_label
_atom_site_fract_x
_atom_site_fract_y
_atom_site_fract_z
Si Si1 0.931366 0.595141 0.849170
Si Si2 0.931685 0.776182 0.163835
Si Si3 0.932422 0.096255 0.244017
Si Si4 0.930131 0.406367 0.017024
Si Si5 0.929534 0.405860 0.471925
Si Si6 0.933265 0.096490 0.627095
Si Si7 0.068784 0.404528 0.575885
Si Si8 0.428784 0.782293 0.428930
O O1 0.750000 0.584419 0.842493
O O2 0.000000 0.500000 0.869728
O O3 0.007060 0.619507 0.797727
O O4 0.967779 0.677035 0.886100
O O5 0.750000 0.778090 0.172484
O O6 0.979693 0.827163 0.114121
O O7 0.014655 0.823089 0.209107
O O8 0.992691 0.673172 0.161371
O O9 0.750000 0.088973 0.244864
O O10 0.000000 0.000000 0.225231
O O11 0.750000 0.420306 0.018859
O O12 0.990153 0.384843 0.071536
O O13 0.000000 0.500000 0.996556
O O14 0.978595 0.325640 0.980695
O O15 0.750000 0.420128 0.481073
O O16 0.960816 0.326023 0.432693
O O17 0.000000 0.500000 0.451303
O O18 0.002751 0.377511 0.523367
O O19 0.750000 0.097660 0.632116
O O20 0.000000 0.000000 0.645224
O O21 0.250000 0.415267 0.571655
O O22 0.000000 0.500000 0.594567
O O23 0.250000 0.802884 0.417799
#
# Coordination Sequence:
#
# PCOD8192288 Si02
#       8
#     8   8   8   8   8   8   8   8
#     4  11  22  37  57  81 109 138 168 209 258 313
#     4  11  22  35  53  79 107 139 179 220 262 314
#     4  11  22  38  59  82 109 139 170 210 260 315
#     4   9  18  31  48  72 104 138 174 213 257 307
#     4  10  20  34  52  73 104 141 179 221 261 304
#     4  10  20  35  53  75 105 143 182 222 265 309
#     4  10  20  32  49  74 107 142 177 216 259 309
#     4  10  20  34  52  76 104 138 177 217 260 309
#
# _framework density 18.363358999999999
#
# number of rings (size 3 to 8) (size 9 to 14) (size 15 to 20)
#    0.000    1.750    0.000    6.750    0.000    7.000 
#    0.000    0.000    0.000    0.750    0.000    3.500 
#    0.000    0.000    0.000    0.000    0.000    0.000 
#
# Total GULP energy -396908.170278 kJ/mol
# GULP energy per Si atom -12403.380321 kJ/mol
# Density = 1.832156 g / cm^3
# Si number density = 18.363359 Si / 1000 Ang^3
#
#
#
# Elastic Constant Matrix: (Units=GPa)
#
#
# Indices 1 2 3 4 5 6 
#
# 1 108.9342 51.8354 42.9368 0.0000 0.0000 0.0000
# 2 51.8354 132.5526 62.6401 0.0000 0.0000 0.0000
# 3 42.9368 62.6401 76.1540 0.0000 0.0000 0.0000
# 4 0.0000 0.0000 0.0000 29.0419 0.0000 0.0000
# 5 0.0000 0.0000 0.0000 0.0000 27.9875 0.0000
# 6 0.0000 0.0000 0.0000 0.0000 0.0000 31.6116
#
#
#
# Elastic Compliance Matrix: (Units=1/GPa)
#
#
# Indices 1 2 3 4 5 6 
#
# 1 0.012291 -0.002506 -0.004869 0.000000 0.000000 0.000000
# 2 -0.002506 0.012852 -0.009159 0.000000 0.000000 0.000000
# 3 -0.004869 -0.009159 0.023410 0.000000 0.000000 0.000000
# 4 0.000000 0.000000 0.000000 0.034433 0.000000 0.000000
# 5 0.000000 0.000000 0.000000 0.000000 0.035730 0.000000
# 6 0.000000 0.000000 0.000000 0.000000 0.000000 0.031634
#
#
# Mechanical properties :
#
#
# Convention : Reuss Voigt Hill
#
# Bulk Modulus (GPa) = 64.57186 70.27392 67.42289
# Shear Modulus (GPa) = 26.51399 28.41009 27.46204
#
# Velocity S-wave (km/s) = 3.80393 3.93760 3.87134
# Velocity P-wave (km/s) = 7.38464 7.68274 7.53517
#
# Compressibility (1/GPa) = 0.01548662
#
# Stress axis : x y z
#
# Youngs Moduli (GPa) = 81.35849 77.80804 42.71677
#
# Poissons Ratio (x) = 0.19496 0.20799
# Poissons Ratio (y) = 0.20385 0.39123
# Poissons Ratio (z) = 0.39614 0.71262
#
# Static dielectric constant tensor:
#      x y z
#    x 3.430730 0.000000 0.000000 
#    y 0.000000 3.399420 0.000000 
#    z 0.000000 0.000000 3.237540 
# 
# 
# High freq. dielectric constant tensor:
#      x y z
#    x 1.725010 0.000000 0.000000 
#    y 0.000000 1.713750 0.000000 
#    z 0.000000 0.000000 1.689310 
# 
# From -- ./inp_files/23239.got.cif
#   From: 2010.03.12/outbox.cif.g09.slc.cpg/sg46_12_cif.got.tgz:23239.got - 2010.04.14 02:56:35.
