data_PCOD8192745
_publ_section_title
;
Structure prediction by ZEFSAII (Michael W. Deem and Ramdas Pophale) SiO2 
 PCOD8192745
Probable space group: I M A 2
;
_chemical_formula_sum "Si O2"
_cell_formula_units_Z 56
_cell_length_a 19.613562
_cell_length_b 5.454634
_cell_length_c 24.582393
_cell_angle_alpha 90.000000
_cell_angle_beta 90.000000
_cell_angle_gamma 90.000000
_cell_volume 2629.942451
_symmetry_space_group_name_H-M "I M A 2"
_symmetry_group_IT_number 46
_symmetry_cell_setting 'orthorhombic'
loop_
_space_group_symop_operation_xyz
x,y,z
-x,-y,z
1/2-x,y,z
1/2+x,-y,z
1/2+x,1/2+y,1/2+z
1/2-x,1/2-y,1/2+z
-x,1/2+y,1/2+z
x,1/2-y,1/2+z
loop_
_atom_site_type_symbol
_atom_site_label
_atom_site_fract_x
_atom_site_fract_y
_atom_site_fract_z
Si Si1 0.825412 0.120428 0.560520
Si Si2 0.461469 0.744941 0.232316
Si Si3 0.672228 0.981293 0.890373
Si Si4 0.930217 0.101098 0.121946
Si Si5 0.829475 0.014374 0.438916
Si Si6 0.174734 0.594162 0.268124
Si Si7 0.824704 0.734616 0.162668
O O1 0.750000 0.243404 0.557667
O O2 0.883324 0.321681 0.571563
O O3 0.842613 0.994775 0.503425
O O4 0.828927 0.934487 0.609872
O O5 0.500000 0.500000 0.254768
O O6 0.450999 0.696806 0.167205
O O7 0.388087 0.781276 0.262110
O O8 0.500000 0.000000 0.243771
O O9 0.750000 0.983719 0.911044
O O10 0.636720 0.733468 0.913980
O O11 0.638135 0.234395 0.913532
O O12 0.667360 0.958880 0.825570
O O13 0.887745 0.916008 0.159918
O O14 0.000000 0.000000 0.095656
O O15 0.750000 0.015137 0.423676
O O16 0.250000 0.723622 0.264919
O O17 0.167058 0.403982 0.219185
O O18 0.750000 0.866348 0.161912
#
# Coordination Sequence:
#
# PCOD8192745 Si02
#       7
#     8   8   8   8   8   8   8
#     4  10  21  36  58  87 122 158 203 260 316 370
#     4  11  24  41  60  88 128 170 208 244 308 387
#     4   9  19  35  57  88 119 155 202 252 303 356
#     4  11  23  35  58  85 125 165 211 247 305 381
#     4   9  19  35  56  84 120 158 199 248 304 363
#     4  10  20  38  64  94 128 161 209 269 318 369
#     4  10  21  37  58  92 127 157 197 254 320 372
#
# _framework density 21.293240999999998
#
# number of rings (size 3 to 8) (size 9 to 14) (size 15 to 20)
#    0.000    2.000    1.429    2.143    2.000    2.857 
#    0.000    5.000    0.000    0.857    3.714    0.000 
#    0.000    0.000    0.000    0.000    0.000    0.000 
#
# Total GULP energy -346900.878637 kJ/mol
# GULP energy per Si atom -12389.317094 kJ/mol
# Density = 2.124478 g / cm^3
# Si number density = 21.293241 Si / 1000 Ang^3
#
#
#
# Elastic Constant Matrix: (Units=GPa)
#
#
# Indices 1 2 3 4 5 6 
#
# 1 136.1851 45.8112 28.6818 0.0000 0.0000 0.0000
# 2 45.8112 126.9057 53.8339 0.0000 0.0000 0.0000
# 3 28.6818 53.8339 133.0825 0.0000 0.0000 0.0000
# 4 0.0000 0.0000 0.0000 22.3255 0.0000 0.0000
# 5 0.0000 0.0000 0.0000 0.0000 -86.4684 0.0000
# 6 0.0000 0.0000 0.0000 0.0000 0.0000 23.0290
#
#
#
# Elastic Compliance Matrix: (Units=1/GPa)
#
#
# Indices 1 2 3 4 5 6 
#
# 1 0.008412 -0.002737 -0.000706 0.000000 0.000000 0.000000
# 2 -0.002737 0.010403 -0.003618 0.000000 0.000000 0.000000
# 3 -0.000706 -0.003618 0.009130 0.000000 0.000000 0.000000
# 4 0.000000 0.000000 0.000000 0.044792 0.000000 0.000000
# 5 0.000000 0.000000 0.000000 0.000000 -0.011565 0.000000
# 6 0.000000 0.000000 0.000000 0.000000 0.000000 0.043424
#
#
# Mechanical properties :
#
#
# Convention : Reuss Voigt Hill
#
# Bulk Modulus (GPa) = 72.34546 72.53635 72.44091
# Shear Modulus (GPa) = 40.54305 9.63364 25.08834
#
# Velocity S-wave (km/s) = 4.36826 2.12934 3.43626
# Velocity P-wave (km/s) = 7.71309 6.33915 7.05963
#
# Compressibility (1/GPa) = 0.01382257
#
# Stress axis : x y z
#
# Youngs Moduli (GPa) = 118.87200 96.12730 109.53107
#
# Poissons Ratio (x) = 0.26314 0.07730
# Poissons Ratio (y) = 0.32540 0.39630
# Poissons Ratio (z) = 0.08389 0.34780
#
# Static dielectric constant tensor:
#      x y z
#    x 4.115550 0.000000 0.000000 
#    y 0.000000 3.806910 0.000000 
#    z 0.000000 0.000000 3.747640 
# 
# 
# High freq. dielectric constant tensor:
#      x y z
#    x 1.815420 0.000000 0.000000 
#    y 0.000000 1.821090 0.000000 
#    z 0.000000 0.000000 1.828030 
# 
# From -- ./inp_files/23831.got.cif
#   From: 2010.03.12/outbox.cif.g09.slc.cpg/sg46_12_cif.got.tgz:23831.got - 2010.04.14 02:56:35.
