data_PCOD8192094
_publ_section_title
;
Structure prediction by ZEFSAII (Michael W. Deem and Ramdas Pophale) SiO2 
 PCOD8192094
Probable space group: I M A 2
;
_chemical_formula_sum "Si O2"
_cell_formula_units_Z 48
_cell_length_a 8.993932
_cell_length_b 23.246407
_cell_length_c 11.609745
_cell_angle_alpha 90.000000
_cell_angle_beta 90.000000
_cell_angle_gamma 90.000000
_cell_volume 2427.326056
_symmetry_space_group_name_H-M "I M A 2"
_symmetry_group_IT_number 46
_symmetry_cell_setting 'orthorhombic'
loop_
_space_group_symop_operation_xyz
x,y,z
-x,-y,z
1/2-x,y,z
1/2+x,-y,z
1/2+x,1/2+y,1/2+z
1/2-x,1/2-y,1/2+z
-x,1/2+y,1/2+z
x,1/2-y,1/2+z
loop_
_atom_site_type_symbol
_atom_site_label
_atom_site_fract_x
_atom_site_fract_y
_atom_site_fract_z
Si Si1 0.074655 0.437541 0.984740
Si Si2 0.415082 0.442755 0.555501
Si Si3 0.422573 0.275154 0.602026
Si Si4 0.919449 0.650063 0.181548
Si Si5 0.086289 0.364643 0.776273
Si Si6 0.924970 0.349309 0.417607
O O1 0.250000 0.446311 0.963515
O O2 0.004699 0.395980 0.884121
O O3 0.000000 0.500000 0.984614
O O4 0.042835 0.406096 0.105873
O O5 0.500000 0.500000 0.584683
O O6 0.250000 0.455096 0.507175
O O7 0.406173 0.409715 0.674152
O O8 0.506597 0.409011 0.459421
O O9 0.250000 0.294195 0.589219
O O10 0.440339 0.206920 0.604214
O O11 0.486226 0.306475 0.719798
O O12 0.509296 0.295915 0.489160
O O13 0.750000 0.647001 0.227987
O O14 0.035064 0.656044 0.284258
O O15 0.250000 0.347786 0.822029
O O16 0.750000 0.350066 0.433944
#
# Coordination Sequence:
#
# PCOD8192094 Si02
#       6
#     8   8   8   8   8   8
#     4  10  21  37  57  85 117 154 195 237 287 350
#     4  10  19  34  57  84 114 149 193 240 291 345
#     4   9  19  37  63  88 112 145 192 250 300 351
#     4  10  22  38  61  85 112 153 200 245 291 349
#     4   8  16  32  56  86 115 142 183 237 291 346
#     4  11  23  38  56  82 119 153 189 237 292 357
#
# _framework density 19.774846
#
# number of rings (size 3 to 8) (size 9 to 14) (size 15 to 20)
#    0.000    2.333    0.000    3.500    2.333    2.000 
#    0.000    5.000    0.000    0.000    0.000    0.000 
#    0.000    0.000    0.000    0.000    0.000    0.000 
#
# Total GULP energy -297473.906223 kJ/mol
# GULP energy per Si atom -12394.746093 kJ/mol
# Density = 1.972984 g / cm^3
# Si number density = 19.774846 Si / 1000 Ang^3
#
#
#
# Elastic Constant Matrix: (Units=GPa)
#
#
# Indices 1 2 3 4 5 6 
#
# 1 89.0416 21.8084 32.5294 0.0000 0.0000 -0.0001
# 2 21.8084 86.7484 22.9926 0.0000 -0.0001 -0.0001
# 3 32.5294 22.9926 91.4587 0.0018 0.0000 0.0001
# 4 0.0000 0.0000 0.0018 6.2178 -0.0003 -0.0003
# 5 0.0000 -0.0001 0.0000 -0.0003 21.5018 0.0000
# 6 -0.0001 -0.0001 0.0001 -0.0003 0.0000 24.0249
#
#
#
# Elastic Compliance Matrix: (Units=1/GPa)
#
#
# Indices 1 2 3 4 5 6 
#
# 1 0.013302 -0.002239 -0.004168 0.000001 0.000000 0.000000
# 2 -0.002239 0.012728 -0.002403 0.000001 0.000000 0.000000
# 3 -0.004168 -0.002403 0.013021 -0.000004 0.000000 0.000000
# 4 0.000001 0.000001 -0.000004 0.160829 0.000002 0.000002
# 5 0.000000 0.000000 0.000000 0.000002 0.046508 0.000000
# 6 0.000000 0.000000 0.000000 0.000002 0.000000 0.041623
#
#
# Mechanical properties :
#
#
# Convention : Reuss Voigt Hill
#
# Bulk Modulus (GPa) = 46.66663 46.87886 46.77274
# Shear Modulus (GPa) = 15.98595 23.01012 19.49803
#
# Velocity S-wave (km/s) = 2.84632 3.41487 3.14347
# Velocity P-wave (km/s) = 5.86960 6.26947 6.07283
#
# Compressibility (1/GPa) = 0.02142859
#
# Stress axis : x y z
#
# Youngs Moduli (GPa) = 75.17714 78.56992 76.80149
#
# Poissons Ratio (x) = 0.17594 0.32012
# Poissons Ratio (y) = 0.16834 0.18457
# Poissons Ratio (z) = 0.31335 0.18882
#
# Static dielectric constant tensor:
#      x y z
#    x 3.420510 0.000000 0.000000 
#    y 0.000000 4.055820 0.000000 
#    z 0.000000 0.000000 3.517990 
# 
# 
# High freq. dielectric constant tensor:
#      x y z
#    x 1.740970 0.000000 0.000000 
#    y 0.000000 1.779830 0.000000 
#    z 0.000000 0.000000 1.770190 
# 
# From -- ./inp_files/9289.got.cif
#   From: 2010.03.12/outbox.cif.g09.slc.cpg/sg46_5_cif.got.tgz:9289.got - 2010.04.14 02:56:35.
