data_PCOD8192325
_publ_section_title
;
Structure prediction by ZEFSAII (Michael W. Deem and Ramdas Pophale) SiO2 
 PCOD8192325
Probable space group: I M A 2
;
_chemical_formula_sum "Si O2"
_cell_formula_units_Z 64
_cell_length_a 8.544665
_cell_length_b 23.057930
_cell_length_c 18.934422
_cell_angle_alpha 90.000000
_cell_angle_beta 90.000000
_cell_angle_gamma 90.000000
_cell_volume 3730.503134
_symmetry_space_group_name_H-M "I M A 2"
_symmetry_group_IT_number 46
_symmetry_cell_setting 'orthorhombic'
loop_
_space_group_symop_operation_xyz
x,y,z
-x,-y,z
1/2-x,y,z
1/2+x,-y,z
1/2+x,1/2+y,1/2+z
1/2-x,1/2-y,1/2+z
-x,1/2+y,1/2+z
x,1/2-y,1/2+z
loop_
_atom_site_type_symbol
_atom_site_label
_atom_site_fract_x
_atom_site_fract_y
_atom_site_fract_z
Si Si1 0.070333 0.274254 0.907750
Si Si2 0.432670 0.336359 0.045505
Si Si3 0.569548 0.659702 0.495707
Si Si4 0.069655 0.726864 0.617121
Si Si5 0.932978 0.063819 0.628992
Si Si6 0.066711 0.562016 0.407387
Si Si7 0.068375 0.116987 0.767761
Si Si8 0.570395 0.258951 0.270757
O O1 0.250000 0.276876 0.884526
O O2 0.964377 0.281890 0.838182
O O3 0.029852 0.325624 0.962834
O O4 0.030699 0.213348 0.944833
O O5 0.250000 0.325710 0.060246
O O6 0.527374 0.292015 0.094407
O O7 0.483652 0.400928 0.065935
O O8 0.750000 0.641652 0.491069
O O9 0.530114 0.678381 0.575899
O O10 0.464525 0.605518 0.472330
O O11 0.250000 0.715400 0.599978
O O12 0.033421 0.721931 0.700532
O O13 0.750000 0.062578 0.614505
O O14 0.965101 0.093136 0.704053
O O15 0.000000 0.000000 0.628196
O O16 0.250000 0.558623 0.391223
O O17 0.000000 0.500000 0.430123
O O18 0.975736 0.583201 0.338353
O O19 0.250000 0.106126 0.750798
O O20 0.039731 0.185110 0.777346
O O21 0.750000 0.279617 0.270793
#
# Coordination Sequence:
#
# PCOD8192325 Si02
#       8
#     8   8   8   8   8   8   8   8
#     4   9  19  33  52  75 104 136 172 212 261 313
#     4  10  20  35  53  75 102 136 176 219 262 309
#     4  10  20  35  53  76 103 136 177 218 262 310
#     4  10  20  33  51  76 106 138 174 216 262 313
#     4  12  24  38  54  75 103 139 181 219 262 310
#     4  12  24  38  55  75 104 140 180 220 261 308
#     4  12  23  36  52  73 106 142 180 218 256 304
#     4  11  21  32  51  79 108 139 176 213 259 312
#
# _framework density 17.155861999999999
#
# number of rings (size 3 to 8) (size 9 to 14) (size 15 to 20)
#    0.000    1.250    2.500    6.000    0.000    4.000 
#    0.000    0.000    0.000    0.000    0.000    0.875 
#    0.000    2.000    0.000    0.000    0.000    0.000 
#
# Total GULP energy -396941.172406 kJ/mol
# GULP energy per Si atom -12404.411638 kJ/mol
# Density = 1.711681 g / cm^3
# Si number density = 17.155862 Si / 1000 Ang^3
#
#
#
# Elastic Constant Matrix: (Units=GPa)
#
#
# Indices 1 2 3 4 5 6 
#
# 1 61.5039 7.9820 31.2858 0.0000 0.0000 0.0000
# 2 7.9820 49.7401 38.9895 0.0000 0.0000 0.0000
# 3 31.2858 38.9895 113.4783 0.0000 0.0000 0.0000
# 4 0.0000 0.0000 0.0000 22.2002 0.0000 0.0000
# 5 0.0000 0.0000 0.0000 0.0000 28.5561 0.0000
# 6 0.0000 0.0000 0.0000 0.0000 0.0000 26.1020
#
#
#
# Elastic Compliance Matrix: (Units=1/GPa)
#
#
# Indices 1 2 3 4 5 6 
#
# 1 0.018987 0.001446 -0.005731 0.000000 0.000000 0.000000
# 2 0.001446 0.027625 -0.009890 0.000000 0.000000 0.000000
# 3 -0.005731 -0.009890 0.013790 0.000000 0.000000 0.000000
# 4 0.000000 0.000000 0.000000 0.045045 0.000000 0.000000
# 5 0.000000 0.000000 0.000000 0.000000 0.035019 0.000000
# 6 0.000000 0.000000 0.000000 0.000000 0.000000 0.038311
#
#
# Mechanical properties :
#
#
# Convention : Reuss Voigt Hill
#
# Bulk Modulus (GPa) = 31.20042 42.35964 36.78003
# Shear Modulus (GPa) = 22.95554 25.13600 24.04577
#
# Velocity S-wave (km/s) = 3.66192 3.83189 3.74787
# Velocity P-wave (km/s) = 6.00878 6.65751 6.34145
#
# Compressibility (1/GPa) = 0.03205085
#
# Stress axis : x y z
#
# Youngs Moduli (GPa) = 52.66776 36.19912 72.51371
#
# Poissons Ratio (x) = -0.05233 0.41561
# Poissons Ratio (y) = -0.07614 0.71717
# Poissons Ratio (z) = 0.30186 0.35801
#
# Static dielectric constant tensor:
#      x y z
#    x 3.288180 0.000000 0.000000 
#    y 0.000000 3.026080 0.000000 
#    z 0.000000 0.000000 3.312690 
# 
# 
# High freq. dielectric constant tensor:
#      x y z
#    x 1.679690 0.000000 0.000000 
#    y 0.000000 1.630750 0.000000 
#    z 0.000000 0.000000 1.658600 
# 
# From -- ./inp_files/18557.got.cif
#   From: 2010.03.12/outbox.cif.g09.slc.cpg/sg46_10_cif.got.tgz:18557.got - 2010.04.14 02:56:35.
