data_PCOD8192774
_publ_section_title
;
Structure prediction by ZEFSAII (Michael W. Deem and Ramdas Pophale) SiO2 
 PCOD8192774
Probable space group: I M A 2
;
_chemical_formula_sum "Si O2"
_cell_formula_units_Z 40
_cell_length_a 26.493656
_cell_length_b 8.450922
_cell_length_c 8.804446
_cell_angle_alpha 90.000000
_cell_angle_beta 90.000000
_cell_angle_gamma 90.000000
_cell_volume 1971.278660
_symmetry_space_group_name_H-M "I M A 2"
_symmetry_group_IT_number 46
_symmetry_cell_setting 'orthorhombic'
loop_
_space_group_symop_operation_xyz
x,y,z
-x,-y,z
1/2-x,y,z
1/2+x,-y,z
1/2+x,1/2+y,1/2+z
1/2-x,1/2-y,1/2+z
-x,1/2+y,1/2+z
x,1/2-y,1/2+z
loop_
_atom_site_type_symbol
_atom_site_label
_atom_site_fract_x
_atom_site_fract_y
_atom_site_fract_z
Si Si1 0.641861 0.628200 0.420030
Si Si2 0.193381 0.848746 0.040810
Si Si3 0.145420 0.430477 0.753089
Si Si4 0.902673 0.339574 0.967564
Si Si5 0.443363 0.551338 0.279068
O O1 0.681679 0.481433 0.410108
O O2 0.624057 0.645480 0.596138
O O3 0.667757 0.789672 0.358468
O O4 0.593089 0.596192 0.315949
O O5 0.250000 0.782864 0.023424
O O6 0.187319 0.936728 0.205805
O O7 0.153512 0.705734 0.028211
O O8 0.101102 0.519102 0.845222
O O9 0.930267 0.190991 0.894934
O O10 0.936781 0.396499 0.105935
O O11 0.500000 0.500000 0.308622
#
# Coordination Sequence:
#
# PCOD8192774 Si02
#       5
#     8   8   8   8   8
#     4   9  21  39  59  92 124 161 200 264 311 374
#     4   9  21  38  61  90 123 166 210 254 320 379
#     4  10  20  39  64  84 130 160 202 260 318 364
#     4  11  21  43  62  91 128 164 212 270 303 389
#     4  11  23  41  63  91 125 165 215 259 321 378
#
# _framework density 20.291398000000001
#
# number of rings (size 3 to 8) (size 9 to 14) (size 15 to 20)
#    1.200    0.800    2.000    1.200    0.000    4.800 
#    0.000    2.000    0.000    0.000    0.000    0.000 
#    0.000    0.000    0.000    0.000    0.000    0.000 
#
# Total GULP energy -247822.978949 kJ/mol
# GULP energy per Si atom -12391.148947 kJ/mol
# Density = 2.024521 g / cm^3
# Si number density = 20.291398 Si / 1000 Ang^3
#
#
#
# Elastic Constant Matrix: (Units=GPa)
#
#
# Indices 1 2 3 4 5 6 
#
# 1 93.8211 -1.0217 24.9215 0.0000 0.0000 0.0000
# 2 -1.0217 49.3074 25.2655 0.0000 0.0000 0.0000
# 3 24.9215 25.2655 110.4173 0.0000 0.0000 0.0000
# 4 0.0000 0.0000 0.0000 36.8020 0.0000 0.0000
# 5 0.0000 0.0000 0.0000 0.0000 21.2248 0.0000
# 6 0.0000 0.0000 0.0000 0.0000 0.0000 17.0688
#
#
#
# Elastic Compliance Matrix: (Units=1/GPa)
#
#
# Indices 1 2 3 4 5 6 
#
# 1 0.011473 0.001773 -0.002995 0.000000 0.000000 0.000000
# 2 0.001773 0.023248 -0.005720 0.000000 0.000000 0.000000
# 3 -0.002995 -0.005720 0.011041 0.000000 0.000000 0.000000
# 4 0.000000 0.000000 0.000000 0.027172 0.000000 0.000000
# 5 0.000000 0.000000 0.000000 0.000000 0.047115 0.000000
# 6 0.000000 0.000000 0.000000 0.000000 0.000000 0.058586
#
#
# Mechanical properties :
#
#
# Convention : Reuss Voigt Hill
#
# Bulk Modulus (GPa) = 31.36911 39.09738 35.23325
# Shear Modulus (GPa) = 24.61263 28.64451 26.62857
#
# Velocity S-wave (km/s) = 3.48653 3.76128 3.62651
# Velocity P-wave (km/s) = 5.63034 6.17841 5.91073
#
# Compressibility (1/GPa) = 0.03187849
#
# Stress axis : x y z
#
# Youngs Moduli (GPa) = 87.15748 43.01354 90.56857
#
# Poissons Ratio (x) = -0.07624 0.27127
# Poissons Ratio (y) = -0.15449 0.51803
# Poissons Ratio (z) = 0.26105 0.24603
#
# Static dielectric constant tensor:
#      x y z
#    x 3.213950 0.000000 0.000000 
#    y 0.000000 3.675510 0.000000 
#    z 0.000000 0.000000 3.730360 
# 
# 
# High freq. dielectric constant tensor:
#      x y z
#    x 1.747810 0.000000 0.000000 
#    y 0.000000 1.795790 0.000000 
#    z 0.000000 0.000000 1.801300 
# 
# From -- ./inp_files/8090.got.cif
#   From: 2010.03.12/outbox.cif.g09.slc.cpg/sg46_5_cif.got.tgz:8090.got - 2010.04.14 02:56:35.
