data_PCOD8192622
_publ_section_title
;
Structure prediction by ZEFSAII (Michael W. Deem and Ramdas Pophale) SiO2 
 PCOD8192622
Probable space group: I M A 2
;
_chemical_formula_sum "Si O2"
_cell_formula_units_Z 64
_cell_length_a 14.898557
_cell_length_b 18.723214
_cell_length_c 9.998582
_cell_angle_alpha 90.000000
_cell_angle_beta 90.000000
_cell_angle_gamma 90.000000
_cell_volume 2789.093161
_symmetry_space_group_name_H-M "I M A 2"
_symmetry_group_IT_number 46
_symmetry_cell_setting 'orthorhombic'
loop_
_space_group_symop_operation_xyz
x,y,z
-x,-y,z
1/2-x,y,z
1/2+x,-y,z
1/2+x,1/2+y,1/2+z
1/2-x,1/2-y,1/2+z
-x,1/2+y,1/2+z
x,1/2-y,1/2+z
loop_
_atom_site_type_symbol
_atom_site_label
_atom_site_fract_x
_atom_site_fract_y
_atom_site_fract_z
Si Si1 0.143312 0.688742 0.697140
Si Si2 0.096087 0.537539 0.784431
Si Si3 0.149370 0.036715 0.532119
Si Si4 0.143549 0.815278 0.891686
Si Si5 0.356451 0.315278 0.926320
Si Si6 0.643312 0.688742 0.620865
Si Si7 0.596087 0.537539 0.533575
Si Si8 0.350630 0.536715 0.285887
O O1 0.250000 0.675832 0.706930
O O2 0.089987 0.621716 0.758122
O O3 0.111686 0.754809 0.788412
O O4 0.111958 0.701537 0.543611
O O5 0.153097 0.522794 0.916591
O O6 0.145989 0.500000 0.659003
O O7 0.000000 0.500000 0.802381
O O8 0.250000 0.056809 0.577242
O O9 0.101735 0.109333 0.478726
O O10 0.099085 0.000000 0.659003
O O11 0.250000 0.821396 0.893310
O O12 0.101735 0.890667 0.839279
O O13 0.250000 0.321395 0.924697
O O14 0.388042 0.298463 0.774395
O O15 0.388315 0.254809 0.029593
O O16 0.750000 0.675832 0.611075
O O17 0.589987 0.621716 0.559883
O O18 0.500000 0.500000 0.515624
O O19 0.653097 0.522794 0.401415
O O20 0.250000 0.556809 0.240764
#
# Coordination Sequence:
#
# PCOD8192622 Si02
#       8
#     8   8   8   8   8   8   8   8
#     4  10  20  36  61  90 122 157 199 251 309 361
#     4  11  23  39  60  82 120 164 207 251 293 358
#     4  10  21  37  61  90 120 155 204 258 310 360
#     4   9  19  34  56  90 123 152 194 250 306 365
#     4   9  19  34  56  90 123 152 194 250 306 365
#     4  10  20  36  61  90 122 157 199 251 309 361
#     4  11  23  39  60  82 120 164 207 251 293 358
#     4  10  21  37  61  90 120 155 204 258 310 360
#
# _framework density 22.946525999999999
#
# number of rings (size 3 to 8) (size 9 to 14) (size 15 to 20)
#    0.000    2.000    2.500    0.750    3.500    1.500 
#    0.000    1.250    0.000    0.000    0.000    0.000 
#    0.000    0.000    0.000    0.000    0.000    0.000 
#
# Total GULP energy -396656.213060 kJ/mol
# GULP energy per Si atom -12395.506658 kJ/mol
# Density = 2.289430 g / cm^3
# Si number density = 22.946526 Si / 1000 Ang^3
#
#
#
# Elastic Constant Matrix: (Units=GPa)
#
#
# Indices 1 2 3 4 5 6 
#
# 1 31.7325 11.4587 5.7501 0.0000 0.0000 0.0000
# 2 11.4587 194.9370 128.2158 0.0000 0.0000 0.0000
# 3 5.7501 128.2158 222.9869 0.0000 0.0000 0.0000
# 4 0.0000 0.0000 0.0000 54.3584 0.0000 0.0000
# 5 0.0000 0.0000 0.0000 0.0000 8.0234 0.0000
# 6 0.0000 0.0000 0.0000 0.0000 0.0000 20.1329
#
#
#
# Elastic Compliance Matrix: (Units=1/GPa)
#
#
# Indices 1 2 3 4 5 6 
#
# 1 0.032221 -0.002167 0.000415 0.000000 0.000000 0.000000
# 2 -0.002167 0.008396 -0.004772 0.000000 0.000000 0.000000
# 3 0.000415 -0.004772 0.007217 0.000000 0.000000 0.000000
# 4 0.000000 0.000000 0.000000 0.018396 0.000000 0.000000
# 5 0.000000 0.000000 0.000000 0.000000 0.124636 0.000000
# 6 0.000000 0.000000 0.000000 0.000000 0.000000 0.049670
#
#
# Mechanical properties :
#
#
# Convention : Reuss Voigt Hill
#
# Bulk Modulus (GPa) = 28.74643 82.27840 55.51241
# Shear Modulus (GPa) = 18.85524 36.78505 27.82015
#
# Velocity S-wave (km/s) = 2.86965 4.00819 3.48572
# Velocity P-wave (km/s) = 4.85125 7.57332 6.35963
#
# Compressibility (1/GPa) = 0.03478693
#
# Stress axis : x y z
#
# Youngs Moduli (GPa) = 31.03596 119.10961 138.55286
#
# Poissons Ratio (x) = 0.25812 -0.05753
# Poissons Ratio (y) = 0.06726 0.66111
# Poissons Ratio (z) = -0.01289 0.56834
#
# Static dielectric constant tensor:
#      x y z
#    x 3.502900 0.000000 0.000000 
#    y 0.000000 4.238240 0.000000 
#    z 0.000000 0.000000 4.516600 
# 
# 
# High freq. dielectric constant tensor:
#      x y z
#    x 1.864610 0.000000 0.000000 
#    y 0.000000 1.907780 0.000000 
#    z 0.000000 0.000000 1.922640 
# 
# From -- ./inp_files/7577.got.cif
#   From: 2010.03.12/outbox.cif.g09.slc.cpg/sg46_4_cif.got.tgz:7577.got - 2010.04.14 02:56:35.
