data_PCOD8192625
_publ_section_title
;
Structure prediction by ZEFSAII (Michael W. Deem and Ramdas Pophale) SiO2 
 PCOD8192625
Probable space group: I M A 2
;
_chemical_formula_sum "Si O2"
_cell_formula_units_Z 40
_cell_length_a 10.733244
_cell_length_b 19.400560
_cell_length_c 9.194124
_cell_angle_alpha 90.000000
_cell_angle_beta 90.000000
_cell_angle_gamma 90.000000
_cell_volume 1914.501122
_symmetry_space_group_name_H-M "I M A 2"
_symmetry_group_IT_number 46
_symmetry_cell_setting 'orthorhombic'
loop_
_space_group_symop_operation_xyz
x,y,z
-x,-y,z
1/2-x,y,z
1/2+x,-y,z
1/2+x,1/2+y,1/2+z
1/2-x,1/2-y,1/2+z
-x,1/2+y,1/2+z
x,1/2-y,1/2+z
loop_
_atom_site_type_symbol
_atom_site_label
_atom_site_fract_x
_atom_site_fract_y
_atom_site_fract_z
Si Si1 0.750000 0.845327 0.014290
Si Si2 0.389482 0.692025 0.126793
Si Si3 0.391571 0.943965 0.789556
Si Si4 0.014333 0.810465 0.314704
Si Si5 0.250000 0.273846 0.807659
Si Si6 0.496571 0.579227 0.585405
O O1 0.750000 0.783040 0.132188
O O2 0.631233 0.894587 0.031711
O O3 0.750000 0.806603 0.857757
O O4 0.250000 0.711920 0.173505
O O5 0.420242 0.614033 0.170708
O O6 0.480225 0.744295 0.208847
O O7 0.398346 0.697973 0.953200
O O8 0.250000 0.973401 0.769715
O O9 0.500000 0.000000 0.769183
O O10 0.401340 0.911570 0.951208
O O11 0.053160 0.877883 0.223251
O O12 0.871316 0.813803 0.369424
O O13 0.500000 0.500000 0.635125
#
# Coordination Sequence:
#
# PCOD8192625 Si02
#       6
#     4   8   8   8   4   8
#     4  10  20  38  60  94 126 162 218 264 326 382
#     4  11  23  40  62  91 124 163 211 260 317 379
#     4  10  23  42  63  92 125 168 214 258 322 383
#     4  11  22  40  62  95 125 165 210 264 319 376
#     4  10  20  36  62  90 122 158 206 268 316 368
#     4  10  23  38  61  91 127 168 212 259 318 384
#
# _framework density 20.893170999999999
#
# number of rings (size 3 to 8) (size 9 to 14) (size 15 to 20)
#    0.000    1.600    0.000    5.400    5.600    4.000 
#    3.600    0.000    0.000    0.000    0.000    0.000 
#    0.000    0.000    0.000    0.000    0.000    0.000 
#
# Total GULP energy -247983.147779 kJ/mol
# GULP energy per Si atom -12399.157389 kJ/mol
# Density = 2.084562 g / cm^3
# Si number density = 20.893171 Si / 1000 Ang^3
#
#
#
# Elastic Constant Matrix: (Units=GPa)
#
#
# Indices 1 2 3 4 5 6 
#
# 1 97.2716 57.4659 27.3284 0.0000 0.0000 0.0000
# 2 57.4659 127.4014 63.9441 0.0004 0.0000 0.0001
# 3 27.3284 63.9441 107.4134 0.0006 0.0000 0.0001
# 4 0.0000 0.0004 0.0006 44.1098 0.0000 0.0001
# 5 0.0000 0.0000 0.0000 0.0000 22.3763 0.0000
# 6 0.0000 0.0001 0.0001 0.0001 0.0000 29.2619
#
#
#
# Elastic Compliance Matrix: (Units=1/GPa)
#
#
# Indices 1 2 3 4 5 6 
#
# 1 0.014021 -0.006466 0.000282 0.000000 0.000000 0.000000
# 2 -0.006466 0.014176 -0.006794 0.000000 0.000000 0.000000
# 3 0.000282 -0.006794 0.013282 0.000000 0.000000 0.000000
# 4 0.000000 0.000000 0.000000 0.022671 0.000000 0.000000
# 5 0.000000 0.000000 0.000000 0.000000 0.044690 0.000000
# 6 0.000000 0.000000 0.000000 0.000000 0.000000 0.034174
#
#
# Mechanical properties :
#
#
# Convention : Reuss Voigt Hill
#
# Bulk Modulus (GPa) = 64.41757 69.95148 67.18453
# Shear Modulus (GPa) = 28.71178 31.37279 30.04228
#
# Velocity S-wave (km/s) = 3.71107 3.87923 3.79608
# Velocity P-wave (km/s) = 7.01865 7.32242 7.17214
#
# Compressibility (1/GPa) = 0.01552371
#
# Stress axis : x y z
#
# Youngs Moduli (GPa) = 71.32047 70.54366 75.28704
#
# Poissons Ratio (x) = 0.45613 -0.02122
# Poissons Ratio (y) = 0.46115 0.51148
# Poissons Ratio (z) = -0.02011 0.47926
#
# Static dielectric constant tensor:
#      x y z
#    x 3.908250 0.000000 0.000000 
#    y 0.000000 3.669520 0.000000 
#    z 0.000000 0.000000 3.763530 
# 
# 
# High freq. dielectric constant tensor:
#      x y z
#    x 1.831560 0.000000 0.000000 
#    y 0.000000 1.809160 0.000000 
#    z 0.000000 0.000000 1.811750 
# 
# From -- ./inp_files/4475.got.cif
#   From: 2010.03.12/outbox.cif.g09.slc.cpg/sg46_3_cif.got.tgz:4475.got - 2010.04.14 02:56:35.
