data_PCOD8192951
_publ_section_title
;
Structure prediction by ZEFSAII (Michael W. Deem and Ramdas Pophale) SiO2 
 PCOD8192951
Probable space group: I M A 2
;
_chemical_formula_sum "Si O2"
_cell_formula_units_Z 60
_cell_length_a 16.229207
_cell_length_b 12.119580
_cell_length_c 14.925749
_cell_angle_alpha 90.000000
_cell_angle_beta 90.000000
_cell_angle_gamma 90.000000
_cell_volume 2935.763072
_symmetry_space_group_name_H-M "I M A 2"
_symmetry_group_IT_number 46
_symmetry_cell_setting 'orthorhombic'
loop_
_space_group_symop_operation_xyz
x,y,z
-x,-y,z
1/2-x,y,z
1/2+x,-y,z
1/2+x,1/2+y,1/2+z
1/2-x,1/2-y,1/2+z
-x,1/2+y,1/2+z
x,1/2-y,1/2+z
loop_
_atom_site_type_symbol
_atom_site_label
_atom_site_fract_x
_atom_site_fract_y
_atom_site_fract_z
Si Si1 0.343034 0.147587 0.922360
Si Si2 0.497145 0.275223 0.886142
Si Si3 0.845750 0.968068 0.108647
Si Si4 0.657079 0.432847 0.078350
Si Si5 0.000000 0.000000 0.477676
Si Si6 0.950172 0.717521 0.689546
Si Si7 0.086701 0.798139 0.049219
Si Si8 0.842131 0.920181 0.733976
O O1 0.250000 0.192516 0.919382
O O2 0.402435 0.251257 0.910972
O O3 0.362827 0.063996 0.839455
O O4 0.361324 0.085658 0.013132
O O5 0.507659 0.274113 0.778490
O O6 0.514831 0.397961 0.914214
O O7 0.559823 0.194505 0.943082
O O8 0.750000 0.968251 0.137345
O O9 0.898808 0.898860 0.181938
O O10 0.876533 0.092788 0.094675
O O11 0.750000 0.467429 0.046390
O O12 0.585094 0.506130 0.033442
O O13 0.650383 0.301958 0.062804
O O14 0.645880 0.462715 0.183998
O O15 0.891606 0.822304 0.687080
O O16 0.004454 0.733491 0.601771
O O17 0.750000 0.876997 0.723863
#
# Coordination Sequence:
#
# PCOD8192951 Si02
#       8
#     8   8   8   8   4   8   8   8
#     4   9  19  35  58  89 117 151 199 258 317 365
#     4  10  22  38  60  88 123 160 203 261 311 383
#     4  11  23  39  62  88 124 164 207 261 317 383
#     4  10  21  38  61  87 124 167 207 257 311 374
#     4  10  22  38  58  88 120 164 212 248 316 382
#     4  11  22  37  64  91 120 159 205 264 318 373
#     4  11  23  40  58  89 123 168 208 249 315 388
#     4   9  18  35  59  90 120 153 203 258 311 369
#
# _framework density 20.437616999999999
#
# number of rings (size 3 to 8) (size 9 to 14) (size 15 to 20)
#    0.000    1.867    1.333    2.800    1.867    2.133 
#    0.000    2.667    0.000    1.600    0.000    0.000 
#    0.000    0.000    0.000    0.000    0.000    0.000 
#
# Total GULP energy -371664.321925 kJ/mol
# GULP energy per Si atom -12388.810731 kJ/mol
# Density = 2.039110 g / cm^3
# Si number density = 20.437617 Si / 1000 Ang^3
#
#
#
# Elastic Constant Matrix: (Units=GPa)
#
#
# Indices 1 2 3 4 5 6 
#
# 1 84.1423 13.0221 35.9829 0.0000 0.0000 0.0000
# 2 13.0221 57.7649 22.2755 0.0000 0.0000 0.0000
# 3 35.9829 22.2755 101.0429 0.0000 0.0000 0.0000
# 4 0.0000 0.0000 0.0000 24.4809 0.0000 0.0000
# 5 0.0000 0.0000 0.0000 0.0000 24.8743 0.0000
# 6 0.0000 0.0000 0.0000 0.0000 0.0000 30.5777
#
#
#
# Elastic Compliance Matrix: (Units=1/GPa)
#
#
# Indices 1 2 3 4 5 6 
#
# 1 0.014117 -0.001359 -0.004727 0.000000 0.000000 0.000000
# 2 -0.001359 0.019051 -0.003716 0.000000 0.000000 0.000000
# 3 -0.004727 -0.003716 0.012399 0.000000 0.000000 0.000000
# 4 0.000000 0.000000 0.000000 0.040848 0.000000 0.000000
# 5 0.000000 0.000000 0.000000 0.000000 0.040202 0.000000
# 6 0.000000 0.000000 0.000000 0.000000 0.000000 0.032704
#
#
# Mechanical properties :
#
#
# Convention : Reuss Voigt Hill
#
# Bulk Modulus (GPa) = 38.51812 42.83457 40.67634
# Shear Modulus (GPa) = 26.65529 27.43123 27.04326
#
# Velocity S-wave (km/s) = 3.61533 3.66757 3.64154
# Velocity P-wave (km/s) = 6.02620 6.24011 6.13408
#
# Compressibility (1/GPa) = 0.02596181
#
# Stress axis : x y z
#
# Youngs Moduli (GPa) = 70.83818 52.49093 80.64848
#
# Poissons Ratio (x) = 0.07135 0.38126
# Poissons Ratio (y) = 0.09629 0.29967
# Poissons Ratio (z) = 0.33489 0.19505
#
# Static dielectric constant tensor:
#      x y z
#    x 3.903340 0.000000 0.000000 
#    y 0.000000 3.581670 0.000000 
#    z 0.000000 0.000000 3.970920 
# 
# 
# High freq. dielectric constant tensor:
#      x y z
#    x 1.801470 0.000000 0.000000 
#    y 0.000000 1.786750 0.000000 
#    z 0.000000 0.000000 1.799100 
# 
# From -- ./inp_files/16721.got.cif
#   From: 2010.03.12/outbox.cif.g09.slc.cpg/sg46_9_cif.got.tgz:16721.got - 2010.04.14 02:56:35.
