data_PCOD8192166
_publ_section_title
;
Structure prediction by ZEFSAII (Michael W. Deem and Ramdas Pophale) SiO2 
 PCOD8192166
Probable space group: I M A 2
;
_chemical_formula_sum "Si O2"
_cell_formula_units_Z 64
_cell_length_a 17.663675
_cell_length_b 8.981501
_cell_length_c 20.736396
_cell_angle_alpha 90.000000
_cell_angle_beta 90.000000
_cell_angle_gamma 90.000000
_cell_volume 3289.752805
_symmetry_space_group_name_H-M "I M A 2"
_symmetry_group_IT_number 46
_symmetry_cell_setting 'orthorhombic'
loop_
_space_group_symop_operation_xyz
x,y,z
-x,-y,z
1/2-x,y,z
1/2+x,-y,z
1/2+x,1/2+y,1/2+z
1/2-x,1/2-y,1/2+z
-x,1/2+y,1/2+z
x,1/2-y,1/2+z
loop_
_atom_site_type_symbol
_atom_site_label
_atom_site_fract_x
_atom_site_fract_y
_atom_site_fract_z
Si Si1 0.577456 0.926658 0.383970
Si Si2 0.836279 0.091143 0.775634
Si Si3 0.338059 0.874397 0.632444
Si Si4 0.338328 0.923149 0.275395
Si Si5 0.419782 0.416357 0.522850
Si Si6 0.421032 0.419214 0.382467
Si Si7 0.086690 0.939684 0.145333
Si Si8 0.420407 0.433873 0.030757
O O1 0.564213 0.753745 0.375843
O O2 0.598211 0.976245 0.456668
O O3 0.500000 0.000000 0.360089
O O4 0.645356 0.978464 0.338015
O O5 0.750000 0.096129 0.796020
O O6 0.847417 0.041743 0.701250
O O7 0.870723 0.256400 0.786232
O O8 0.871984 0.971203 0.822766
O O9 0.250000 0.821197 0.624931
O O10 0.397300 0.736275 0.633800
O O11 0.356694 0.992185 0.576122
O O12 0.250000 0.918345 0.261328
O O13 0.376658 0.994509 0.211982
O O14 0.500000 0.500000 0.520615
O O15 0.381136 0.446313 0.452750
O O16 0.372770 0.484349 0.582821
O O17 0.426781 0.242297 0.537916
O O18 0.500000 0.500000 0.379097
O O19 0.000000 0.000000 0.146492
O O20 0.500000 0.500000 0.052872
#
# Coordination Sequence:
#
# PCOD8192166 Si02
#       8
#     8   8   8   8   8   8   8   8
#     4  10  21  36  56  83 113 145 186 234 280 333
#     4   9  20  38  56  77 109 147 184 225 276 335
#     4  10  22  40  59  83 118 154 191 238 290 343
#     4  10  21  37  56  80 112 147 186 233 284 338
#     4   9  19  35  55  83 112 139 180 234 283 329
#     4  10  20  35  57  81 107 141 183 229 275 328
#     4  10  19  35  60  85 111 146 189 237 285 339
#     4  10  20  36  59  84 111 147 192 236 281 341
#
# _framework density 19.454349000000001
#
# number of rings (size 3 to 8) (size 9 to 14) (size 15 to 20)
#    0.000    2.250    0.000    3.750    0.000    6.500 
#    0.000    6.875    0.000    0.000    0.000    0.000 
#    0.000    0.000    0.000    0.000    0.000    0.000 
#
# Total GULP energy -396523.926567 kJ/mol
# GULP energy per Si atom -12391.372705 kJ/mol
# Density = 1.941007 g / cm^3
# Si number density = 19.454349 Si / 1000 Ang^3
#
#
#
# Elastic Constant Matrix: (Units=GPa)
#
#
# Indices 1 2 3 4 5 6 
#
# 1 68.7955 40.3517 49.6980 0.0000 0.0000 0.0000
# 2 40.3517 91.3210 62.2427 0.0000 0.0000 0.0000
# 3 49.6980 62.2427 151.8836 0.0000 0.0000 0.0000
# 4 0.0000 0.0000 0.0000 38.4511 0.0000 0.0000
# 5 0.0000 0.0000 0.0000 0.0000 6.3264 0.0000
# 6 0.0000 0.0000 0.0000 0.0000 0.0000 27.2082
#
#
#
# Elastic Compliance Matrix: (Units=1/GPa)
#
#
# Indices 1 2 3 4 5 6 
#
# 1 0.021522 -0.006535 -0.004364 0.000000 0.000000 0.000000
# 2 -0.006535 0.017179 -0.004902 0.000000 0.000000 0.000000
# 3 -0.004364 -0.004902 0.010021 0.000000 0.000000 0.000000
# 4 0.000000 0.000000 0.000000 0.026007 0.000000 0.000000
# 5 0.000000 0.000000 0.000000 0.000000 0.158068 0.000000
# 6 0.000000 0.000000 0.000000 0.000000 0.000000 0.036754
#
#
# Mechanical properties :
#
#
# Convention : Reuss Voigt Hill
#
# Bulk Modulus (GPa) = 58.41286 68.50946 63.46116
# Shear Modulus (GPa) = 16.29419 25.04432 20.66925
#
# Velocity S-wave (km/s) = 2.89720 3.59184 3.26306
# Velocity P-wave (km/s) = 6.42515 7.24525 6.84749
#
# Compressibility (1/GPa) = 0.01711952
#
# Stress axis : x y z
#
# Youngs Moduli (GPa) = 46.46502 58.21075 99.79436
#
# Poissons Ratio (x) = 0.38043 0.43549
# Poissons Ratio (y) = 0.30366 0.48915
# Poissons Ratio (z) = 0.20277 0.28533
#
# Static dielectric constant tensor:
#      x y z
#    x 3.366280 0.000000 0.000000 
#    y 0.000000 2.488100 0.000000 
#    z 0.000000 0.000000 4.116590 
# 
# 
# High freq. dielectric constant tensor:
#      x y z
#    x 1.728060 0.000000 0.000000 
#    y 0.000000 1.756100 0.000000 
#    z 0.000000 0.000000 1.782510 
# 
# From -- ./inp_files/22206.got.cif
#   From: 2010.03.12/outbox.cif.g09.slc.cpg/sg46_12_cif.got.tgz:22206.got - 2010.04.14 02:56:35.
