data_PCOD8192778
_publ_section_title
;
Structure prediction by ZEFSAII (Michael W. Deem and Ramdas Pophale) SiO2 
 PCOD8192778
Probable space group: I M A 2
;
_chemical_formula_sum "Si O2"
_cell_formula_units_Z 64
_cell_length_a 14.614379
_cell_length_b 11.138046
_cell_length_c 18.129365
_cell_angle_alpha 90.000000
_cell_angle_beta 90.000000
_cell_angle_gamma 90.000000
_cell_volume 2951.018729
_symmetry_space_group_name_H-M "I M A 2"
_symmetry_group_IT_number 46
_symmetry_cell_setting 'orthorhombic'
loop_
_space_group_symop_operation_xyz
x,y,z
-x,-y,z
1/2-x,y,z
1/2+x,-y,z
1/2+x,1/2+y,1/2+z
1/2-x,1/2-y,1/2+z
-x,1/2+y,1/2+z
x,1/2-y,1/2+z
loop_
_atom_site_type_symbol
_atom_site_label
_atom_site_fract_x
_atom_site_fract_y
_atom_site_fract_z
Si Si1 0.646402 0.295498 0.816890
Si Si2 0.855420 0.727284 0.962648
Si Si3 0.143621 0.542851 0.949652
Si Si4 0.986341 0.870773 0.232930
Si Si5 0.354855 0.561554 0.247362
Si Si6 0.491351 0.365667 0.567408
Si Si7 0.854638 0.812519 0.804318
Si Si8 0.642537 0.320746 0.096736
O O1 0.750000 0.336936 0.801221
O O2 0.603417 0.361451 0.888993
O O3 0.588067 0.317092 0.742500
O O4 0.639611 0.149603 0.819504
O O5 0.750000 0.717949 0.991000
O O6 0.893538 0.593469 0.942100
O O7 0.861132 0.814948 0.892623
O O8 0.919014 0.784119 0.024693
O O9 0.250000 0.542693 0.932675
O O10 0.122081 0.584907 0.031876
O O11 0.951651 0.879051 0.149549
O O12 0.910132 0.801221 0.277743
O O13 0.000000 0.000000 0.269716
O O14 0.250000 0.533923 0.228733
O O15 0.400211 0.434225 0.270702
O O16 0.396892 0.617427 0.171706
O O17 0.500000 0.500000 0.532621
O O18 0.589729 0.301036 0.574230
O O19 0.750000 0.796952 0.779083
O O20 0.750000 0.288545 0.102919
#
# Coordination Sequence:
#
# PCOD8192778 Si02
#       8
#     8   8   8   8   8   8   8   8
#     4  10  20  39  64  95 130 166 210 267 322 382
#     4  10  23  45  66  94 131 170 218 274 327 388
#     4   9  20  37  66  97 125 166 219 268 326 390
#     4  11  24  40  61  92 129 167 216 262 317 389
#     4   9  19  38  66  96 128 168 217 266 322 393
#     4  11  26  43  60  95 132 171 221 264 323 398
#     4  10  23  43  67  95 129 171 219 272 328 386
#     4  10  21  41  66  96 131 170 217 272 327 387
#
# _framework density 21.687427
#
# number of rings (size 3 to 8) (size 9 to 14) (size 15 to 20)
#    0.000    2.000    1.250    0.750    3.500    4.500 
#    0.000    5.000    0.000    0.000    0.000    0.000 
#    0.000    0.000    0.000    0.000    0.000    0.000 
#
# Total GULP energy -396510.421430 kJ/mol
# GULP energy per Si atom -12390.950670 kJ/mol
# Density = 2.163807 g / cm^3
# Si number density = 21.687427 Si / 1000 Ang^3
#
#
#
# Elastic Constant Matrix: (Units=GPa)
#
#
# Indices 1 2 3 4 5 6 
#
# 1 72.5131 53.4246 38.6577 0.0000 0.0000 0.0000
# 2 53.4246 174.5649 72.7187 0.0000 0.0000 0.0000
# 3 38.6577 72.7187 111.7228 0.0000 0.0000 0.0000
# 4 0.0000 0.0000 0.0000 34.9905 0.0000 0.0000
# 5 0.0000 0.0000 0.0000 0.0000 26.5223 0.0000
# 6 0.0000 0.0000 0.0000 0.0000 0.0000 34.8241
#
#
#
# Elastic Compliance Matrix: (Units=1/GPa)
#
#
# Indices 1 2 3 4 5 6 
#
# 1 0.018918 -0.004202 -0.003811 0.000000 0.000000 0.000000
# 2 -0.004202 0.008793 -0.004269 0.000000 0.000000 0.000000
# 3 -0.003811 -0.004269 0.013048 0.000000 0.000000 0.000000
# 4 0.000000 0.000000 0.000000 0.028579 0.000000 0.000000
# 5 0.000000 0.000000 0.000000 0.000000 0.037704 0.000000
# 6 0.000000 0.000000 0.000000 0.000000 0.000000 0.028716
#
#
# Mechanical properties :
#
#
# Convention : Reuss Voigt Hill
#
# Bulk Modulus (GPa) = 61.74825 76.48921 69.11873
# Shear Modulus (GPa) = 30.17112 32.20070 31.18591
#
# Velocity S-wave (km/s) = 3.73390 3.85744 3.79617
# Velocity P-wave (km/s) = 6.86462 7.42868 7.15222
#
# Compressibility (1/GPa) = 0.01619479
#
# Stress axis : x y z
#
# Youngs Moduli (GPa) = 52.85881 113.72594 76.63981
#
# Poissons Ratio (x) = 0.47792 0.29205
# Poissons Ratio (y) = 0.22213 0.32719
# Poissons Ratio (z) = 0.20143 0.48552
#
# Static dielectric constant tensor:
#      x y z
#    x 3.756600 0.000000 0.000000 
#    y 0.000000 4.276570 0.000000 
#    z 0.000000 0.000000 3.892330 
# 
# 
# High freq. dielectric constant tensor:
#      x y z
#    x 1.840410 0.000000 0.000000 
#    y 0.000000 1.862300 0.000000 
#    z 0.000000 0.000000 1.845880 
# 
# From -- ./inp_files/19671.got.cif
#   From: 2010.03.12/outbox.cif.g09.slc.cpg/sg46_10_cif.got.tgz:19671.got - 2010.04.14 02:56:35.
