data_PCOD8192993
_publ_section_title
;
Structure prediction by ZEFSAII (Michael W. Deem and Ramdas Pophale) SiO2 
 PCOD8192993
Probable space group: I M A 2
;
_chemical_formula_sum "Si O2"
_cell_formula_units_Z 48
_cell_length_a 16.283882
_cell_length_b 15.434059
_cell_length_c 8.944773
_cell_angle_alpha 90.000000
_cell_angle_beta 90.000000
_cell_angle_gamma 90.000000
_cell_volume 2248.057557
_symmetry_space_group_name_H-M "I M A 2"
_symmetry_group_IT_number 46
_symmetry_cell_setting 'orthorhombic'
loop_
_space_group_symop_operation_xyz
x,y,z
-x,-y,z
1/2-x,y,z
1/2+x,-y,z
1/2+x,1/2+y,1/2+z
1/2-x,1/2-y,1/2+z
-x,1/2+y,1/2+z
x,1/2-y,1/2+z
loop_
_atom_site_type_symbol
_atom_site_label
_atom_site_fract_x
_atom_site_fract_y
_atom_site_fract_z
Si Si1 0.658065 0.677413 0.132500
Si Si2 0.097995 0.328286 0.451509
Si Si3 0.844840 0.160567 0.379777
Si Si4 0.096765 0.514222 0.397055
Si Si5 0.913180 0.183973 0.060561
Si Si6 0.403079 0.499778 0.058805
O O1 0.750000 0.660911 0.191907
O O2 0.596437 0.688255 0.272724
O O3 0.628754 0.597624 0.028181
O O4 0.659585 0.763342 0.032348
O O5 0.131851 0.426628 0.474341
O O6 0.008246 0.310866 0.517915
O O7 0.750000 0.168367 0.332956
O O8 0.902889 0.178204 0.238132
O O9 0.866175 0.230925 0.505643
O O10 0.861494 0.064838 0.442673
O O11 0.126839 0.597881 0.487598
O O12 0.125248 0.526144 0.226100
O O13 0.000000 0.500000 0.398995
O O14 0.500000 0.500000 0.036115
#
# Coordination Sequence:
#
# PCOD8192993 Si02
#       6
#     8   8   8   8   8   8
#     4  11  22  38  60  92 126 158 196 248 300 348
#     4  10  21  39  62  88 119 161 204 242 291 357
#     4  12  25  40  59  90 123 156 198 253 306 351
#     4   8  18  37  62  88 113 148 200 247 286 341
#     4  11  22  40  63  86 117 160 204 246 294 360
#     4  10  21  40  64  88 118 161 202 240 293 361
#
# _framework density 21.351766000000001
#
# number of rings (size 3 to 8) (size 9 to 14) (size 15 to 20)
#    0.000    1.667    0.000    5.500    0.000    3.333 
#    0.000   10.833    0.000    0.000    0.000    0.000 
#    0.000    0.000    0.000    0.000    0.000    0.000 
#
# Total GULP energy -297633.735072 kJ/mol
# GULP energy per Si atom -12401.405628 kJ/mol
# Density = 2.130317 g / cm^3
# Si number density = 21.351766 Si / 1000 Ang^3
#
#
#
# Elastic Constant Matrix: (Units=GPa)
#
#
# Indices 1 2 3 4 5 6 
#
# 1 97.2451 33.7850 31.7068 0.0000 0.0000 0.0000
# 2 33.7850 125.9850 55.8283 0.0000 0.0000 0.0000
# 3 31.7068 55.8283 106.0958 0.0000 0.0000 0.0000
# 4 0.0000 0.0000 0.0000 42.6946 0.0000 0.0000
# 5 0.0000 0.0000 0.0000 0.0000 19.7953 0.0000
# 6 0.0000 0.0000 0.0000 0.0000 0.0000 17.9528
#
#
#
# Elastic Compliance Matrix: (Units=1/GPa)
#
#
# Indices 1 2 3 4 5 6 
#
# 1 0.011800 -0.002089 -0.002427 0.000000 0.000000 0.000000
# 2 -0.002089 0.010721 -0.005017 0.000000 0.000000 0.000000
# 3 -0.002427 -0.005017 0.012791 0.000000 0.000000 0.000000
# 4 0.000000 0.000000 0.000000 0.023422 0.000000 0.000000
# 5 0.000000 0.000000 0.000000 0.000000 0.050517 0.000000
# 6 0.000000 0.000000 0.000000 0.000000 0.000000 0.055702
#
#
# Mechanical properties :
#
#
# Convention : Reuss Voigt Hill
#
# Bulk Modulus (GPa) = 61.55554 63.55177 62.55366
# Shear Modulus (GPa) = 26.39426 29.95560 28.17493
#
# Velocity S-wave (km/s) = 3.51973 3.74967 3.63652
# Velocity P-wave (km/s) = 6.73868 6.96961 6.85512
#
# Compressibility (1/GPa) = 0.01624549
#
# Stress axis : x y z
#
# Youngs Moduli (GPa) = 84.74252 93.27602 78.18034
#
# Poissons Ratio (x) = 0.19484 0.18978
# Poissons Ratio (y) = 0.17701 0.39224
# Poissons Ratio (z) = 0.20571 0.46798
#
# Static dielectric constant tensor:
#      x y z
#    x 3.647100 0.000000 0.000000 
#    y 0.000000 4.265660 0.000000 
#    z 0.000000 0.000000 3.681870 
# 
# 
# High freq. dielectric constant tensor:
#      x y z
#    x 1.824600 0.000000 0.000000 
#    y 0.000000 1.857330 0.000000 
#    z 0.000000 0.000000 1.825860 
# 
# From -- ./inp_files/5714.got.cif
#   From: 2010.03.12/outbox.cif.g09.slc.cpg/sg46_3_cif.got.tgz:5714.got - 2010.04.14 02:56:35.
