data_PCOD8192732
_publ_section_title
;
Structure prediction by ZEFSAII (Michael W. Deem and Ramdas Pophale) SiO2 
 PCOD8192732
Probable space group: I M A 2
;
_chemical_formula_sum "Si O2"
_cell_formula_units_Z 52
_cell_length_a 25.392952
_cell_length_b 9.064419
_cell_length_c 10.680687
_cell_angle_alpha 90.000000
_cell_angle_beta 90.000000
_cell_angle_gamma 90.000000
_cell_volume 2458.398897
_symmetry_space_group_name_H-M "I M A 2"
_symmetry_group_IT_number 46
_symmetry_cell_setting 'orthorhombic'
loop_
_space_group_symop_operation_xyz
x,y,z
-x,-y,z
1/2-x,y,z
1/2+x,-y,z
1/2+x,1/2+y,1/2+z
1/2-x,1/2-y,1/2+z
-x,1/2+y,1/2+z
x,1/2-y,1/2+z
loop_
_atom_site_type_symbol
_atom_site_label
_atom_site_fract_x
_atom_site_fract_y
_atom_site_fract_z
Si Si1 0.950173 0.603117 0.533950
Si Si2 0.471056 0.295244 0.799562
Si Si3 0.328706 0.710010 0.966063
Si Si4 0.421175 0.907540 0.345947
Si Si5 0.250000 0.135991 0.054130
Si Si6 0.250000 0.482257 0.054870
Si Si7 0.652540 0.471241 0.626043
Si Si8 0.250000 0.596558 0.332805
O O1 0.948914 0.715853 0.655979
O O2 0.954921 0.664916 0.393400
O O3 0.895098 0.516886 0.532446
O O4 0.000000 0.500000 0.564984
O O5 0.534635 0.298858 0.789468
O O6 0.449114 0.437607 0.874856
O O7 0.301154 0.554175 0.991537
O O8 0.320789 0.819092 0.082936
O O9 0.391811 0.677303 0.958157
O O10 0.301615 0.798823 0.850298
O O11 0.370723 0.942175 0.261191
O O12 0.250000 0.309321 0.025616
O O13 0.197279 0.097383 0.133110
O O14 0.250000 0.042041 0.927249
O O15 0.250000 0.517481 0.200746
#
# Coordination Sequence:
#
# PCOD8192732 Si02
#       8
#     8   8   8   8   4   4   8   4
#     4  11  21  44  65  92 130 171 212 272 323 391
#     4  10  22  40  63  92 130 160 216 265 322 383
#     4  10  21  37  64  89 119 162 213 258 315 380
#     4  10  20  38  62  89 122 166 206 267 315 385
#     4  10  24  40  60  92 126 170 208 266 322 394
#     4  11  23  39  62  92 122 165 215 265 310 390
#     4  10  21  41  64  88 133 170 210 266 334 380
#     4   9  21  43  56  88 128 151 209 259 306 378
#
# _framework density 21.151978
#
# number of rings (size 3 to 8) (size 9 to 14) (size 15 to 20)
#    0.000    1.846    3.077    2.308    2.154    2.462 
#   11.077    1.538    0.000    0.000    0.000    0.000 
#    0.000    0.000    0.000    0.000    0.000    0.000 
#
# Total GULP energy -322089.921437 kJ/mol
# GULP energy per Si atom -12388.073901 kJ/mol
# Density = 2.110384 g / cm^3
# Si number density = 21.151978 Si / 1000 Ang^3
#
#
#
# Elastic Constant Matrix: (Units=GPa)
#
#
# Indices 1 2 3 4 5 6 
#
# 1 118.5787 33.6716 1.4664 0.0000 0.0000 0.0000
# 2 33.6716 101.3209 20.6118 0.0000 0.0000 0.0000
# 3 1.4664 20.6118 75.0593 0.0000 0.0000 0.0000
# 4 0.0000 0.0000 0.0000 26.1121 0.0000 0.0000
# 5 0.0000 0.0000 0.0000 0.0000 31.5471 0.0000
# 6 0.0000 0.0000 0.0000 0.0000 0.0000 28.5372
#
#
#
# Elastic Compliance Matrix: (Units=1/GPa)
#
#
# Indices 1 2 3 4 5 6 
#
# 1 0.009348 -0.003251 0.000710 0.000000 0.000000 0.000000
# 2 -0.003251 0.011584 -0.003118 0.000000 0.000000 0.000000
# 3 0.000710 -0.003118 0.014165 0.000000 0.000000 0.000000
# 4 0.000000 0.000000 0.000000 0.038296 0.000000 0.000000
# 5 0.000000 0.000000 0.000000 0.000000 0.031699 0.000000
# 6 0.000000 0.000000 0.000000 0.000000 0.000000 0.035042
#
#
# Mechanical properties :
#
#
# Convention : Reuss Voigt Hill
#
# Bulk Modulus (GPa) = 42.05207 45.16204 43.60705
# Shear Modulus (GPa) = 31.37211 33.18656 32.27933
#
# Velocity S-wave (km/s) = 3.85538 3.96530 3.91073
# Velocity P-wave (km/s) = 6.30418 6.50864 6.40723
#
# Compressibility (1/GPa) = 0.02378004
#
# Stress axis : x y z
#
# Youngs Moduli (GPa) = 106.97974 86.32448 70.59634
#
# Poissons Ratio (x) = 0.28063 -0.05013
# Poissons Ratio (y) = 0.34778 0.22009
# Poissons Ratio (z) = -0.07597 0.26912
#
# Static dielectric constant tensor:
#      x y z
#    x 4.211450 0.000000 0.000000 
#    y 0.000000 3.718590 0.000000 
#    z 0.000000 0.000000 3.566080 
# 
# 
# High freq. dielectric constant tensor:
#      x y z
#    x 1.847610 0.000000 0.000000 
#    y 0.000000 1.813010 0.000000 
#    z 0.000000 0.000000 1.811660 
# 
# From -- ./inp_files/13039.got.cif
#   From: 2010.03.12/outbox.cif.g09.slc.cpg/sg46_7_cif.got.tgz:13039.got - 2010.04.14 02:56:35.
