data_PCOD8192601
_publ_section_title
;
Structure prediction by ZEFSAII (Michael W. Deem and Ramdas Pophale) SiO2 
 PCOD8192601
Probable space group: I M A 2
;
_chemical_formula_sum "Si O2"
_cell_formula_units_Z 64
_cell_length_a 8.840440
_cell_length_b 30.745381
_cell_length_c 11.854893
_cell_angle_alpha 90.000000
_cell_angle_beta 90.000000
_cell_angle_gamma 90.000000
_cell_volume 3222.191878
_symmetry_space_group_name_H-M "I M A 2"
_symmetry_group_IT_number 46
_symmetry_cell_setting 'orthorhombic'
loop_
_space_group_symop_operation_xyz
x,y,z
-x,-y,z
1/2-x,y,z
1/2+x,-y,z
1/2+x,1/2+y,1/2+z
1/2-x,1/2-y,1/2+z
-x,1/2+y,1/2+z
x,1/2-y,1/2+z
loop_
_atom_site_type_symbol
_atom_site_label
_atom_site_fract_x
_atom_site_fract_y
_atom_site_fract_z
Si Si1 0.572410 0.875835 0.157380
Si Si2 0.428053 0.373275 0.397637
Si Si3 0.073220 0.069314 0.506204
Si Si4 0.428242 0.044572 0.757143
Si Si5 0.576012 0.297858 0.783008
Si Si6 0.072744 0.799844 0.754119
Si Si7 0.428275 0.543322 0.782853
Si Si8 0.422687 0.840701 0.517574
O O1 0.750000 0.882895 0.173896
O O2 0.525291 0.829719 0.208298
O O3 0.485767 0.913906 0.221186
O O4 0.524342 0.877609 0.027246
O O5 0.250000 0.370442 0.382154
O O6 0.492145 0.415257 0.330643
O O7 0.496365 0.329178 0.349018
O O8 0.250000 0.062140 0.482471
O O9 0.023185 0.051631 0.627855
O O10 0.976185 0.043821 0.413777
O O11 0.037649 0.120189 0.497838
O O12 0.250000 0.041240 0.770672
O O13 0.500000 0.000000 0.803060
O O14 0.750000 0.302526 0.743578
O O15 0.513506 0.249358 0.764481
O O16 0.559661 0.307367 0.915264
O O17 0.250000 0.801592 0.775990
O O18 0.027992 0.816222 0.630470
O O19 0.500000 0.500000 0.726587
O O20 0.250000 0.541043 0.772173
O O21 0.250000 0.858209 0.525350
#
# Coordination Sequence:
#
# PCOD8192601 Si02
#       8
#     8   8   8   8   8   8   8   8
#     4  11  24  42  63  88 120 159 206 252 301 361
#     4  10  23  43  61  85 122 159 200 254 304 356
#     4  11  21  37  62  91 124 159 199 246 301 359
#     4  10  22  39  60  87 119 155 194 244 299 355
#     4  10  22  39  61  90 124 159 200 252 304 357
#     4  10  22  38  62  92 122 161 204 248 300 362
#     4  12  25  42  64  91 124 159 200 249 301 359
#     4  10  20  36  59  90 124 159 200 251 304 355
#
# _framework density 19.862255000000001
#
# number of rings (size 3 to 8) (size 9 to 14) (size 15 to 20)
#    0.000    1.500    2.500    2.250    1.750    4.500 
#    0.000    1.250    0.000    0.000    0.000    0.000 
#    0.000    0.000    0.000    0.000    0.000    0.000 
#
# Total GULP energy -396967.309947 kJ/mol
# GULP energy per Si atom -12405.228436 kJ/mol
# Density = 1.981705 g / cm^3
# Si number density = 19.862255 Si / 1000 Ang^3
#
#
#
# Elastic Constant Matrix: (Units=GPa)
#
#
# Indices 1 2 3 4 5 6 
#
# 1 70.0802 42.7456 45.2578 -0.0003 -0.0003 -0.0002
# 2 42.7456 153.9505 48.5631 -0.0010 0.0001 -0.0001
# 3 45.2578 48.5631 110.2802 -0.0013 -0.0013 -0.0002
# 4 -0.0003 -0.0010 -0.0013 19.1294 -0.0007 -0.0005
# 5 -0.0003 0.0001 -0.0013 -0.0007 17.2345 -0.0002
# 6 -0.0002 -0.0001 -0.0002 -0.0005 -0.0002 36.2684
#
#
#
# Elastic Compliance Matrix: (Units=1/GPa)
#
#
# Indices 1 2 3 4 5 6 
#
# 1 0.021017 -0.003617 -0.007032 0.000000 0.000000 0.000000
# 2 -0.003617 0.008166 -0.002112 0.000000 0.000000 0.000000
# 3 -0.007032 -0.002112 0.012884 0.000001 0.000001 0.000000
# 4 0.000000 0.000000 0.000001 0.052275 0.000002 0.000001
# 5 0.000000 0.000000 0.000001 0.000002 0.058023 0.000000
# 6 0.000000 0.000000 0.000000 0.000001 0.000000 0.027572
#
#
# Mechanical properties :
#
#
# Convention : Reuss Voigt Hill
#
# Bulk Modulus (GPa) = 60.44255 67.49378 63.96816
# Shear Modulus (GPa) = 23.69951 27.70943 25.70447
#
# Velocity S-wave (km/s) = 3.45801 3.73913 3.60131
# Velocity P-wave (km/s) = 6.81474 7.25921 7.04048
#
# Compressibility (1/GPa) = 0.01654464
#
# Stress axis : x y z
#
# Youngs Moduli (GPa) = 47.58003 122.45861 77.61788
#
# Poissons Ratio (x) = 0.44297 0.54583
# Poissons Ratio (y) = 0.17211 0.16389
# Poissons Ratio (z) = 0.33460 0.25857
#
# Static dielectric constant tensor:
#      x y z
#    x 3.509270 0.000000 0.000000 
#    y 0.000000 3.826580 0.000000 
#    z 0.000000 0.000000 3.761790 
# 
# 
# High freq. dielectric constant tensor:
#      x y z
#    x 1.767910 0.000000 0.000000 
#    y 0.000000 1.788310 0.000000 
#    z 0.000000 0.000000 1.778990 
# 
# From -- ./inp_files/9688.got.cif
#   From: 2010.03.12/outbox.cif.g09.slc.cpg/sg46_5_cif.got.tgz:9688.got - 2010.04.14 02:56:35.
