data_PCOD8192619
_publ_section_title
;
Structure prediction by ZEFSAII (Michael W. Deem and Ramdas Pophale) SiO2 
 PCOD8192619
Probable space group: I M A 2
;
_chemical_formula_sum "Si O2"
_cell_formula_units_Z 48
_cell_length_a 9.273936
_cell_length_b 26.668081
_cell_length_c 10.136865
_cell_angle_alpha 90.000000
_cell_angle_beta 90.000000
_cell_angle_gamma 90.000000
_cell_volume 2507.029953
_symmetry_space_group_name_H-M "I M A 2"
_symmetry_group_IT_number 46
_symmetry_cell_setting 'orthorhombic'
loop_
_space_group_symop_operation_xyz
x,y,z
-x,-y,z
1/2-x,y,z
1/2+x,-y,z
1/2+x,1/2+y,1/2+z
1/2-x,1/2-y,1/2+z
-x,1/2+y,1/2+z
x,1/2-y,1/2+z
loop_
_atom_site_type_symbol
_atom_site_label
_atom_site_fract_x
_atom_site_fract_y
_atom_site_fract_z
Si Si1 0.004799 0.192388 0.712320
Si Si2 0.411750 0.848809 0.454652
Si Si3 0.409801 0.654234 0.479786
Si Si4 0.412846 0.195961 0.215694
Si Si5 0.081488 0.952767 0.862684
Si Si6 0.909223 0.591058 0.132012
O O1 0.091000 0.244011 0.711716
O O2 0.113341 0.144815 0.706102
O O3 0.904745 0.189189 0.580516
O O4 0.911078 0.186377 0.844879
O O5 0.250000 0.864308 0.414382
O O6 0.486457 0.821993 0.332910
O O7 0.503617 0.898628 0.495073
O O8 0.250000 0.660698 0.541149
O O9 0.530061 0.674373 0.578334
O O10 0.440489 0.595554 0.454310
O O11 0.250000 0.176837 0.237555
O O12 0.250000 0.964268 0.840555
O O13 0.005695 0.945609 0.720523
O O14 0.000000 0.000000 0.930721
O O15 0.750000 0.568132 0.105412
#
# Coordination Sequence:
#
# PCOD8192619 Si02
#       6
#     8   8   8   8   8   8
#     4   9  21  34  58  77 111 152 200 240 285 332
#     4  10  21  36  54  76 107 148 191 237 285 337
#     4  10  22  39  57  84 117 150 194 241 286 342
#     4  12  24  35  51  80 117 159 198 234 285 345
#     4  10  20  36  61  89 115 145 188 240 293 347
#     4   9  18  34  55  80 111 144 182 235 285 332
#
# _framework density 19.146159999999998
#
# number of rings (size 3 to 8) (size 9 to 14) (size 15 to 20)
#    1.000    1.000    0.000    4.000    0.000    9.333 
#    0.000    0.000    0.000    1.000    0.000    4.667 
#    0.000    0.000    0.000    0.000    0.000    0.000 
#
# Total GULP energy -297388.320483 kJ/mol
# GULP energy per Si atom -12391.180020 kJ/mol
# Density = 1.910258 g / cm^3
# Si number density = 19.146160 Si / 1000 Ang^3
#
#
#
# Elastic Constant Matrix: (Units=GPa)
#
#
# Indices 1 2 3 4 5 6 
#
# 1 155.1113 37.0805 37.3402 0.0593 0.0016 0.0010
# 2 37.0805 75.8003 21.9036 0.0369 0.0029 0.0011
# 3 37.3402 21.9036 93.5565 0.3186 0.0172 0.0047
# 4 0.0593 0.0369 0.3186 74.7089 0.0392 0.0095
# 5 0.0016 0.0029 0.0172 0.0392 7.9279 0.0017
# 6 0.0010 0.0011 0.0047 0.0095 0.0017 22.0615
#
#
#
# Elastic Compliance Matrix: (Units=1/GPa)
#
#
# Indices 1 2 3 4 5 6 
#
# 1 0.007761 -0.003112 -0.002369 0.000005 0.000005 0.000000
# 2 -0.003112 0.015398 -0.002363 0.000005 0.000000 0.000000
# 3 -0.002369 -0.002363 0.012188 -0.000049 -0.000025 -0.000002
# 4 0.000005 0.000005 -0.000049 0.013386 -0.000066 -0.000006
# 5 0.000005 0.000000 -0.000025 -0.000066 0.126138 -0.000009
# 6 0.000000 0.000000 -0.000002 -0.000006 -0.000009 0.045328
#
#
# Mechanical properties :
#
#
# Convention : Reuss Voigt Hill
#
# Bulk Modulus (GPa) = 50.86848 57.45741 54.16295
# Shear Modulus (GPa) = 20.62375 36.14923 28.38649
#
# Velocity S-wave (km/s) = 3.28559 4.34990 3.85466
# Velocity P-wave (km/s) = 6.40466 7.43666 6.93987
#
# Compressibility (1/GPa) = 0.01965854
#
# Stress axis : x y z
#
# Youngs Moduli (GPa) = 128.84489 64.94453 82.05038
#
# Poissons Ratio (x) = 0.20212 0.19438
# Poissons Ratio (y) = 0.40098 0.19387
# Poissons Ratio (z) = 0.30524 0.15345
#
# Static dielectric constant tensor:
#      x y z
#    x 3.454270 0.000310 -0.000020 
#    y 0.000310 3.209560 0.000170 
#    z -0.000020 0.000170 3.278050 
# 
# 
# High freq. dielectric constant tensor:
#      x y z
#    x 1.753170 0.000000 0.000000 
#    y 0.000000 1.723470 0.000000 
#    z 0.000000 0.000000 1.722550 
# 
# From -- ./inp_files/9569.got.cif
#   From: 2010.03.12/outbox.cif.g09.slc.cpg/sg46_5_cif.got.tgz:9569.got - 2010.04.14 02:56:35.
