data_PCOD8192989
_publ_section_title
;
Structure prediction by ZEFSAII (Michael W. Deem and Ramdas Pophale) SiO2 
 PCOD8192989
Probable space group: I M A 2
;
_chemical_formula_sum "Si O2"
_cell_formula_units_Z 64
_cell_length_a 8.552571
_cell_length_b 15.459532
_cell_length_c 23.778758
_cell_angle_alpha 90.000000
_cell_angle_beta 90.000000
_cell_angle_gamma 90.000000
_cell_volume 3143.997542
_symmetry_space_group_name_H-M "I M A 2"
_symmetry_group_IT_number 46
_symmetry_cell_setting 'orthorhombic'
loop_
_space_group_symop_operation_xyz
x,y,z
-x,-y,z
1/2-x,y,z
1/2+x,-y,z
1/2+x,1/2+y,1/2+z
1/2-x,1/2-y,1/2+z
-x,1/2+y,1/2+z
x,1/2-y,1/2+z
loop_
_atom_site_type_symbol
_atom_site_label
_atom_site_fract_x
_atom_site_fract_y
_atom_site_fract_z
Si Si1 0.933807 0.840270 0.596970
Si Si2 0.930018 0.152688 0.094567
Si Si3 0.434043 0.243729 0.778353
Si Si4 0.565656 0.908449 0.476823
Si Si5 0.932802 0.591142 0.480875
Si Si6 0.064245 0.247843 0.906692
Si Si7 0.565881 0.411294 0.207685
Si Si8 0.567095 0.091763 0.217838
O O1 0.750000 0.819881 0.596230
O O2 0.988849 0.886896 0.540031
O O3 0.026556 0.751734 0.604378
O O4 0.978275 0.901899 0.648267
O O5 0.750000 0.145561 0.077065
O O6 0.965058 0.101420 0.151652
O O7 0.031672 0.109480 0.045917
O O8 0.250000 0.225870 0.772694
O O9 0.491535 0.243596 0.842638
O O10 0.528466 0.168241 0.748049
O O11 0.473511 0.335517 0.751426
O O12 0.750000 0.912069 0.473183
O O13 0.498068 0.835214 0.435103
O O14 0.500000 0.000000 0.456965
O O15 0.750000 0.587396 0.472774
O O16 0.004403 0.666184 0.441238
O O17 0.000000 0.500000 0.460745
O O18 0.250000 0.247911 0.911018
O O19 0.500000 0.500000 0.235030
O O20 0.750000 0.416643 0.197971
O O21 0.750000 0.099253 0.231913
O O22 0.500000 0.000000 0.238077
#
# Coordination Sequence:
#
# PCOD8192989 Si02
#       8
#     8   8   8   8   8   8   8   8
#     4  11  21  37  64  92 125 164 200 245 308 366
#     4  11  22  37  61  93 127 160 201 249 303 366
#     4  11  23  42  67  90 120 162 209 259 313 365
#     4  10  21  39  61  90 123 159 198 244 298 357
#     4  11  22  40  63  90 125 160 202 251 305 367
#     4   9  21  42  63  86 120 161 204 254 308 363
#     4  12  25  42  63  92 128 162 206 254 306 369
#     4  11  24  41  62  91 126 162 204 254 305 365
#
# _framework density 20.356251
#
# number of rings (size 3 to 8) (size 9 to 14) (size 15 to 20)
#    0.000    1.250    2.500    3.750    0.000    5.500 
#    0.000    6.250    0.000    0.000    0.000    0.000 
#    0.000    0.000    0.000    0.000    0.000    0.000 
#
# Total GULP energy -396971.973675 kJ/mol
# GULP energy per Si atom -12405.374177 kJ/mol
# Density = 2.030992 g / cm^3
# Si number density = 20.356251 Si / 1000 Ang^3
#
#
#
# Elastic Constant Matrix: (Units=GPa)
#
#
# Indices 1 2 3 4 5 6 
#
# 1 42.9208 19.2075 27.7218 0.0000 0.0000 0.0000
# 2 19.2075 157.8586 48.0360 0.0000 0.0000 0.0000
# 3 27.7218 48.0360 119.7007 0.0000 0.0000 0.0000
# 4 0.0000 0.0000 0.0000 3.7691 0.0000 0.0000
# 5 0.0000 0.0000 0.0000 0.0000 9.1652 0.0000
# 6 0.0000 0.0000 0.0000 0.0000 0.0000 37.6363
#
#
#
# Elastic Compliance Matrix: (Units=1/GPa)
#
#
# Indices 1 2 3 4 5 6 
#
# 1 0.027755 -0.001619 -0.005778 0.000000 0.000000 0.000000
# 2 -0.001619 0.007310 -0.002559 0.000000 0.000000 0.000000
# 3 -0.005778 -0.002559 0.010719 0.000000 0.000000 0.000000
# 4 0.000000 0.000000 0.000000 0.265315 0.000000 0.000000
# 5 0.000000 0.000000 0.000000 0.000000 0.109108 0.000000
# 6 0.000000 0.000000 0.000000 0.000000 0.000000 0.026570
#
#
# Mechanical properties :
#
#
# Convention : Reuss Voigt Hill
#
# Bulk Modulus (GPa) = 38.65009 56.71230 47.68120
# Shear Modulus (GPa) = 10.51936 25.14844 17.83390
#
# Velocity S-wave (km/s) = 2.27571 3.51866 2.96309
# Velocity P-wave (km/s) = 5.09246 6.66546 5.93134
#
# Compressibility (1/GPa) = 0.02587316
#
# Stress axis : x y z
#
# Youngs Moduli (GPa) = 36.02918 136.79179 93.29048
#
# Poissons Ratio (x) = 0.22144 0.53906
# Poissons Ratio (y) = 0.05832 0.23871
# Poissons Ratio (z) = 0.20819 0.35002
#
# Static dielectric constant tensor:
#      x y z
#    x 3.557610 0.000000 0.000000 
#    y 0.000000 3.983290 0.000000 
#    z 0.000000 0.000000 3.780890 
# 
# 
# High freq. dielectric constant tensor:
#      x y z
#    x 1.789550 0.000000 0.000000 
#    y 0.000000 1.813200 0.000000 
#    z 0.000000 0.000000 1.792130 
# 
# From -- ./inp_files/23165.got.cif
#   From: 2010.03.12/outbox.cif.g09.slc.cpg/sg46_12_cif.got.tgz:23165.got - 2010.04.14 02:56:35.
