data_PCOD8192264
_publ_section_title
;
Structure prediction by ZEFSAII (Michael W. Deem and Ramdas Pophale) SiO2 
 PCOD8192264
Probable space group: I M A 2
;
_chemical_formula_sum "Si O2"
_cell_formula_units_Z 64
_cell_length_a 14.238108
_cell_length_b 25.048119
_cell_length_c 9.726388
_cell_angle_alpha 90.000000
_cell_angle_beta 90.000000
_cell_angle_gamma 90.000000
_cell_volume 3468.797847
_symmetry_space_group_name_H-M "I M A 2"
_symmetry_group_IT_number 46
_symmetry_cell_setting 'orthorhombic'
loop_
_space_group_symop_operation_xyz
x,y,z
-x,-y,z
1/2-x,y,z
1/2+x,-y,z
1/2+x,1/2+y,1/2+z
1/2-x,1/2-y,1/2+z
-x,1/2+y,1/2+z
x,1/2-y,1/2+z
loop_
_atom_site_type_symbol
_atom_site_label
_atom_site_fract_x
_atom_site_fract_y
_atom_site_fract_z
Si Si1 0.859916 0.371215 0.219300
Si Si2 0.051568 0.831545 0.442587
Si Si3 0.852868 0.869594 0.826051
Si Si4 0.038880 0.860613 0.150300
Si Si5 0.856166 0.689469 0.050504
Si Si6 0.477751 0.938362 0.914914
Si Si7 0.146248 0.190583 0.089501
Si Si8 0.359720 0.784304 0.946511
O O1 0.750000 0.380110 0.194147
O O2 0.899555 0.423143 0.300352
O O3 0.880518 0.318137 0.308576
O O4 0.911724 0.364223 0.073888
O O5 0.077361 0.866021 0.306073
O O6 0.101926 0.774843 0.428567
O O7 0.938520 0.822957 0.442516
O O8 0.750000 0.895236 0.842619
O O9 0.870144 0.852841 0.670812
O O10 0.924552 0.914439 0.868211
O O11 0.863500 0.818106 0.924736
O O12 0.928821 0.846472 0.165596
O O13 0.054290 0.915059 0.063852
O O14 0.090382 0.811594 0.075623
O O15 0.750000 0.685551 0.986162
O O16 0.871824 0.747379 0.117512
O O17 0.500000 0.000000 0.929239
O O18 0.250000 0.173763 0.141795
O O19 0.250000 0.781886 0.979175
#
# Coordination Sequence:
#
# PCOD8192264 Si02
#       8
#     8   8   8   8   8   8   8   8
#     4  10  22  39  58  84 114 148 195 238 275 328
#     4  12  21  32  54  83 119 155 178 224 276 337
#     4   9  18  34  54  79 108 140 183 223 262 324
#     4  10  22  34  54  82 114 148 185 231 277 335
#     4  10  20  30  48  78 115 150 177 212 266 330
#     4  10  21  41  63  82 101 138 188 245 290 333
#     4   9  18  30  48  76 112 151 181 211 254 319
#     4  10  21  36  54  78 114 158 196 224 263 328
#
# _framework density 18.450195999999998
#
# number of rings (size 3 to 8) (size 9 to 14) (size 15 to 20)
#    0.000    2.000    2.500    1.125    1.750    3.000 
#    0.000    0.625    0.000    0.000    0.000    0.000 
#    0.000    0.000    0.000    0.000    0.000    0.000 
#
# Total GULP energy -396667.832676 kJ/mol
# GULP energy per Si atom -12395.869771 kJ/mol
# Density = 1.840820 g / cm^3
# Si number density = 18.450196 Si / 1000 Ang^3
#
#
#
# Elastic Constant Matrix: (Units=GPa)
#
#
# Indices 1 2 3 4 5 6 
#
# 1 98.3980 29.4590 39.2516 -0.0004 -0.0002 -0.0003
# 2 29.4590 97.0017 38.3626 0.0017 0.0000 -0.0002
# 3 39.2516 38.3626 104.8484 0.0074 0.0007 -0.0002
# 4 -0.0004 0.0017 0.0074 11.5167 0.0001 -0.0003
# 5 -0.0002 0.0000 0.0007 0.0001 17.4369 -0.0001
# 6 -0.0003 -0.0002 -0.0002 -0.0003 -0.0001 15.1854
#
#
#
# Elastic Compliance Matrix: (Units=1/GPa)
#
#
# Indices 1 2 3 4 5 6 
#
# 1 0.012352 -0.002248 -0.003802 0.000003 0.000000 0.000000
# 2 -0.002248 0.012462 -0.003718 0.000000 0.000000 0.000000
# 3 -0.003802 -0.003718 0.012321 -0.000008 -0.000001 0.000000
# 4 0.000003 0.000000 -0.000008 0.086830 -0.000001 0.000002
# 5 0.000000 0.000000 -0.000001 -0.000001 0.057350 0.000000
# 6 0.000000 0.000000 0.000000 0.000002 0.000000 0.065853
#
#
# Mechanical properties :
#
#
# Convention : Reuss Voigt Hill
#
# Bulk Modulus (GPa) = 56.81784 57.15493 56.98639
# Shear Modulus (GPa) = 18.34385 21.70614 20.02499
#
# Velocity S-wave (km/s) = 3.15657 3.43369 3.29804
# Velocity P-wave (km/s) = 6.64435 6.83853 6.74214
#
# Compressibility (1/GPa) = 0.01760011
#
# Stress axis : x y z
#
# Youngs Moduli (GPa) = 80.95625 80.24223 81.16007
#
# Poissons Ratio (x) = 0.18037 0.30856
# Poissons Ratio (y) = 0.18197 0.30178
# Poissons Ratio (z) = 0.30778 0.29836
#
# Static dielectric constant tensor:
#      x y z
#    x 3.787410 0.000000 0.000000 
#    y 0.000000 2.983190 0.000000 
#    z 0.000000 0.000000 3.413070 
# 
# 
# High freq. dielectric constant tensor:
#      x y z
#    x 1.737340 0.000000 0.000000 
#    y 0.000000 1.663150 0.000000 
#    z 0.000000 0.000000 1.714560 
# 
# From -- ./inp_files/6090.got.cif
#   From: 2010.03.12/outbox.cif.g09.slc.cpg/sg46_4_cif.got.tgz:6090.got - 2010.04.14 02:56:35.
