data_PCOD8192602
_publ_section_title
;
Structure prediction by ZEFSAII (Michael W. Deem and Ramdas Pophale) SiO2 
 PCOD8192602
Probable space group: I M A 2
;
_chemical_formula_sum "Si O2"
_cell_formula_units_Z 56
_cell_length_a 14.399606
_cell_length_b 9.481376
_cell_length_c 19.527712
_cell_angle_alpha 90.000000
_cell_angle_beta 90.000000
_cell_angle_gamma 90.000000
_cell_volume 2666.081002
_symmetry_space_group_name_H-M "I M A 2"
_symmetry_group_IT_number 46
_symmetry_cell_setting 'orthorhombic'
loop_
_space_group_symop_operation_xyz
x,y,z
-x,-y,z
1/2-x,y,z
1/2+x,-y,z
1/2+x,1/2+y,1/2+z
1/2-x,1/2-y,1/2+z
-x,1/2+y,1/2+z
x,1/2-y,1/2+z
loop_
_atom_site_type_symbol
_atom_site_label
_atom_site_fract_x
_atom_site_fract_y
_atom_site_fract_z
Si Si1 0.647820 0.270422 0.629790
Si Si2 0.640293 0.635418 0.843865
Si Si3 0.018511 0.160441 0.925533
Si Si4 0.956042 0.798677 0.076601
Si Si5 0.854901 0.544337 0.696128
Si Si6 0.143040 0.621888 0.941325
Si Si7 0.853622 0.517817 0.087252
O O1 0.750000 0.292954 0.594715
O O2 0.567277 0.314857 0.577287
O O3 0.641011 0.371828 0.696564
O O4 0.637737 0.102484 0.647053
O O5 0.750000 0.663779 0.845594
O O6 0.587784 0.774215 0.869596
O O7 0.604391 0.602444 0.766966
O O8 0.613335 0.502907 0.890429
O O9 0.921570 0.244314 0.926771
O O10 0.072600 0.166280 0.998887
O O11 0.000000 0.000000 0.904136
O O12 0.912433 0.905456 0.130690
O O13 0.927215 0.640762 0.098847
O O14 0.750000 0.598263 0.687160
O O15 0.250000 0.666261 0.929713
O O16 0.125015 0.564720 0.017274
O O17 0.750000 0.584162 0.085942
#
# Coordination Sequence:
#
# PCOD8192602 Si02
#       7
#     8   8   8   8   8   8   8
#     4  10  21  36  57  88 125 159 204 258 316 378
#     4  10  23  45  70  91 124 174 225 270 327 397
#     4  12  25  38  62  98 134 168 218 272 326 389
#     4  12  22  36  61  94 126 167 209 260 321 384
#     4  10  23  43  64  91 126 167 212 266 327 390
#     4  10  21  40  65  91 123 170 218 267 321 383
#     4  10  20  36  59  91 124 159 207 263 316 371
#
# _framework density 21.004615000000001
#
# number of rings (size 3 to 8) (size 9 to 14) (size 15 to 20)
#    0.000    1.429    2.857    2.571    0.000    3.429 
#    0.000    2.857    0.000    3.429    0.000    0.000 
#    0.000    0.000    0.000    0.000    0.000    0.000 
#
# Total GULP energy -347046.369884 kJ/mol
# GULP energy per Si atom -12394.513210 kJ/mol
# Density = 2.095681 g / cm^3
# Si number density = 21.004615 Si / 1000 Ang^3
#
#
#
# Elastic Constant Matrix: (Units=GPa)
#
#
# Indices 1 2 3 4 5 6 
#
# 1 104.2551 54.7742 38.7240 0.0000 0.0000 0.0000
# 2 54.7742 167.8365 62.0645 0.0000 0.0000 0.0000
# 3 38.7240 62.0645 100.5977 0.0000 0.0000 0.0000
# 4 0.0000 0.0000 0.0000 29.1445 0.0000 0.0000
# 5 0.0000 0.0000 0.0000 0.0000 20.4307 0.0000
# 6 0.0000 0.0000 0.0000 0.0000 0.0000 35.9298
#
#
#
# Elastic Compliance Matrix: (Units=1/GPa)
#
#
# Indices 1 2 3 4 5 6 
#
# 1 0.012197 -0.002908 -0.002901 0.000000 0.000000 0.000000
# 2 -0.002908 0.008413 -0.004071 0.000000 0.000000 0.000000
# 3 -0.002901 -0.004071 0.013569 0.000000 0.000000 0.000000
# 4 0.000000 0.000000 0.000000 0.034312 0.000000 0.000000
# 5 0.000000 0.000000 0.000000 0.000000 0.048946 0.000000
# 6 0.000000 0.000000 0.000000 0.000000 0.000000 0.027832
#
#
# Mechanical properties :
#
#
# Convention : Reuss Voigt Hill
#
# Bulk Modulus (GPa) = 69.35312 75.97941 72.66626
# Shear Modulus (GPa) = 29.44048 31.57612 30.50830
#
# Velocity S-wave (km/s) = 3.74788 3.88144 3.81525
# Velocity P-wave (km/s) = 7.19851 7.50591 7.35382
#
# Compressibility (1/GPa) = 0.01441896
#
# Stress axis : x y z
#
# Youngs Moduli (GPa) = 81.98629 118.87072 73.69788
#
# Poissons Ratio (x) = 0.34565 0.21381
# Poissons Ratio (y) = 0.23840 0.30001
# Poissons Ratio (z) = 0.23786 0.48390
#
# Static dielectric constant tensor:
#      x y z
#    x 4.020990 0.000000 0.000000 
#    y 0.000000 3.990440 0.000000 
#    z 0.000000 0.000000 3.645160 
# 
# 
# High freq. dielectric constant tensor:
#      x y z
#    x 1.839740 0.000000 0.000000 
#    y 0.000000 1.825260 0.000000 
#    z 0.000000 0.000000 1.787180 
# 
# From -- ./inp_files/22009.got.cif
#   From: 2010.03.12/outbox.cif.g09.slc.cpg/sg46_12_cif.got.tgz:22009.got - 2010.04.14 02:56:35.
