data_PCOD8192021
_publ_section_title
;
Structure prediction by ZEFSAII (Michael W. Deem and Ramdas Pophale) SiO2 
 PCOD8192021
Probable space group: I M A 2
;
_chemical_formula_sum "Si O2"
_cell_formula_units_Z 60
_cell_length_a 9.487913
_cell_length_b 15.599770
_cell_length_c 20.438262
_cell_angle_alpha 90.000000
_cell_angle_beta 90.000000
_cell_angle_gamma 90.000000
_cell_volume 3025.052046
_symmetry_space_group_name_H-M "I M A 2"
_symmetry_group_IT_number 46
_symmetry_cell_setting 'orthorhombic'
loop_
_space_group_symop_operation_xyz
x,y,z
-x,-y,z
1/2-x,y,z
1/2+x,-y,z
1/2+x,1/2+y,1/2+z
1/2-x,1/2-y,1/2+z
-x,1/2+y,1/2+z
x,1/2-y,1/2+z
loop_
_atom_site_type_symbol
_atom_site_label
_atom_site_fract_x
_atom_site_fract_y
_atom_site_fract_z
Si Si1 0.919362 0.725815 0.488220
Si Si2 0.910004 0.421297 0.549110
Si Si3 0.410046 0.751992 0.732742
Si Si4 0.000000 0.000000 0.786338
Si Si5 0.094842 0.572407 0.701580
Si Si6 0.599115 0.889767 0.675305
Si Si7 0.908552 0.163204 0.865824
Si Si8 0.589185 0.579491 0.026576
O O1 0.750000 0.712608 0.493103
O O2 0.959602 0.825919 0.500678
O O3 0.002574 0.667279 0.540796
O O4 0.975302 0.689714 0.418869
O O5 0.750000 0.416267 0.518636
O O6 0.893439 0.441250 0.624703
O O7 0.000000 0.500000 0.516448
O O8 0.250000 0.748968 0.708870
O O9 0.482240 0.661407 0.718013
O O10 0.476774 0.823492 0.687760
O O11 0.426068 0.767402 0.809290
O O12 0.110476 0.041740 0.734903
O O13 0.930541 0.069462 0.834304
O O14 0.250000 0.568125 0.733694
O O15 0.000000 0.500000 0.734820
O O16 0.750000 0.841877 0.673200
O O17 0.570717 0.930187 0.604614
O O18 0.750000 0.166232 0.895299
O O19 0.500000 0.500000 0.995455
O O20 0.750000 0.565389 0.005100
#
# Coordination Sequence:
#
# PCOD8192021 Si02
#       8
#     8   8   8   4   8   8   8   8
#     4  11  24  40  57  81 116 156 201 244 286 344
#     4  10  20  35  57  84 115 150 189 232 286 343
#     4   9  19  35  54  79 111 146 183 228 281 341
#     4  10  20  36  60  88 120 148 186 236 294 354
#     4   9  18  33  54  81 110 141 181 229 281 335
#     4  10  19  33  57  88 117 143 179 231 295 356
#     4  10  22  38  57  80 112 153 194 232 282 343
#     4  10  22  39  60  87 116 151 194 244 299 353
#
# _framework density 19.834368999999999
#
# number of rings (size 3 to 8) (size 9 to 14) (size 15 to 20)
#    0.000    2.133    0.667    2.000    0.933    5.867 
#    0.000    0.667    0.000    3.200    0.000    0.000 
#    0.000    0.000    0.000    0.000    0.000    0.000 
#
# Total GULP energy -371678.524625 kJ/mol
# GULP energy per Si atom -12389.284154 kJ/mol
# Density = 1.978923 g / cm^3
# Si number density = 19.834369 Si / 1000 Ang^3
#
#
#
# Elastic Constant Matrix: (Units=GPa)
#
#
# Indices 1 2 3 4 5 6 
#
# 1 108.8775 64.8996 18.6790 0.0000 0.0000 0.0000
# 2 64.8996 156.6078 24.4989 0.0000 0.0000 0.0000
# 3 18.6790 24.4989 41.5074 0.0000 0.0000 0.0000
# 4 0.0000 0.0000 0.0000 20.2856 0.0000 0.0000
# 5 0.0000 0.0000 0.0000 0.0000 27.4280 0.0000
# 6 0.0000 0.0000 0.0000 0.0000 0.0000 27.8985
#
#
#
# Elastic Compliance Matrix: (Units=1/GPa)
#
#
# Indices 1 2 3 4 5 6 
#
# 1 0.012492 -0.004734 -0.002827 0.000000 0.000000 0.000000
# 2 -0.004734 0.008829 -0.003081 0.000000 0.000000 0.000000
# 3 -0.002827 -0.003081 0.027183 0.000000 0.000000 0.000000
# 4 0.000000 0.000000 0.000000 0.049296 0.000000 0.000000
# 5 0.000000 0.000000 0.000000 0.000000 0.036459 0.000000
# 6 0.000000 0.000000 0.000000 0.000000 0.000000 0.035844
#
#
# Mechanical properties :
#
#
# Convention : Reuss Voigt Hill
#
# Bulk Modulus (GPa) = 36.73880 58.12751 47.43316
# Shear Modulus (GPa) = 24.94255 28.38343 26.66299
#
# Velocity S-wave (km/s) = 3.55003 3.78699 3.67042
# Velocity P-wave (km/s) = 5.94699 6.96361 6.47528
#
# Compressibility (1/GPa) = 0.02721918
#
# Stress axis : x y z
#
# Youngs Moduli (GPa) = 80.05285 113.25929 36.78820
#
# Poissons Ratio (x) = 0.53622 0.10400
# Poissons Ratio (y) = 0.37900 0.11333
# Poissons Ratio (z) = 0.22632 0.34892
#
# Static dielectric constant tensor:
#      x y z
#    x 3.857930 0.000000 0.000000 
#    y 0.000000 3.823890 0.000000 
#    z 0.000000 0.000000 3.361150 
# 
# 
# High freq. dielectric constant tensor:
#      x y z
#    x 1.777950 0.000000 0.000000 
#    y 0.000000 1.779890 0.000000 
#    z 0.000000 0.000000 1.749180 
# 
# From -- ./inp_files/23118.got.cif
#   From: 2010.03.12/outbox.cif.g09.slc.cpg/sg46_12_cif.got.tgz:23118.got - 2010.04.14 02:56:35.
