data_PCOD8192279
_publ_section_title
;
Structure prediction by ZEFSAII (Michael W. Deem and Ramdas Pophale) SiO2 
 PCOD8192279
Probable space group: I M A 2
;
_chemical_formula_sum "Si O2"
_cell_formula_units_Z 44
_cell_length_a 24.037000
_cell_length_b 10.057019
_cell_length_c 8.887869
_cell_angle_alpha 90.000000
_cell_angle_beta 90.000000
_cell_angle_gamma 90.000000
_cell_volume 2148.558480
_symmetry_space_group_name_H-M "I M A 2"
_symmetry_group_IT_number 46
_symmetry_cell_setting 'orthorhombic'
loop_
_space_group_symop_operation_xyz
x,y,z
-x,-y,z
1/2-x,y,z
1/2+x,-y,z
1/2+x,1/2+y,1/2+z
1/2-x,1/2-y,1/2+z
-x,1/2+y,1/2+z
x,1/2-y,1/2+z
loop_
_atom_site_type_symbol
_atom_site_label
_atom_site_fract_x
_atom_site_fract_y
_atom_site_fract_z
Si Si1 0.985163 0.683773 0.038390
Si Si2 0.078397 0.546835 0.880376
Si Si3 0.687976 0.676928 0.609387
Si Si4 0.077869 0.457799 0.550857
Si Si5 0.688300 0.931237 0.434474
Si Si6 0.500000 0.500000 0.307041
O O1 0.964573 0.832848 0.052601
O O2 0.987926 0.629604 0.208053
O O3 0.943260 0.595149 0.940021
O O4 0.045927 0.669251 0.957761
O O5 0.070888 0.548001 0.699777
O O6 0.143714 0.551396 0.927995
O O7 0.750000 0.633647 0.554683
O O8 0.641745 0.585873 0.527562
O O9 0.677863 0.832630 0.574770
O O10 0.681572 0.661857 0.787696
O O11 0.054969 0.537462 0.406645
O O12 0.750000 0.995247 0.442297
#
# Coordination Sequence:
#
# PCOD8192279 Si02
#       6
#     8   8   8   8   8   4
#     4  10  20  32  47  68 100 128 167 202 237 287
#     4   9  18  30  45  68  96 130 161 193 241 288
#     4   9  18  28  46  71  96 129 159 189 248 305
#     4  11  19  33  51  69 104 133 157 204 242 285
#     4   9  16  27  43  67  96 126 160 196 239 295
#     4  10  22  30  48  74  90 134 174 188 244 296
#
# _framework density 20.478846000000001
#
# number of rings (size 3 to 8) (size 9 to 14) (size 15 to 20)
#    0.000    2.545    1.818    2.182    2.545    0.000 
#    0.000    0.000    0.000    0.000    0.000    1.273 
#    0.000   21.818    0.000    0.182    0.000    0.000 
#
# Total GULP energy -272643.575795 kJ/mol
# GULP energy per Si atom -12392.889809 kJ/mol
# Density = 2.043224 g / cm^3
# Si number density = 20.478846 Si / 1000 Ang^3
#
#
#
# Elastic Constant Matrix: (Units=GPa)
#
#
# Indices 1 2 3 4 5 6 
#
# 1 148.5207 11.9977 37.8313 0.0000 0.0000 0.0000
# 2 11.9977 17.5033 3.0459 0.0000 0.0000 0.0000
# 3 37.8313 3.0459 85.3572 0.0000 0.0000 0.0000
# 4 0.0000 0.0000 0.0000 10.3731 0.0000 0.0000
# 5 0.0000 0.0000 0.0000 0.0000 27.7314 0.0000
# 6 0.0000 0.0000 0.0000 0.0000 0.0000 30.6808
#
#
#
# Elastic Compliance Matrix: (Units=1/GPa)
#
#
# Indices 1 2 3 4 5 6 
#
# 1 0.007985 -0.004888 -0.003365 0.000000 0.000000 0.000000
# 2 -0.004888 0.060481 0.000008 0.000000 0.000000 0.000000
# 3 -0.003365 0.000008 0.013206 0.000000 0.000000 0.000000
# 4 0.000000 0.000000 0.000000 0.096403 0.000000 0.000000
# 5 0.000000 0.000000 0.000000 0.000000 0.036060 0.000000
# 6 0.000000 0.000000 0.000000 0.000000 0.000000 0.032594
#
#
# Mechanical properties :
#
#
# Convention : Reuss Voigt Hill
#
# Bulk Modulus (GPa) = 15.34124 39.68120 27.51122
# Shear Modulus (GPa) = 17.54719 26.99081 22.26900
#
# Velocity S-wave (km/s) = 2.93037 3.63434 3.30117
# Velocity P-wave (km/s) = 4.35395 6.08523 5.29089
#
# Compressibility (1/GPa) = 0.06518376
#
# Stress axis : x y z
#
# Youngs Moduli (GPa) = 125.23572 16.53413 75.72074
#
# Poissons Ratio (x) = 0.08082 0.25477
# Poissons Ratio (y) = 0.61212 -0.00061
# Poissons Ratio (z) = 0.42137 -0.00013
#
# Static dielectric constant tensor:
#      x y z
#    x 4.243400 0.000000 0.000000 
#    y 0.000000 3.112240 0.000000 
#    z 0.000000 0.000000 3.903400 
# 
# 
# High freq. dielectric constant tensor:
#      x y z
#    x 1.812450 0.000000 0.000000 
#    y 0.000000 1.740310 0.000000 
#    z 0.000000 0.000000 1.810580 
# 
# From -- ./inp_files/7801.got.cif
#   From: 2010.03.12/outbox.cif.g09.slc.cpg/sg46_4_cif.got.tgz:7801.got - 2010.04.14 02:56:35.
