data_PCOD8192906
_publ_section_title
;
Structure prediction by ZEFSAII (Michael W. Deem and Ramdas Pophale) SiO2 
 PCOD8192906
Probable space group: I M A 2
;
_chemical_formula_sum "Si O2"
_cell_formula_units_Z 64
_cell_length_a 8.816161
_cell_length_b 15.362077
_cell_length_c 23.513104
_cell_angle_alpha 90.000000
_cell_angle_beta 90.000000
_cell_angle_gamma 90.000000
_cell_volume 3184.486521
_symmetry_space_group_name_H-M "I M A 2"
_symmetry_group_IT_number 46
_symmetry_cell_setting 'orthorhombic'
loop_
_space_group_symop_operation_xyz
x,y,z
-x,-y,z
1/2-x,y,z
1/2+x,-y,z
1/2+x,1/2+y,1/2+z
1/2-x,1/2-y,1/2+z
-x,1/2+y,1/2+z
x,1/2-y,1/2+z
loop_
_atom_site_type_symbol
_atom_site_label
_atom_site_fract_x
_atom_site_fract_y
_atom_site_fract_z
Si Si1 0.923693 0.667786 0.126170
Si Si2 0.428241 0.091817 0.746292
Si Si3 0.574345 0.248170 0.441123
Si Si4 0.928010 0.410555 0.736924
Si Si5 0.570868 0.589222 0.499283
Si Si6 0.924588 0.590086 0.006382
Si Si7 0.074304 0.752120 0.809011
Si Si8 0.927406 0.150199 0.112935
O O1 0.750000 0.700778 0.132087
O O2 0.979396 0.619487 0.182971
O O3 0.939651 0.601012 0.074173
O O4 0.033291 0.748365 0.114844
O O5 0.250000 0.082108 0.750532
O O6 0.482572 0.162379 0.791859
O O7 0.500000 0.000000 0.762621
O O8 0.750000 0.260952 0.456605
O O9 0.484740 0.333715 0.459212
O O10 0.511522 0.166491 0.474884
O O11 0.548858 0.231910 0.374821
O O12 0.750000 0.417911 0.744926
O O13 0.990722 0.330447 0.774300
O O14 0.974658 0.394764 0.671784
O O15 0.000000 0.500000 0.759162
O O16 0.500000 0.500000 0.475692
O O17 0.750000 0.583544 0.496240
O O18 0.521856 0.602871 0.564284
O O19 0.750000 0.590740 0.987142
O O20 0.000000 0.500000 0.987785
O O21 0.250000 0.767997 0.794146
O O22 0.750000 0.140115 0.099975
#
# Coordination Sequence:
#
# PCOD8192906 Si02
#       8
#     8   8   8   8   8   8   8   8
#     4  10  21  37  60  92 126 162 201 248 303 364
#     4  11  23  39  63  93 125 163 205 249 305 366
#     4  11  24  43  66  90 120 161 210 260 312 365
#     4  10  22  39  61  91 123 160 199 245 300 357
#     4  12  25  42  64  92 127 161 204 252 307 371
#     4  11  23  40  63  92 127 164 204 252 305 364
#     4  10  23  44  64  87 121 160 207 259 307 361
#     4  11  21  36  63  93 125 163 201 245 305 366
#
# _framework density 20.097432000000001
#
# number of rings (size 3 to 8) (size 9 to 14) (size 15 to 20)
#    0.000    1.250    2.500    3.375    0.000    5.500 
#    0.000    1.250    0.000    0.000    0.000    0.000 
#    0.000    0.000    0.000    0.000    0.000    0.000 
#
# Total GULP energy -397013.983752 kJ/mol
# GULP energy per Si atom -12406.686992 kJ/mol
# Density = 2.005169 g / cm^3
# Si number density = 20.097432 Si / 1000 Ang^3
#
#
#
# Elastic Constant Matrix: (Units=GPa)
#
#
# Indices 1 2 3 4 5 6 
#
# 1 101.8763 42.9985 32.1332 0.0000 0.0000 0.0000
# 2 42.9985 136.6097 18.4641 0.0000 0.0000 0.0000
# 3 32.1332 18.4641 66.7961 0.0000 0.0000 0.0000
# 4 0.0000 0.0000 0.0000 4.9191 0.0000 0.0000
# 5 0.0000 0.0000 0.0000 0.0000 20.5036 0.0000
# 6 0.0000 0.0000 0.0000 0.0000 0.0000 40.0272
#
#
#
# Elastic Compliance Matrix: (Units=1/GPa)
#
#
# Indices 1 2 3 4 5 6 
#
# 1 0.012892 -0.003345 -0.005277 0.000000 0.000000 0.000000
# 2 -0.003345 0.008472 -0.000733 0.000000 0.000000 0.000000
# 3 -0.005277 -0.000733 0.017712 0.000000 0.000000 0.000000
# 4 0.000000 0.000000 0.000000 0.203289 0.000000 0.000000
# 5 0.000000 0.000000 0.000000 0.000000 0.048772 0.000000
# 6 0.000000 0.000000 0.000000 0.000000 0.000000 0.024983
#
#
# Mechanical properties :
#
#
# Convention : Reuss Voigt Hill
#
# Bulk Modulus (GPa) = 49.10009 54.71930 51.90969
# Shear Modulus (GPa) = 14.63619 27.20240 20.91930
#
# Velocity S-wave (km/s) = 2.70156 3.68302 3.22979
# Velocity P-wave (km/s) = 5.84938 6.73590 6.30823
#
# Compressibility (1/GPa) = 0.02036656
#
# Stress axis : x y z
#
# Youngs Moduli (GPa) = 77.56747 118.03743 56.45800
#
# Poissons Ratio (x) = 0.39478 0.29795
# Poissons Ratio (y) = 0.25943 0.04138
# Poissons Ratio (z) = 0.40935 0.08651
#
# Static dielectric constant tensor:
#      x y z
#    x 3.677320 0.000000 0.000000 
#    y 0.000000 3.742190 0.000000 
#    z 0.000000 0.000000 3.718800 
# 
# 
# High freq. dielectric constant tensor:
#      x y z
#    x 1.789660 0.000000 0.000000 
#    y 0.000000 1.795960 0.000000 
#    z 0.000000 0.000000 1.783510 
# 
# From -- ./inp_files/23141.got.cif
#   From: 2010.03.12/outbox.cif.g09.slc.cpg/sg46_12_cif.got.tgz:23141.got - 2010.04.14 02:56:35.
