data_PCOD8192469
_publ_section_title
;
Structure prediction by ZEFSAII (Michael W. Deem and Ramdas Pophale) SiO2 
 PCOD8192469
Probable space group: I M A 2
;
_chemical_formula_sum "Si O2"
_cell_formula_units_Z 48
_cell_length_a 8.949012
_cell_length_b 29.303635
_cell_length_c 10.051164
_cell_angle_alpha 90.000000
_cell_angle_beta 90.000000
_cell_angle_gamma 90.000000
_cell_volume 2635.802987
_symmetry_space_group_name_H-M "I M A 2"
_symmetry_group_IT_number 46
_symmetry_cell_setting 'orthorhombic'
loop_
_space_group_symop_operation_xyz
x,y,z
-x,-y,z
1/2-x,y,z
1/2+x,-y,z
1/2+x,1/2+y,1/2+z
1/2-x,1/2-y,1/2+z
-x,1/2+y,1/2+z
x,1/2-y,1/2+z
loop_
_atom_site_type_symbol
_atom_site_label
_atom_site_fract_x
_atom_site_fract_y
_atom_site_fract_z
Si Si1 0.424941 0.278275 0.606840
Si Si2 0.077596 0.613522 0.878736
Si Si3 0.073536 0.452836 0.081278
Si Si4 0.076939 0.720189 0.880656
Si Si5 0.924052 0.883206 0.106120
Si Si6 0.574932 0.546432 0.384185
O O1 0.250000 0.268396 0.616254
O O2 0.499764 0.264308 0.744978
O O3 0.496779 0.246830 0.496858
O O4 0.459164 0.330807 0.571711
O O5 0.250000 0.599194 0.886054
O O6 0.053912 0.666775 0.905705
O O7 0.016002 0.599971 0.733869
O O8 0.985867 0.588012 0.991921
O O9 0.250000 0.456973 0.064951
O O10 0.026218 0.442034 0.233360
O O11 0.000000 0.500000 0.033238
O O12 0.250000 0.733633 0.874695
O O13 0.750000 0.890336 0.138114
O O14 0.977070 0.912419 0.979179
O O15 0.500000 0.500000 0.434895
O O16 0.750000 0.538848 0.392818
#
# Coordination Sequence:
#
# PCOD8192469 Si02
#       6
#     8   8   8   8   8   8
#     4  10  20  35  56  80 106 140 182 223 264 317
#     4  10  21  36  54  78 107 140 177 215 260 315
#     4  10  20  35  55  78 106 139 175 218 264 312
#     4  10  21  37  55  78 110 143 176 220 272 322
#     4   9  19  36  55  77 106 138 173 216 263 311
#     4   9  19  35  54  77 104 134 170 212 259 309
#
# _framework density 18.210768999999999
#
# number of rings (size 3 to 8) (size 9 to 14) (size 15 to 20)
#    0.000    2.333    0.000    2.000    0.000    6.000 
#    0.000    3.333    0.000    0.000    0.000    0.000 
#    0.000    0.000    0.000    0.000    0.000    0.000 
#
# Total GULP energy -297690.948740 kJ/mol
# GULP energy per Si atom -12403.789531 kJ/mol
# Density = 1.816932 g / cm^3
# Si number density = 18.210769 Si / 1000 Ang^3
#
#
#
# Elastic Constant Matrix: (Units=GPa)
#
#
# Indices 1 2 3 4 5 6 
#
# 1 99.9181 51.5548 68.1637 -0.0029 -0.0006 0.0001
# 2 51.5548 75.2027 75.0234 -0.0008 -0.0013 -0.0002
# 3 68.1637 75.0234 134.5140 -0.0211 -0.0126 -0.0015
# 4 -0.0029 -0.0008 -0.0211 40.2671 -0.0025 -0.0003
# 5 -0.0006 -0.0013 -0.0126 -0.0025 32.5685 0.0002
# 6 0.0001 -0.0002 -0.0015 -0.0003 0.0002 33.0135
#
#
#
# Elastic Compliance Matrix: (Units=1/GPa)
#
#
# Indices 1 2 3 4 5 6 
#
# 1 0.016699 -0.006777 -0.004683 -0.000001 -0.000002 0.000000
# 2 -0.006777 0.032727 -0.014819 -0.000008 -0.000005 0.000000
# 3 -0.004683 -0.014819 0.018072 0.000009 0.000006 0.000001
# 4 -0.000001 -0.000008 0.000009 0.024834 0.000002 0.000000
# 5 -0.000002 -0.000005 0.000006 0.000002 0.030705 0.000000
# 6 0.000000 0.000000 0.000001 0.000000 0.000000 0.030291
#
#
# Mechanical properties :
#
#
# Convention : Reuss Voigt Hill
#
# Bulk Modulus (GPa) = 66.92666 77.67984 72.30325
# Shear Modulus (GPa) = 23.71201 28.82934 26.27067
#
# Velocity S-wave (km/s) = 3.61236 3.98313 3.80226
# Velocity P-wave (km/s) = 7.36409 7.99389 7.68544
#
# Compressibility (1/GPa) = 0.01494173
#
# Stress axis : x y z
#
# Youngs Moduli (GPa) = 59.88321 30.55625 55.33422
#
# Poissons Ratio (x) = 0.20707 0.25911
# Poissons Ratio (y) = 0.40581 0.81999
# Poissons Ratio (z) = 0.28041 0.45281
#
# Static dielectric constant tensor:
#      x y z
#    x 3.476410 0.000000 0.000000 
#    y 0.000000 3.354690 0.000000 
#    z 0.000000 0.000000 3.463760 
# 
# 
# High freq. dielectric constant tensor:
#      x y z
#    x 1.716800 0.000000 0.000000 
#    y 0.000000 1.703450 0.000000 
#    z 0.000000 0.000000 1.711740 
# 
# From -- ./inp_files/3913.got.cif
#   From: 2010.03.12/outbox.cif.g09.slc.cpg/sg46_2_cif.got.tgz:3913.got - 2010.04.14 02:56:35.
