data_PCOD8192896
_publ_section_title
;
Structure prediction by ZEFSAII (Michael W. Deem and Ramdas Pophale) SiO2 
 PCOD8192896
Probable space group: I M A 2
;
_chemical_formula_sum "Si O2"
_cell_formula_units_Z 64
_cell_length_a 15.483250
_cell_length_b 8.956885
_cell_length_c 23.964553
_cell_angle_alpha 90.000000
_cell_angle_beta 90.000000
_cell_angle_gamma 90.000000
_cell_volume 3323.444702
_symmetry_space_group_name_H-M "I M A 2"
_symmetry_group_IT_number 46
_symmetry_cell_setting 'orthorhombic'
loop_
_space_group_symop_operation_xyz
x,y,z
-x,-y,z
1/2-x,y,z
1/2+x,-y,z
1/2+x,1/2+y,1/2+z
1/2-x,1/2-y,1/2+z
-x,1/2+y,1/2+z
x,1/2-y,1/2+z
loop_
_atom_site_type_symbol
_atom_site_label
_atom_site_fract_x
_atom_site_fract_y
_atom_site_fract_z
Si Si1 0.148668 0.179572 0.143920
Si Si2 0.007323 0.172642 0.452765
Si Si3 0.581259 0.109265 0.029792
Si Si4 0.153893 0.188318 0.021315
Si Si5 0.001080 0.173275 0.321989
Si Si6 0.350824 0.843864 0.144522
Si Si7 0.650360 0.181684 0.755469
Si Si8 0.850175 0.668963 0.254939
O O1 0.250000 0.188435 0.135858
O O2 0.111398 0.223406 0.082758
O O3 0.117729 0.290606 0.192431
O O4 0.122484 0.012034 0.162005
O O5 0.930788 0.266153 0.482230
O O6 0.099307 0.231270 0.473824
O O7 0.001297 0.200993 0.387521
O O8 0.000000 0.000000 0.468472
O O9 0.599462 0.197211 0.087537
O O10 0.500000 0.000000 0.035520
O O11 0.657893 0.993157 0.014164
O O12 0.250000 0.252090 0.015259
O O13 0.087976 0.248098 0.298320
O O14 0.912364 0.243440 0.299972
O O15 0.000000 0.000000 0.306286
O O16 0.250000 0.828530 0.132610
O O17 0.379219 0.732084 0.193644
O O18 0.750000 0.230768 0.766542
O O19 0.639420 0.006145 0.761959
O O20 0.750000 0.718896 0.264415
#
# Coordination Sequence:
#
# PCOD8192896 Si02
#       8
#     8   8   8   8   8   8   8   8
#     4   8  15  30  53  82 114 146 178 214 263 328
#     4  10  23  40  54  77 110 143 184 231 276 322
#     4   9  18  33  55  80 110 144 180 220 265 321
#     4   9  18  35  59  83 109 144 183 220 265 324
#     4  11  24  41  59  77 106 150 194 232 273 327
#     4   9  17  32  54  81 113 144 178 218 264 326
#     4  10  22  38  57  85 116 144 180 229 281 329
#     4  10  21  37  59  87 115 143 180 228 281 331
#
# _framework density 19.257128000000002
#
# number of rings (size 3 to 8) (size 9 to 14) (size 15 to 20)
#    0.000    2.500    0.000    2.250    0.000    9.500 
#    0.000    6.875    0.000    0.000    0.000    0.000 
#    0.000    0.000    0.000    0.000    0.000    0.000 
#
# Total GULP energy -396653.163501 kJ/mol
# GULP energy per Si atom -12395.411359 kJ/mol
# Density = 1.921330 g / cm^3
# Si number density = 19.257128 Si / 1000 Ang^3
#
#
#
# Elastic Constant Matrix: (Units=GPa)
#
#
# Indices 1 2 3 4 5 6 
#
# 1 80.2451 47.3345 55.1485 0.0000 0.0000 0.0000
# 2 47.3345 106.0983 75.0607 0.0000 0.0000 0.0000
# 3 55.1485 75.0607 126.7879 0.0000 0.0000 0.0000
# 4 0.0000 0.0000 0.0000 36.0947 0.0000 0.0000
# 5 0.0000 0.0000 0.0000 0.0000 27.9356 0.0000
# 6 0.0000 0.0000 0.0000 0.0000 0.0000 23.4431
#
#
#
# Elastic Compliance Matrix: (Units=1/GPa)
#
#
# Indices 1 2 3 4 5 6 
#
# 1 0.018954 -0.004514 -0.005572 0.000000 0.000000 0.000000
# 2 -0.004514 0.017293 -0.008274 0.000000 0.000000 0.000000
# 3 -0.005572 -0.008274 0.015209 0.000000 0.000000 0.000000
# 4 0.000000 0.000000 0.000000 0.027705 0.000000 0.000000
# 5 0.000000 0.000000 0.000000 0.000000 0.035797 0.000000
# 6 0.000000 0.000000 0.000000 0.000000 0.000000 0.042656
#
#
# Mechanical properties :
#
#
# Convention : Reuss Voigt Hill
#
# Bulk Modulus (GPa) = 67.86299 74.24655 71.05477
# Shear Modulus (GPa) = 25.09461 26.53386 25.81424
#
# Velocity S-wave (km/s) = 3.61381 3.71600 3.66526
# Velocity P-wave (km/s) = 7.26153 7.55318 7.40879
#
# Compressibility (1/GPa) = 0.01473557
#
# Stress axis : x y z
#
# Youngs Moduli (GPa) = 52.75973 57.82741 65.74977
#
# Poissons Ratio (x) = 0.26104 0.36635
# Poissons Ratio (y) = 0.23817 0.54402
# Poissons Ratio (z) = 0.29397 0.47847
#
# Static dielectric constant tensor:
#      x y z
#    x 3.648600 0.000000 0.000000 
#    y 0.000000 3.590850 0.000000 
#    z 0.000000 0.000000 3.555450 
# 
# 
# High freq. dielectric constant tensor:
#      x y z
#    x 1.749220 0.000000 0.000000 
#    y 0.000000 1.742320 0.000000 
#    z 0.000000 0.000000 1.746430 
# 
# From -- ./inp_files/23700.got.cif
#   From: 2010.03.12/outbox.cif.g09.slc.cpg/sg46_12_cif.got.tgz:23700.got - 2010.04.14 02:56:35.
