data_PCOD8192749
_publ_section_title
;
Structure prediction by ZEFSAII (Michael W. Deem and Ramdas Pophale) SiO2 
 PCOD8192749
Probable space group: I M A 2
;
_chemical_formula_sum "Si O2"
_cell_formula_units_Z 64
_cell_length_a 14.015967
_cell_length_b 17.862394
_cell_length_c 11.896711
_cell_angle_alpha 90.000000
_cell_angle_beta 90.000000
_cell_angle_gamma 90.000000
_cell_volume 2978.445396
_symmetry_space_group_name_H-M "I M A 2"
_symmetry_group_IT_number 46
_symmetry_cell_setting 'orthorhombic'
loop_
_space_group_symop_operation_xyz
x,y,z
-x,-y,z
1/2-x,y,z
1/2+x,-y,z
1/2+x,1/2+y,1/2+z
1/2-x,1/2-y,1/2+z
-x,1/2+y,1/2+z
x,1/2-y,1/2+z
loop_
_atom_site_type_symbol
_atom_site_label
_atom_site_fract_x
_atom_site_fract_y
_atom_site_fract_z
Si Si1 0.986286 0.760489 0.687050
Si Si2 0.354129 0.848424 0.562482
Si Si3 0.637420 0.871141 0.077628
Si Si4 0.609695 0.506623 0.146006
Si Si5 0.143845 0.512444 0.727535
Si Si6 0.547648 0.358569 0.838123
Si Si7 0.648351 0.591489 0.928579
Si Si8 0.141713 0.376958 0.319377
O O1 0.918285 0.699205 0.629290
O O2 0.923895 0.824597 0.743534
O O3 0.059554 0.795260 0.598462
O O4 0.052821 0.722467 0.781204
O O5 0.250000 0.809106 0.572930
O O6 0.371709 0.868052 0.431981
O O7 0.346315 0.924312 0.635233
O O8 0.750000 0.856350 0.092332
O O9 0.608694 0.947649 0.142150
O O10 0.606942 0.879570 0.947982
O O11 0.500000 0.500000 0.118508
O O12 0.632881 0.538678 0.269806
O O13 0.650157 0.566676 0.057746
O O14 0.250000 0.540597 0.691142
O O15 0.067351 0.580224 0.738429
O O16 0.147129 0.482462 0.854057
O O17 0.442204 0.359435 0.894427
O O18 0.750000 0.635166 0.907154
O O19 0.250000 0.347926 0.313700
#
# Coordination Sequence:
#
# PCOD8192749 Si02
#       8
#     8   8   8   8   8   8   8   8
#     4  12  25  42  65  93 130 180 217 258 323 396
#     4  12  26  44  64  92 130 170 219 275 320 380
#     4  10  23  44  66  98 136 165 212 274 330 389
#     4  12  21  42  68  95 124 163 216 272 326 384
#     4  10  20  38  65  95 126 165 210 273 328 373
#     4  12  23  40  66  97 131 168 220 265 327 389
#     4  11  20  34  65 102 129 156 204 274 335 378
#     4  11  24  43  67  96 129 170 212 268 335 392
#
# _framework density 21.487719999999999
#
# number of rings (size 3 to 8) (size 9 to 14) (size 15 to 20)
#    0.000    0.750    5.000    3.000    0.000    1.500 
#    2.250    1.875    0.000    1.500    0.000    0.000 
#    0.000    0.000    0.000    0.000    0.000    0.000 
#
# Total GULP energy -396664.944612 kJ/mol
# GULP energy per Si atom -12395.779519 kJ/mol
# Density = 2.143881 g / cm^3
# Si number density = 21.487720 Si / 1000 Ang^3
#
#
#
# Elastic Constant Matrix: (Units=GPa)
#
#
# Indices 1 2 3 4 5 6 
#
# 1 128.3647 33.9111 34.2632 0.0000 0.0000 0.0000
# 2 33.9111 88.4225 36.3623 0.0000 0.0000 0.0000
# 3 34.2632 36.3623 90.4206 0.0000 0.0000 0.0000
# 4 0.0000 0.0000 0.0000 31.4003 0.0000 0.0000
# 5 0.0000 0.0000 0.0000 0.0000 28.1148 0.0000
# 6 0.0000 0.0000 0.0000 0.0000 0.0000 16.4535
#
#
#
# Elastic Compliance Matrix: (Units=1/GPa)
#
#
# Indices 1 2 3 4 5 6 
#
# 1 0.009100 -0.002482 -0.002450 0.000000 0.000000 0.000000
# 2 -0.002482 0.014227 -0.004781 0.000000 0.000000 0.000000
# 3 -0.002450 -0.004781 0.013910 0.000000 0.000000 0.000000
# 4 0.000000 0.000000 0.000000 0.031847 0.000000 0.000000
# 5 0.000000 0.000000 0.000000 0.000000 0.035568 0.000000
# 6 0.000000 0.000000 0.000000 0.000000 0.000000 0.060777
#
#
# Mechanical properties :
#
#
# Convention : Reuss Voigt Hill
#
# Bulk Modulus (GPa) = 56.14403 57.36457 56.75430
# Shear Modulus (GPa) = 26.20623 28.70512 27.45568
#
# Velocity S-wave (km/s) = 3.49605 3.65894 3.57842
# Velocity P-wave (km/s) = 6.51780 6.67869 6.59873
#
# Compressibility (1/GPa) = 0.01781133
#
# Stress axis : x y z
#
# Youngs Moduli (GPa) = 109.88925 70.28676 71.88866
#
# Poissons Ratio (x) = 0.17448 0.17613
# Poissons Ratio (y) = 0.27280 0.34369
# Poissons Ratio (z) = 0.26923 0.33603
#
# Static dielectric constant tensor:
#      x y z
#    x 4.092060 0.000000 0.000000 
#    y 0.000000 3.703700 0.000000 
#    z 0.000000 0.000000 3.974950 
# 
# 
# High freq. dielectric constant tensor:
#      x y z
#    x 1.858870 0.000000 0.000000 
#    y 0.000000 1.820570 0.000000 
#    z 0.000000 0.000000 1.839560 
# 
# From -- ./inp_files/11335.got.cif
#   From: 2010.03.12/outbox.cif.g09.slc.cpg/sg46_6_cif.got.tgz:11335.got - 2010.04.14 02:56:35.
