data_PCOD8192688
_publ_section_title
;
Structure prediction by ZEFSAII (Michael W. Deem and Ramdas Pophale) SiO2 
 PCOD8192688
Probable space group: I M A 2
;
_chemical_formula_sum "Si O2"
_cell_formula_units_Z 64
_cell_length_a 8.722940
_cell_length_b 15.275256
_cell_length_c 23.257144
_cell_angle_alpha 90.000000
_cell_angle_beta 90.000000
_cell_angle_gamma 90.000000
_cell_volume 3098.901445
_symmetry_space_group_name_H-M "I M A 2"
_symmetry_group_IT_number 46
_symmetry_cell_setting 'orthorhombic'
loop_
_space_group_symop_operation_xyz
x,y,z
-x,-y,z
1/2-x,y,z
1/2+x,-y,z
1/2+x,1/2+y,1/2+z
1/2-x,1/2-y,1/2+z
-x,1/2+y,1/2+z
x,1/2-y,1/2+z
loop_
_atom_site_type_symbol
_atom_site_label
_atom_site_fract_x
_atom_site_fract_y
_atom_site_fract_z
Si Si1 0.074284 0.346697 0.787770
Si Si2 0.569514 0.263877 0.993021
Si Si3 0.929526 0.090718 0.928602
Si Si4 0.925426 0.336217 0.308438
Si Si5 0.430543 0.257308 0.114423
Si Si6 0.071879 0.091135 0.414018
Si Si7 0.069615 0.591824 0.672792
Si Si8 0.925383 0.090434 0.686576
O O1 0.250000 0.351630 0.767234
O O2 0.048042 0.400554 0.845888
O O3 0.031933 0.246251 0.796782
O O4 0.969715 0.389490 0.739048
O O5 0.750000 0.272253 0.002983
O O6 0.522530 0.166603 0.972882
O O7 0.518893 0.330877 0.944058
O O8 0.481898 0.286797 0.051314
O O9 0.750000 0.078322 0.926740
O O10 0.989396 0.114737 0.864767
O O11 0.000000 0.000000 0.950342
O O12 0.750000 0.304203 0.317858
O O13 0.936069 0.402952 0.255402
O O14 0.250000 0.247587 0.117363
O O15 0.505872 0.165302 0.130346
O O16 0.482660 0.329650 0.159670
O O17 0.250000 0.095236 0.431202
O O18 0.000000 0.000000 0.435108
O O19 0.250000 0.588592 0.665757
O O20 0.000000 0.500000 0.652701
O O21 0.750000 0.093882 0.665374
O O22 0.000000 0.000000 0.665854
#
# Coordination Sequence:
#
# PCOD8192688 Si02
#       8
#     8   8   8   8   8   8   8   8
#     4  11  22  37  63  97 131 169 209 255 316 381
#     4  11  24  44  67  91 124 167 214 264 316 373
#     4  10  22  39  63  94 127 166 207 252 309 368
#     4  10  20  37  62  93 129 169 205 251 313 376
#     4  12  26  45  67  93 126 165 214 268 320 379
#     4  11  24  41  64  96 129 167 210 259 316 378
#     4  12  25  43  67  96 130 168 212 261 317 381
#     4  11  23  40  65  96 130 169 211 258 313 378
#
# _framework density 20.652480000000001
#
# number of rings (size 3 to 8) (size 9 to 14) (size 15 to 20)
#    0.000    1.000    2.500    4.500    0.000    5.500 
#    0.000    3.750    0.000    0.000    0.000    0.000 
#    0.000    0.000    0.000    0.000    0.000    0.000 
#
# Total GULP energy -397027.514488 kJ/mol
# GULP energy per Si atom -12407.109828 kJ/mol
# Density = 2.060547 g / cm^3
# Si number density = 20.652480 Si / 1000 Ang^3
#
#
#
# Elastic Constant Matrix: (Units=GPa)
#
#
# Indices 1 2 3 4 5 6 
#
# 1 129.4508 47.0970 30.1033 0.0000 0.0000 0.0000
# 2 47.0970 115.5875 -1.5450 0.0000 0.0000 0.0000
# 3 30.1033 -1.5450 60.6575 0.0000 0.0000 0.0000
# 4 0.0000 0.0000 0.0000 8.5954 0.0000 0.0000
# 5 0.0000 0.0000 0.0000 0.0000 30.9338 0.0000
# 6 0.0000 0.0000 0.0000 0.0000 0.0000 39.3073
#
#
#
# Elastic Compliance Matrix: (Units=1/GPa)
#
#
# Indices 1 2 3 4 5 6 
#
# 1 0.010561 -0.004375 -0.005353 0.000000 0.000000 0.000000
# 2 -0.004375 0.010467 0.002438 0.000000 0.000000 0.000000
# 3 -0.005353 0.002438 0.019205 0.000000 0.000000 0.000000
# 4 0.000000 0.000000 0.000000 0.116342 0.000000 0.000000
# 5 0.000000 0.000000 0.000000 0.000000 0.032327 0.000000
# 6 0.000000 0.000000 0.000000 0.000000 0.000000 0.025441
#
#
# Mechanical properties :
#
#
# Convention : Reuss Voigt Hill
#
# Bulk Modulus (GPa) = 38.98224 50.77849 44.88037
# Shear Modulus (GPa) = 21.05504 31.10331 26.07918
#
# Velocity S-wave (km/s) = 3.19641 3.88497 3.55739
# Velocity P-wave (km/s) = 5.70430 6.69063 6.21706
#
# Compressibility (1/GPa) = 0.02565271
#
# Stress axis : x y z
#
# Youngs Moduli (GPa) = 94.68425 95.54179 52.07068
#
# Poissons Ratio (x) = 0.41798 0.27873
# Poissons Ratio (y) = 0.41423 -0.12694
# Poissons Ratio (z) = 0.50683 -0.23291
#
# Static dielectric constant tensor:
#      x y z
#    x 3.801130 0.000000 0.000000 
#    y 0.000000 3.825910 0.000000 
#    z 0.000000 0.000000 3.770670 
# 
# 
# High freq. dielectric constant tensor:
#      x y z
#    x 1.816430 0.000000 0.000000 
#    y 0.000000 1.816740 0.000000 
#    z 0.000000 0.000000 1.806760 
# 
# From -- ./inp_files/23240.got.cif
#   From: 2010.03.12/outbox.cif.g09.slc.cpg/sg46_12_cif.got.tgz:23240.got - 2010.04.14 02:56:35.
