data_PCOD8192186
_publ_section_title
;
Structure prediction by ZEFSAII (Michael W. Deem and Ramdas Pophale) SiO2 
 PCOD8192186
Probable space group: I M A 2
;
_chemical_formula_sum "Si O2"
_cell_formula_units_Z 28
_cell_length_a 36.283887
_cell_length_b 7.315348
_cell_length_c 4.969267
_cell_angle_alpha 90.000000
_cell_angle_beta 90.000000
_cell_angle_gamma 90.000000
_cell_volume 1318.988864
_symmetry_space_group_name_H-M "I M A 2"
_symmetry_group_IT_number 46
_symmetry_cell_setting 'orthorhombic'
loop_
_space_group_symop_operation_xyz
x,y,z
-x,-y,z
1/2-x,y,z
1/2+x,-y,z
1/2+x,1/2+y,1/2+z
1/2-x,1/2-y,1/2+z
-x,1/2+y,1/2+z
x,1/2-y,1/2+z
loop_
_atom_site_type_symbol
_atom_site_label
_atom_site_fract_x
_atom_site_fract_y
_atom_site_fract_z
Si Si1 0.670985 0.376617 0.164130
Si Si2 0.602588 0.627516 0.161624
Si Si3 0.250000 0.866511 0.556370
Si Si4 0.534203 0.128800 0.567765
O O1 0.665633 0.291535 0.458661
O O2 0.642263 0.537648 0.115507
O O3 0.711735 0.469792 0.128802
O O4 0.597997 0.701876 0.462569
O O5 0.572076 0.475533 0.113219
O O6 0.250000 0.817943 0.240497
O O7 0.532367 0.304099 0.761329
O O8 0.500000 0.000000 0.633057
#
# Coordination Sequence:
#
# PCOD8192186 Si02
#       4
#     8   8   4   8
#     4  10  19  36  58  82 109 148 192 234 279 333
#     4  12  24  39  57  85 118 151 187 231 279 333
#     4   8  16  30  54  80 106 140 188 234 276 330
#     4  12  24  42  64  88 115 149 187 231 279 333
#
# _framework density 21.228380999999999
#
# number of rings (size 3 to 8) (size 9 to 14) (size 15 to 20)
#    0.000    1.143    0.000    7.714    0.000    0.000 
#    0.000    1.429    0.000    0.000    0.000    0.000 
#    0.000    0.000    0.000    0.000    0.000    0.000 
#
# Total GULP energy -173642.306304 kJ/mol
# GULP energy per Si atom -12403.021879 kJ/mol
# Density = 2.118006 g / cm^3
# Si number density = 21.228381 Si / 1000 Ang^3
#
#
#
# Elastic Constant Matrix: (Units=GPa)
#
#
# Indices 1 2 3 4 5 6 
#
# 1 155.6419 47.1148 18.6234 -0.0004 -0.0003 0.0000
# 2 47.1148 64.6898 10.5164 -0.0005 -0.0001 0.0000
# 3 18.6234 10.5164 78.6881 -0.0008 -0.0002 0.0001
# 4 -0.0004 -0.0005 -0.0008 46.4127 0.0000 0.0001
# 5 -0.0003 -0.0001 -0.0002 0.0000 28.6204 -0.0005
# 6 0.0000 0.0000 0.0001 0.0001 -0.0005 40.7374
#
#
#
# Elastic Compliance Matrix: (Units=1/GPa)
#
#
# Indices 1 2 3 4 5 6 
#
# 1 0.008350 -0.005888 -0.001189 0.000000 0.000000 0.000000
# 2 -0.005888 0.019954 -0.001273 0.000000 0.000000 0.000000
# 3 -0.001189 -0.001273 0.013160 0.000000 0.000000 0.000000
# 4 0.000000 0.000000 0.000000 0.021546 0.000000 0.000000
# 5 0.000000 0.000000 0.000000 0.000000 0.034940 0.000000
# 6 0.000000 0.000000 0.000000 0.000000 0.000000 0.024547
#
#
# Mechanical properties :
#
#
# Convention : Reuss Voigt Hill
#
# Bulk Modulus (GPa) = 40.38347 50.16989 45.27668
# Shear Modulus (GPa) = 33.90942 38.00510 35.95726
#
# Velocity S-wave (km/s) = 4.00104 4.23578 4.12008
# Velocity P-wave (km/s) = 6.35681 6.89979 6.63386
#
# Compressibility (1/GPa) = 0.02476260
#
# Stress axis : x y z
#
# Youngs Moduli (GPa) = 119.76562 50.11618 75.98762
#
# Poissons Ratio (x) = 0.29508 0.09037
# Poissons Ratio (y) = 0.70516 0.09675
# Poissons Ratio (z) = 0.14243 0.06381
#
# Static dielectric constant tensor:
#      x y z
#    x 4.244110 0.000000 0.000000 
#    y 0.000000 3.412210 0.000000 
#    z 0.000000 0.000000 4.031000 
# 
# 
# High freq. dielectric constant tensor:
#      x y z
#    x 1.860400 0.000000 0.000000 
#    y 0.000000 1.794450 0.000000 
#    z 0.000000 0.000000 1.853130 
# 
# From -- ./inp_files/2658.got.cif
#   From: 2010.03.12/outbox.cif.g09.slc.cpg/sg46_2_cif.got.tgz:2658.got - 2010.04.14 02:56:35.
