data_PCOD8192909
_publ_section_title
;
Structure prediction by ZEFSAII (Michael W. Deem and Ramdas Pophale) SiO2 
 PCOD8192909
Probable space group: I M A 2
;
_chemical_formula_sum "Si O2"
_cell_formula_units_Z 56
_cell_length_a 13.669532
_cell_length_b 12.612360
_cell_length_c 14.963153
_cell_angle_alpha 90.000000
_cell_angle_beta 90.000000
_cell_angle_gamma 90.000000
_cell_volume 2579.723270
_symmetry_space_group_name_H-M "I M A 2"
_symmetry_group_IT_number 46
_symmetry_cell_setting 'orthorhombic'
loop_
_space_group_symop_operation_xyz
x,y,z
-x,-y,z
1/2-x,y,z
1/2+x,-y,z
1/2+x,1/2+y,1/2+z
1/2-x,1/2-y,1/2+z
-x,1/2+y,1/2+z
x,1/2-y,1/2+z
loop_
_atom_site_type_symbol
_atom_site_label
_atom_site_fract_x
_atom_site_fract_y
_atom_site_fract_z
Si Si1 0.449472 0.155344 0.539170
Si Si2 0.052730 0.165634 0.902669
Si Si3 0.363531 0.547472 0.451607
Si Si4 0.136562 0.561655 0.975341
Si Si5 0.856881 0.539306 0.641111
Si Si6 0.459897 0.241081 0.217634
Si Si7 0.355893 0.642627 0.781921
O O1 0.419282 0.262500 0.487697
O O2 0.385861 0.061092 0.496902
O O3 0.431040 0.169709 0.645077
O O4 0.566146 0.134357 0.535166
O O5 0.085126 0.227793 0.813144
O O6 0.936069 0.137027 0.910780
O O7 0.119603 0.061531 0.898469
O O8 0.250000 0.584903 0.444276
O O9 0.396522 0.521494 0.553320
O O10 0.250000 0.585641 0.995940
O O11 0.105544 0.592846 0.874878
O O12 0.750000 0.589466 0.619363
O O13 0.928588 0.628109 0.678681
O O14 0.845702 0.455777 0.718062
O O15 0.575267 0.232013 0.239006
O O16 0.250000 0.696705 0.796053
#
# Coordination Sequence:
#
# PCOD8192909 Si02
#       7
#     8   8   8   8   8   8   8
#     4  11  23  40  63  95 124 167 208 257 319 368
#     4  11  23  40  63  95 124 167 208 257 319 368
#     4  10  23  42  62  88 129 169 207 256 313 375
#     4  10  23  42  62  88 129 169 207 256 313 375
#     4  10  21  37  61  91 119 160 212 264 312 360
#     4  12  23  37  66  92 126 160 210 262 308 376
#     4  10  21  37  61  91 119 160 212 264 312 360
#
# _framework density 21.707754999999999
#
# number of rings (size 3 to 8) (size 9 to 14) (size 15 to 20)
#    0.000    1.429    2.857    2.143    4.000    5.714 
#    0.000    1.429    0.000    0.000    0.000    0.000 
#    0.000    0.000    0.000    0.000    0.000    0.000 
#
# Total GULP energy -347033.745461 kJ/mol
# GULP energy per Si atom -12394.062338 kJ/mol
# Density = 2.165835 g / cm^3
# Si number density = 21.707755 Si / 1000 Ang^3
#
#
#
# Elastic Constant Matrix: (Units=GPa)
#
#
# Indices 1 2 3 4 5 6 
#
# 1 59.0070 -20.4654 5.6906 0.0000 0.0000 0.0000
# 2 -20.4654 32.6386 8.9473 0.0000 0.0000 0.0000
# 3 5.6906 8.9473 113.2406 0.0000 0.0000 0.0000
# 4 0.0000 0.0000 0.0000 29.6967 0.0000 0.0000
# 5 0.0000 0.0000 0.0000 0.0000 30.1389 0.0000
# 6 0.0000 0.0000 0.0000 0.0000 0.0000 30.1678
#
#
#
# Elastic Compliance Matrix: (Units=1/GPa)
#
#
# Indices 1 2 3 4 5 6 
#
# 1 0.022211 0.014548 -0.002266 0.000000 0.000000 0.000000
# 2 0.014548 0.040846 -0.003958 0.000000 0.000000 0.000000
# 3 -0.002266 -0.003958 0.009257 0.000000 0.000000 0.000000
# 4 0.000000 0.000000 0.000000 0.033674 0.000000 0.000000
# 5 0.000000 0.000000 0.000000 0.000000 0.033180 0.000000
# 6 0.000000 0.000000 0.000000 0.000000 0.000000 0.033148
#
#
# Mechanical properties :
#
#
# Convention : Reuss Voigt Hill
#
# Bulk Modulus (GPa) = 11.24057 21.47012 16.35535
# Shear Modulus (GPa) = 26.98007 32.04827 29.51417
#
# Velocity S-wave (km/s) = 3.52927 3.84650 3.69129
# Velocity P-wave (km/s) = 4.66873 5.44421 5.07131
#
# Compressibility (1/GPa) = 0.08896346
#
# Stress axis : x y z
#
# Youngs Moduli (GPa) = 45.02182 24.48220 108.02206
#
# Poissons Ratio (x) = -0.35618 0.24474
# Poissons Ratio (y) = -0.65499 0.42759
# Poissons Ratio (z) = 0.10200 0.09691
#
# Static dielectric constant tensor:
#      x y z
#    x 4.283280 0.000000 0.000000 
#    y 0.000000 3.761810 0.000000 
#    z 0.000000 0.000000 3.987120 
# 
# 
# High freq. dielectric constant tensor:
#      x y z
#    x 1.850720 0.000000 0.000000 
#    y 0.000000 1.842380 0.000000 
#    z 0.000000 0.000000 1.856850 
# 
# From -- ./inp_files/15949.got.cif
#   From: 2010.03.12/outbox.cif.g09.slc.cpg/sg46_8_cif.got.tgz:15949.got - 2010.04.14 02:56:35.
