data_PCOD8192413
_publ_section_title
;
Structure prediction by ZEFSAII (Michael W. Deem and Ramdas Pophale) SiO2 
 PCOD8192413
Probable space group: I M A 2
;
_chemical_formula_sum "Si O2"
_cell_formula_units_Z 56
_cell_length_a 8.721527
_cell_length_b 23.760592
_cell_length_c 13.512650
_cell_angle_alpha 90.000000
_cell_angle_beta 90.000000
_cell_angle_gamma 90.000000
_cell_volume 2800.208145
_symmetry_space_group_name_H-M "I M A 2"
_symmetry_group_IT_number 46
_symmetry_cell_setting 'orthorhombic'
loop_
_space_group_symop_operation_xyz
x,y,z
-x,-y,z
1/2-x,y,z
1/2+x,-y,z
1/2+x,1/2+y,1/2+z
1/2-x,1/2-y,1/2+z
-x,1/2+y,1/2+z
x,1/2-y,1/2+z
loop_
_atom_site_type_symbol
_atom_site_label
_atom_site_fract_x
_atom_site_fract_y
_atom_site_fract_z
Si Si1 0.571459 0.828149 0.288780
Si Si2 0.929814 0.939239 0.603076
Si Si3 0.570923 0.336936 0.995833
Si Si4 0.569341 0.058897 0.973657
Si Si5 0.570685 0.941971 0.184528
Si Si6 0.428091 0.375529 0.301713
Si Si7 0.571482 0.225347 0.694572
O O1 0.750000 0.814561 0.279846
O O2 0.514693 0.814800 0.398879
O O3 0.535819 0.893011 0.263000
O O4 0.481407 0.789279 0.210502
O O5 0.750000 0.940087 0.581660
O O6 0.966831 0.918973 0.713884
O O7 0.008368 0.898067 0.524649
O O8 0.000000 0.000000 0.586517
O O9 0.750000 0.341615 0.973537
O O10 0.534683 0.292026 0.081967
O O11 0.750000 0.052985 0.979809
O O12 0.524526 0.107652 0.897620
O O13 0.500000 0.000000 0.935730
O O14 0.504853 0.074936 0.080723
O O15 0.750000 0.950794 0.166858
O O16 0.500000 0.000000 0.226409
O O17 0.250000 0.376008 0.328767
O O18 0.476980 0.313138 0.270591
O O19 0.750000 0.217906 0.717816
#
# Coordination Sequence:
#
# PCOD8192413 Si02
#       7
#     8   8   8   8   8   8   8
#     4  11  24  41  63  88 115 150 189 232 285 342
#     4  10  20  34  55  83 116 154 195 238 287 341
#     4  10  22  40  61  85 116 150 189 239 286 336
#     4  11  21  34  55  83 117 155 195 240 289 342
#     4  10  22  40  60  84 114 149 191 238 287 339
#     4  10  20  35  56  83 117 155 194 239 289 340
#     4  10  22  40  61  86 115 149 191 236 284 338
#
# _framework density 19.998512999999999
#
# number of rings (size 3 to 8) (size 9 to 14) (size 15 to 20)
#    0.000    1.714    0.000    5.143    0.000    8.571 
#    0.000    4.286    0.000    0.000    0.000    0.000 
#    0.000    0.000    0.000    0.000    0.000    0.000 
#
# Total GULP energy -347367.586741 kJ/mol
# GULP energy per Si atom -12405.985241 kJ/mol
# Density = 1.995300 g / cm^3
# Si number density = 19.998513 Si / 1000 Ang^3
#
#
#
# Elastic Constant Matrix: (Units=GPa)
#
#
# Indices 1 2 3 4 5 6 
#
# 1 96.1844 41.1436 43.0362 0.0003 0.0000 0.0000
# 2 41.1436 106.2044 48.2276 0.0004 -0.0001 -0.0001
# 3 43.0362 48.2276 92.1762 0.0015 -0.0002 -0.0002
# 4 0.0003 0.0004 0.0015 27.9272 -0.0001 -0.0001
# 5 0.0000 -0.0001 -0.0002 -0.0001 33.7704 0.0002
# 6 0.0000 -0.0001 -0.0002 -0.0001 0.0002 37.9070
#
#
#
# Elastic Compliance Matrix: (Units=1/GPa)
#
#
# Indices 1 2 3 4 5 6 
#
# 1 0.013926 -0.003204 -0.004826 0.000000 0.000000 0.000000
# 2 -0.003204 0.013087 -0.005352 0.000000 0.000000 0.000000
# 3 -0.004826 -0.005352 0.015902 -0.000001 0.000000 0.000000
# 4 0.000000 0.000000 -0.000001 0.035807 0.000000 0.000000
# 5 0.000000 0.000000 0.000000 0.000000 0.029612 0.000000
# 6 0.000000 0.000000 0.000000 0.000000 0.000000 0.026380
#
#
# Mechanical properties :
#
#
# Convention : Reuss Voigt Hill
#
# Bulk Modulus (GPa) = 61.90728 62.15330 62.03029
# Shear Modulus (GPa) = 29.96500 30.73143 30.34822
#
# Velocity S-wave (km/s) = 3.87507 3.92431 3.89977
# Velocity P-wave (km/s) = 7.14456 7.18888 7.16675
#
# Compressibility (1/GPa) = 0.01615319
#
# Stress axis : x y z
#
# Youngs Moduli (GPa) = 71.80632 76.41158 62.88534
#
# Poissons Ratio (x) = 0.24479 0.30348
# Poissons Ratio (y) = 0.23004 0.33653
# Poissons Ratio (z) = 0.34653 0.40892
#
# Static dielectric constant tensor:
#      x y z
#    x 3.735530 0.000000 0.000000 
#    y 0.000000 3.610650 0.000000 
#    z 0.000000 0.000000 3.550180 
# 
# 
# High freq. dielectric constant tensor:
#      x y z
#    x 1.797500 0.000000 0.000000 
#    y 0.000000 1.779670 0.000000 
#    z 0.000000 0.000000 1.776000 
# 
# From -- ./inp_files/14208.got.cif
#   From: 2010.03.12/outbox.cif.g09.slc.cpg/sg46_8_cif.got.tgz:14208.got - 2010.04.14 02:56:35.
