data_PCOD8192071
_publ_section_title
;
Structure prediction by ZEFSAII (Michael W. Deem and Ramdas Pophale) SiO2 
 PCOD8192071
Probable space group: I M A 2
;
_chemical_formula_sum "Si O2"
_cell_formula_units_Z 48
_cell_length_a 9.152504
_cell_length_b 27.928599
_cell_length_c 10.097552
_cell_angle_alpha 90.000000
_cell_angle_beta 90.000000
_cell_angle_gamma 90.000000
_cell_volume 2581.102053
_symmetry_space_group_name_H-M "I M A 2"
_symmetry_group_IT_number 46
_symmetry_cell_setting 'orthorhombic'
loop_
_space_group_symop_operation_xyz
x,y,z
-x,-y,z
1/2-x,y,z
1/2+x,-y,z
1/2+x,1/2+y,1/2+z
1/2-x,1/2-y,1/2+z
-x,1/2+y,1/2+z
x,1/2-y,1/2+z
loop_
_atom_site_type_symbol
_atom_site_label
_atom_site_fract_x
_atom_site_fract_y
_atom_site_fract_z
Si Si1 0.080123 0.046961 0.837000
Si Si2 0.918352 0.139340 0.465553
Si Si3 0.078860 0.047459 0.530144
Si Si4 0.920908 0.200547 0.718969
Si Si5 0.081902 0.690101 0.692189
Si Si6 0.423138 0.352368 0.450627
O O1 0.250000 0.037729 0.855961
O O2 0.039784 0.055214 0.683883
O O3 0.026846 0.093584 0.916469
O O4 0.000000 0.000000 0.893808
O O5 0.750000 0.123595 0.476554
O O6 0.967698 0.168078 0.595504
O O7 0.945846 0.173277 0.341230
O O8 0.017052 0.092370 0.449122
O O9 0.250000 0.042654 0.504382
O O10 0.000000 0.000000 0.475992
O O11 0.750000 0.196425 0.751861
O O12 0.963355 0.254619 0.682677
O O13 0.009360 0.184953 0.847680
O O14 0.250000 0.682796 0.649852
O O15 0.980067 0.659149 0.596559
O O16 0.250000 0.347516 0.444182
#
# Coordination Sequence:
#
# PCOD8192071 Si02
#       6
#     8   8   8   8   8   8
#     4   9  19  34  54  81 110 140 179 227 274 327
#     4  10  20  35  57  84 112 146 189 232 277 326
#     4  10  19  34  56  82 112 142 181 231 279 331
#     4  10  20  37  61  83 108 147 193 235 273 322
#     4  10  22  39  57  81 114 152 192 230 272 328
#     4  11  22  37  56  85 118 147 184 229 281 334
#
# _framework density 18.596706000000001
#
# number of rings (size 3 to 8) (size 9 to 14) (size 15 to 20)
#    0.000    2.000    1.667    2.000    0.000    6.000 
#    0.000    2.500    0.000    2.000    0.000    0.000 
#    0.000    0.000    0.000    0.000    0.000    0.000 
#
# Total GULP energy -297720.871589 kJ/mol
# GULP energy per Si atom -12405.036316 kJ/mol
# Density = 1.855438 g / cm^3
# Si number density = 18.596706 Si / 1000 Ang^3
#
#
#
# Elastic Constant Matrix: (Units=GPa)
#
#
# Indices 1 2 3 4 5 6 
#
# 1 64.6690 48.5552 23.8768 -0.0038 0.0013 0.0003
# 2 48.5552 127.7146 19.7175 -0.0003 0.0001 0.0000
# 3 23.8768 19.7175 56.4964 -0.0146 -0.0026 0.0001
# 4 -0.0038 -0.0003 -0.0146 17.8997 -0.0015 0.0000
# 5 0.0013 0.0001 -0.0026 -0.0015 29.6485 -0.0014
# 6 0.0003 0.0000 0.0001 0.0000 -0.0014 32.2365
#
#
#
# Elastic Compliance Matrix: (Units=1/GPa)
#
#
# Indices 1 2 3 4 5 6 
#
# 1 0.024278 -0.008082 -0.007440 -0.000001 -0.000002 0.000000
# 2 -0.008082 0.010966 -0.000412 -0.000002 0.000000 0.000000
# 3 -0.007440 -0.000412 0.020988 0.000016 0.000002 0.000000
# 4 -0.000001 -0.000002 0.000016 0.055867 0.000003 0.000000
# 5 -0.000002 0.000000 0.000002 0.000003 0.033729 0.000001
# 6 0.000000 0.000000 0.000000 0.000000 0.000001 0.031021
#
#
# Mechanical properties :
#
#
# Convention : Reuss Voigt Hill
#
# Bulk Modulus (GPa) = 41.04111 48.13099 44.58605
# Shear Modulus (GPa) = 23.05878 26.40565 24.73221
#
# Velocity S-wave (km/s) = 3.52510 3.77226 3.65077
# Velocity P-wave (km/s) = 6.21975 6.70156 6.46515
#
# Compressibility (1/GPa) = 0.02436581
#
# Stress axis : x y z
#
# Youngs Moduli (GPa) = 41.18922 91.19088 47.64562
#
# Poissons Ratio (x) = 0.73696 0.35449
# Poissons Ratio (y) = 0.33287 0.01962
# Poissons Ratio (z) = 0.30645 0.03755
#
# Static dielectric constant tensor:
#      x y z
#    x 3.367090 0.000000 0.000000 
#    y 0.000000 3.548660 0.000000 
#    z 0.000000 0.000000 3.225120 
# 
# 
# High freq. dielectric constant tensor:
#      x y z
#    x 1.718790 0.000000 0.000000 
#    y 0.000000 1.735430 0.000000 
#    z 0.000000 0.000000 1.705150 
# 
# From -- ./inp_files/3897.got.cif
#   From: 2010.03.12/outbox.cif.g09.slc.cpg/sg46_2_cif.got.tgz:3897.got - 2010.04.14 02:56:35.
