data_PCOD8192445
_publ_section_title
;
Structure prediction by ZEFSAII (Michael W. Deem and Ramdas Pophale) SiO2 
 PCOD8192445
Probable space group: I M A 2
;
_chemical_formula_sum "Si O2"
_cell_formula_units_Z 64
_cell_length_a 8.909357
_cell_length_b 28.309227
_cell_length_c 14.168102
_cell_angle_alpha 90.000000
_cell_angle_beta 90.000000
_cell_angle_gamma 90.000000
_cell_volume 3573.436320
_symmetry_space_group_name_H-M "I M A 2"
_symmetry_group_IT_number 46
_symmetry_cell_setting 'orthorhombic'
loop_
_space_group_symop_operation_xyz
x,y,z
-x,-y,z
1/2-x,y,z
1/2+x,-y,z
1/2+x,1/2+y,1/2+z
1/2-x,1/2-y,1/2+z
-x,1/2+y,1/2+z
x,1/2-y,1/2+z
loop_
_atom_site_type_symbol
_atom_site_label
_atom_site_fract_x
_atom_site_fract_y
_atom_site_fract_z
Si Si1 0.927130 0.949367 0.066060
Si Si2 0.071242 0.196964 0.072429
Si Si3 0.073239 0.550138 0.066559
Si Si4 0.072072 0.381217 0.205195
Si Si5 0.574486 0.626802 0.414989
Si Si6 0.572222 0.377112 0.702584
Si Si7 0.926038 0.696354 0.055380
Si Si8 0.924748 0.370984 0.918500
O O1 0.750000 0.953619 0.081716
O O2 0.997088 0.922682 0.155312
O O3 0.966630 0.920985 0.970646
O O4 0.000000 0.000000 0.055560
O O5 0.250000 0.192256 0.085772
O O6 0.014272 0.250678 0.071019
O O7 0.991550 0.171354 0.159775
O O8 0.017864 0.171896 0.975105
O O9 0.250000 0.544371 0.078736
O O10 0.000000 0.500000 0.046963
O O11 0.006102 0.572679 0.161704
O O12 0.029464 0.582720 0.977606
O O13 0.250000 0.389650 0.204591
O O14 0.004042 0.374210 0.310302
O O15 0.027155 0.334773 0.145834
O O16 0.750000 0.631687 0.401566
O O17 0.750000 0.379474 0.688391
O O18 0.524432 0.378715 0.811570
O O19 0.750000 0.697242 0.040767
O O20 0.994881 0.675203 0.960058
O O21 0.750000 0.360997 0.926351
#
# Coordination Sequence:
#
# PCOD8192445 Si02
#       8
#     8   8   8   8   8   8   8   8
#     4  10  20  35  53  74 100 132 167 209 256 303
#     4   9  18  33  51  76 105 134 168 208 251 295
#     4  10  20  35  52  72  98 128 161 203 248 296
#     4   9  17  32  51  73  99 130 166 204 244 292
#     4   8  16  31  50  70  99 133 165 202 244 289
#     4  10  20  35  53  75 102 135 171 208 249 298
#     4   9  18  31  52  78 103 132 168 206 248 295
#     4   9  20  36  52  72 102 134 167 206 249 294
#
# _framework density 17.909932999999999
#
# number of rings (size 3 to 8) (size 9 to 14) (size 15 to 20)
#    0.000    2.750    0.000    1.875    0.000    4.000 
#    0.000    8.125    0.000    0.000    0.000    0.000 
#    0.000    0.000    0.000    0.000    0.000    0.000 
#
# Total GULP energy -396803.348435 kJ/mol
# GULP energy per Si atom -12400.104639 kJ/mol
# Density = 1.786917 g / cm^3
# Si number density = 17.909933 Si / 1000 Ang^3
#
#
#
# Elastic Constant Matrix: (Units=GPa)
#
#
# Indices 1 2 3 4 5 6 
#
# 1 48.5180 45.7676 42.2569 0.0000 0.0001 0.0000
# 2 45.7676 151.9076 66.9336 0.0002 0.0000 0.0000
# 3 42.2569 66.9336 153.7891 0.0009 0.0002 -0.0001
# 4 0.0000 0.0002 0.0009 12.0910 0.0000 0.0000
# 5 0.0001 0.0000 0.0002 0.0000 25.1971 0.0000
# 6 0.0000 0.0000 -0.0001 0.0000 0.0000 27.7478
#
#
#
# Elastic Compliance Matrix: (Units=1/GPa)
#
#
# Indices 1 2 3 4 5 6 
#
# 1 0.032465 -0.007239 -0.005770 0.000000 0.000000 0.000000
# 2 -0.007239 0.009759 -0.002258 0.000000 0.000000 0.000000
# 3 -0.005770 -0.002258 0.009071 -0.000001 0.000000 0.000000
# 4 0.000000 0.000000 -0.000001 0.082706 0.000000 0.000000
# 5 0.000000 0.000000 0.000000 0.000000 0.039687 0.000000
# 6 0.000000 0.000000 0.000000 0.000000 0.000000 0.036039
#
#
# Mechanical properties :
#
#
# Convention : Reuss Voigt Hill
#
# Bulk Modulus (GPa) = 48.16890 73.79232 60.98061
# Shear Modulus (GPa) = 20.22812 26.29094 23.25953
#
# Velocity S-wave (km/s) = 3.36435 3.83554 3.60765
# Velocity P-wave (km/s) = 6.48423 7.80426 7.17467
#
# Compressibility (1/GPa) = 0.02076028
#
# Stress axis : x y z
#
# Youngs Moduli (GPa) = 30.80277 102.46949 110.24505
#
# Poissons Ratio (x) = 0.74176 0.63609
# Poissons Ratio (y) = 0.22298 0.24898
# Poissons Ratio (z) = 0.17773 0.23142
#
# Static dielectric constant tensor:
#      x y z
#    x 3.188280 0.000000 0.000000 
#    y 0.000000 3.440250 0.000000 
#    z 0.000000 0.000000 3.534460 
# 
# 
# High freq. dielectric constant tensor:
#      x y z
#    x 1.682770 0.000000 0.000000 
#    y 0.000000 1.696960 0.000000 
#    z 0.000000 0.000000 1.696610 
# 
# From -- ./inp_files/14718.got.cif
#   From: 2010.03.12/outbox.cif.g09.slc.cpg/sg46_8_cif.got.tgz:14718.got - 2010.04.14 02:56:35.
