data_PCOD8192124
_publ_section_title
;
Structure prediction by ZEFSAII (Michael W. Deem and Ramdas Pophale) SiO2 
 PCOD8192124
Probable space group: I M A 2
;
_chemical_formula_sum "Si O2"
_cell_formula_units_Z 64
_cell_length_a 8.717129
_cell_length_b 22.862999
_cell_length_c 19.076636
_cell_angle_alpha 90.000000
_cell_angle_beta 90.000000
_cell_angle_gamma 90.000000
_cell_volume 3801.968053
_symmetry_space_group_name_H-M "I M A 2"
_symmetry_group_IT_number 46
_symmetry_cell_setting 'orthorhombic'
loop_
_space_group_symop_operation_xyz
x,y,z
-x,-y,z
1/2-x,y,z
1/2+x,-y,z
1/2+x,1/2+y,1/2+z
1/2-x,1/2-y,1/2+z
-x,1/2+y,1/2+z
x,1/2-y,1/2+z
loop_
_atom_site_type_symbol
_atom_site_label
_atom_site_fract_x
_atom_site_fract_y
_atom_site_fract_z
Si Si1 0.431533 0.152232 0.149310
Si Si2 0.072090 0.174616 0.699728
Si Si3 0.431114 0.251459 0.910499
Si Si4 0.929777 0.283753 0.772566
Si Si5 0.070421 0.263344 0.064651
Si Si6 0.072304 0.937729 0.053032
Si Si7 0.928796 0.126301 0.909078
Si Si8 0.069890 0.439209 0.282783
O O1 0.250000 0.149513 0.150358
O O2 0.490758 0.165166 0.227501
O O3 0.495488 0.204097 0.099281
O O4 0.497059 0.091050 0.121758
O O5 0.250000 0.191090 0.712395
O O6 0.031426 0.182570 0.616887
O O7 0.035940 0.108545 0.722272
O O8 0.973610 0.218935 0.746240
O O9 0.250000 0.259886 0.903400
O O10 0.514273 0.291191 0.852544
O O11 0.470591 0.183798 0.897645
O O12 0.496962 0.272292 0.986557
O O13 0.750000 0.292271 0.767997
O O14 0.250000 0.254911 0.055467
O O15 0.250000 0.946108 0.067593
O O16 0.039289 0.897184 0.986460
O O17 0.000000 0.000000 0.038039
O O18 0.750000 0.140349 0.896863
O O19 0.984803 0.077678 0.854354
O O20 0.250000 0.445508 0.297397
O O21 0.000000 0.500000 0.255266
#
# Coordination Sequence:
#
# PCOD8192124 Si02
#       8
#     8   8   8   8   8   8   8   8
#     4  10  19  35  54  73  98 132 171 212 255 303
#     4   9  18  34  51  71  95 130 169 208 251 301
#     4  11  19  31  51  75 101 135 169 205 254 305
#     4  11  21  32  49  74 103 132 164 209 255 304
#     4   8  16  30  51  73  95 124 164 206 249 300
#     4  11  23  36  51  73 102 138 177 215 254 300
#     4  11  22  34  48  71 104 137 175 212 248 295
#     4  11  22  34  51  70  99 136 176 213 250 297
#
# _framework density 16.833386999999998
#
# number of rings (size 3 to 8) (size 9 to 14) (size 15 to 20)
#    0.000    1.750    2.500    4.125    0.000    3.000 
#    0.000    0.625    0.000    0.000    0.000    0.875 
#    0.000    4.000    0.000    0.000    0.000    0.000 
#
# Total GULP energy -396823.831023 kJ/mol
# GULP energy per Si atom -12400.744719 kJ/mol
# Density = 1.679507 g / cm^3
# Si number density = 16.833387 Si / 1000 Ang^3
#
#
#
# Elastic Constant Matrix: (Units=GPa)
#
#
# Indices 1 2 3 4 5 6 
#
# 1 79.1956 25.2708 34.2081 0.0000 0.0000 0.0000
# 2 25.2708 39.9209 20.9607 0.0000 0.0000 0.0000
# 3 34.2081 20.9607 103.3727 0.0000 0.0000 0.0000
# 4 0.0000 0.0000 0.0000 21.9635 0.0000 0.0000
# 5 0.0000 0.0000 0.0000 0.0000 21.1887 0.0000
# 6 0.0000 0.0000 0.0000 0.0000 0.0000 24.9693
#
#
#
# Elastic Compliance Matrix: (Units=1/GPa)
#
#
# Indices 1 2 3 4 5 6 
#
# 1 0.017108 -0.008793 -0.003878 0.000000 0.000000 0.000000
# 2 -0.008793 0.032554 -0.003691 0.000000 0.000000 0.000000
# 3 -0.003878 -0.003691 0.011706 0.000000 0.000000 0.000000
# 4 0.000000 0.000000 0.000000 0.045530 0.000000 0.000000
# 5 0.000000 0.000000 0.000000 0.000000 0.047195 0.000000
# 6 0.000000 0.000000 0.000000 0.000000 0.000000 0.040049
#
#
# Mechanical properties :
#
#
# Convention : Reuss Voigt Hill
#
# Bulk Modulus (GPa) = 34.91373 42.59649 38.75511
# Shear Modulus (GPa) = 21.14924 23.09426 22.12175
#
# Velocity S-wave (km/s) = 3.54840 3.70798 3.62907
# Velocity P-wave (km/s) = 6.12976 6.60998 6.37439
#
# Compressibility (1/GPa) = 0.02864202
#
# Stress axis : x y z
#
# Youngs Moduli (GPa) = 58.45165 30.71822 85.42936
#
# Poissons Ratio (x) = 0.27012 0.33133
# Poissons Ratio (y) = 0.51399 0.31532
# Poissons Ratio (z) = 0.22670 0.11338
#
# Static dielectric constant tensor:
#      x y z
#    x 3.131110 0.000000 0.000000 
#    y 0.000000 2.936370 0.000000 
#    z 0.000000 0.000000 3.440730 
# 
# 
# High freq. dielectric constant tensor:
#      x y z
#    x 1.653390 0.000000 0.000000 
#    y 0.000000 1.615280 0.000000 
#    z 0.000000 0.000000 1.650500 
# 
# From -- ./inp_files/21438.got.cif
#   From: 2010.03.12/outbox.cif.g09.slc.cpg/sg46_11_cif.got.tgz:21438.got - 2010.04.14 02:56:35.
