data_PCOD8192090
_publ_section_title
;
Structure prediction by ZEFSAII (Michael W. Deem and Ramdas Pophale) SiO2 
 PCOD8192090
Probable space group: I M A 2
;
_chemical_formula_sum "Si O2"
_cell_formula_units_Z 64
_cell_length_a 8.643495
_cell_length_b 18.579489
_cell_length_c 20.896941
_cell_angle_alpha 90.000000
_cell_angle_beta 90.000000
_cell_angle_gamma 90.000000
_cell_volume 3355.875704
_symmetry_space_group_name_H-M "I M A 2"
_symmetry_group_IT_number 46
_symmetry_cell_setting 'orthorhombic'
loop_
_space_group_symop_operation_xyz
x,y,z
-x,-y,z
1/2-x,y,z
1/2+x,-y,z
1/2+x,1/2+y,1/2+z
1/2-x,1/2-y,1/2+z
-x,1/2+y,1/2+z
x,1/2-y,1/2+z
loop_
_atom_site_type_symbol
_atom_site_label
_atom_site_fract_x
_atom_site_fract_y
_atom_site_fract_z
Si Si1 0.568324 0.079702 0.712070
Si Si2 0.571347 0.922172 0.584777
Si Si3 0.568893 0.579767 0.942942
Si Si4 0.567387 0.421024 0.718448
Si Si5 0.567031 0.079966 0.942127
Si Si6 0.432900 0.676267 0.834211
Si Si7 0.568915 0.667435 0.327552
Si Si8 0.570373 0.422783 0.580653
O O1 0.750000 0.072668 0.712412
O O2 0.513650 0.116433 0.644665
O O3 0.518487 0.131686 0.768612
O O4 0.500000 0.000000 0.721636
O O5 0.750000 0.927795 0.602827
O O6 0.547031 0.886946 0.514769
O O7 0.500000 0.000000 0.579239
O O8 0.500000 0.500000 0.936491
O O9 0.750000 0.576915 0.924782
O O10 0.474831 0.632723 0.897700
O O11 0.500000 0.500000 0.729682
O O12 0.750000 0.427802 0.724379
O O13 0.505860 0.367899 0.772851
O O14 0.515521 0.387820 0.648447
O O15 0.750000 0.078004 0.927919
O O16 0.480074 0.130219 0.893009
O O17 0.500000 0.000000 0.936159
O O18 0.531737 0.115678 0.012845
O O19 0.250000 0.690972 0.832242
O O20 0.525218 0.749858 0.833168
O O21 0.750000 0.658309 0.316828
O O22 0.500000 0.500000 0.575248
O O23 0.750000 0.434860 0.586100
#
# Coordination Sequence:
#
# PCOD8192090 Si02
#       8
#     8   8   8   8   8   8   8   8
#     4  11  21  36  59  85 111 140 178 222 270 324
#     4   9  17  31  53  82 112 140 175 220 269 319
#     4  10  20  35  57  84 113 145 182 224 270 323
#     4   9  18  33  55  82 109 138 174 215 260 312
#     4  10  19  34  57  83 109 138 175 218 265 319
#     4  11  23  38  55  77 108 145 186 229 273 323
#     4  12  25  40  55  74 106 145 184 226 273 325
#     4   8  15  29  51  79 108 135 166 210 260 309
#
# _framework density 19.071027999999998
#
# number of rings (size 3 to 8) (size 9 to 14) (size 15 to 20)
#    0.000    2.000    0.000    5.250    0.000    4.000 
#    0.000    1.250    0.000    4.500    0.000    0.000 
#    0.000    0.000    0.000    0.000    0.000    0.000 
#
# Total GULP energy -396503.943067 kJ/mol
# GULP energy per Si atom -12390.748221 kJ/mol
# Density = 1.902762 g / cm^3
# Si number density = 19.071028 Si / 1000 Ang^3
#
#
#
# Elastic Constant Matrix: (Units=GPa)
#
#
# Indices 1 2 3 4 5 6 
#
# 1 92.5488 21.4740 42.8253 0.0000 0.0000 0.0000
# 2 21.4740 75.9984 53.4145 0.0000 0.0000 0.0000
# 3 42.8253 53.4145 158.1848 0.0000 0.0000 0.0000
# 4 0.0000 0.0000 0.0000 -2.9029 0.0000 0.0000
# 5 0.0000 0.0000 0.0000 0.0000 30.2436 0.0000
# 6 0.0000 0.0000 0.0000 0.0000 0.0000 27.2416
#
#
#
# Elastic Compliance Matrix: (Units=1/GPa)
#
#
# Indices 1 2 3 4 5 6 
#
# 1 0.012483 -0.001510 -0.002870 0.000000 0.000000 0.000000
# 2 -0.001510 0.017435 -0.005479 0.000000 0.000000 0.000000
# 3 -0.002870 -0.005479 0.008949 0.000000 0.000000 0.000000
# 4 0.000000 0.000000 0.000000 -0.344478 0.000000 0.000000
# 5 0.000000 0.000000 0.000000 0.000000 0.033065 0.000000
# 6 0.000000 0.000000 0.000000 0.000000 0.000000 0.036709
#
#
# Mechanical properties :
#
#
# Convention : Reuss Voigt Hill
#
# Bulk Modulus (GPa) = 52.21851 62.46220 57.34035
# Shear Modulus (GPa) = -23.83939 24.85101 0.50581
#
# Velocity S-wave (km/s) = -3.53941 3.61373 0.51556
# Velocity P-wave (km/s) = 3.27677 7.08771 5.52145
#
# Compressibility (1/GPa) = 0.01915030
#
# Stress axis : x y z
#
# Youngs Moduli (GPa) = 80.10621 57.35429 111.74982
#
# Poissons Ratio (x) = 0.08663 0.32068
# Poissons Ratio (y) = 0.12099 0.61223
# Poissons Ratio (z) = 0.22987 0.31422
#
# Static dielectric constant tensor:
#      x y z
#    x 3.709060 0.000000 0.000000 
#    y 0.000000 3.050130 0.000000 
#    z 0.000000 0.000000 4.532900 
# 
# 
# High freq. dielectric constant tensor:
#      x y z
#    x 1.754420 0.000000 0.000000 
#    y 0.000000 1.696230 0.000000 
#    z 0.000000 0.000000 1.775000 
# 
# From -- ./inp_files/21415.got.cif
#   From: 2010.03.12/outbox.cif.g09.slc.cpg/sg46_11_cif.got.tgz:21415.got - 2010.04.14 02:56:35.
