data_PCOD8192669
_publ_section_title
;
Structure prediction by ZEFSAII (Michael W. Deem and Ramdas Pophale) SiO2 
 PCOD8192669
Probable space group: I M A 2
;
_chemical_formula_sum "Si O2"
_cell_formula_units_Z 48
_cell_length_a 8.750621
_cell_length_b 30.643398
_cell_length_c 8.962524
_cell_angle_alpha 90.000000
_cell_angle_beta 90.000000
_cell_angle_gamma 90.000000
_cell_volume 2403.289715
_symmetry_space_group_name_H-M "I M A 2"
_symmetry_group_IT_number 46
_symmetry_cell_setting 'orthorhombic'
loop_
_space_group_symop_operation_xyz
x,y,z
-x,-y,z
1/2-x,y,z
1/2+x,-y,z
1/2+x,1/2+y,1/2+z
1/2-x,1/2-y,1/2+z
-x,1/2+y,1/2+z
x,1/2-y,1/2+z
loop_
_atom_site_type_symbol
_atom_site_label
_atom_site_fract_x
_atom_site_fract_y
_atom_site_fract_z
Si Si1 0.072317 0.374864 0.579470
Si Si2 0.429866 0.955032 0.916716
Si Si3 0.927369 0.372053 0.893693
Si Si4 0.927685 0.789828 0.891875
Si Si5 0.926091 0.285349 0.075230
Si Si6 0.569395 0.454955 0.079023
O O1 0.250000 0.385747 0.572218
O O2 0.029579 0.333874 0.477794
O O3 0.979825 0.416507 0.524546
O O4 0.025833 0.363382 0.747357
O O5 0.250000 0.959312 0.922127
O O6 0.488220 0.946061 0.747937
O O7 0.500000 0.000000 0.977839
O O8 0.750000 0.376120 0.849745
O O9 0.955853 0.332604 0.006320
O O10 0.987713 0.415767 0.974442
O O11 0.750000 0.788414 0.846889
O O12 0.033943 0.787470 0.748343
O O13 0.964019 0.749220 0.997442
O O14 0.750000 0.270943 0.057320
O O15 0.500000 0.500000 0.016906
O O16 0.750000 0.458574 0.075540
#
# Coordination Sequence:
#
# PCOD8192669 Si02
#       6
#     8   8   8   8   8   8
#     4  11  24  39  57  84 117 155 196 236 286 347
#     4  10  20  37  61  86 115 150 191 240 291 345
#     4  10  22  39  58  83 116 152 191 239 291 342
#     4  11  24  41  61  87 121 156 192 241 299 353
#     4  11  23  40  64  90 116 152 199 244 291 352
#     4   9  19  36  58  84 112 145 186 232 284 339
#
# _framework density 19.972624
#
# number of rings (size 3 to 8) (size 9 to 14) (size 15 to 20)
#    0.000    1.667    0.000    4.000    0.000   10.000 
#    0.000    1.667    0.000    0.000    0.000    0.000 
#    0.000    0.000    0.000    0.000    0.000    0.000 
#
# Total GULP energy -297754.282982 kJ/mol
# GULP energy per Si atom -12406.428458 kJ/mol
# Density = 1.992717 g / cm^3
# Si number density = 19.972624 Si / 1000 Ang^3
#
#
#
# Elastic Constant Matrix: (Units=GPa)
#
#
# Indices 1 2 3 4 5 6 
#
# 1 47.5391 34.5903 23.9047 0.0024 -0.0014 0.0000
# 2 34.5903 123.0048 41.2456 0.0060 0.0012 0.0010
# 3 23.9047 41.2456 101.4686 0.0129 -0.0075 0.0021
# 4 0.0024 0.0060 0.0129 38.7021 -0.0029 0.0008
# 5 -0.0014 0.0012 -0.0075 -0.0029 42.8129 0.0022
# 6 0.0000 0.0010 0.0021 0.0008 0.0022 34.7972
#
#
#
# Elastic Compliance Matrix: (Units=1/GPa)
#
#
# Indices 1 2 3 4 5 6 
#
# 1 0.027713 -0.006488 -0.003891 0.000001 0.000000 0.000000
# 2 -0.006488 0.010932 -0.002915 0.000000 -0.000001 0.000000
# 3 -0.003891 -0.002915 0.011957 -0.000003 0.000002 -0.000001
# 4 0.000001 0.000000 -0.000003 0.025838 0.000002 -0.000001
# 5 0.000000 -0.000001 0.000002 0.000002 0.023357 -0.000002
# 6 0.000000 0.000000 -0.000001 -0.000001 -0.000002 0.028738
#
#
# Mechanical properties :
#
#
# Convention : Reuss Voigt Hill
#
# Bulk Modulus (GPa) = 41.64544 52.38819 47.01682
# Shear Modulus (GPa) = 30.65050 34.74726 32.69888
#
# Velocity S-wave (km/s) = 3.92168 4.17555 4.05060
# Velocity P-wave (km/s) = 6.43449 7.03803 6.74302
#
# Compressibility (1/GPa) = 0.02401223
#
# Stress axis : x y z
#
# Youngs Moduli (GPa) = 36.08393 91.47598 83.63327
#
# Poissons Ratio (x) = 0.59353 0.32545
# Poissons Ratio (y) = 0.23413 0.24380
# Poissons Ratio (z) = 0.14042 0.26666
#
# Static dielectric constant tensor:
#      x y z
#    x 3.273150 0.000000 0.000000 
#    y 0.000000 3.774160 -0.000010 
#    z 0.000000 -0.000010 3.646080 
# 
# 
# High freq. dielectric constant tensor:
#      x y z
#    x 1.781160 0.000000 0.000000 
#    y 0.000000 1.794080 0.000000 
#    z 0.000000 0.000000 1.783180 
# 
# From -- ./inp_files/3938.got.cif
#   From: 2010.03.12/outbox.cif.g09.slc.cpg/sg46_2_cif.got.tgz:3938.got - 2010.04.14 02:56:35.
