data_PCOD8192726
_publ_section_title
;
Structure prediction by ZEFSAII (Michael W. Deem and Ramdas Pophale) SiO2 
 PCOD8192726
Probable space group: I M A 2
;
_chemical_formula_sum "Si O2"
_cell_formula_units_Z 64
_cell_length_a 17.198059
_cell_length_b 15.976496
_cell_length_c 11.555834
_cell_angle_alpha 90.000000
_cell_angle_beta 90.000000
_cell_angle_gamma 90.000000
_cell_volume 3175.135503
_symmetry_space_group_name_H-M "I M A 2"
_symmetry_group_IT_number 46
_symmetry_cell_setting 'orthorhombic'
loop_
_space_group_symop_operation_xyz
x,y,z
-x,-y,z
1/2-x,y,z
1/2+x,-y,z
1/2+x,1/2+y,1/2+z
1/2-x,1/2-y,1/2+z
-x,1/2+y,1/2+z
x,1/2-y,1/2+z
loop_
_atom_site_type_symbol
_atom_site_label
_atom_site_fract_x
_atom_site_fract_y
_atom_site_fract_z
Si Si1 0.010777 0.598972 0.375000
Si Si2 0.660923 0.562133 0.739583
Si Si3 0.888370 0.359990 0.959305
Si Si4 0.064101 0.171436 0.088322
Si Si5 0.535373 0.638160 0.115949
Si Si6 0.592559 0.389154 0.701631
Si Si7 0.335562 0.041391 0.497391
Si Si8 0.663213 0.323489 0.485539
O O1 0.098009 0.629928 0.407754
O O2 0.000000 0.500000 0.393294
O O3 0.945503 0.645391 0.453594
O O4 0.997706 0.624608 0.243310
O O5 0.750000 0.534356 0.720410
O O6 0.641515 0.636684 0.650388
O O7 0.600834 0.488366 0.712160
O O8 0.648000 0.587276 0.874139
O O9 0.900396 0.343814 0.823858
O O10 0.835426 0.441055 0.980611
O O11 0.849008 0.275509 0.003148
O O12 0.969461 0.377042 0.021751
O O13 0.070325 0.270277 0.100236
O O14 0.991051 0.132733 0.153147
O O15 0.602935 0.570686 0.092952
O O16 0.659656 0.357296 0.616123
O O17 0.250000 0.066104 0.542375
O O18 0.750000 0.341059 0.435260
#
# Coordination Sequence:
#
# PCOD8192726 Si02
#       8
#     8   8   8   8   8   8   8   8
#     4  11  24  43  61  91 131 171 214 256 307 383
#     4  10  21  38  64  93 121 158 204 267 322 363
#     4  11  21  40  63  95 122 163 205 256 313 380
#     4  11  22  37  65  88 122 163 212 259 305 371
#     4  12  24  41  65  91 127 171 217 253 310 383
#     4  10  20  38  61  90 122 154 208 251 313 368
#     4  10  23  41  64  92 125 160 207 265 321 370
#     4  11  23  38  63  94 129 162 202 261 318 370
#
# _framework density 20.156621000000001
#
# number of rings (size 3 to 8) (size 9 to 14) (size 15 to 20)
#    0.000    1.250    2.500    5.250    1.750    4.000 
#    0.000    3.125    0.000    0.000    0.000    0.000 
#    0.000    0.000    0.000    0.000    0.000    0.000 
#
# Total GULP energy -396795.173086 kJ/mol
# GULP energy per Si atom -12399.849159 kJ/mol
# Density = 2.011074 g / cm^3
# Si number density = 20.156621 Si / 1000 Ang^3
#
#
#
# Elastic Constant Matrix: (Units=GPa)
#
#
# Indices 1 2 3 4 5 6 
#
# 1 96.8205 31.2833 43.5023 0.0000 0.0000 0.0000
# 2 31.2833 93.5494 35.4250 0.0000 0.0000 0.0000
# 3 43.5023 35.4250 115.4955 0.0000 0.0000 0.0000
# 4 0.0000 0.0000 0.0000 17.7134 0.0000 0.0000
# 5 0.0000 0.0000 0.0000 0.0000 22.6910 0.0000
# 6 0.0000 0.0000 0.0000 0.0000 0.0000 11.9537
#
#
#
# Elastic Compliance Matrix: (Units=1/GPa)
#
#
# Indices 1 2 3 4 5 6 
#
# 1 0.013065 -0.002835 -0.004051 0.000000 0.000000 0.000000
# 2 -0.002835 0.012709 -0.002831 0.000000 0.000000 0.000000
# 3 -0.004051 -0.002831 0.011053 0.000000 0.000000 0.000000
# 4 0.000000 0.000000 0.000000 0.056454 0.000000 0.000000
# 5 0.000000 0.000000 0.000000 0.000000 0.044070 0.000000
# 6 0.000000 0.000000 0.000000 0.000000 0.000000 0.083656
#
#
# Mechanical properties :
#
#
# Convention : Reuss Voigt Hill
#
# Bulk Modulus (GPa) = 57.49371 58.47630 57.98500
# Shear Modulus (GPa) = 20.30552 23.51527 21.91039
#
# Velocity S-wave (km/s) = 3.17738 3.41930 3.30056
# Velocity P-wave (km/s) = 6.48432 6.68302 6.58442
#
# Compressibility (1/GPa) = 0.01739321
#
# Stress axis : x y z
#
# Youngs Moduli (GPa) = 76.54240 78.68240 90.47695
#
# Poissons Ratio (x) = 0.22304 0.36656
# Poissons Ratio (y) = 0.21697 0.25610
# Poissons Ratio (z) = 0.31011 0.22271
#
# Static dielectric constant tensor:
#      x y z
#    x 3.566120 0.000000 0.000000 
#    y 0.000000 3.863310 0.000000 
#    z 0.000000 0.000000 3.883380 
# 
# 
# High freq. dielectric constant tensor:
#      x y z
#    x 1.779250 0.000000 0.000000 
#    y 0.000000 1.791960 0.000000 
#    z 0.000000 0.000000 1.790150 
# 
# From -- ./inp_files/11947.got.cif
#   From: 2010.03.12/outbox.cif.g09.slc.cpg/sg46_6_cif.got.tgz:11947.got - 2010.04.14 02:56:35.
