data_PCOD8192005
_publ_section_title
;
Structure prediction by ZEFSAII (Michael W. Deem and Ramdas Pophale) SiO2 
 PCOD8192005
Probable space group: I M A 2
;
_chemical_formula_sum "Si O2"
_cell_formula_units_Z 48
_cell_length_a 18.233849
_cell_length_b 8.973127
_cell_length_c 14.643501
_cell_angle_alpha 90.000000
_cell_angle_beta 90.000000
_cell_angle_gamma 90.000000
_cell_volume 2395.891185
_symmetry_space_group_name_H-M "I M A 2"
_symmetry_group_IT_number 46
_symmetry_cell_setting 'orthorhombic'
loop_
_space_group_symop_operation_xyz
x,y,z
-x,-y,z
1/2-x,y,z
1/2+x,-y,z
1/2+x,1/2+y,1/2+z
1/2-x,1/2-y,1/2+z
-x,1/2+y,1/2+z
x,1/2-y,1/2+z
loop_
_atom_site_type_symbol
_atom_site_label
_atom_site_fract_x
_atom_site_fract_y
_atom_site_fract_z
Si Si1 0.835225 0.747543 0.123650
Si Si2 0.079364 0.330993 0.787188
Si Si3 0.666766 0.416359 0.577783
Si Si4 0.666154 0.225140 0.408049
Si Si5 0.580011 0.175767 0.240778
Si Si6 0.917875 0.941746 0.478721
O O1 0.750000 0.705320 0.112998
O O2 0.856296 0.745815 0.231897
O O3 0.853774 0.910373 0.083724
O O4 0.885690 0.631016 0.070169
O O5 0.085256 0.506058 0.771745
O O6 0.083981 0.316003 0.897359
O O7 0.003419 0.267453 0.745343
O O8 0.750000 0.391147 0.612143
O O9 0.656932 0.367297 0.473613
O O10 0.613467 0.312390 0.639368
O O11 0.750000 0.188491 0.386655
O O12 0.627187 0.270521 0.313300
O O13 0.632808 0.080685 0.455571
O O14 0.000000 0.000000 0.495746
#
# Coordination Sequence:
#
# PCOD8192005 Si02
#       6
#     8   8   8   8   8   8
#     4  10  22  38  60  87 115 153 196 245 299 350
#     4   9  18  34  56  81 110 146 196 235 285 348
#     4   9  19  34  54  82 112 146 190 236 287 346
#     4  10  19  33  56  82 112 149 192 240 291 348
#     4   9  16  31  53  80 108 145 189 235 278 342
#     4  11  21  38  58  87 116 153 196 245 296 354
#
# _framework density 20.034300000000002
#
# number of rings (size 3 to 8) (size 9 to 14) (size 15 to 20)
#    0.000    2.333    3.333    1.000    2.333    4.667 
#    0.000    1.667    0.000    4.000    0.000    0.000 
#    0.000    0.000    0.000    0.000    0.000    0.000 
#
# Total GULP energy -297511.207792 kJ/mol
# GULP energy per Si atom -12396.300325 kJ/mol
# Density = 1.998870 g / cm^3
# Si number density = 20.034300 Si / 1000 Ang^3
#
#
#
# Elastic Constant Matrix: (Units=GPa)
#
#
# Indices 1 2 3 4 5 6 
#
# 1 112.3780 25.2095 46.1219 0.0000 0.0000 0.0000
# 2 25.2095 32.9582 22.2357 0.0000 0.0000 0.0000
# 3 46.1219 22.2357 84.3637 0.0000 0.0000 0.0000
# 4 0.0000 0.0000 0.0000 26.4500 0.0000 0.0000
# 5 0.0000 0.0000 0.0000 0.0000 35.4059 0.0000
# 6 0.0000 0.0000 0.0000 0.0000 0.0000 21.7595
#
#
#
# Elastic Compliance Matrix: (Units=1/GPa)
#
#
# Indices 1 2 3 4 5 6 
#
# 1 0.012365 -0.005956 -0.005190 0.000000 0.000000 0.000000
# 2 -0.005956 0.039773 -0.007227 0.000000 0.000000 0.000000
# 3 -0.005190 -0.007227 0.016596 0.000000 0.000000 0.000000
# 4 0.000000 0.000000 0.000000 0.037807 0.000000 0.000000
# 5 0.000000 0.000000 0.000000 0.000000 0.028244 0.000000
# 6 0.000000 0.000000 0.000000 0.000000 0.000000 0.045957
#
#
# Mechanical properties :
#
#
# Convention : Reuss Voigt Hill
#
# Bulk Modulus (GPa) = 31.26221 46.31491 38.78856
# Shear Modulus (GPa) = 21.91547 25.79859 23.85703
#
# Velocity S-wave (km/s) = 3.31100 3.59238 3.45455
# Velocity P-wave (km/s) = 5.50047 6.35412 5.94264
#
# Compressibility (1/GPa) = 0.03198751
#
# Stress axis : x y z
#
# Youngs Moduli (GPa) = 80.87512 25.14276 60.25715
#
# Poissons Ratio (x) = 0.14976 0.31273
# Poissons Ratio (y) = 0.48171 0.43546
# Poissons Ratio (z) = 0.41974 0.18170
#
# Static dielectric constant tensor:
#      x y z
#    x 3.859010 0.000000 0.000000 
#    y 0.000000 3.182510 0.000000 
#    z 0.000000 0.000000 3.886090 
# 
# 
# High freq. dielectric constant tensor:
#      x y z
#    x 1.794240 0.000000 0.000000 
#    y 0.000000 1.734660 0.000000 
#    z 0.000000 0.000000 1.785470 
# 
# From -- ./inp_files/16547.got.cif
#   From: 2010.03.12/outbox.cif.g09.slc.cpg/sg46_9_cif.got.tgz:16547.got - 2010.04.14 02:56:35.
