data_PCOD8192961
_publ_section_title
;
Structure prediction by ZEFSAII (Michael W. Deem and Ramdas Pophale) SiO2 
 PCOD8192961
Probable space group: I M A 2
;
_chemical_formula_sum "Si O2"
_cell_formula_units_Z 48
_cell_length_a 8.589494
_cell_length_b 22.970005
_cell_length_c 11.644353
_cell_angle_alpha 90.000000
_cell_angle_beta 90.000000
_cell_angle_gamma 90.000000
_cell_volume 2297.439232
_symmetry_space_group_name_H-M "I M A 2"
_symmetry_group_IT_number 46
_symmetry_cell_setting 'orthorhombic'
loop_
_space_group_symop_operation_xyz
x,y,z
-x,-y,z
1/2-x,y,z
1/2+x,-y,z
1/2+x,1/2+y,1/2+z
1/2-x,1/2-y,1/2+z
-x,1/2+y,1/2+z
x,1/2-y,1/2+z
loop_
_atom_site_type_symbol
_atom_site_label
_atom_site_fract_x
_atom_site_fract_y
_atom_site_fract_z
Si Si1 0.929632 0.439267 0.904860
Si Si2 0.430654 0.348377 0.050578
Si Si3 0.432720 0.435764 0.480263
Si Si4 0.430984 0.367003 0.708527
Si Si5 0.429647 0.853308 0.796531
Si Si6 0.070747 0.724987 0.849730
O O1 0.750000 0.444058 0.937271
O O2 0.000000 0.500000 0.869873
O O3 0.953578 0.399721 0.794090
O O4 0.023179 0.413710 0.013193
O O5 0.250000 0.336739 0.032114
O O6 0.474007 0.342561 0.182029
O O7 0.522222 0.302868 0.970905
O O8 0.500000 0.500000 0.506997
O O9 0.250000 0.442457 0.462436
O O10 0.471609 0.389503 0.581330
O O11 0.506954 0.409001 0.365554
O O12 0.250000 0.379291 0.736148
O O13 0.471702 0.299395 0.738668
O O14 0.250000 0.864810 0.766873
O O15 0.454662 0.793853 0.867266
O O16 0.250000 0.710688 0.824837
#
# Coordination Sequence:
#
# PCOD8192961 Si02
#       6
#     8   8   8   8   8   8
#     4  11  21  36  60  89 122 159 203 251 305 363
#     4  11  23  40  62  89 122 157 202 255 308 368
#     4  11  25  43  64  93 128 170 216 261 315 376
#     4  10  21  38  62  94 127 162 206 257 311 368
#     4  11  25  43  64  90 124 166 209 256 312 376
#     4  10  22  40  64  93 125 162 206 256 314 375
#
# _framework density 20.892828000000002
#
# number of rings (size 3 to 8) (size 9 to 14) (size 15 to 20)
#    0.000    1.333    0.000    7.500    2.333    7.333 
#    0.000    3.333    0.000    0.000    0.000    0.000 
#    0.000    0.000    0.000    0.000    0.000    0.000 
#
# Total GULP energy -297576.514084 kJ/mol
# GULP energy per Si atom -12399.021420 kJ/mol
# Density = 2.084528 g / cm^3
# Si number density = 20.892828 Si / 1000 Ang^3
#
#
#
# Elastic Constant Matrix: (Units=GPa)
#
#
# Indices 1 2 3 4 5 6 
#
# 1 98.9932 33.8769 30.0340 0.0002 -0.0001 0.0000
# 2 33.8769 77.3306 18.6620 -0.0001 0.0000 0.0000
# 3 30.0340 18.6620 95.9704 0.0003 -0.0002 0.0000
# 4 0.0002 -0.0001 0.0003 28.7469 -0.0001 0.0000
# 5 -0.0001 0.0000 -0.0002 -0.0001 31.8038 0.0000
# 6 0.0000 0.0000 0.0000 0.0000 0.0000 31.8628
#
#
#
# Elastic Compliance Matrix: (Units=1/GPa)
#
#
# Indices 1 2 3 4 5 6 
#
# 1 0.012670 -0.004820 -0.003028 0.000000 0.000000 0.000000
# 2 -0.004820 0.015402 -0.001487 0.000000 0.000000 0.000000
# 3 -0.003028 -0.001487 0.011657 0.000000 0.000000 0.000000
# 4 0.000000 0.000000 0.000000 0.034786 0.000000 0.000000
# 5 0.000000 0.000000 0.000000 0.000000 0.031443 0.000000
# 6 0.000000 0.000000 0.000000 0.000000 0.000000 0.031385
#
#
# Mechanical properties :
#
#
# Convention : Reuss Voigt Hill
#
# Bulk Modulus (GPa) = 47.48396 48.60443 48.04419
# Shear Modulus (GPa) = 30.66930 31.13079 30.90005
#
# Velocity S-wave (km/s) = 3.83552 3.86427 3.84992
# Velocity P-wave (km/s) = 6.51089 6.57452 6.54278
#
# Compressibility (1/GPa) = 0.02105974
#
# Stress axis : x y z
#
# Youngs Moduli (GPa) = 78.92871 64.92816 85.78904
#
# Poissons Ratio (x) = 0.31293 0.25975
# Poissons Ratio (y) = 0.38041 0.12754
# Poissons Ratio (z) = 0.23898 0.09652
#
# Static dielectric constant tensor:
#      x y z
#    x 3.888830 0.000000 0.000000 
#    y 0.000000 4.078340 0.000000 
#    z 0.000000 0.000000 3.691560 
# 
# 
# High freq. dielectric constant tensor:
#      x y z
#    x 1.832630 0.000000 0.000000 
#    y 0.000000 1.823710 0.000000 
#    z 0.000000 0.000000 1.809870 
# 
# From -- ./inp_files/9280.got.cif
#   From: 2010.03.12/outbox.cif.g09.slc.cpg/sg46_5_cif.got.tgz:9280.got - 2010.04.14 02:56:35.
