data_PCOD8192935
_publ_section_title
;
Structure prediction by ZEFSAII (Michael W. Deem and Ramdas Pophale) SiO2 
 PCOD8192935
Probable space group: I M A 2
;
_chemical_formula_sum "Si O2"
_cell_formula_units_Z 64
_cell_length_a 26.671988
_cell_length_b 6.584758
_cell_length_c 18.616752
_cell_angle_alpha 90.000000
_cell_angle_beta 90.000000
_cell_angle_gamma 90.000000
_cell_volume 3269.633836
_symmetry_space_group_name_H-M "I M A 2"
_symmetry_group_IT_number 46
_symmetry_cell_setting 'orthorhombic'
loop_
_space_group_symop_operation_xyz
x,y,z
-x,-y,z
1/2-x,y,z
1/2+x,-y,z
1/2+x,1/2+y,1/2+z
1/2-x,1/2-y,1/2+z
-x,1/2+y,1/2+z
x,1/2-y,1/2+z
loop_
_atom_site_type_symbol
_atom_site_label
_atom_site_fract_x
_atom_site_fract_y
_atom_site_fract_z
Si Si1 0.195554 0.758997 0.255200
Si Si2 0.443642 0.477587 0.693813
Si Si3 0.052959 0.567385 0.946530
Si Si4 0.627243 0.193096 0.627969
Si Si5 0.583969 0.805531 0.571010
Si Si6 0.118625 0.576730 0.486334
Si Si7 0.693897 0.935816 0.869784
Si Si8 0.125016 0.428626 0.824815
O O1 0.250000 0.867417 0.250362
O O2 0.176633 0.725749 0.174669
O O3 0.200919 0.546415 0.294481
O O4 0.156896 0.879309 0.303291
O O5 0.500000 0.500000 0.723328
O O6 0.419808 0.691729 0.666766
O O7 0.448308 0.324976 0.626658
O O8 0.411340 0.375034 0.757757
O O9 0.094610 0.473381 0.896152
O O10 0.000000 0.500000 0.911084
O O11 0.050769 0.459712 0.024449
O O12 0.067359 0.808751 0.956418
O O13 0.639601 0.286431 0.550601
O O14 0.620292 0.950160 0.618384
O O15 0.610022 0.651065 0.515137
O O16 0.161941 0.567788 0.426660
O O17 0.750000 0.886861 0.900855
O O18 0.663524 0.740653 0.847224
#
# Coordination Sequence:
#
# PCOD8192935 Si02
#       8
#     8   8   8   8   8   8   8   8
#     4  10  21  39  63  86 114 155 202 251 306 365
#     4  10  22  36  60  85 119 158 201 244 298 359
#     4  11  23  36  63  88 122 163 201 243 304 365
#     4   9  21  38  59  86 118 157 194 250 303 355
#     4  10  21  38  59  85 123 155 197 246 301 356
#     4  10  21  40  58  90 123 155 201 251 299 361
#     4  11  22  38  62  88 116 160 204 249 308 363
#     4  11  21  41  58  88 124 156 202 253 302 355
#
# _framework density 19.574057
#
# number of rings (size 3 to 8) (size 9 to 14) (size 15 to 20)
#    0.000    1.750    2.500    1.500    5.250    0.500 
#    0.000    0.625    0.000    0.000    0.000    0.000 
#    0.000    0.000    0.000    0.000    0.000    0.000 
#
# Total GULP energy -396485.377275 kJ/mol
# GULP energy per Si atom -12390.168040 kJ/mol
# Density = 1.952951 g / cm^3
# Si number density = 19.574057 Si / 1000 Ang^3
#
#
#
# Elastic Constant Matrix: (Units=GPa)
#
#
# Indices 1 2 3 4 5 6 
#
# 1 123.3708 45.0219 34.8928 0.0000 0.0000 0.0000
# 2 45.0219 96.9198 28.9977 0.0000 0.0000 0.0000
# 3 34.8928 28.9977 75.7141 0.0000 0.0000 0.0000
# 4 0.0000 0.0000 0.0000 16.1351 0.0000 0.0000
# 5 0.0000 0.0000 0.0000 0.0000 21.7387 0.0000
# 6 0.0000 0.0000 0.0000 0.0000 0.0000 21.6641
#
#
#
# Elastic Compliance Matrix: (Units=1/GPa)
#
#
# Indices 1 2 3 4 5 6 
#
# 1 0.010459 -0.003859 -0.003342 0.000000 0.000000 0.000000
# 2 -0.003859 0.013077 -0.003230 0.000000 0.000000 0.000000
# 3 -0.003342 -0.003230 0.015985 0.000000 0.000000 0.000000
# 4 0.000000 0.000000 0.000000 0.061977 0.000000 0.000000
# 5 0.000000 0.000000 0.000000 0.000000 0.046001 0.000000
# 6 0.000000 0.000000 0.000000 0.000000 0.000000 0.046159
#
#
# Mechanical properties :
#
#
# Convention : Reuss Voigt Hill
#
# Bulk Modulus (GPa) = 53.59352 57.09215 55.34283
# Shear Modulus (GPa) = 22.65123 24.38041 23.51582
#
# Velocity S-wave (km/s) = 3.40546 3.53306 3.46985
# Velocity P-wave (km/s) = 6.54998 6.77303 6.66244
#
# Compressibility (1/GPa) = 0.01865897
#
# Stress axis : x y z
#
# Youngs Moduli (GPa) = 95.61121 76.47252 62.55895
#
# Poissons Ratio (x) = 0.29507 0.20909
# Poissons Ratio (y) = 0.36892 0.20207
# Poissons Ratio (z) = 0.31956 0.24701
#
# Static dielectric constant tensor:
#      x y z
#    x 3.449960 0.000000 0.000000 
#    y 0.000000 3.684150 0.000000 
#    z 0.000000 0.000000 3.752110 
# 
# 
# High freq. dielectric constant tensor:
#      x y z
#    x 1.750680 0.000000 0.000000 
#    y 0.000000 1.760560 0.000000 
#    z 0.000000 0.000000 1.775440 
# 
# From -- ./inp_files/22625.got.cif
#   From: 2010.03.12/outbox.cif.g09.slc.cpg/sg46_12_cif.got.tgz:22625.got - 2010.04.14 02:56:35.
