data_PCOD8192635
_publ_section_title
;
Structure prediction by ZEFSAII (Michael W. Deem and Ramdas Pophale) SiO2 
 PCOD8192635
Probable space group: I M A 2
;
_chemical_formula_sum "Si O2"
_cell_formula_units_Z 44
_cell_length_a 9.472453
_cell_length_b 20.772107
_cell_length_c 11.144611
_cell_angle_alpha 90.000000
_cell_angle_beta 90.000000
_cell_angle_gamma 90.000000
_cell_volume 2192.844946
_symmetry_space_group_name_H-M "I M A 2"
_symmetry_group_IT_number 46
_symmetry_cell_setting 'orthorhombic'
loop_
_space_group_symop_operation_xyz
x,y,z
-x,-y,z
1/2-x,y,z
1/2+x,-y,z
1/2+x,1/2+y,1/2+z
1/2-x,1/2-y,1/2+z
-x,1/2+y,1/2+z
x,1/2-y,1/2+z
loop_
_atom_site_type_symbol
_atom_site_label
_atom_site_fract_x
_atom_site_fract_y
_atom_site_fract_z
Si Si1 0.411822 0.829956 0.692890
Si Si2 0.409087 0.626061 0.455447
Si Si3 0.000000 0.500000 0.580292
Si Si4 0.403169 0.416365 0.786998
Si Si5 0.585415 0.441409 0.011264
Si Si6 0.587449 0.794657 0.137566
O O1 0.250000 0.805959 0.688813
O O2 0.442617 0.869227 0.814403
O O3 0.445256 0.876580 0.582271
O O4 0.514960 0.770317 0.680700
O O5 0.250000 0.648760 0.483221
O O6 0.422129 0.551610 0.495486
O O7 0.512719 0.675314 0.521462
O O8 0.103889 0.460288 0.667439
O O9 0.250000 0.423503 0.850999
O O10 0.427183 0.342778 0.749222
O O11 0.529908 0.435135 0.874886
O O12 0.500000 0.500000 0.073406
O O13 0.750000 0.458250 0.007340
O O14 0.750000 0.781200 0.104048
#
# Coordination Sequence:
#
# PCOD8192635 Si02
#       6
#     8   8   4   8   8   8
#     4  10  24  43  62  89 124 165 207 248 302 367
#     4  10  22  41  65  91 124 164 205 251 305 366
#     4  10  20  36  66  94 122 152 208 248 304 352
#     4  10  21  38  61  91 123 155 200 251 303 361
#     4  11  24  40  62  90 122 159 202 249 303 362
#     4  10  23  41  63  93 123 156 203 255 308 360
#
# _framework density 20.065259999999999
#
# number of rings (size 3 to 8) (size 9 to 14) (size 15 to 20)
#    0.000    1.818    0.909    1.636    3.818    6.545 
#    0.000    0.000    0.000    0.000    0.000    0.000 
#    0.000    0.000    0.000    0.000    0.000    0.000 
#
# Total GULP energy -272778.808375 kJ/mol
# GULP energy per Si atom -12399.036744 kJ/mol
# Density = 2.001959 g / cm^3
# Si number density = 20.065260 Si / 1000 Ang^3
#
#
#
# Elastic Constant Matrix: (Units=GPa)
#
#
# Indices 1 2 3 4 5 6 
#
# 1 139.9136 73.6994 46.6377 0.0000 0.0000 0.0000
# 2 73.6994 142.8653 52.4145 0.0002 0.0000 0.0000
# 3 46.6377 52.4145 95.0402 0.0006 -0.0001 0.0000
# 4 0.0000 0.0002 0.0006 26.8142 0.0000 0.0000
# 5 0.0000 0.0000 -0.0001 0.0000 24.6101 0.0000
# 6 0.0000 0.0000 0.0000 0.0000 0.0000 32.3427
#
#
#
# Elastic Compliance Matrix: (Units=1/GPa)
#
#
# Indices 1 2 3 4 5 6 
#
# 1 0.010328 -0.004348 -0.002670 0.000000 0.000000 0.000000
# 2 -0.004348 0.010606 -0.003715 0.000000 0.000000 0.000000
# 3 -0.002670 -0.003715 0.013881 0.000000 0.000000 0.000000
# 4 0.000000 0.000000 0.000000 0.037294 0.000000 0.000000
# 5 0.000000 0.000000 0.000000 0.000000 0.040634 0.000000
# 6 0.000000 0.000000 0.000000 0.000000 0.000000 0.030919
#
#
# Mechanical properties :
#
#
# Convention : Reuss Voigt Hill
#
# Bulk Modulus (GPa) = 74.91996 80.36914 77.64455
# Shear Modulus (GPa) = 29.48519 30.42457 29.95488
#
# Velocity S-wave (km/s) = 3.83752 3.89817 3.86796
# Velocity P-wave (km/s) = 7.55345 7.77186 7.66343
#
# Compressibility (1/GPa) = 0.01334758
#
# Stress axis : x y z
#
# Youngs Moduli (GPa) = 96.82781 94.28856 72.04063
#
# Poissons Ratio (x) = 0.40998 0.19234
# Poissons Ratio (y) = 0.42102 0.26766
# Poissons Ratio (z) = 0.25852 0.35032
#
# Static dielectric constant tensor:
#      x y z
#    x 3.690380 0.000000 0.000000 
#    y 0.000000 3.775680 0.000000 
#    z 0.000000 0.000000 3.562470 
# 
# 
# High freq. dielectric constant tensor:
#      x y z
#    x 1.789280 0.000000 0.000000 
#    y 0.000000 1.794220 0.000000 
#    z 0.000000 0.000000 1.775270 
# 
# From -- ./inp_files/9243.got.cif
#   From: 2010.03.12/outbox.cif.g09.slc.cpg/sg46_5_cif.got.tgz:9243.got - 2010.04.14 02:56:35.
