data_PCOD8192703
_publ_section_title
;
Structure prediction by ZEFSAII (Michael W. Deem and Ramdas Pophale) SiO2 
 PCOD8192703
Probable space group: I M A 2
;
_chemical_formula_sum "Si O2"
_cell_formula_units_Z 40
_cell_length_a 10.011369
_cell_length_b 7.337401
_cell_length_c 26.056733
_cell_angle_alpha 90.000000
_cell_angle_beta 90.000000
_cell_angle_gamma 90.000000
_cell_volume 1914.060612
_symmetry_space_group_name_H-M "I M A 2"
_symmetry_group_IT_number 46
_symmetry_cell_setting 'orthorhombic'
loop_
_space_group_symop_operation_xyz
x,y,z
-x,-y,z
1/2-x,y,z
1/2+x,-y,z
1/2+x,1/2+y,1/2+z
1/2-x,1/2-y,1/2+z
-x,1/2+y,1/2+z
x,1/2-y,1/2+z
loop_
_atom_site_type_symbol
_atom_site_label
_atom_site_fract_x
_atom_site_fract_y
_atom_site_fract_z
Si Si1 0.902642 0.669225 0.056360
Si Si2 0.250000 0.002418 0.313382
Si Si3 0.500000 0.500000 0.882733
Si Si4 0.403760 0.337216 0.448504
Si Si5 0.250000 0.311551 0.237354
Si Si6 0.485223 0.213431 0.664154
Si Si7 0.250000 0.740975 0.217943
O O1 0.750000 0.596114 0.061563
O O2 0.942101 0.783341 0.107729
O O3 0.000000 0.500000 0.046396
O O4 0.914851 0.807820 0.009325
O O5 0.250000 0.215216 0.293688
O O6 0.122526 0.949576 0.346575
O O7 0.250000 0.870739 0.265623
O O8 0.543059 0.663212 0.918914
O O9 0.500000 0.500000 0.431616
O O10 0.250000 0.378664 0.432902
O O11 0.121538 0.236737 0.207470
O O12 0.250000 0.532167 0.239215
O O13 0.625344 0.294358 0.682240
O O14 0.500000 0.000000 0.657613
#
# Coordination Sequence:
#
# PCOD8192703 Si02
#       7
#     8   4   4   8   4   8   4
#     4  10  20  37  65  98 135 178 219 267 334 405
#     4  12  26  42  70  96 126 182 232 278 348 392
#     4  12  26  48  70 100 134 180 232 290 346 400
#     4  11  26  47  71 102 138 177 227 287 344 410
#     4  10  20  40  61  87 133 167 216 280 320 395
#     4   9  18  35  60  92 130 176 213 262 333 397
#     4  10  22  40  61  93 131 173 222 276 328 399
#
# _framework density 20.897981000000001
#
# number of rings (size 3 to 8) (size 9 to 14) (size 15 to 20)
#    0.000    1.600    3.000    1.200    5.600    2.400 
#    3.600    0.000    0.000    0.000    0.000    0.000 
#    0.000    0.000    0.000    0.000    0.000    0.000 
#
# Total GULP energy -247975.455692 kJ/mol
# GULP energy per Si atom -12398.772785 kJ/mol
# Density = 2.085042 g / cm^3
# Si number density = 20.897981 Si / 1000 Ang^3
#
#
#
# Elastic Constant Matrix: (Units=GPa)
#
#
# Indices 1 2 3 4 5 6 
#
# 1 194.1493 46.5032 60.2154 0.0000 0.0000 0.0000
# 2 46.5032 77.1673 29.7273 0.0000 0.0000 0.0000
# 3 60.2154 29.7273 112.8514 0.0000 0.0000 0.0000
# 4 0.0000 0.0000 0.0000 -0.3636 0.0000 0.0000
# 5 0.0000 0.0000 0.0000 0.0000 41.2848 0.0000
# 6 0.0000 0.0000 0.0000 0.0000 0.0000 -70.5779
#
#
#
# Elastic Compliance Matrix: (Units=1/GPa)
#
#
# Indices 1 2 3 4 5 6 
#
# 1 0.006735 -0.002976 -0.002810 0.000000 0.000000 0.000000
# 2 -0.002976 0.015738 -0.002558 0.000001 0.000000 0.000000
# 3 -0.002810 -0.002558 0.011034 0.000000 0.000000 0.000000
# 4 0.000000 0.000001 0.000000 -2.750174 0.000001 0.000001
# 5 0.000000 0.000000 0.000000 0.000001 0.024222 0.000000
# 6 0.000000 0.000000 0.000000 0.000001 0.000000 -0.014169
#
#
# Mechanical properties :
#
#
# Convention : Reuss Voigt Hill
#
# Bulk Modulus (GPa) = 59.45366 73.00664 66.23015
# Shear Modulus (GPa) = -1.86267 10.58346 4.36039
#
# Velocity S-wave (km/s) = -0.94512 2.25285 1.44604
# Velocity P-wave (km/s) = 5.22688 6.46357 5.87784
#
# Compressibility (1/GPa) = 0.01681982
#
# Stress axis : x y z
#
# Youngs Moduli (GPa) = 148.47850 63.54167 90.62830
#
# Poissons Ratio (x) = 0.18912 0.25463
# Poissons Ratio (y) = 0.44192 0.23178
# Poissons Ratio (z) = 0.41717 0.16251
#
# Static dielectric constant tensor:
#      x y z
#    x 3.521680 0.000000 0.000000 
#    y 0.000000 3.530960 0.000000 
#    z 0.000000 0.000000 4.119170 
# 
# 
# High freq. dielectric constant tensor:
#      x y z
#    x 1.840030 0.000000 0.000000 
#    y 0.000000 1.796290 0.000000 
#    z 0.000000 0.000000 1.829420 
# 
# From -- ./inp_files/24102.got.cif
#   From: 2010.03.12/outbox.cif.g09.slc.cpg/sg46_13_cif.got.tgz:24102.got - 2010.04.14 02:56:35.
