data_PCOD8192950
_publ_section_title
;
Structure prediction by ZEFSAII (Michael W. Deem and Ramdas Pophale) SiO2 
 PCOD8192950
Probable space group: I M A 2
;
_chemical_formula_sum "Si O2"
_cell_formula_units_Z 64
_cell_length_a 9.121085
_cell_length_b 28.214636
_cell_length_c 12.453819
_cell_angle_alpha 90.000000
_cell_angle_beta 90.000000
_cell_angle_gamma 90.000000
_cell_volume 3204.966573
_symmetry_space_group_name_H-M "I M A 2"
_symmetry_group_IT_number 46
_symmetry_cell_setting 'orthorhombic'
loop_
_space_group_symop_operation_xyz
x,y,z
-x,-y,z
1/2-x,y,z
1/2+x,-y,z
1/2+x,1/2+y,1/2+z
1/2-x,1/2-y,1/2+z
-x,1/2+y,1/2+z
x,1/2-y,1/2+z
loop_
_atom_site_type_symbol
_atom_site_label
_atom_site_fract_x
_atom_site_fract_y
_atom_site_fract_z
Si Si1 0.422205 0.050268 0.977590
Si Si2 0.921189 0.044940 0.331725
Si Si3 0.580756 0.611965 0.681380
Si Si4 0.922901 0.601522 0.258888
Si Si5 0.081488 0.208793 0.276604
Si Si6 0.588126 0.426363 0.060158
Si Si7 0.920846 0.199046 0.709894
Si Si8 0.411581 0.679300 0.976138
O O1 0.250000 0.040569 0.979577
O O2 0.471413 0.073556 0.865495
O O3 0.500000 0.000000 0.996539
O O4 0.468098 0.088302 0.069191
O O5 0.750000 0.042711 0.308504
O O6 0.958062 0.041869 0.458670
O O7 0.983539 0.092233 0.278534
O O8 0.000000 0.000000 0.276261
O O9 0.750000 0.600439 0.705832
O O10 0.555667 0.669065 0.683316
O O11 0.750000 0.609079 0.253848
O O12 0.973582 0.569267 0.157763
O O13 0.998141 0.652814 0.256228
O O14 0.250000 0.224839 0.278298
O O15 0.980144 0.254299 0.266431
O O16 0.040222 0.186479 0.391251
O O17 0.750000 0.440625 0.103078
O O18 0.594008 0.374216 0.013478
O O19 0.750000 0.192077 0.735340
O O20 0.949320 0.208534 0.583861
O O21 0.250000 0.693615 0.930471
#
# Coordination Sequence:
#
# PCOD8192950 Si02
#       8
#     8   8   8   8   8   8   8   8
#     4  10  23  42  62  87 121 161 205 255 307 366
#     4  11  22  36  56  84 116 149 188 236 292 352
#     4  10  22  40  59  84 118 155 199 248 300 358
#     4  10  21  38  61  87 118 155 200 252 304 356
#     4  11  22  35  58  89 119 155 199 250 305 362
#     4   9  19  36  57  81 112 149 188 235 292 354
#     4  10  22  39  59  86 120 159 203 248 300 364
#     4   9  18  36  57  78 110 150 190 237 291 350
#
# _framework density 19.969006
#
# number of rings (size 3 to 8) (size 9 to 14) (size 15 to 20)
#    0.000    2.000    1.250    2.625    0.000    8.000 
#    0.000    3.750    0.000    0.000    0.000    0.000 
#    0.000    0.000    0.000    0.000    0.000    0.000 
#
# Total GULP energy -396713.369988 kJ/mol
# GULP energy per Si atom -12397.292812 kJ/mol
# Density = 1.992356 g / cm^3
# Si number density = 19.969006 Si / 1000 Ang^3
#
#
#
# Elastic Constant Matrix: (Units=GPa)
#
#
# Indices 1 2 3 4 5 6 
#
# 1 87.0992 35.4482 48.0251 -0.0013 0.0000 0.0003
# 2 35.4482 62.6752 24.8945 -0.0039 -0.0020 0.0002
# 3 48.0251 24.8945 82.9238 -0.0064 0.0010 0.0014
# 4 -0.0013 -0.0039 -0.0064 22.1085 0.0005 0.0004
# 5 0.0000 -0.0020 0.0010 0.0005 14.7235 -0.0001
# 6 0.0003 0.0002 0.0014 0.0004 -0.0001 26.8894
#
#
#
# Elastic Compliance Matrix: (Units=1/GPa)
#
#
# Indices 1 2 3 4 5 6 
#
# 1 0.019503 -0.007430 -0.009065 -0.000003 0.000000 0.000000
# 2 -0.007430 0.020946 -0.001985 0.000003 0.000003 0.000000
# 3 -0.009065 -0.001985 0.017905 0.000004 -0.000002 -0.000001
# 4 -0.000003 0.000003 0.000004 0.045231 -0.000002 -0.000001
# 5 0.000000 0.000003 -0.000002 -0.000002 0.067918 0.000000
# 6 0.000000 0.000000 -0.000001 -0.000001 0.000000 0.037189
#
#
# Mechanical properties :
#
#
# Convention : Reuss Voigt Hill
#
# Bulk Modulus (GPa) = 46.74092 49.93708 48.33900
# Shear Modulus (GPa) = 19.77964 21.03297 20.40630
#
# Velocity S-wave (km/s) = 3.15066 3.24895 3.20018
# Velocity P-wave (km/s) = 6.05748 6.25586 6.15747
#
# Compressibility (1/GPa) = 0.02139453
#
# Stress axis : x y z
#
# Youngs Moduli (GPa) = 51.27338 47.74138 55.85052
#
# Poissons Ratio (x) = 0.35473 0.50626
# Poissons Ratio (y) = 0.38098 0.11086
# Poissons Ratio (z) = 0.46477 0.09477
#
# Static dielectric constant tensor:
#      x y z
#    x 3.673250 0.000000 0.000000 
#    y 0.000000 3.606920 0.000000 
#    z 0.000000 0.000000 3.888140 
# 
# 
# High freq. dielectric constant tensor:
#      x y z
#    x 1.781720 0.000000 0.000000 
#    y 0.000000 1.778830 0.000000 
#    z 0.000000 0.000000 1.775870 
# 
# From -- ./inp_files/9744.got.cif
#   From: 2010.03.12/outbox.cif.g09.slc.cpg/sg46_5_cif.got.tgz:9744.got - 2010.04.14 02:56:35.
