data_PCOD8192907
_publ_section_title
;
Structure prediction by ZEFSAII (Michael W. Deem and Ramdas Pophale) SiO2 
 PCOD8192907
Probable space group: I M A 2
;
_chemical_formula_sum "Si O2"
_cell_formula_units_Z 56
_cell_length_a 21.658632
_cell_length_b 12.320088
_cell_length_c 10.760437
_cell_angle_alpha 90.000000
_cell_angle_beta 90.000000
_cell_angle_gamma 90.000000
_cell_volume 2871.274681
_symmetry_space_group_name_H-M "I M A 2"
_symmetry_group_IT_number 46
_symmetry_cell_setting 'orthorhombic'
loop_
_space_group_symop_operation_xyz
x,y,z
-x,-y,z
1/2-x,y,z
1/2+x,-y,z
1/2+x,1/2+y,1/2+z
1/2-x,1/2-y,1/2+z
-x,1/2+y,1/2+z
x,1/2-y,1/2+z
loop_
_atom_site_type_symbol
_atom_site_label
_atom_site_fract_x
_atom_site_fract_y
_atom_site_fract_z
Si Si1 0.320146 0.079094 0.989400
Si Si2 0.679782 0.129895 0.412219
Si Si3 0.906753 0.435335 0.130367
Si Si4 0.320146 0.079094 0.271336
Si Si5 0.320218 0.629893 0.348515
Si Si6 0.407436 0.250000 0.380367
Si Si7 0.965498 0.829674 0.630367
O O1 0.250000 0.117589 0.964807
O O2 0.364529 0.144547 0.897076
O O3 0.325221 0.949557 0.967228
O O4 0.339833 0.103522 0.130368
O O5 0.750000 0.134982 0.462838
O O6 0.635408 0.078927 0.512106
O O7 0.656360 0.250001 0.380366
O O8 0.674778 0.050443 0.293508
O O9 0.864593 0.421077 0.248631
O O10 0.931578 0.556276 0.130365
O O11 0.961165 0.346884 0.130368
O O12 0.250000 0.117588 0.295929
O O13 0.364529 0.144547 0.363660
O O14 0.250000 0.634979 0.297895
O O15 0.448612 0.235498 0.504335
O O16 0.448611 0.264503 0.256399
#
# Coordination Sequence:
#
# PCOD8192907 Si02
#       7
#     8   8   8   8   8   8   8
#     4  10  21  37  60  92 128 162 201 252 312 372
#     4  10  22  39  63  91 123 160 205 258 311 366
#     4  11  23  44  61  90 118 168 210 259 297 374
#     4  10  21  37  60  92 128 162 201 252 312 372
#     4  10  22  39  63  91 123 160 205 258 311 366
#     4  12  21  44  60  94 121 172 200 264 304 378
#     4  11  26  40  67  86 131 165 216 250 310 372
#
# _framework density 19.503533000000001
#
# number of rings (size 3 to 8) (size 9 to 14) (size 15 to 20)
#    0.000    1.429    4.286    0.857    4.000    0.000 
#    0.000    0.000    0.000    5.143    0.000    0.000 
#    0.000    0.000    0.000    0.000    0.000    0.000 
#
# Total GULP energy -347195.364424 kJ/mol
# GULP energy per Si atom -12399.834444 kJ/mol
# Density = 1.945914 g / cm^3
# Si number density = 19.503533 Si / 1000 Ang^3
#
#
#
# Elastic Constant Matrix: (Units=GPa)
#
#
# Indices 1 2 3 4 5 6 
#
# 1 63.8887 14.2685 32.2348 0.0000 0.0000 0.0000
# 2 14.2685 87.0049 15.9271 0.0000 0.0000 0.0000
# 3 32.2348 15.9271 104.6445 0.0000 0.0000 0.0000
# 4 0.0000 0.0000 0.0000 25.1873 0.0000 0.0000
# 5 0.0000 0.0000 0.0000 0.0000 18.7060 0.0000
# 6 0.0000 0.0000 0.0000 0.0000 0.0000 21.0501
#
#
#
# Elastic Compliance Matrix: (Units=1/GPa)
#
#
# Indices 1 2 3 4 5 6 
#
# 1 0.018895 -0.002092 -0.005502 0.000000 0.000000 0.000000
# 2 -0.002092 0.012055 -0.001190 0.000000 0.000000 0.000000
# 3 -0.005502 -0.001190 0.011432 0.000000 0.000000 0.000000
# 4 0.000000 0.000000 0.000000 0.039703 0.000000 0.000000
# 5 0.000000 0.000000 0.000000 0.000000 0.053459 0.000000
# 6 0.000000 0.000000 0.000000 0.000000 0.000000 0.047506
#
#
# Mechanical properties :
#
#
# Convention : Reuss Voigt Hill
#
# Bulk Modulus (GPa) = 40.30016 42.26655 41.28336
# Shear Modulus (GPa) = 23.93615 25.86253 24.89934
#
# Velocity S-wave (km/s) = 3.50705 3.64544 3.57691
# Velocity P-wave (km/s) = 6.09155 6.27991 6.18645
#
# Compressibility (1/GPa) = 0.02481380
#
# Stress axis : x y z
#
# Youngs Moduli (GPa) = 52.92274 82.95637 87.47177
#
# Poissons Ratio (x) = 0.17351 0.48129
# Poissons Ratio (y) = 0.11069 0.10413
# Poissons Ratio (z) = 0.29119 0.09875
#
# Static dielectric constant tensor:
#      x y z
#    x 3.583670 0.000000 0.000000 
#    y 0.000000 3.535910 0.000000 
#    z 0.000000 0.000000 3.523880 
# 
# 
# High freq. dielectric constant tensor:
#      x y z
#    x 1.758000 0.000000 0.000000 
#    y 0.000000 1.763850 0.000000 
#    z 0.000000 0.000000 1.759640 
# 
# From -- ./inp_files/12378.got.cif
#   From: 2010.03.12/outbox.cif.g09.slc.cpg/sg46_7_cif.got.tgz:12378.got - 2010.04.14 02:56:35.
