data_PCOD8192699
_publ_section_title
;
Structure prediction by ZEFSAII (Michael W. Deem and Ramdas Pophale) SiO2 
 PCOD8192699
Probable space group: I M A 2
;
_chemical_formula_sum "Si O2"
_cell_formula_units_Z 64
_cell_length_a 23.215247
_cell_length_b 13.911906
_cell_length_c 9.328579
_cell_angle_alpha 90.000000
_cell_angle_beta 90.000000
_cell_angle_gamma 90.000000
_cell_volume 3012.835619
_symmetry_space_group_name_H-M "I M A 2"
_symmetry_group_IT_number 46
_symmetry_cell_setting 'orthorhombic'
loop_
_space_group_symop_operation_xyz
x,y,z
-x,-y,z
1/2-x,y,z
1/2+x,-y,z
1/2+x,1/2+y,1/2+z
1/2-x,1/2-y,1/2+z
-x,1/2+y,1/2+z
x,1/2-y,1/2+z
loop_
_atom_site_type_symbol
_atom_site_label
_atom_site_fract_x
_atom_site_fract_y
_atom_site_fract_z
Si Si1 0.813123 0.569699 0.331280
Si Si2 0.849347 0.134903 0.744263
Si Si3 0.315962 0.567308 0.802091
Si Si4 0.186649 0.381058 0.645713
Si Si5 0.541036 0.643868 0.980674
Si Si6 0.098391 0.270253 0.236395
Si Si7 0.419141 0.571765 0.005620
Si Si8 0.184856 0.698081 0.542556
O O1 0.750000 0.613545 0.292886
O O2 0.815103 0.464695 0.261047
O O3 0.819336 0.556654 0.501599
O O4 0.863989 0.638716 0.281590
O O5 0.910863 0.103874 0.672642
O O6 0.818650 0.201368 0.626131
O O7 0.854819 0.189637 0.898192
O O8 0.250000 0.597111 0.844337
O O9 0.320930 0.452750 0.780187
O O10 0.360730 0.601383 0.922440
O O11 0.334445 0.616408 0.653433
O O12 0.250000 0.332988 0.654234
O O13 0.139544 0.298644 0.645386
O O14 0.570497 0.712862 0.866151
O O15 0.473797 0.629645 0.943421
O O16 0.572275 0.541470 0.987473
O O17 0.546933 0.694211 0.134980
O O18 0.250000 0.682052 0.488366
#
# Coordination Sequence:
#
# PCOD8192699 Si02
#       8
#     8   8   8   8   8   8   8   8
#     4  11  22  38  65 103 145 179 218 281 352 420
#     4  12  24  41  65  92 137 179 226 279 343 406
#     4  10  21  40  69 101 138 178 222 281 345 411
#     4  10  20  37  65 103 144 177 220 276 341 420
#     4  11  26  44  70  91 136 181 234 287 330 398
#     4  12  22  44  69 102 131 187 229 278 344 413
#     4  11  25  47  64  98 135 179 230 289 338 396
#     4  11  23  39  63  98 135 176 220 272 337 413
#
# _framework density 21.242446000000001
#
# number of rings (size 3 to 8) (size 9 to 14) (size 15 to 20)
#    0.000    1.000    5.000    2.250    0.000    4.500 
#    0.000    0.000    0.000    4.500    0.000    0.000 
#    0.000    0.000    0.000    0.000    0.000    0.000 
#
# Total GULP energy -396610.262477 kJ/mol
# GULP energy per Si atom -12394.070702 kJ/mol
# Density = 2.119410 g / cm^3
# Si number density = 21.242446 Si / 1000 Ang^3
#
#
#
# Elastic Constant Matrix: (Units=GPa)
#
#
# Indices 1 2 3 4 5 6 
#
# 1 114.7089 47.1657 64.6387 0.0000 0.0000 0.0000
# 2 47.1657 114.4511 56.3349 0.0000 0.0000 0.0000
# 3 64.6387 56.3349 123.0379 0.0000 0.0000 0.0000
# 4 0.0000 0.0000 0.0000 45.3417 0.0000 0.0000
# 5 0.0000 0.0000 0.0000 0.0000 31.2967 0.0000
# 6 0.0000 0.0000 0.0000 0.0000 0.0000 25.7757
#
#
#
# Elastic Compliance Matrix: (Units=1/GPa)
#
#
# Indices 1 2 3 4 5 6 
#
# 1 0.012942 -0.002565 -0.005625 0.000000 0.000000 0.000000
# 2 -0.002565 0.011788 -0.004050 0.000000 0.000000 0.000000
# 3 -0.005625 -0.004050 0.012937 0.000000 0.000000 0.000000
# 4 0.000000 0.000000 0.000000 0.022055 0.000000 0.000000
# 5 0.000000 0.000000 0.000000 0.000000 0.031952 0.000000
# 6 0.000000 0.000000 0.000000 0.000000 0.000000 0.038796
#
#
# Mechanical properties :
#
#
# Convention : Reuss Voigt Hill
#
# Bulk Modulus (GPa) = 75.82782 76.49739 76.16261
# Shear Modulus (GPa) = 31.37864 32.75340 32.06602
#
# Velocity S-wave (km/s) = 3.84756 3.93094 3.88948
# Velocity P-wave (km/s) = 7.45065 7.52946 7.49016
#
# Compressibility (1/GPa) = 0.01318777
#
# Stress axis : x y z
#
# Youngs Moduli (GPa) = 77.26860 84.83431 77.29870
#
# Poissons Ratio (x) = 0.21758 0.43479
# Poissons Ratio (y) = 0.19818 0.31304
# Poissons Ratio (z) = 0.43462 0.34356
#
# Static dielectric constant tensor:
#      x y z
#    x 3.706800 0.000000 0.000000 
#    y 0.000000 3.895110 0.000000 
#    z 0.000000 0.000000 3.903640 
# 
# 
# High freq. dielectric constant tensor:
#      x y z
#    x 1.812480 0.000000 0.000000 
#    y 0.000000 1.848380 0.000000 
#    z 0.000000 0.000000 1.835500 
# 
# From -- ./inp_files/7963.got.cif
#   From: 2010.03.12/outbox.cif.g09.slc.cpg/sg46_4_cif.got.tgz:7963.got - 2010.04.14 02:56:35.
