data_PCOD8192462
_publ_section_title
;
Structure prediction by ZEFSAII (Michael W. Deem and Ramdas Pophale) SiO2 
 PCOD8192462
Probable space group: I M A 2
;
_chemical_formula_sum "Si O2"
_cell_formula_units_Z 64
_cell_length_a 8.771109
_cell_length_b 20.106415
_cell_length_c 19.665556
_cell_angle_alpha 90.000000
_cell_angle_beta 90.000000
_cell_angle_gamma 90.000000
_cell_volume 3468.130093
_symmetry_space_group_name_H-M "I M A 2"
_symmetry_group_IT_number 46
_symmetry_cell_setting 'orthorhombic'
loop_
_space_group_symop_operation_xyz
x,y,z
-x,-y,z
1/2-x,y,z
1/2+x,-y,z
1/2+x,1/2+y,1/2+z
1/2-x,1/2-y,1/2+z
-x,1/2+y,1/2+z
x,1/2-y,1/2+z
loop_
_atom_site_type_symbol
_atom_site_label
_atom_site_fract_x
_atom_site_fract_y
_atom_site_fract_z
Si Si1 0.929625 0.684481 0.457540
Si Si2 0.427453 0.824389 0.098570
Si Si3 0.930091 0.430071 0.712418
Si Si4 0.070303 0.431645 0.357910
Si Si5 0.071959 0.067778 0.704341
Si Si6 0.073583 0.825433 0.453865
Si Si7 0.569919 0.570292 0.855677
Si Si8 0.423278 0.826188 0.611349
O O1 0.750000 0.698036 0.452880
O O2 0.985404 0.628956 0.404469
O O3 0.972042 0.659140 0.532712
O O4 0.020035 0.750913 0.438256
O O5 0.250000 0.829690 0.078156
O O6 0.474487 0.875582 0.156813
O O7 0.463563 0.750598 0.125862
O O8 0.750000 0.437508 0.721282
O O9 0.000000 0.500000 0.688519
O O10 0.001730 0.406877 0.783555
O O11 0.250000 0.438721 0.361418
O O12 0.012782 0.418277 0.280920
O O13 0.000000 0.500000 0.386311
O O14 0.250000 0.057264 0.704008
O O15 0.032636 0.129573 0.656936
O O16 0.000000 0.000000 0.675033
O O17 0.250000 0.832439 0.432987
O O18 0.048322 0.842813 0.532609
O O19 0.970473 0.875487 0.411597
O O20 0.500000 0.500000 0.878496
O O21 0.750000 0.562875 0.849137
O O22 0.250000 0.841831 0.631889
#
# Coordination Sequence:
#
# PCOD8192462 Si02
#       8
#     8   8   8   8   8   8   8   8
#     4  10  20  35  55  80 109 139 177 224 269 314
#     4   9  20  37  55  77 107 142 179 217 262 319
#     4  10  20  36  56  79 109 143 180 221 267 319
#     4   9  20  36  53  77 107 139 176 217 261 312
#     4  10  20  35  54  76 104 136 171 212 258 308
#     4  10  21  38  57  78 107 142 179 218 264 320
#     4  11  22  37  57  81 109 140 178 222 268 319
#     4   9  19  36  55  76 103 135 173 215 257 307
#
# _framework density 18.453748999999998
#
# number of rings (size 3 to 8) (size 9 to 14) (size 15 to 20)
#    0.000    2.250    0.000    4.125    0.000    7.000 
#    0.000    5.000    0.000    0.000    0.000    0.000 
#    0.000    0.000    0.000    0.000    0.000    0.000 
#
# Total GULP energy -396904.519923 kJ/mol
# GULP energy per Si atom -12403.266248 kJ/mol
# Density = 1.841175 g / cm^3
# Si number density = 18.453749 Si / 1000 Ang^3
#
#
#
# Elastic Constant Matrix: (Units=GPa)
#
#
# Indices 1 2 3 4 5 6 
#
# 1 76.7141 41.1693 38.7665 0.0000 0.0000 0.0000
# 2 41.1693 118.6411 79.3498 0.0000 0.0000 0.0000
# 3 38.7665 79.3498 91.0439 0.0000 0.0000 0.0000
# 4 0.0000 0.0000 0.0000 38.9348 0.0000 0.0000
# 5 0.0000 0.0000 0.0000 0.0000 31.3243 0.0000
# 6 0.0000 0.0000 0.0000 0.0000 0.0000 33.9558
#
#
#
# Elastic Compliance Matrix: (Units=1/GPa)
#
#
# Indices 1 2 3 4 5 6 
#
# 1 0.016919 -0.002524 -0.005004 0.000000 0.000000 0.000000
# 2 -0.002524 0.020585 -0.016867 0.000000 0.000000 0.000000
# 3 -0.005004 -0.016867 0.027815 0.000000 0.000000 0.000000
# 4 0.000000 0.000000 0.000000 0.025684 0.000000 0.000000
# 5 0.000000 0.000000 0.000000 0.000000 0.031924 0.000000
# 6 0.000000 0.000000 0.000000 0.000000 0.000000 0.029450
#
#
# Mechanical properties :
#
#
# Convention : Reuss Voigt Hill
#
# Bulk Modulus (GPa) = 60.49890 67.21893 63.85891
# Shear Modulus (GPa) = 24.19247 29.31723 26.75485
#
# Velocity S-wave (km/s) = 3.62467 3.99016 3.81180
# Velocity P-wave (km/s) = 7.09739 7.59823 7.35208
#
# Compressibility (1/GPa) = 0.01652923
#
# Stress axis : x y z
#
# Youngs Moduli (GPa) = 59.10608 48.57830 35.95236
#
# Poissons Ratio (x) = 0.12261 0.17991
# Poissons Ratio (y) = 0.14918 0.60639
# Poissons Ratio (z) = 0.29578 0.81935
#
# Static dielectric constant tensor:
#      x y z
#    x 3.403240 0.000000 0.000000 
#    y 0.000000 3.428340 0.000000 
#    z 0.000000 0.000000 3.425290 
# 
# 
# High freq. dielectric constant tensor:
#      x y z
#    x 1.723560 0.000000 0.000000 
#    y 0.000000 1.720920 0.000000 
#    z 0.000000 0.000000 1.713710 
# 
# From -- ./inp_files/21348.got.cif
#   From: 2010.03.12/outbox.cif.g09.slc.cpg/sg46_11_cif.got.tgz:21348.got - 2010.04.14 02:56:35.
