data_PCOD8192535
_publ_section_title
;
Structure prediction by ZEFSAII (Michael W. Deem and Ramdas Pophale) SiO2 
 PCOD8192535
Probable space group: I M A 2
;
_chemical_formula_sum "Si O2"
_cell_formula_units_Z 56
_cell_length_a 15.607654
_cell_length_b 19.886369
_cell_length_c 8.954337
_cell_angle_alpha 90.000000
_cell_angle_beta 90.000000
_cell_angle_gamma 90.000000
_cell_volume 2779.243238
_symmetry_space_group_name_H-M "I M A 2"
_symmetry_group_IT_number 46
_symmetry_cell_setting 'orthorhombic'
loop_
_space_group_symop_operation_xyz
x,y,z
-x,-y,z
1/2-x,y,z
1/2+x,-y,z
1/2+x,1/2+y,1/2+z
1/2-x,1/2-y,1/2+z
-x,1/2+y,1/2+z
x,1/2-y,1/2+z
loop_
_atom_site_type_symbol
_atom_site_label
_atom_site_fract_x
_atom_site_fract_y
_atom_site_fract_z
Si Si1 0.653057 0.434160 0.326810
Si Si2 0.988552 0.158836 0.717433
Si Si3 0.914504 0.656485 0.707614
Si Si4 0.845734 0.969984 0.342080
Si Si5 0.059486 0.940720 0.125687
Si Si6 0.960582 0.750100 0.465851
Si Si7 0.151774 0.072393 0.668681
O O1 0.750000 0.407725 0.301264
O O2 0.587398 0.395406 0.217409
O O3 0.629221 0.423262 0.500072
O O4 0.647117 0.512394 0.287018
O O5 0.084983 0.128593 0.722024
O O6 0.978008 0.206449 0.573906
O O7 0.978498 0.202417 0.867767
O O8 0.849838 0.594244 0.729207
O O9 0.009025 0.626083 0.675240
O O10 0.894146 0.705280 0.566708
O O11 0.908064 0.699965 0.858950
O O12 0.750000 0.995999 0.354575
O O13 0.880409 0.951602 0.505700
O O14 0.899425 0.031860 0.278436
O O15 0.000000 0.000000 0.057239
O O16 0.250000 0.100518 0.660787
#
# Coordination Sequence:
#
# PCOD8192535 Si02
#       7
#     8   8   8   8   8   8   8
#     4  11  23  38  61  90 117 150 195 246 302 350
#     4  11  21  41  62  83 118 158 192 249 285 348
#     4  10  20  38  58  86 109 155 195 236 281 352
#     4  10  21  37  57  89 122 147 185 239 292 349
#     4  10  20  35  60  87 116 150 191 237 298 346
#     4  10  22  37  61  84 112 156 204 233 286 335
#     4  10  22  38  60  91 121 152 192 240 297 353
#
# _framework density 20.149369
#
# number of rings (size 3 to 8) (size 9 to 14) (size 15 to 20)
#    0.000    1.714    2.857    1.714    4.000    1.143 
#    0.000    5.000    0.000    0.000    0.000    0.000 
#    0.000    0.000    0.000    0.000    0.000    0.000 
#
# Total GULP energy -347107.611362 kJ/mol
# GULP energy per Si atom -12396.700406 kJ/mol
# Density = 2.010351 g / cm^3
# Si number density = 20.149369 Si / 1000 Ang^3
#
#
#
# Elastic Constant Matrix: (Units=GPa)
#
#
# Indices 1 2 3 4 5 6 
#
# 1 97.9251 34.6094 29.6783 0.0000 0.0000 0.0000
# 2 34.6094 75.3122 31.9010 0.0000 0.0000 0.0000
# 3 29.6783 31.9010 108.7188 0.0000 0.0000 0.0000
# 4 0.0000 0.0000 0.0000 34.0251 0.0000 0.0000
# 5 0.0000 0.0000 0.0000 0.0000 23.5103 0.0000
# 6 0.0000 0.0000 0.0000 0.0000 0.0000 14.7904
#
#
#
# Elastic Compliance Matrix: (Units=1/GPa)
#
#
# Indices 1 2 3 4 5 6 
#
# 1 0.012555 -0.004931 -0.001980 0.000000 0.000000 0.000000
# 2 -0.004931 0.017099 -0.003671 0.000000 0.000000 0.000000
# 3 -0.001980 -0.003671 0.010816 0.000000 0.000000 0.000000
# 4 0.000000 0.000000 0.000000 0.029390 0.000000 0.000000
# 5 0.000000 0.000000 0.000000 0.000000 0.042535 0.000000
# 6 0.000000 0.000000 0.000000 0.000000 0.000000 0.067612
#
#
# Mechanical properties :
#
#
# Convention : Reuss Voigt Hill
#
# Bulk Modulus (GPa) = 51.80028 52.70372 52.25200
# Shear Modulus (GPa) = 24.08414 26.84964 25.46689
#
# Velocity S-wave (km/s) = 3.46103 3.65434 3.55900
# Velocity P-wave (km/s) = 6.46031 6.63468 6.54807
#
# Compressibility (1/GPa) = 0.01930491
#
# Stress axis : x y z
#
# Youngs Moduli (GPa) = 79.65139 58.48288 92.45606
#
# Poissons Ratio (x) = 0.28835 0.18310
# Poissons Ratio (y) = 0.39273 0.33944
# Poissons Ratio (z) = 0.15775 0.21471
#
# Static dielectric constant tensor:
#      x y z
#    x 3.419390 0.000000 0.000000 
#    y 0.000000 3.743400 0.000000 
#    z 0.000000 0.000000 3.835880 
# 
# 
# High freq. dielectric constant tensor:
#      x y z
#    x 1.751380 0.000000 0.000000 
#    y 0.000000 1.786800 0.000000 
#    z 0.000000 0.000000 1.802550 
# 
# From -- ./inp_files/5917.got.cif
#   From: 2010.03.12/outbox.cif.g09.slc.cpg/sg46_3_cif.got.tgz:5917.got - 2010.04.14 02:56:35.
