data_PCOD8192314
_publ_section_title
;
Structure prediction by ZEFSAII (Michael W. Deem and Ramdas Pophale) SiO2 
 PCOD8192314
Probable space group: I M A 2
;
_chemical_formula_sum "Si O2"
_cell_formula_units_Z 56
_cell_length_a 9.203756
_cell_length_b 23.666657
_cell_length_c 13.680748
_cell_angle_alpha 90.000000
_cell_angle_beta 90.000000
_cell_angle_gamma 90.000000
_cell_volume 2979.969756
_symmetry_space_group_name_H-M "I M A 2"
_symmetry_group_IT_number 46
_symmetry_cell_setting 'orthorhombic'
loop_
_space_group_symop_operation_xyz
x,y,z
-x,-y,z
1/2-x,y,z
1/2+x,-y,z
1/2+x,1/2+y,1/2+z
1/2-x,1/2-y,1/2+z
-x,1/2+y,1/2+z
x,1/2-y,1/2+z
loop_
_atom_site_type_symbol
_atom_site_label
_atom_site_fract_x
_atom_site_fract_y
_atom_site_fract_z
Si Si1 0.916600 0.386467 0.543400
Si Si2 0.079622 0.668235 0.065738
Si Si3 0.420248 0.329561 0.266328
Si Si4 0.082265 0.944769 0.235788
Si Si5 0.582557 0.226226 0.937106
Si Si6 0.420557 0.056139 0.874894
Si Si7 0.920616 0.056694 0.455179
O O1 0.750000 0.402392 0.518793
O O2 0.949748 0.394627 0.658690
O O3 0.948680 0.321431 0.518780
O O4 0.018885 0.427965 0.481509
O O5 0.250000 0.670467 0.090320
O O6 0.990566 0.682003 0.162159
O O7 0.039508 0.713990 0.983333
O O8 0.031194 0.607350 0.025460
O O9 0.250000 0.318956 0.259654
O O10 0.485138 0.284406 0.342157
O O11 0.456663 0.393325 0.299974
O O12 0.250000 0.960822 0.237850
O O13 0.031530 0.926903 0.344526
O O14 0.000000 0.000000 0.198726
O O15 0.750000 0.225367 0.903832
O O16 0.250000 0.044692 0.883095
O O17 0.500000 0.000000 0.835212
O O18 0.750000 0.046005 0.461949
O O19 0.000000 0.000000 0.490869
#
# Coordination Sequence:
#
# PCOD8192314 Si02
#       7
#     8   8   8   8   8   8   8
#     4   9  17  30  50  76 105 136 170 213 263 313
#     4  10  21  37  59  82 104 137 178 219 263 313
#     4  10  22  38  55  78 109 141 174 218 267 316
#     4   9  17  29  46  70 101 134 168 207 253 305
#     4   9  19  36  57  80 105 135 174 219 264 313
#     4  10  20  33  50  74 105 141 179 219 264 312
#     4   9  19  35  53  76 106 138 174 217 262 310
#
# _framework density 18.792137
#
# number of rings (size 3 to 8) (size 9 to 14) (size 15 to 20)
#    0.000    2.571    0.000    1.286    0.000    6.286 
#    0.000    7.143    0.000    3.429    0.000    0.000 
#    0.000    0.000    0.000    0.000    0.000    0.000 
#
# Total GULP energy -347239.143195 kJ/mol
# GULP energy per Si atom -12401.397971 kJ/mol
# Density = 1.874936 g / cm^3
# Si number density = 18.792137 Si / 1000 Ang^3
#
#
#
# Elastic Constant Matrix: (Units=GPa)
#
#
# Indices 1 2 3 4 5 6 
#
# 1 74.3410 51.9324 53.6891 0.0000 0.0000 0.0000
# 2 51.9324 113.4599 60.3371 -0.0003 0.0000 0.0000
# 3 53.6891 60.3371 116.1816 -0.0007 0.0000 0.0001
# 4 0.0000 -0.0003 -0.0007 21.7944 0.0000 0.0000
# 5 0.0000 0.0000 0.0000 0.0000 26.4808 0.0000
# 6 0.0000 0.0000 0.0001 0.0000 0.0000 28.4799
#
#
#
# Elastic Compliance Matrix: (Units=1/GPa)
#
#
# Indices 1 2 3 4 5 6 
#
# 1 0.023536 -0.006892 -0.007297 0.000000 0.000000 0.000000
# 2 -0.006892 0.014195 -0.004187 0.000000 0.000000 0.000000
# 3 -0.007297 -0.004187 0.014154 0.000000 0.000000 0.000000
# 4 0.000000 0.000000 0.000000 0.045883 0.000000 0.000000
# 5 0.000000 0.000000 0.000000 0.000000 0.037763 0.000000
# 6 0.000000 0.000000 0.000000 0.000000 0.000000 0.035113
#
#
# Mechanical properties :
#
#
# Convention : Reuss Voigt Hill
#
# Bulk Modulus (GPa) = 66.08350 70.65551 68.36951
# Shear Modulus (GPa) = 23.53599 24.55260 24.04429
#
# Velocity S-wave (km/s) = 3.54282 3.61852 3.58087
# Velocity P-wave (km/s) = 7.20953 7.42552 7.31832
#
# Compressibility (1/GPa) = 0.01513237
#
# Stress axis : x y z
#
# Youngs Moduli (GPa) = 42.48767 70.44726 70.65340
#
# Poissons Ratio (x) = 0.48556 0.51555
# Poissons Ratio (y) = 0.29284 0.29582
# Poissons Ratio (z) = 0.31003 0.29495
#
# Static dielectric constant tensor:
#      x y z
#    x 3.405410 0.000000 0.000000 
#    y 0.000000 3.462300 0.000000 
#    z 0.000000 0.000000 3.413650 
# 
# 
# High freq. dielectric constant tensor:
#      x y z
#    x 1.725130 0.000000 0.000000 
#    y 0.000000 1.725440 0.000000 
#    z 0.000000 0.000000 1.727210 
# 
# From -- ./inp_files/14157.got.cif
#   From: 2010.03.12/outbox.cif.g09.slc.cpg/sg46_8_cif.got.tgz:14157.got - 2010.04.14 02:56:35.
