data_PCOD8192561
_publ_section_title
;
Structure prediction by ZEFSAII (Michael W. Deem and Ramdas Pophale) SiO2 
 PCOD8192561
Probable space group: I M A 2
;
_chemical_formula_sum "Si O2"
_cell_formula_units_Z 48
_cell_length_a 8.648814
_cell_length_b 29.740265
_cell_length_c 9.911394
_cell_angle_alpha 90.000000
_cell_angle_beta 90.000000
_cell_angle_gamma 90.000000
_cell_volume 2549.389143
_symmetry_space_group_name_H-M "I M A 2"
_symmetry_group_IT_number 46
_symmetry_cell_setting 'orthorhombic'
loop_
_space_group_symop_operation_xyz
x,y,z
-x,-y,z
1/2-x,y,z
1/2+x,-y,z
1/2+x,1/2+y,1/2+z
1/2-x,1/2-y,1/2+z
-x,1/2+y,1/2+z
x,1/2-y,1/2+z
loop_
_atom_site_type_symbol
_atom_site_label
_atom_site_fract_x
_atom_site_fract_y
_atom_site_fract_z
Si Si1 0.432731 0.952157 0.646700
Si Si2 0.072075 0.781134 0.165536
Si Si3 0.930266 0.952901 0.360277
Si Si4 0.430608 0.623236 0.354814
Si Si5 0.929566 0.782958 0.879125
Si Si6 0.425904 0.614769 0.661873
O O1 0.250000 0.955795 0.643568
O O2 0.492256 0.937658 0.499991
O O3 0.488809 0.914997 0.753067
O O4 0.500000 0.000000 0.692070
O O5 0.250000 0.767106 0.185665
O O6 0.046122 0.833394 0.198407
O O7 0.963836 0.753458 0.264948
O O8 0.026927 0.770717 0.011732
O O9 0.750000 0.959351 0.385083
O O10 0.958450 0.915060 0.248961
O O11 0.000000 0.000000 0.309043
O O12 0.250000 0.634406 0.337101
O O13 0.525001 0.668214 0.321946
O O14 0.464755 0.606074 0.505569
O O15 0.750000 0.782082 0.916150
O O16 0.250000 0.600713 0.694257
#
# Coordination Sequence:
#
# PCOD8192561 Si02
#       6
#     8   8   8   8   8   8
#     4  10  20  36  57  80 108 141 179 223 268 320
#     4  10  21  39  60  80 110 150 185 220 272 336
#     4  11  22  36  55  79 109 143 179 221 268 319
#     4   9  20  38  58  80 109 145 181 218 270 333
#     4  11  22  36  57  85 114 142 182 234 275 315
#     4   9  19  37  58  80 106 139 180 222 265 319
#
# _framework density 18.828039
#
# number of rings (size 3 to 8) (size 9 to 14) (size 15 to 20)
#    0.000    2.000    0.000    6.000    0.000    6.667 
#    0.000    3.333    0.000    0.000    0.000    0.000 
#    0.000    0.000    0.000    0.000    0.000    0.000 
#
# Total GULP energy -297714.928007 kJ/mol
# GULP energy per Si atom -12404.788667 kJ/mol
# Density = 1.878519 g / cm^3
# Si number density = 18.828039 Si / 1000 Ang^3
#
#
#
# Elastic Constant Matrix: (Units=GPa)
#
#
# Indices 1 2 3 4 5 6 
#
# 1 76.8376 35.0536 23.6322 -0.0007 -0.0001 0.0001
# 2 35.0536 96.7451 69.3490 -0.0033 -0.0003 0.0003
# 3 23.6322 69.3490 88.7399 -0.0034 -0.0012 0.0000
# 4 -0.0007 -0.0033 -0.0034 41.4164 -0.0004 0.0002
# 5 -0.0001 -0.0003 -0.0012 -0.0004 30.1924 -0.0005
# 6 0.0001 0.0003 0.0000 0.0002 -0.0005 33.0659
#
#
#
# Elastic Compliance Matrix: (Units=1/GPa)
#
#
# Indices 1 2 3 4 5 6 
#
# 1 0.015606 -0.006083 0.000598 0.000000 0.000000 0.000000
# 2 -0.006083 0.025873 -0.018599 0.000000 -0.000001 0.000000
# 3 0.000598 -0.018599 0.025645 0.000001 0.000001 0.000000
# 4 0.000000 0.000000 0.000001 0.024145 0.000000 0.000000
# 5 0.000000 -0.000001 0.000001 0.000000 0.033121 0.000000
# 6 0.000000 0.000000 0.000000 0.000000 0.000000 0.030243
#
#
# Mechanical properties :
#
#
# Convention : Reuss Voigt Hill
#
# Bulk Modulus (GPa) = 52.75818 57.59912 55.17865
# Shear Modulus (GPa) = 23.90984 29.88746 26.89865
#
# Velocity S-wave (km/s) = 3.56744 3.98853 3.78385
# Velocity P-wave (km/s) = 6.71198 7.20207 6.96134
#
# Compressibility (1/GPa) = 0.01895441
#
# Stress axis : x y z
#
# Youngs Moduli (GPa) = 64.07937 38.65055 38.99423
#
# Poissons Ratio (x) = 0.23511 -0.02331
# Poissons Ratio (y) = 0.38979 0.72527
# Poissons Ratio (z) = -0.03830 0.71887
#
# Static dielectric constant tensor:
#      x y z
#    x 3.429940 0.000000 0.000000 
#    y 0.000000 3.465500 0.000000 
#    z 0.000000 0.000000 3.431960 
# 
# 
# High freq. dielectric constant tensor:
#      x y z
#    x 1.737830 0.000000 0.000000 
#    y 0.000000 1.732270 0.000000 
#    z 0.000000 0.000000 1.732350 
# 
# From -- ./inp_files/3928.got.cif
#   From: 2010.03.12/outbox.cif.g09.slc.cpg/sg46_2_cif.got.tgz:3928.got - 2010.04.14 02:56:35.
