data_PCOD8192682
_publ_section_title
;
Structure prediction by ZEFSAII (Michael W. Deem and Ramdas Pophale) SiO2 
 PCOD8192682
Probable space group: I M A 2
;
_chemical_formula_sum "Si O2"
_cell_formula_units_Z 64
_cell_length_a 14.080943
_cell_length_b 24.084743
_cell_length_c 8.767964
_cell_angle_alpha 90.000000
_cell_angle_beta 90.000000
_cell_angle_gamma 90.000000
_cell_volume 2973.531304
_symmetry_space_group_name_H-M "I M A 2"
_symmetry_group_IT_number 46
_symmetry_cell_setting 'orthorhombic'
loop_
_space_group_symop_operation_xyz
x,y,z
-x,-y,z
1/2-x,y,z
1/2+x,-y,z
1/2+x,1/2+y,1/2+z
1/2-x,1/2-y,1/2+z
-x,1/2+y,1/2+z
x,1/2-y,1/2+z
loop_
_atom_site_type_symbol
_atom_site_label
_atom_site_fract_x
_atom_site_fract_y
_atom_site_fract_z
Si Si1 0.535134 0.769791 0.043870
Si Si2 0.641516 0.694615 0.255981
Si Si3 0.644365 0.300888 0.050156
Si Si4 0.644645 0.090129 0.355341
Si Si5 0.598121 0.022504 0.636727
Si Si6 0.855363 0.574808 0.360702
Si Si7 0.358366 0.876368 0.824501
Si Si8 0.492130 0.612613 0.591870
O O1 0.606800 0.722135 0.100189
O O2 0.427481 0.749230 0.029366
O O3 0.541670 0.828452 0.138844
O O4 0.569320 0.780127 0.874962
O O5 0.750000 0.710891 0.289805
O O6 0.626857 0.628418 0.254163
O O7 0.750000 0.277594 0.018103
O O8 0.636510 0.320778 0.225029
O O9 0.622252 0.351711 0.936924
O O10 0.750000 0.091552 0.278110
O O11 0.652299 0.041032 0.482476
O O12 0.558782 0.080604 0.233112
O O13 0.580701 0.075581 0.743044
O O14 0.500000 0.000000 0.574267
O O15 0.646578 0.976828 0.745123
O O16 0.750000 0.578030 0.436156
O O17 0.932260 0.572915 0.501109
O O18 0.250000 0.897029 0.841911
O O19 0.405951 0.866196 0.986233
#
# Coordination Sequence:
#
# PCOD8192682 Si02
#       8
#     8   8   8   8   8   8   8   8
#     4  11  21  36  59  86 123 162 199 248 296 351
#     4  10  22  38  60  87 117 156 205 253 301 350
#     4   9  19  35  57  87 121 164 206 239 281 354
#     4  10  22  39  60  89 128 161 193 245 308 365
#     4  11  21  40  67  89 115 155 203 252 301 363
#     4  10  21  40  66  92 117 156 212 257 295 356
#     4  10  20  37  62  89 120 157 202 245 294 360
#     4  11  22  38  58  92 122 163 198 246 309 359
#
# _framework density 21.523230000000002
#
# number of rings (size 3 to 8) (size 9 to 14) (size 15 to 20)
#    0.000    1.750    1.250    4.875    1.750    1.500 
#    2.250    3.125    0.000    1.500    0.000    0.000 
#    0.000    0.000    0.000    0.000    0.000    0.000 
#
# Total GULP energy -396551.680947 kJ/mol
# GULP energy per Si atom -12392.240030 kJ/mol
# Density = 2.147424 g / cm^3
# Si number density = 21.523230 Si / 1000 Ang^3
#
#
#
# Elastic Constant Matrix: (Units=GPa)
#
#
# Indices 1 2 3 4 5 6 
#
# 1 113.4547 37.1420 39.2421 0.0013 -0.0009 -0.0003
# 2 37.1420 82.5678 31.3870 -0.0011 0.0006 0.0000
# 3 39.2421 31.3870 78.7743 0.0009 -0.0025 -0.0013
# 4 0.0013 -0.0011 0.0009 27.3652 -0.0011 -0.0007
# 5 -0.0009 0.0006 -0.0025 -0.0011 28.2635 0.0004
# 6 -0.0003 0.0000 -0.0013 -0.0007 0.0004 31.0396
#
#
#
# Elastic Compliance Matrix: (Units=1/GPa)
#
#
# Indices 1 2 3 4 5 6 
#
# 1 0.011454 -0.003516 -0.004305 -0.000001 0.000000 0.000000
# 2 -0.003516 0.015352 -0.004365 0.000001 -0.000001 0.000000
# 3 -0.004305 -0.004365 0.016578 -0.000001 0.000001 0.000001
# 4 -0.000001 0.000001 -0.000001 0.036543 0.000001 0.000001
# 5 0.000000 -0.000001 0.000001 0.000001 0.035381 0.000000
# 6 0.000000 0.000000 0.000001 0.000001 0.000000 0.032217
#
#
# Mechanical properties :
#
#
# Convention : Reuss Voigt Hill
#
# Bulk Modulus (GPa) = 52.59863 54.48210 53.54036
# Shear Modulus (GPa) = 28.05261 28.46870 28.26066
#
# Velocity S-wave (km/s) = 3.61413 3.64084 3.62751
# Velocity P-wave (km/s) = 6.47356 6.56067 6.51726
#
# Compressibility (1/GPa) = 0.01901190
#
# Stress axis : x y z
#
# Youngs Moduli (GPa) = 87.30435 65.13660 60.31910
#
# Poissons Ratio (x) = 0.22902 0.25968
# Poissons Ratio (y) = 0.30696 0.26332
# Poissons Ratio (z) = 0.37585 0.28435
#
# Static dielectric constant tensor:
#      x y z
#    x 4.034080 0.000000 0.000000 
#    y 0.000000 3.906410 0.000000 
#    z 0.000000 0.000000 3.641840 
# 
# 
# High freq. dielectric constant tensor:
#      x y z
#    x 1.859400 0.000000 0.000000 
#    y 0.000000 1.838370 0.000000 
#    z 0.000000 0.000000 1.821050 
# 
# From -- ./inp_files/6067.got.cif
#   From: 2010.03.12/outbox.cif.g09.slc.cpg/sg46_4_cif.got.tgz:6067.got - 2010.04.14 02:56:35.
