data_PCOD8192878
_publ_section_title
;
Structure prediction by ZEFSAII (Michael W. Deem and Ramdas Pophale) SiO2 
 PCOD8192878
Probable space group: I M A 2
;
_chemical_formula_sum "Si O2"
_cell_formula_units_Z 64
_cell_length_a 8.714388
_cell_length_b 27.746632
_cell_length_c 14.515452
_cell_angle_alpha 90.000000
_cell_angle_beta 90.000000
_cell_angle_gamma 90.000000
_cell_volume 3509.762511
_symmetry_space_group_name_H-M "I M A 2"
_symmetry_group_IT_number 46
_symmetry_cell_setting 'orthorhombic'
loop_
_space_group_symop_operation_xyz
x,y,z
-x,-y,z
1/2-x,y,z
1/2+x,-y,z
1/2+x,1/2+y,1/2+z
1/2-x,1/2-y,1/2+z
-x,1/2+y,1/2+z
x,1/2-y,1/2+z
loop_
_atom_site_type_symbol
_atom_site_label
_atom_site_fract_x
_atom_site_fract_y
_atom_site_fract_z
Si Si1 0.071610 0.633575 0.274300
Si Si2 0.931166 0.674285 0.655815
Si Si3 0.432556 0.551176 0.961265
Si Si4 0.429368 0.328601 0.450698
Si Si5 0.423717 0.216911 0.448605
Si Si6 0.931329 0.949076 0.657623
Si Si7 0.071522 0.636834 0.831622
Si Si8 0.572917 0.717054 0.162029
O O1 0.250000 0.621368 0.264435
O O2 0.027475 0.638929 0.381320
O O3 0.972138 0.590204 0.233683
O O4 0.034413 0.682786 0.221377
O O5 0.750000 0.674055 0.654296
O O6 0.988042 0.659087 0.553939
O O7 0.984940 0.728558 0.679975
O O8 0.993263 0.637185 0.731363
O O9 0.500000 0.500000 0.929870
O O10 0.250000 0.548256 0.968162
O O11 0.488803 0.590403 0.887140
O O12 0.497932 0.566933 0.060084
O O13 0.250000 0.340307 0.438942
O O14 0.460747 0.272545 0.429762
O O15 0.250000 0.205247 0.417837
O O16 0.537218 0.185176 0.388044
O O17 0.446341 0.203786 0.555198
O O18 0.750000 0.953679 0.646815
O O19 0.000000 0.000000 0.689715
O O20 0.250000 0.632945 0.814713
O O21 0.750000 0.710441 0.192702
#
# Coordination Sequence:
#
# PCOD8192878 Si02
#       8
#     8   8   8   8   8   8   8   8
#     4  12  23  33  50  78 107 138 173 210 255 309
#     4   9  19  35  54  73  99 137 180 218 256 303
#     4  10  21  37  55  79 108 136 167 207 254 308
#     4   9  19  36  53  72  99 135 178 220 254 294
#     4   9  18  32  51  73 101 137 176 211 250 302
#     4  11  22  38  59  81 106 135 166 207 255 306
#     4  11  22  32  48  76 107 134 167 211 258 306
#     4   9  18  33  51  74 103 138 177 216 254 300
#
# _framework density 18.234852
#
# number of rings (size 3 to 8) (size 9 to 14) (size 15 to 20)
#    0.000    2.000    0.000    6.750    0.000    9.000 
#    0.000    2.500    0.000    0.750    0.000    1.750 
#    0.000    0.000    0.000    0.000    0.000    0.000 
#
# Total GULP energy -396877.777655 kJ/mol
# GULP energy per Si atom -12402.430552 kJ/mol
# Density = 1.819335 g / cm^3
# Si number density = 18.234852 Si / 1000 Ang^3
#
#
#
# Elastic Constant Matrix: (Units=GPa)
#
#
# Indices 1 2 3 4 5 6 
#
# 1 60.4595 28.3467 29.1049 0.0000 0.0000 0.0000
# 2 28.3467 82.3473 68.2154 0.0001 0.0000 0.0000
# 3 29.1049 68.2154 113.3121 0.0005 0.0000 0.0001
# 4 0.0000 0.0001 0.0005 31.1979 0.0000 0.0000
# 5 0.0000 0.0000 0.0000 0.0000 29.0820 0.0000
# 6 0.0000 0.0000 0.0001 0.0000 0.0000 27.8695
#
#
#
# Elastic Compliance Matrix: (Units=1/GPa)
#
#
# Indices 1 2 3 4 5 6 
#
# 1 0.019942 -0.005229 -0.001974 0.000000 0.000000 0.000000
# 2 -0.005229 0.025596 -0.014066 0.000000 0.000000 0.000000
# 3 -0.001974 -0.014066 0.017800 0.000000 0.000000 0.000000
# 4 0.000000 0.000000 0.000000 0.032053 0.000000 0.000000
# 5 0.000000 0.000000 0.000000 0.000000 0.034385 0.000000
# 6 0.000000 0.000000 0.000000 0.000000 0.000000 0.035882
#
#
# Mechanical properties :
#
#
# Convention : Reuss Voigt Hill
#
# Bulk Modulus (GPa) = 48.07850 56.38367 52.23109
# Shear Modulus (GPa) = 23.24176 26.32666 24.78421
#
# Velocity S-wave (km/s) = 3.57400 3.80380 3.69069
# Velocity P-wave (km/s) = 6.59202 7.09083 6.84597
#
# Compressibility (1/GPa) = 0.02079932
#
# Stress axis : x y z
#
# Youngs Moduli (GPa) = 50.14502 39.06906 56.17983
#
# Poissons Ratio (x) = 0.20431 0.11090
# Poissons Ratio (y) = 0.26223 0.79021
# Poissons Ratio (z) = 0.09899 0.54953
#
# Static dielectric constant tensor:
#      x y z
#    x 3.259160 0.000000 0.000000 
#    y 0.000000 3.316210 0.000000 
#    z 0.000000 0.000000 3.545420 
# 
# 
# High freq. dielectric constant tensor:
#      x y z
#    x 1.704460 0.000000 0.000000 
#    y 0.000000 1.686850 0.000000 
#    z 0.000000 0.000000 1.711580 
# 
# From -- ./inp_files/14513.got.cif
#   From: 2010.03.12/outbox.cif.g09.slc.cpg/sg46_8_cif.got.tgz:14513.got - 2010.04.14 02:56:35.
