data_PCOD8192116
_publ_section_title
;
Structure prediction by ZEFSAII (Michael W. Deem and Ramdas Pophale) SiO2 
 PCOD8192116
Probable space group: I M A 2
;
_chemical_formula_sum "Si O2"
_cell_formula_units_Z 64
_cell_length_a 8.748743
_cell_length_b 30.776784
_cell_length_c 11.914183
_cell_angle_alpha 90.000000
_cell_angle_beta 90.000000
_cell_angle_gamma 90.000000
_cell_volume 3207.991154
_symmetry_space_group_name_H-M "I M A 2"
_symmetry_group_IT_number 46
_symmetry_cell_setting 'orthorhombic'
loop_
_space_group_symop_operation_xyz
x,y,z
-x,-y,z
1/2-x,y,z
1/2+x,-y,z
1/2+x,1/2+y,1/2+z
1/2-x,1/2-y,1/2+z
-x,1/2+y,1/2+z
x,1/2-y,1/2+z
loop_
_atom_site_type_symbol
_atom_site_label
_atom_site_fract_x
_atom_site_fract_y
_atom_site_fract_z
Si Si1 0.068916 0.373746 0.559130
Si Si2 0.076554 0.074320 0.675399
Si Si3 0.074034 0.455545 0.931531
Si Si4 0.929293 0.335470 0.178284
Si Si5 0.567821 0.199294 0.912529
Si Si6 0.571627 0.955791 0.917172
Si Si7 0.431188 0.876311 0.302235
Si Si8 0.068416 0.703680 0.951415
O O1 0.250000 0.370219 0.553506
O O2 0.007628 0.414040 0.484222
O O3 0.997693 0.329078 0.514025
O O4 0.015727 0.381594 0.685050
O O5 0.250000 0.091666 0.689539
O O6 0.061336 0.044077 0.566619
O O7 0.027223 0.047959 0.786039
O O8 0.963651 0.114332 0.660690
O O9 0.250000 0.452713 0.892274
O O10 0.000000 0.500000 0.885999
O O11 0.979869 0.415459 0.882661
O O12 0.750000 0.328224 0.182012
O O13 0.999517 0.318493 0.295091
O O14 0.999225 0.308978 0.073418
O O15 0.750000 0.197179 0.918465
O O16 0.507326 0.248551 0.922135
O O17 0.750000 0.959313 0.936747
O O18 0.500000 0.000000 0.965905
O O19 0.250000 0.877359 0.284364
O O20 0.486096 0.831081 0.358475
O O21 0.250000 0.702926 0.956059
#
# Coordination Sequence:
#
# PCOD8192116 Si02
#       8
#     8   8   8   8   8   8   8   8
#     4  11  24  42  60  84 122 159 196 247 301 357
#     4  10  20  37  59  87 123 156 187 239 299 354
#     4  11  23  39  62  90 122 157 199 246 298 359
#     4  10  19  34  60  90 119 153 195 245 293 349
#     4  10  21  37  62  91 118 155 201 246 293 351
#     4  10  22  39  60  85 116 152 191 238 293 348
#     4  11  23  41  64  87 118 159 203 251 301 355
#     4   9  20  37  60  90 121 153 196 248 297 347
#
# _framework density 19.95018
#
# number of rings (size 3 to 8) (size 9 to 14) (size 15 to 20)
#    0.000    1.750    2.500    1.500    1.750    2.500 
#    0.000    3.125    0.000    0.000    0.000    0.000 
#    0.000    0.000    0.000    0.000    0.000    0.000 
#
# Total GULP energy -396865.957779 kJ/mol
# GULP energy per Si atom -12402.061181 kJ/mol
# Density = 1.990477 g / cm^3
# Si number density = 19.950180 Si / 1000 Ang^3
#
#
#
# Elastic Constant Matrix: (Units=GPa)
#
#
# Indices 1 2 3 4 5 6 
#
# 1 32.5294 27.4569 18.0528 0.0003 0.0000 0.0000
# 2 27.4569 144.7433 33.1790 0.0012 0.0001 0.0005
# 3 18.0528 33.1790 100.3927 -0.0002 0.0008 0.0015
# 4 0.0003 0.0012 -0.0002 21.1320 0.0000 0.0002
# 5 0.0000 0.0001 0.0008 0.0000 27.6941 0.0006
# 6 0.0000 0.0005 0.0015 0.0002 0.0006 23.8041
#
#
#
# Elastic Compliance Matrix: (Units=1/GPa)
#
#
# Indices 1 2 3 4 5 6 
#
# 1 0.038714 -0.006219 -0.004906 0.000000 0.000000 0.000000
# 2 -0.006219 0.008474 -0.001682 0.000000 0.000000 0.000000
# 3 -0.004906 -0.001682 0.011399 0.000000 0.000000 -0.000001
# 4 0.000000 0.000000 0.000000 0.047322 0.000000 0.000000
# 5 0.000000 0.000000 0.000000 0.000000 0.036109 -0.000001
# 6 0.000000 0.000000 -0.000001 0.000000 -0.000001 0.042010
#
#
# Mechanical properties :
#
#
# Convention : Reuss Voigt Hill
#
# Bulk Modulus (GPa) = 30.32909 48.33806 39.33358
# Shear Modulus (GPa) = 22.66212 27.79115 25.22663
#
# Velocity S-wave (km/s) = 3.37402 3.73638 3.55981
# Velocity P-wave (km/s) = 5.51490 6.54950 6.05434
#
# Compressibility (1/GPa) = 0.03297165
#
# Stress axis : x y z
#
# Youngs Moduli (GPa) = 25.83076 118.00614 87.72621
#
# Poissons Ratio (x) = 0.73389 0.43040
# Poissons Ratio (y) = 0.16064 0.14758
# Poissons Ratio (z) = 0.12673 0.19852
#
# Static dielectric constant tensor:
#      x y z
#    x 3.390790 0.000000 0.000000 
#    y 0.000000 3.704620 0.000000 
#    z 0.000000 0.000000 3.830610 
# 
# 
# High freq. dielectric constant tensor:
#      x y z
#    x 1.758360 0.000000 0.000000 
#    y 0.000000 1.785920 0.000000 
#    z 0.000000 0.000000 1.786520 
# 
# From -- ./inp_files/9750.got.cif
#   From: 2010.03.12/outbox.cif.g09.slc.cpg/sg46_5_cif.got.tgz:9750.got - 2010.04.14 02:56:35.
