data_PCOD8192347
_publ_section_title
;
Structure prediction by ZEFSAII (Michael W. Deem and Ramdas Pophale) SiO2 
 PCOD8192347
Probable space group: I M A 2
;
_chemical_formula_sum "Si O2"
_cell_formula_units_Z 48
_cell_length_a 8.590447
_cell_length_b 9.466882
_cell_length_c 30.923078
_cell_angle_alpha 90.000000
_cell_angle_beta 90.000000
_cell_angle_gamma 90.000000
_cell_volume 2514.811528
_symmetry_space_group_name_H-M "I M A 2"
_symmetry_group_IT_number 46
_symmetry_cell_setting 'orthorhombic'
loop_
_space_group_symop_operation_xyz
x,y,z
-x,-y,z
1/2-x,y,z
1/2+x,-y,z
1/2+x,1/2+y,1/2+z
1/2-x,1/2-y,1/2+z
-x,1/2+y,1/2+z
x,1/2-y,1/2+z
loop_
_atom_site_type_symbol
_atom_site_label
_atom_site_fract_x
_atom_site_fract_y
_atom_site_fract_z
Si Si1 0.567033 0.656173 0.960450
Si Si2 0.429314 0.846654 0.546026
Si Si3 0.566342 0.655989 0.715814
Si Si4 0.434900 0.348072 0.382361
Si Si5 0.565794 0.153312 0.790374
Si Si6 0.068034 0.843142 0.641718
O O1 0.500000 0.500000 0.957319
O O2 0.750000 0.649717 0.959566
O O3 0.504893 0.743418 0.919567
O O4 0.513149 0.731658 0.005613
O O5 0.250000 0.858621 0.533887
O O6 0.453767 0.777312 0.593308
O O7 0.500000 0.000000 0.549942
O O8 0.500000 0.500000 0.711480
O O9 0.750000 0.651204 0.722741
O O10 0.486988 0.730892 0.756323
O O11 0.526610 0.740145 0.672474
O O12 0.500000 0.500000 0.394817
O O13 0.250000 0.354019 0.378790
O O14 0.503714 0.296210 0.336843
O O15 0.750000 0.142396 0.791509
O O16 0.500000 0.000000 0.777343
O O17 0.250000 0.847674 0.654481
O O18 0.000000 0.000000 0.645922
#
# Coordination Sequence:
#
# PCOD8192347 Si02
#       6
#     8   8   8   8   8   8
#     4  10  20  33  53  80 111 144 182 225 271 322
#     4   9  17  30  52  79 109 142 181 225 268 315
#     4  12  25  41  59  82 113 146 180 225 277 331
#     4  10  21  37  56  81 110 143 183 227 272 323
#     4  11  22  39  62  85 110 144 184 227 271 324
#     4  10  20  36  58  85 112 145 187 229 272 323
#
# _framework density 19.086919000000002
#
# number of rings (size 3 to 8) (size 9 to 14) (size 15 to 20)
#    0.000    1.667    0.000    7.500    0.000    5.333 
#    0.000    2.500    0.000    2.000    0.000    0.000 
#    0.000    0.000    0.000    0.000    0.000    0.000 
#
# Total GULP energy -297550.093390 kJ/mol
# GULP energy per Si atom -12397.920558 kJ/mol
# Density = 1.904348 g / cm^3
# Si number density = 19.086919 Si / 1000 Ang^3
#
#
#
# Elastic Constant Matrix: (Units=GPa)
#
#
# Indices 1 2 3 4 5 6 
#
# 1 98.1954 20.7135 38.2521 0.0000 0.0000 0.0000
# 2 20.7135 79.9573 63.8676 0.0000 0.0000 0.0000
# 3 38.2521 63.8676 146.3719 0.0000 0.0000 0.0000
# 4 0.0000 0.0000 0.0000 28.8311 0.0000 0.0000
# 5 0.0000 0.0000 0.0000 0.0000 40.3637 0.0000
# 6 0.0000 0.0000 0.0000 0.0000 0.0000 30.0829
#
#
#
# Elastic Compliance Matrix: (Units=1/GPa)
#
#
# Indices 1 2 3 4 5 6 
#
# 1 0.011378 -0.000879 -0.002590 0.000000 0.000000 0.000000
# 2 -0.000879 0.019266 -0.008177 0.000000 0.000000 0.000000
# 3 -0.002590 -0.008177 0.011077 0.000000 0.000000 0.000000
# 4 0.000000 0.000000 0.000000 0.034685 0.000000 0.000000
# 5 0.000000 0.000000 0.000000 0.000000 0.024775 0.000000
# 6 0.000000 0.000000 0.000000 0.000000 0.000000 0.033242
#
#
# Mechanical properties :
#
#
# Convention : Reuss Voigt Hill
#
# Bulk Modulus (GPa) = 54.26119 63.35455 58.80787
# Shear Modulus (GPa) = 30.51471 33.30161 31.90816
#
# Velocity S-wave (km/s) = 4.00274 4.18153 4.09311
# Velocity P-wave (km/s) = 7.06065 7.52186 7.29490
#
# Compressibility (1/GPa) = 0.01842938
#
# Stress axis : x y z
#
# Youngs Moduli (GPa) = 87.88810 51.90600 90.28049
#
# Poissons Ratio (x) = 0.04561 0.23384
# Poissons Ratio (y) = 0.07723 0.73819
# Poissons Ratio (z) = 0.22764 0.42442
#
# Static dielectric constant tensor:
#      x y z
#    x 3.699390 0.000000 0.000000 
#    y 0.000000 3.443150 0.000000 
#    z 0.000000 0.000000 4.216610 
# 
# 
# High freq. dielectric constant tensor:
#      x y z
#    x 1.763780 0.000000 0.000000 
#    y 0.000000 1.711080 0.000000 
#    z 0.000000 0.000000 1.767220 
# 
# From -- ./inp_files/25001.got.cif
#   From: 2010.03.12/outbox.cif.g09.slc.cpg/sg46_13_cif.got.tgz:25001.got - 2010.04.14 02:56:35.
