data_PCOD8192940
_publ_section_title
;
Structure prediction by ZEFSAII (Michael W. Deem and Ramdas Pophale) SiO2 
 PCOD8192940
Probable space group: I M A 2
;
_chemical_formula_sum "Si O2"
_cell_formula_units_Z 64
_cell_length_a 30.228736
_cell_length_b 8.355952
_cell_length_c 11.425155
_cell_angle_alpha 90.000000
_cell_angle_beta 90.000000
_cell_angle_gamma 90.000000
_cell_volume 2885.878382
_symmetry_space_group_name_H-M "I M A 2"
_symmetry_group_IT_number 46
_symmetry_cell_setting 'orthorhombic'
loop_
_space_group_symop_operation_xyz
x,y,z
-x,-y,z
1/2-x,y,z
1/2+x,-y,z
1/2+x,1/2+y,1/2+z
1/2-x,1/2-y,1/2+z
-x,1/2+y,1/2+z
x,1/2-y,1/2+z
loop_
_atom_site_type_symbol
_atom_site_label
_atom_site_fract_x
_atom_site_fract_y
_atom_site_fract_z
Si Si1 0.375370 0.226309 0.377090
Si Si2 0.458301 0.285169 0.224978
Si Si3 0.700749 0.232098 0.326119
Si Si4 0.926986 0.559549 0.538460
Si Si5 0.118854 0.701044 0.686777
Si Si6 0.951560 0.378913 0.313340
Si Si7 0.300505 0.085072 0.751700
Si Si8 0.659677 0.446336 0.025357
O O1 0.418988 0.204273 0.298784
O O2 0.385165 0.356850 0.477075
O O3 0.332832 0.280001 0.302387
O O4 0.366039 0.055633 0.433471
O O5 0.458534 0.195057 0.098941
O O6 0.505882 0.265822 0.289090
O O7 0.449594 0.476565 0.217072
O O8 0.750000 0.190474 0.282614
O O9 0.666911 0.148898 0.234865
O O10 0.693060 0.422993 0.326057
O O11 0.693914 0.167966 0.457061
O O12 0.907736 0.448586 0.639338
O O13 0.954482 0.456836 0.442913
O O14 0.092335 0.774235 0.797731
O O15 0.123183 0.836232 0.587680
O O16 0.250000 0.147437 0.759355
O O17 0.312711 0.053004 0.616567
#
# Coordination Sequence:
#
# PCOD8192940 Si02
#       8
#     8   8   8   8   8   8   8   8
#     4  11  22  39  61  90 123 163 208 255 308 374
#     4  10  22  40  62  88 122 163 205 250 306 364
#     4  10  21  38  60  85 117 160 210 260 311 372
#     4  11  22  41  65  90 125 166 200 255 314 363
#     4  11  22  39  61  92 125 161 208 257 308 371
#     4  10  23  41  62  93 127 161 207 255 302 369
#     4  10  22  39  58  85 121 159 206 261 313 371
#     4  11  21  38  62  88 120 164 205 257 317 369
#
# _framework density 22.176956000000001
#
# number of rings (size 3 to 8) (size 9 to 14) (size 15 to 20)
#    0.000    1.500    0.000    7.125    0.000    6.000 
#    0.000    0.625    0.000    0.000    0.000    0.000 
#    0.000    0.000    0.000    0.000    0.000    0.000 
#
# Total GULP energy -396770.969574 kJ/mol
# GULP energy per Si atom -12399.092799 kJ/mol
# Density = 2.212648 g / cm^3
# Si number density = 22.176956 Si / 1000 Ang^3
#
#
#
# Elastic Constant Matrix: (Units=GPa)
#
#
# Indices 1 2 3 4 5 6 
#
# 1 147.2817 42.0357 54.6183 0.0000 0.0000 0.0000
# 2 42.0357 65.8196 51.2167 0.0000 0.0000 0.0000
# 3 54.6183 51.2167 115.1407 0.0000 0.0000 0.0000
# 4 0.0000 0.0000 0.0000 56.3542 0.0000 0.0000
# 5 0.0000 0.0000 0.0000 0.0000 24.1186 0.0000
# 6 0.0000 0.0000 0.0000 0.0000 0.0000 22.5239
#
#
#
# Elastic Compliance Matrix: (Units=1/GPa)
#
#
# Indices 1 2 3 4 5 6 
#
# 1 0.008767 -0.003614 -0.002551 0.000000 0.000000 0.000000
# 2 -0.003614 0.024725 -0.009284 0.000000 0.000000 0.000000
# 3 -0.002551 -0.009284 0.014025 0.000000 0.000000 0.000000
# 4 0.000000 0.000000 0.000000 0.017745 0.000000 0.000000
# 5 0.000000 0.000000 0.000000 0.000000 0.041462 0.000000
# 6 0.000000 0.000000 0.000000 0.000000 0.000000 0.044397
#
#
# Mechanical properties :
#
#
# Convention : Reuss Voigt Hill
#
# Bulk Modulus (GPa) = 60.17172 69.33146 64.75159
# Shear Modulus (GPa) = 26.65817 32.62409 29.64113
#
# Velocity S-wave (km/s) = 3.47084 3.83963 3.65988
# Velocity P-wave (km/s) = 6.57676 7.14057 6.86445
#
# Compressibility (1/GPa) = 0.01661910
#
# Stress axis : x y z
#
# Youngs Moduli (GPa) = 114.06011 40.44441 71.30154
#
# Poissons Ratio (x) = 0.14616 0.18191
# Poissons Ratio (y) = 0.41221 0.66196
# Poissons Ratio (z) = 0.29100 0.37548
#
# Static dielectric constant tensor:
#      x y z
#    x 4.110620 0.000000 0.000000 
#    y 0.000000 3.880040 0.000000 
#    z 0.000000 0.000000 3.994180 
# 
# 
# High freq. dielectric constant tensor:
#      x y z
#    x 1.878200 0.000000 0.000000 
#    y 0.000000 1.863700 0.000000 
#    z 0.000000 0.000000 1.869100 
# 
# From -- ./inp_files/13217.got.cif
#   From: 2010.03.12/outbox.cif.g09.slc.cpg/sg46_7_cif.got.tgz:13217.got - 2010.04.14 02:56:35.
