data_PCOD8192628
_publ_section_title
;
Structure prediction by ZEFSAII (Michael W. Deem and Ramdas Pophale) SiO2 
 PCOD8192628
Probable space group: I M A 2
;
_chemical_formula_sum "Si O2"
_cell_formula_units_Z 40
_cell_length_a 10.687298
_cell_length_b 12.971755
_cell_length_c 13.547797
_cell_angle_alpha 90.000000
_cell_angle_beta 90.000000
_cell_angle_gamma 90.000000
_cell_volume 1878.171894
_symmetry_space_group_name_H-M "I M A 2"
_symmetry_group_IT_number 46
_symmetry_cell_setting 'orthorhombic'
loop_
_space_group_symop_operation_xyz
x,y,z
-x,-y,z
1/2-x,y,z
1/2+x,-y,z
1/2+x,1/2+y,1/2+z
1/2-x,1/2-y,1/2+z
-x,1/2+y,1/2+z
x,1/2-y,1/2+z
loop_
_atom_site_type_symbol
_atom_site_label
_atom_site_fract_x
_atom_site_fract_y
_atom_site_fract_z
Si Si1 0.016659 0.207595 0.490080
Si Si2 0.250000 0.686851 0.714213
Si Si3 0.889325 0.578741 0.830287
Si Si4 0.250000 0.823612 0.442526
Si Si5 0.000000 0.000000 0.614050
Si Si6 0.750000 0.419015 0.148566
Si Si7 0.991758 0.611969 0.623342
O O1 0.093478 0.186020 0.390000
O O2 0.024482 0.102635 0.551571
O O3 0.874793 0.241761 0.463073
O O4 0.070491 0.304770 0.549992
O O5 0.250000 0.644648 0.826849
O O6 0.250000 0.810093 0.704551
O O7 0.127974 0.644195 0.661081
O O8 0.750000 0.533617 0.852086
O O9 0.000000 0.500000 0.864641
O O10 0.898015 0.602972 0.715297
O O11 0.250000 0.914225 0.526848
O O12 0.875674 0.019437 0.680547
O O13 0.000000 0.500000 0.570893
#
# Coordination Sequence:
#
# PCOD8192628 Si02
#       7
#     8   4   8   4   4   4   8
#     4  11  21  39  66  97 132 165 213 272 327 384
#     4  12  20  42  67  91 127 179 217 268 318 399
#     4  11  26  41  68 100 131 169 218 276 329 385
#     4  10  20  36  70  93 122 168 223 266 316 388
#     4  10  20  36  62  98 120 160 206 266 318 376
#     4  10  22  38  65  94 129 157 216 266 326 381
#     4  11  25  40  67  96 133 173 220 266 327 393
#
# _framework density 21.297305000000001
#
# number of rings (size 3 to 8) (size 9 to 14) (size 15 to 20)
#    0.000    1.200    7.000    0.000    8.400    0.800 
#    0.000    0.000    8.800    0.000    0.000    0.000 
#    0.000    0.000    0.000    0.000    0.000    0.000 
#
# Total GULP energy -247797.249240 kJ/mol
# GULP energy per Si atom -12389.862462 kJ/mol
# Density = 2.124883 g / cm^3
# Si number density = 21.297305 Si / 1000 Ang^3
#
#
#
# Elastic Constant Matrix: (Units=GPa)
#
#
# Indices 1 2 3 4 5 6 
#
# 1 151.7904 33.8386 13.7844 0.0000 0.0000 0.0000
# 2 33.8386 153.9698 55.1005 0.0000 0.0000 0.0000
# 3 13.7844 55.1005 67.7142 0.0000 0.0000 0.0000
# 4 0.0000 0.0000 0.0000 28.8019 0.0000 0.0000
# 5 0.0000 0.0000 0.0000 0.0000 15.5658 0.0000
# 6 0.0000 0.0000 0.0000 0.0000 0.0000 18.8693
#
#
#
# Elastic Compliance Matrix: (Units=1/GPa)
#
#
# Indices 1 2 3 4 5 6 
#
# 1 0.006930 -0.001437 -0.000242 0.000000 0.000000 0.000000
# 2 -0.001437 0.009461 -0.007406 0.000000 0.000000 0.000000
# 3 -0.000242 -0.007406 0.020844 0.000000 0.000000 0.000000
# 4 0.000000 0.000000 0.000000 0.034720 0.000000 0.000000
# 5 0.000000 0.000000 0.000000 0.000000 0.064243 0.000000
# 6 0.000000 0.000000 0.000000 0.000000 0.000000 0.052996
#
#
# Mechanical properties :
#
#
# Convention : Reuss Voigt Hill
#
# Bulk Modulus (GPa) = 52.44968 64.32457 58.38713
# Shear Modulus (GPa) = 23.39527 30.69747 27.04637
#
# Velocity S-wave (km/s) = 3.31797 3.80067 3.56749
# Velocity P-wave (km/s) = 6.27371 7.03767 6.66664
#
# Compressibility (1/GPa) = 0.01906589
#
# Stress axis : x y z
#
# Youngs Moduli (GPa) = 144.29509 105.69840 47.97618
#
# Poissons Ratio (x) = 0.15184 0.01160
# Poissons Ratio (y) = 0.20729 0.35532
# Poissons Ratio (z) = 0.03489 0.78281
#
# Static dielectric constant tensor:
#      x y z
#    x 4.202050 0.000000 0.000000 
#    y 0.000000 3.874770 0.000000 
#    z 0.000000 0.000000 3.884840 
# 
# 
# High freq. dielectric constant tensor:
#      x y z
#    x 1.845680 0.000000 0.000000 
#    y 0.000000 1.815670 0.000000 
#    z 0.000000 0.000000 1.803100 
# 
# From -- ./inp_files/15072.got.cif
#   From: 2010.03.12/outbox.cif.g09.slc.cpg/sg46_8_cif.got.tgz:15072.got - 2010.04.14 02:56:35.
