data_PCOD8192716
_publ_section_title
;
Structure prediction by ZEFSAII (Michael W. Deem and Ramdas Pophale) SiO2 
 PCOD8192716
Probable space group: I M A 2
;
_chemical_formula_sum "Si O2"
_cell_formula_units_Z 64
_cell_length_a 8.920199
_cell_length_b 29.387145
_cell_length_c 12.675319
_cell_angle_alpha 90.000000
_cell_angle_beta 90.000000
_cell_angle_gamma 90.000000
_cell_volume 3322.697747
_symmetry_space_group_name_H-M "I M A 2"
_symmetry_group_IT_number 46
_symmetry_cell_setting 'orthorhombic'
loop_
_space_group_symop_operation_xyz
x,y,z
-x,-y,z
1/2-x,y,z
1/2+x,-y,z
1/2+x,1/2+y,1/2+z
1/2-x,1/2-y,1/2+z
-x,1/2+y,1/2+z
x,1/2-y,1/2+z
loop_
_atom_site_type_symbol
_atom_site_label
_atom_site_fract_x
_atom_site_fract_y
_atom_site_fract_z
Si Si1 0.074099 0.877237 0.569940
Si Si2 0.572424 0.451480 0.897846
Si Si3 0.573997 0.643134 0.283596
Si Si4 0.075434 0.126228 0.018528
Si Si5 0.075643 0.709247 0.633980
Si Si6 0.426906 0.451771 0.681922
Si Si7 0.918259 0.752194 0.798666
Si Si8 0.581671 0.787587 0.521810
O O1 0.250000 0.871400 0.581666
O O2 0.032125 0.920266 0.497586
O O3 0.006371 0.883193 0.687513
O O4 0.008775 0.834014 0.507940
O O5 0.500000 0.500000 0.922425
O O6 0.750000 0.455946 0.881265
O O7 0.500760 0.431692 0.789179
O O8 0.750000 0.637216 0.268607
O O9 0.525202 0.621133 0.396342
O O10 0.526500 0.696026 0.279629
O O11 0.250000 0.138895 0.025196
O O12 0.037831 0.080581 0.082638
O O13 0.985272 0.166724 0.071766
O O14 0.250000 0.712111 0.613327
O O15 0.028760 0.711221 0.757094
O O16 0.995975 0.757513 0.610657
O O17 0.500000 0.500000 0.653948
O O18 0.250000 0.457328 0.700071
O O19 0.750000 0.744714 0.754520
O O20 0.920260 0.745379 0.922801
O O21 0.750000 0.800669 0.556243
#
# Coordination Sequence:
#
# PCOD8192716 Si02
#       8
#     8   8   8   8   8   8   8   8
#     4  11  24  39  57  88 122 150 190 245 295 344
#     4  10  22  41  64  89 120 150 186 237 292 350
#     4  10  20  38  61  81 112 159 202 238 279 339
#     4  10  22  41  61  85 115 154 201 240 282 347
#     4  12  24  35  54  83 117 153 191 242 293 338
#     4  10  21  39  66  92 118 149 186 236 293 350
#     4  10  21  37  56  77 109 155 201 242 281 335
#     4  11  22  38  58  79 111 156 201 238 279 342
#
# _framework density 19.261457
#
# number of rings (size 3 to 8) (size 9 to 14) (size 15 to 20)
#    0.000    1.500    2.500    3.375    1.750    4.500 
#    0.000    0.625    0.000    3.000    0.000    0.000 
#    0.000    0.000    0.000    0.000    0.000    0.000 
#
# Total GULP energy -396681.556703 kJ/mol
# GULP energy per Si atom -12396.298647 kJ/mol
# Density = 1.921762 g / cm^3
# Si number density = 19.261457 Si / 1000 Ang^3
#
#
#
# Elastic Constant Matrix: (Units=GPa)
#
#
# Indices 1 2 3 4 5 6 
#
# 1 99.3038 57.0217 60.2629 -0.0003 0.0001 0.0001
# 2 57.0217 93.0219 66.1293 -0.0001 0.0003 -0.0002
# 3 60.2629 66.1293 139.4571 0.0040 0.0004 0.0004
# 4 -0.0003 -0.0001 0.0040 36.3945 -0.0001 0.0000
# 5 0.0001 0.0003 0.0004 -0.0001 24.5240 0.0000
# 6 0.0001 -0.0002 0.0004 0.0000 0.0000 27.8504
#
#
#
# Elastic Compliance Matrix: (Units=1/GPa)
#
#
# Indices 1 2 3 4 5 6 
#
# 1 0.016628 -0.007670 -0.003548 0.000001 0.000000 0.000000
# 2 -0.007670 0.019755 -0.006053 0.000001 0.000000 0.000000
# 3 -0.003548 -0.006053 0.011574 -0.000001 0.000000 0.000000
# 4 0.000001 0.000001 -0.000001 0.027477 0.000000 0.000000
# 5 0.000000 0.000000 0.000000 0.000000 0.040776 0.000000
# 6 0.000000 0.000000 0.000000 0.000000 0.000000 0.035906
#
#
# Mechanical properties :
#
#
# Convention : Reuss Voigt Hill
#
# Bulk Modulus (GPa) = 74.54904 77.62340 76.08622
# Shear Modulus (GPa) = 26.16010 27.64505 26.90258
#
# Velocity S-wave (km/s) = 3.68932 3.79258 3.74131
# Velocity P-wave (km/s) = 7.54558 7.71787 7.63222
#
# Compressibility (1/GPa) = 0.01341399
#
# Stress axis : x y z
#
# Youngs Moduli (GPa) = 60.14078 50.61947 86.39878
#
# Poissons Ratio (x) = 0.38827 0.30654
# Poissons Ratio (y) = 0.46130 0.52299
# Poissons Ratio (z) = 0.21338 0.30641
#
# Static dielectric constant tensor:
#      x y z
#    x 3.566200 0.000000 0.000000 
#    y 0.000000 3.400820 0.000000 
#    z 0.000000 0.000000 3.854170 
# 
# 
# High freq. dielectric constant tensor:
#      x y z
#    x 1.751930 0.000000 0.000000 
#    y 0.000000 1.731810 0.000000 
#    z 0.000000 0.000000 1.768640 
# 
# From -- ./inp_files/9770.got.cif
#   From: 2010.03.12/outbox.cif.g09.slc.cpg/sg46_5_cif.got.tgz:9770.got - 2010.04.14 02:56:35.
