data_PCOD8192936
_publ_section_title
;
Structure prediction by ZEFSAII (Michael W. Deem and Ramdas Pophale) SiO2 
 PCOD8192936
Probable space group: I M A 2
;
_chemical_formula_sum "Si O2"
_cell_formula_units_Z 64
_cell_length_a 9.036573
_cell_length_b 30.575874
_cell_length_c 11.894324
_cell_angle_alpha 90.000000
_cell_angle_beta 90.000000
_cell_angle_gamma 90.000000
_cell_volume 3286.415012
_symmetry_space_group_name_H-M "I M A 2"
_symmetry_group_IT_number 46
_symmetry_cell_setting 'orthorhombic'
loop_
_space_group_symop_operation_xyz
x,y,z
-x,-y,z
1/2-x,y,z
1/2+x,-y,z
1/2+x,1/2+y,1/2+z
1/2-x,1/2-y,1/2+z
-x,1/2+y,1/2+z
x,1/2-y,1/2+z
loop_
_atom_site_type_symbol
_atom_site_label
_atom_site_fract_x
_atom_site_fract_y
_atom_site_fract_z
Si Si1 0.419956 0.803202 0.531210
Si Si2 0.924870 0.457235 0.586867
Si Si3 0.075214 0.793079 0.100085
Si Si4 0.078639 0.880366 0.697735
Si Si5 0.074634 0.454523 0.054786
Si Si6 0.580724 0.569776 0.803143
Si Si7 0.418979 0.328772 0.810204
Si Si8 0.074423 0.627086 0.451877
O O1 0.250000 0.803374 0.491034
O O2 0.474004 0.754403 0.558118
O O3 0.441615 0.833260 0.640419
O O4 0.521281 0.822185 0.434505
O O5 0.750000 0.461675 0.580082
O O6 0.983810 0.415341 0.518522
O O7 0.000000 0.500000 0.531583
O O8 0.974300 0.454869 0.716727
O O9 0.250000 0.796644 0.112516
O O10 0.008831 0.799572 0.223118
O O11 0.012776 0.829319 0.012903
O O12 0.250000 0.895104 0.695871
O O13 0.017346 0.875038 0.824265
O O14 0.982351 0.916999 0.637104
O O15 0.250000 0.458294 0.067130
O O16 0.000000 0.500000 0.090183
O O17 0.027413 0.442256 0.928151
O O18 0.750000 0.554890 0.783882
O O19 0.562209 0.620816 0.779488
O O20 0.250000 0.313831 0.806671
O O21 0.250000 0.628594 0.453821
#
# Coordination Sequence:
#
# PCOD8192936 Si02
#       8
#     8   8   8   8   8   8   8   8
#     4  10  22  37  63  92 119 156 200 247 292 346
#     4  11  22  37  59  86 116 153 193 242 294 350
#     4  10  21  39  63  91 120 155 202 248 290 345
#     4  10  21  39  60  86 117 154 197 243 293 347
#     4  11  23  40  60  86 117 153 193 242 294 350
#     4  10  21  38  59  86 120 154 191 238 290 347
#     4  11  22  38  61  89 126 159 192 242 296 353
#     4   9  20  38  59  84 117 153 195 244 290 340
#
# _framework density 19.474107
#
# number of rings (size 3 to 8) (size 9 to 14) (size 15 to 20)
#    0.000    1.750    2.500    1.500    1.750    3.500 
#    0.000    3.125    0.000    0.000    0.000    0.000 
#    0.000    0.000    0.000    0.000    0.000    0.000 
#
# Total GULP energy -396931.397546 kJ/mol
# GULP energy per Si atom -12404.106173 kJ/mol
# Density = 1.942978 g / cm^3
# Si number density = 19.474107 Si / 1000 Ang^3
#
#
#
# Elastic Constant Matrix: (Units=GPa)
#
#
# Indices 1 2 3 4 5 6 
#
# 1 56.7576 38.7638 30.5689 0.0002 -0.0003 0.0000
# 2 38.7638 127.2358 44.7348 0.0003 -0.0004 0.0001
# 3 30.5689 44.7348 117.5347 0.0019 -0.0009 -0.0001
# 4 0.0002 0.0003 0.0019 23.6864 -0.0007 -0.0001
# 5 -0.0003 -0.0004 -0.0009 -0.0007 23.4707 0.0003
# 6 0.0000 0.0001 -0.0001 -0.0001 0.0003 28.1682
#
#
#
# Elastic Compliance Matrix: (Units=1/GPa)
#
#
# Indices 1 2 3 4 5 6 
#
# 1 0.023737 -0.005843 -0.003950 0.000000 0.000000 0.000000
# 2 -0.005843 0.010512 -0.002481 0.000000 0.000000 0.000000
# 3 -0.003950 -0.002481 0.010480 -0.000001 0.000000 0.000000
# 4 0.000000 0.000000 -0.000001 0.042218 0.000001 0.000000
# 5 0.000000 0.000000 0.000000 0.000001 0.042606 -0.000001
# 6 0.000000 0.000000 0.000000 0.000000 -0.000001 0.035501
#
#
# Mechanical properties :
#
#
# Convention : Reuss Voigt Hill
#
# Bulk Modulus (GPa) = 49.55269 58.85144 54.20206
# Shear Modulus (GPa) = 25.46752 27.56243 26.51498
#
# Velocity S-wave (km/s) = 3.62022 3.76618 3.69392
# Velocity P-wave (km/s) = 6.55556 7.01414 6.78872
#
# Compressibility (1/GPa) = 0.02018054
#
# Stress axis : x y z
#
# Youngs Moduli (GPa) = 42.12915 95.12992 95.42203
#
# Poissons Ratio (x) = 0.55584 0.37688
# Poissons Ratio (y) = 0.24616 0.23677
# Poissons Ratio (z) = 0.16639 0.23604
#
# Static dielectric constant tensor:
#      x y z
#    x 3.370560 0.000000 0.000000 
#    y 0.000000 3.779670 0.000000 
#    z 0.000000 0.000000 3.563370 
# 
# 
# High freq. dielectric constant tensor:
#      x y z
#    x 1.742200 0.000000 0.000000 
#    y 0.000000 1.772810 0.000000 
#    z 0.000000 0.000000 1.760120 
# 
# From -- ./inp_files/9807.got.cif
#   From: 2010.03.12/outbox.cif.g09.slc.cpg/sg46_5_cif.got.tgz:9807.got - 2010.04.14 02:56:35.
