data_PCOD8192416
_publ_section_title
;
Structure prediction by ZEFSAII (Michael W. Deem and Ramdas Pophale) SiO2 
 PCOD8192416
Probable space group: I M A 2
;
_chemical_formula_sum "Si O2"
_cell_formula_units_Z 40
_cell_length_a 20.092580
_cell_length_b 11.452059
_cell_length_c 8.689138
_cell_angle_alpha 90.000000
_cell_angle_beta 90.000000
_cell_angle_gamma 90.000000
_cell_volume 1999.382920
_symmetry_space_group_name_H-M "I M A 2"
_symmetry_group_IT_number 46
_symmetry_cell_setting 'orthorhombic'
loop_
_space_group_symop_operation_xyz
x,y,z
-x,-y,z
1/2-x,y,z
1/2+x,-y,z
1/2+x,1/2+y,1/2+z
1/2-x,1/2-y,1/2+z
-x,1/2+y,1/2+z
x,1/2-y,1/2+z
loop_
_atom_site_type_symbol
_atom_site_label
_atom_site_fract_x
_atom_site_fract_y
_atom_site_fract_z
Si Si1 0.543937 0.393490 0.600130
Si Si2 0.935562 0.918396 0.638514
Si Si3 0.325507 0.650896 0.734995
Si Si4 0.978367 0.734574 0.874385
Si Si5 0.174755 0.897990 0.591178
O O1 0.500000 0.500000 0.535904
O O2 0.621742 0.424289 0.632379
O O3 0.513075 0.355149 0.761438
O O4 0.537892 0.290596 0.475625
O O5 0.936571 0.834287 0.787093
O O6 0.929710 0.838569 0.485714
O O7 0.870932 0.998086 0.652206
O O8 0.000000 0.000000 0.631119
O O9 0.250000 0.615472 0.688158
O O10 0.339445 0.786184 0.697539
O O11 0.339235 0.631729 0.913922
O O12 0.250000 0.940783 0.612788
#
# Coordination Sequence:
#
# PCOD8192416 Si02
#       5
#     8   8   8   8   8
#     4  11  20  34  55  80 109 143 181 226 278 328
#     4  11  21  37  57  79 111 147 186 234 285 336
#     4  10  20  34  55  85 116 146 185 231 281 339
#     4  10  22  34  53  82 107 139 190 233 272 332
#     4  10  21  37  58  84 116 151 185 230 288 339
#
# _framework density 20.006173
#
# number of rings (size 3 to 8) (size 9 to 14) (size 15 to 20)
#    0.000    1.600    0.000    7.200    0.000    1.600 
#    0.000    1.000    0.000    4.800    0.000    0.000 
#    0.000    0.000    0.000    0.000    0.000    0.000 
#
# Total GULP energy -247998.837915 kJ/mol
# GULP energy per Si atom -12399.941896 kJ/mol
# Density = 1.996064 g / cm^3
# Si number density = 20.006173 Si / 1000 Ang^3
#
#
#
# Elastic Constant Matrix: (Units=GPa)
#
#
# Indices 1 2 3 4 5 6 
#
# 1 115.9693 44.6153 10.6353 0.0000 0.0000 0.0000
# 2 44.6153 79.4648 15.3435 0.0000 0.0000 0.0000
# 3 10.6353 15.3435 54.3962 0.0000 0.0000 0.0000
# 4 0.0000 0.0000 0.0000 27.0552 0.0000 0.0000
# 5 0.0000 0.0000 0.0000 0.0000 19.0114 0.0000
# 6 0.0000 0.0000 0.0000 0.0000 0.0000 36.5306
#
#
#
# Elastic Compliance Matrix: (Units=1/GPa)
#
#
# Indices 1 2 3 4 5 6 
#
# 1 0.011008 -0.006097 -0.000432 0.000000 0.000000 0.000000
# 2 -0.006097 0.016686 -0.003515 0.000000 0.000000 0.000000
# 3 -0.000432 -0.003515 0.019460 0.000000 0.000000 0.000000
# 4 0.000000 0.000000 0.000000 0.036961 0.000000 0.000000
# 5 0.000000 0.000000 0.000000 0.000000 0.052600 0.000000
# 6 0.000000 0.000000 0.000000 0.000000 0.000000 0.027374
#
#
# Mechanical properties :
#
#
# Convention : Reuss Voigt Hill
#
# Bulk Modulus (GPa) = 36.94724 43.44648 40.19686
# Shear Modulus (GPa) = 25.87996 28.46851 27.17424
#
# Velocity S-wave (km/s) = 3.60057 3.77634 3.68950
# Velocity P-wave (km/s) = 5.98276 6.38577 6.18755
#
# Compressibility (1/GPa) = 0.02706562
#
# Stress axis : x y z
#
# Youngs Moduli (GPa) = 90.84082 59.93065 51.38867
#
# Poissons Ratio (x) = 0.36540 0.02223
# Poissons Ratio (y) = 0.55386 0.18061
# Poissons Ratio (z) = 0.03929 0.21063
#
# Static dielectric constant tensor:
#      x y z
#    x 3.763790 0.000000 0.000000 
#    y 0.000000 3.605110 0.000000 
#    z 0.000000 0.000000 3.817630 
# 
# 
# High freq. dielectric constant tensor:
#      x y z
#    x 1.767460 0.000000 0.000000 
#    y 0.000000 1.766270 0.000000 
#    z 0.000000 0.000000 1.797800 
# 
# From -- ./inp_files/6366.got.cif
#   From: 2010.03.12/outbox.cif.g09.slc.cpg/sg46_4_cif.got.tgz:6366.got - 2010.04.14 02:56:35.
