data_PCOD8192769
_publ_section_title
;
Structure prediction by ZEFSAII (Michael W. Deem and Ramdas Pophale) SiO2 
 PCOD8192769
Probable space group: I M A 2
;
_chemical_formula_sum "Si O2"
_cell_formula_units_Z 48
_cell_length_a 16.080314
_cell_length_b 9.023163
_cell_length_c 15.415132
_cell_angle_alpha 90.000000
_cell_angle_beta 90.000000
_cell_angle_gamma 90.000000
_cell_volume 2236.663114
_symmetry_space_group_name_H-M "I M A 2"
_symmetry_group_IT_number 46
_symmetry_cell_setting 'orthorhombic'
loop_
_space_group_symop_operation_xyz
x,y,z
-x,-y,z
1/2-x,y,z
1/2+x,-y,z
1/2+x,1/2+y,1/2+z
1/2-x,1/2-y,1/2+z
-x,1/2+y,1/2+z
x,1/2-y,1/2+z
loop_
_atom_site_type_symbol
_atom_site_label
_atom_site_fract_x
_atom_site_fract_y
_atom_site_fract_z
Si Si1 0.653003 0.408072 0.085750
Si Si2 0.652921 0.421574 0.597415
Si Si3 0.091230 0.432437 0.429567
Si Si4 0.845049 0.120938 0.777869
Si Si5 0.654518 0.615896 0.935328
Si Si6 0.590119 0.439293 0.783206
O O1 0.750000 0.405834 0.065162
O O2 0.617697 0.241330 0.071825
O O3 0.633297 0.455498 0.185115
O O4 0.615116 0.524443 0.016998
O O5 0.750000 0.410632 0.616429
O O6 0.633549 0.533952 0.521095
O O7 0.610620 0.483698 0.684448
O O8 0.145164 0.499611 0.351797
O O9 0.093927 0.255735 0.420470
O O10 0.000000 0.500000 0.424708
O O11 0.750000 0.178556 0.775361
O O12 0.904372 0.261518 0.794830
O O13 0.750000 0.666390 0.952343
O O14 0.654195 0.514587 0.849665
O O15 0.500000 0.500000 0.807878
#
# Coordination Sequence:
#
# PCOD8192769 Si02
#       6
#     8   8   8   8   8   8
#     4   8  18  36  62  88 110 143 200 253 291 347
#     4  10  20  39  63  85 113 160 207 247 300 373
#     4  12  25  39  56  86 125 160 200 259 317 360
#     4  10  20  40  65  88 117 163 209 245 296 373
#     4  11  22  38  60  90 122 159 205 254 301 359
#     4  11  22  38  61  91 124 157 199 256 307 354
#
# _framework density 21.460542
#
# number of rings (size 3 to 8) (size 9 to 14) (size 15 to 20)
#    0.000    1.667    0.000    6.500    0.000    2.667 
#    0.000    7.500    0.000    0.000    0.000    0.000 
#    0.000    0.000    0.000    0.000    0.000    0.000 
#
# Total GULP energy -297627.710942 kJ/mol
# GULP energy per Si atom -12401.154623 kJ/mol
# Density = 2.141170 g / cm^3
# Si number density = 21.460542 Si / 1000 Ang^3
#
#
#
# Elastic Constant Matrix: (Units=GPa)
#
#
# Indices 1 2 3 4 5 6 
#
# 1 68.6650 24.7931 12.1409 0.0000 0.0000 0.0000
# 2 24.7931 117.3969 74.8130 0.0000 0.0000 0.0000
# 3 12.1409 74.8130 158.0562 0.0000 0.0000 0.0000
# 4 0.0000 0.0000 0.0000 12.6705 0.0000 0.0000
# 5 0.0000 0.0000 0.0000 0.0000 21.7522 0.0000
# 6 0.0000 0.0000 0.0000 0.0000 0.0000 27.3529
#
#
#
# Elastic Compliance Matrix: (Units=1/GPa)
#
#
# Indices 1 2 3 4 5 6 
#
# 1 0.015796 -0.003670 0.000524 0.000000 0.000000 0.000000
# 2 -0.003670 0.013050 -0.005895 0.000000 0.000000 0.000000
# 3 0.000524 -0.005895 0.009077 0.000000 0.000000 0.000000
# 4 0.000000 0.000000 0.000000 0.078923 0.000000 0.000000
# 5 0.000000 0.000000 0.000000 0.000000 0.045972 0.000000
# 6 0.000000 0.000000 0.000000 0.000000 0.000000 0.036559
#
#
# Mechanical properties :
#
#
# Convention : Reuss Voigt Hill
#
# Bulk Modulus (GPa) = 50.40174 63.06799 56.73486
# Shear Modulus (GPa) = 22.31416 27.84654 25.08035
#
# Velocity S-wave (km/s) = 3.22805 3.60609 3.42229
# Velocity P-wave (km/s) = 6.11805 6.84033 6.48925
#
# Compressibility (1/GPa) = 0.01984059
#
# Stress axis : x y z
#
# Youngs Moduli (GPa) = 63.30763 76.62970 110.16939
#
# Poissons Ratio (x) = 0.28120 -0.05769
# Poissons Ratio (y) = 0.23231 0.64945
# Poissons Ratio (z) = -0.03315 0.45173
#
# Static dielectric constant tensor:
#      x y z
#    x 3.570760 0.000000 0.000000 
#    y 0.000000 3.849490 0.000000 
#    z 0.000000 0.000000 4.223120 
# 
# 
# High freq. dielectric constant tensor:
#      x y z
#    x 1.824100 0.000000 0.000000 
#    y 0.000000 1.834360 0.000000 
#    z 0.000000 0.000000 1.860860 
# 
# From -- ./inp_files/19388.got.cif
#   From: 2010.03.12/outbox.cif.g09.slc.cpg/sg46_10_cif.got.tgz:19388.got - 2010.04.14 02:56:35.
