data_PCOD8192597
_publ_section_title
;
Structure prediction by ZEFSAII (Michael W. Deem and Ramdas Pophale) SiO2 
 PCOD8192597
Probable space group: I M A 2
;
_chemical_formula_sum "Si O2"
_cell_formula_units_Z 64
_cell_length_a 16.412311
_cell_length_b 9.096347
_cell_length_c 20.975477
_cell_angle_alpha 90.000000
_cell_angle_beta 90.000000
_cell_angle_gamma 90.000000
_cell_volume 3131.472505
_symmetry_space_group_name_H-M "I M A 2"
_symmetry_group_IT_number 46
_symmetry_cell_setting 'orthorhombic'
loop_
_space_group_symop_operation_xyz
x,y,z
-x,-y,z
1/2-x,y,z
1/2+x,-y,z
1/2+x,1/2+y,1/2+z
1/2-x,1/2-y,1/2+z
-x,1/2+y,1/2+z
x,1/2-y,1/2+z
loop_
_atom_site_type_symbol
_atom_site_label
_atom_site_fract_x
_atom_site_fract_y
_atom_site_fract_z
Si Si1 0.409533 0.069978 0.252880
Si Si2 0.410184 0.929203 0.130511
Si Si3 0.654286 0.885962 0.741295
Si Si4 0.154951 0.409670 0.888375
Si Si5 0.581903 0.422699 0.004976
Si Si6 0.156730 0.414162 0.380584
Si Si7 0.156160 0.616630 0.133316
Si Si8 0.083504 0.918101 0.991761
O O1 0.405196 0.244827 0.239905
O O2 0.362281 0.028655 0.317385
O O3 0.500000 0.000000 0.257435
O O4 0.363327 0.000529 0.190720
O O5 0.405880 0.753311 0.141157
O O6 0.500000 0.000000 0.131109
O O7 0.374014 0.963824 0.059648
O O8 0.750000 0.838868 0.737168
O O9 0.636100 0.968627 0.808770
O O10 0.630101 0.993516 0.684128
O O11 0.250000 0.417545 0.902010
O O12 0.111081 0.510504 0.939094
O O13 0.116073 0.245347 0.894755
O O14 0.500000 0.500000 0.028473
O O15 0.565483 0.252999 0.991425
O O16 0.647077 0.447427 0.061744
O O17 0.250000 0.375274 0.384545
O O18 0.138945 0.539557 0.431982
O O19 0.250000 0.665333 0.143793
O O20 0.000000 0.000000 0.980968
#
# Coordination Sequence:
#
# PCOD8192597 Si02
#       8
#     8   8   8   8   8   8   8   8
#     4  10  20  36  59  87 117 153 198 243 297 357
#     4   9  21  39  57  84 120 155 193 242 302 362
#     4   9  20  39  60  84 117 155 196 245 299 355
#     4  10  21  38  59  85 117 153 196 244 295 354
#     4  11  23  38  59  86 120 155 192 243 299 356
#     4   9  19  37  59  82 111 147 188 237 289 344
#     4  10  22  40  63  90 118 154 203 253 300 356
#     4  10  21  37  56  80 111 148 190 233 284 346
#
# _framework density 20.437671000000002
#
# number of rings (size 3 to 8) (size 9 to 14) (size 15 to 20)
#    0.000    2.250    0.000    2.625    0.000   11.500 
#    0.000    5.625    0.000    0.000    0.000    0.000 
#    0.000    0.000    0.000    0.000    0.000    0.000 
#
# Total GULP energy -396466.680820 kJ/mol
# GULP energy per Si atom -12389.583776 kJ/mol
# Density = 2.039115 g / cm^3
# Si number density = 20.437671 Si / 1000 Ang^3
#
#
#
# Elastic Constant Matrix: (Units=GPa)
#
#
# Indices 1 2 3 4 5 6 
#
# 1 47.0561 39.0002 17.8597 0.0000 0.0000 0.0000
# 2 39.0002 116.1133 77.1949 0.0000 0.0000 0.0000
# 3 17.8597 77.1949 171.1335 0.0000 0.0000 0.0000
# 4 0.0000 0.0000 0.0000 44.7281 0.0000 0.0000
# 5 0.0000 0.0000 0.0000 0.0000 29.4925 0.0000
# 6 0.0000 0.0000 0.0000 0.0000 0.0000 32.7413
#
#
#
# Elastic Compliance Matrix: (Units=1/GPa)
#
#
# Indices 1 2 3 4 5 6 
#
# 1 0.029928 -0.011392 0.002015 0.000000 0.000000 0.000000
# 2 -0.011392 0.016638 -0.006316 0.000000 0.000000 0.000000
# 3 0.002015 -0.006316 0.008482 0.000000 0.000000 0.000000
# 4 0.000000 0.000000 0.000000 0.022357 0.000000 0.000000
# 5 0.000000 0.000000 0.000000 0.000000 0.033907 0.000000
# 6 0.000000 0.000000 0.000000 0.000000 0.000000 0.030542
#
#
# Mechanical properties :
#
#
# Convention : Reuss Voigt Hill
#
# Bulk Modulus (GPa) = 42.26110 66.93471 54.59790
# Shear Modulus (GPa) = 27.60481 34.74225 31.17353
#
# Velocity S-wave (km/s) = 3.67915 4.12747 3.90974
# Velocity P-wave (km/s) = 6.22665 7.45228 6.86686
#
# Compressibility (1/GPa) = 0.02366242
#
# Stress axis : x y z
#
# Youngs Moduli (GPa) = 33.41330 60.10420 117.89530
#
# Poissons Ratio (x) = 0.68472 -0.23761
# Poissons Ratio (y) = 0.38065 0.74463
# Poissons Ratio (z) = -0.06734 0.37962
#
# Static dielectric constant tensor:
#      x y z
#    x 3.491320 0.000000 0.000000 
#    y 0.000000 3.017990 0.000000 
#    z 0.000000 0.000000 4.309420 
# 
# 
# High freq. dielectric constant tensor:
#      x y z
#    x 1.772790 0.000000 0.000000 
#    y 0.000000 1.791960 0.000000 
#    z 0.000000 0.000000 1.827520 
# 
# From -- ./inp_files/22213.got.cif
#   From: 2010.03.12/outbox.cif.g09.slc.cpg/sg46_12_cif.got.tgz:22213.got - 2010.04.14 02:56:35.
