data_PCOD8192756
_publ_section_title
;
Structure prediction by ZEFSAII (Michael W. Deem and Ramdas Pophale) SiO2 
 PCOD8192756
Probable space group: I M A 2
;
_chemical_formula_sum "Si O2"
_cell_formula_units_Z 56
_cell_length_a 13.148896
_cell_length_b 15.169218
_cell_length_c 12.756494
_cell_angle_alpha 90.000000
_cell_angle_beta 90.000000
_cell_angle_gamma 90.000000
_cell_volume 2544.390774
_symmetry_space_group_name_H-M "I M A 2"
_symmetry_group_IT_number 46
_symmetry_cell_setting 'orthorhombic'
loop_
_space_group_symop_operation_xyz
x,y,z
-x,-y,z
1/2-x,y,z
1/2+x,-y,z
1/2+x,1/2+y,1/2+z
1/2-x,1/2-y,1/2+z
-x,1/2+y,1/2+z
x,1/2-y,1/2+z
loop_
_atom_site_type_symbol
_atom_site_label
_atom_site_fract_x
_atom_site_fract_y
_atom_site_fract_z
Si Si1 0.865435 0.952523 0.094500
Si Si2 0.863299 0.137038 0.165475
Si Si3 0.020939 0.102737 0.905186
Si Si4 0.982343 0.895522 0.498432
Si Si5 0.435299 0.351294 0.777694
Si Si6 0.866859 0.666110 0.205552
Si Si7 0.135273 0.746852 0.469433
O O1 0.750000 0.940460 0.063073
O O2 0.888872 0.933352 0.215690
O O3 0.897400 0.055977 0.087414
O O4 0.924331 0.885708 0.017646
O O5 0.750000 0.118043 0.211971
O O6 0.941868 0.154057 0.260041
O O7 0.860849 0.221170 0.091289
O O8 0.096965 0.117988 0.809811
O O9 0.929859 0.175218 0.900683
O O10 0.000000 0.000000 0.892506
O O11 0.910679 0.867209 0.399978
O O12 0.931600 0.864530 0.605641
O O13 0.087325 0.844259 0.474337
O O14 0.000000 0.000000 0.500565
O O15 0.378145 0.269223 0.726800
O O16 0.750000 0.642301 0.183400
O O17 0.250000 0.750046 0.422166
#
# Coordination Sequence:
#
# PCOD8192756 Si02
#       7
#     8   8   8   8   8   8   8
#     4  11  21  36  67 107 138 175 229 291 361 425
#     4  10  20  38  67 104 139 171 218 289 361 425
#     4  12  22  44  73 103 144 181 234 298 365 435
#     4  12  27  50  73 100 147 196 249 304 368 449
#     4  12  23  44  69 100 139 186 239 302 358 429
#     4  12  28  47  68  99 142 196 246 296 365 437
#     4  11  23  43  71 107 142 179 229 294 366 431
#
# _framework density 22.009198999999999
#
# number of rings (size 3 to 8) (size 9 to 14) (size 15 to 20)
#    0.000    0.571    5.714    2.571    0.000    2.857 
#    0.000    0.714    0.000    0.000    0.000    0.000 
#    0.000    0.000    0.000    0.000    0.000    0.000 
#
# Total GULP energy -347068.270201 kJ/mol
# GULP energy per Si atom -12395.295364 kJ/mol
# Density = 2.195911 g / cm^3
# Si number density = 22.009199 Si / 1000 Ang^3
#
#
#
# Elastic Constant Matrix: (Units=GPa)
#
#
# Indices 1 2 3 4 5 6 
#
# 1 92.3311 58.1791 38.9500 0.0000 0.0000 0.0000
# 2 58.1791 132.9424 22.9033 0.0000 0.0000 0.0000
# 3 38.9500 22.9033 110.6269 0.0000 0.0000 0.0000
# 4 0.0000 0.0000 0.0000 20.8796 0.0000 0.0000
# 5 0.0000 0.0000 0.0000 0.0000 21.4036 0.0000
# 6 0.0000 0.0000 0.0000 0.0000 0.0000 30.1010
#
#
#
# Elastic Compliance Matrix: (Units=1/GPa)
#
#
# Indices 1 2 3 4 5 6 
#
# 1 0.016941 -0.006623 -0.004594 0.000000 0.000000 0.000000
# 2 -0.006623 0.010389 0.000181 0.000000 0.000000 0.000000
# 3 -0.004594 0.000181 0.010619 0.000000 0.000000 0.000000
# 4 0.000000 0.000000 0.000000 0.047894 0.000000 0.000000
# 5 0.000000 0.000000 0.000000 0.000000 0.046721 0.000000
# 6 0.000000 0.000000 0.000000 0.000000 0.000000 0.033221
#
#
# Mechanical properties :
#
#
# Convention : Reuss Voigt Hill
#
# Bulk Modulus (GPa) = 62.97663 63.99612 63.48638
# Shear Modulus (GPa) = 25.88660 28.86805 27.37733
#
# Velocity S-wave (km/s) = 3.43326 3.62558 3.53073
# Velocity P-wave (km/s) = 6.66275 6.83129 6.74755
#
# Compressibility (1/GPa) = 0.01587891
#
# Stress axis : x y z
#
# Youngs Moduli (GPa) = 59.02678 96.25446 94.16785
#
# Poissons Ratio (x) = 0.63746 0.43258
# Poissons Ratio (y) = 0.39091 -0.01703
# Poissons Ratio (z) = 0.27115 -0.01741
#
# Static dielectric constant tensor:
#      x y z
#    x 4.095400 0.000000 0.000000 
#    y 0.000000 4.076630 0.000000 
#    z 0.000000 0.000000 4.096960 
# 
# 
# High freq. dielectric constant tensor:
#      x y z
#    x 1.866890 0.000000 0.000000 
#    y 0.000000 1.871040 0.000000 
#    z 0.000000 0.000000 1.866930 
# 
# From -- ./inp_files/11165.got.cif
#   From: 2010.03.12/outbox.cif.g09.slc.cpg/sg46_6_cif.got.tgz:11165.got - 2010.04.14 02:56:35.
