data_PCOD8192029
_publ_section_title
;
Structure prediction by ZEFSAII (Michael W. Deem and Ramdas Pophale) SiO2 
 PCOD8192029
Probable space group: I M A 2
;
_chemical_formula_sum "Si O2"
_cell_formula_units_Z 64
_cell_length_a 8.731960
_cell_length_b 30.194192
_cell_length_c 14.281127
_cell_angle_alpha 90.000000
_cell_angle_beta 90.000000
_cell_angle_gamma 90.000000
_cell_volume 3765.283067
_symmetry_space_group_name_H-M "I M A 2"
_symmetry_group_IT_number 46
_symmetry_cell_setting 'orthorhombic'
loop_
_space_group_symop_operation_xyz
x,y,z
-x,-y,z
1/2-x,y,z
1/2+x,-y,z
1/2+x,1/2+y,1/2+z
1/2-x,1/2-y,1/2+z
-x,1/2+y,1/2+z
x,1/2-y,1/2+z
loop_
_atom_site_type_symbol
_atom_site_label
_atom_site_fract_x
_atom_site_fract_y
_atom_site_fract_z
Si Si1 0.927552 0.820773 0.803940
Si Si2 0.071678 0.720839 0.599560
Si Si3 0.931253 0.454738 0.227231
Si Si4 0.429622 0.729841 0.813688
Si Si5 0.072956 0.861120 0.974563
Si Si6 0.430442 0.303304 0.990783
Si Si7 0.426154 0.543616 0.439547
Si Si8 0.929973 0.134940 0.633025
O O1 0.750000 0.822612 0.775703
O O2 0.976127 0.773209 0.843038
O O3 0.963489 0.855089 0.885809
O O4 0.032327 0.830022 0.714294
O O5 0.250000 0.732004 0.585966
O O6 0.027843 0.715695 0.708413
O O7 0.029165 0.672832 0.556633
O O8 0.978477 0.760099 0.550807
O O9 0.750000 0.456486 0.222805
O O10 0.990276 0.448404 0.333955
O O11 0.989551 0.413572 0.164151
O O12 0.000000 0.500000 0.184614
O O13 0.250000 0.738413 0.825686
O O14 0.486954 0.694136 0.889504
O O15 0.250000 0.854763 0.943613
O O16 0.044692 0.912614 0.003580
O O17 0.250000 0.302485 0.977079
O O18 0.480592 0.348788 0.041222
O O19 0.500000 0.500000 0.486512
O O20 0.250000 0.532568 0.431485
O O21 0.750000 0.135744 0.613264
#
# Coordination Sequence:
#
# PCOD8192029 Si02
#       8
#     8   8   8   8   8   8   8   8
#     4  12  22  30  47  76 105 135 172 216 256 294
#     4  10  21  35  55  74  96 136 176 211 253 305
#     4   9  18  31  49  73 100 134 169 206 253 305
#     4  11  22  37  53  71 100 138 177 212 254 307
#     4  10  19  34  52  72 100 137 176 209 250 304
#     4  12  24  35  51  77 104 133 172 217 261 297
#     4   9  17  30  47  71 101 133 167 206 249 302
#     4  11  21  36  53  72 101 142 179 207 252 312
#
# _framework density 16.997394
#
# number of rings (size 3 to 8) (size 9 to 14) (size 15 to 20)
#    0.000    1.500    3.750    3.000    0.000    2.000 
#    0.000    0.000    0.000    0.000    0.000    0.875 
#    0.000    2.000    0.000    0.000    0.000    0.000 
#
# Total GULP energy -396750.299178 kJ/mol
# GULP energy per Si atom -12398.446849 kJ/mol
# Density = 1.695871 g / cm^3
# Si number density = 16.997394 Si / 1000 Ang^3
#
#
#
# Elastic Constant Matrix: (Units=GPa)
#
#
# Indices 1 2 3 4 5 6 
#
# 1 55.9329 29.1325 25.8749 0.0002 0.0000 0.0000
# 2 29.1325 100.6318 23.4429 0.0005 0.0000 0.0000
# 3 25.8749 23.4429 72.4075 0.0002 0.0003 0.0000
# 4 0.0002 0.0005 0.0002 22.8938 0.0001 0.0000
# 5 0.0000 0.0000 0.0003 0.0001 15.3928 0.0000
# 6 0.0000 0.0000 0.0000 0.0000 0.0000 25.0037
#
#
#
# Elastic Compliance Matrix: (Units=1/GPa)
#
#
# Indices 1 2 3 4 5 6 
#
# 1 0.023778 -0.005304 -0.006780 0.000000 0.000000 0.000000
# 2 -0.005304 0.011931 -0.001967 0.000000 0.000000 0.000000
# 3 -0.006780 -0.001967 0.016870 0.000000 0.000000 0.000000
# 4 0.000000 0.000000 0.000000 0.043680 0.000000 0.000000
# 5 0.000000 0.000000 0.000000 0.000000 0.064965 0.000000
# 6 0.000000 0.000000 0.000000 0.000000 0.000000 0.039994
#
#
# Mechanical properties :
#
#
# Convention : Reuss Voigt Hill
#
# Bulk Modulus (GPa) = 40.85529 42.87477 41.86503
# Shear Modulus (GPa) = 21.05444 22.69286 21.87365
#
# Velocity S-wave (km/s) = 3.52332 3.65784 3.59121
# Velocity P-wave (km/s) = 6.37496 6.56649 6.47143
#
# Compressibility (1/GPa) = 0.02447663
#
# Stress axis : x y z
#
# Youngs Moduli (GPa) = 42.05648 83.81486 59.27538
#
# Poissons Ratio (x) = 0.44457 0.40187
# Poissons Ratio (y) = 0.22307 0.11662
# Poissons Ratio (z) = 0.28513 0.16490
#
# Static dielectric constant tensor:
#      x y z
#    x 3.114940 0.000000 0.000000 
#    y 0.000000 3.292410 0.000000 
#    z 0.000000 0.000000 3.089930 
# 
# 
# High freq. dielectric constant tensor:
#      x y z
#    x 1.656980 0.000000 0.000000 
#    y 0.000000 1.649000 0.000000 
#    z 0.000000 0.000000 1.624430 
# 
# From -- ./inp_files/14749.got.cif
#   From: 2010.03.12/outbox.cif.g09.slc.cpg/sg46_8_cif.got.tgz:14749.got - 2010.04.14 02:56:35.
