data_PCOD8192531
_publ_section_title
;
Structure prediction by ZEFSAII (Michael W. Deem and Ramdas Pophale) SiO2 
 PCOD8192531
Probable space group: I M A 2
;
_chemical_formula_sum "Si O2"
_cell_formula_units_Z 60
_cell_length_a 14.733099
_cell_length_b 11.288379
_cell_length_c 19.682296
_cell_angle_alpha 90.000000
_cell_angle_beta 90.000000
_cell_angle_gamma 90.000000
_cell_volume 3273.417864
_symmetry_space_group_name_H-M "I M A 2"
_symmetry_group_IT_number 46
_symmetry_cell_setting 'orthorhombic'
loop_
_space_group_symop_operation_xyz
x,y,z
-x,-y,z
1/2-x,y,z
1/2+x,-y,z
1/2+x,1/2+y,1/2+z
1/2-x,1/2-y,1/2+z
-x,1/2+y,1/2+z
x,1/2-y,1/2+z
loop_
_atom_site_type_symbol
_atom_site_label
_atom_site_fract_x
_atom_site_fract_y
_atom_site_fract_z
Si Si1 0.145373 0.929517 0.983390
Si Si2 0.649844 0.855230 0.407421
Si Si3 0.970066 0.221998 0.246541
Si Si4 0.000000 0.000000 0.337705
Si Si5 0.643926 0.408327 0.329758
Si Si6 0.851595 0.826726 0.789176
Si Si7 0.020882 0.634116 0.604498
Si Si8 0.147356 0.307438 0.529562
O O1 0.250000 0.896032 0.995149
O O2 0.112660 0.891449 0.908117
O O3 0.087420 0.858313 0.039562
O O4 0.129944 0.070142 0.989071
O O5 0.750000 0.912735 0.403540
O O6 0.579872 0.956639 0.386979
O O7 0.644728 0.740309 0.360371
O O8 0.630368 0.806469 0.482505
O O9 0.908133 0.319390 0.281259
O O10 0.934553 0.197137 0.170129
O O11 0.074420 0.266480 0.240109
O O12 0.961697 0.103592 0.290686
O O13 0.750000 0.382507 0.323845
O O14 0.620477 0.538935 0.303789
O O15 0.750000 0.817704 0.757144
O O16 0.000000 0.500000 0.625361
O O17 0.925852 0.700481 0.589526
O O18 0.250000 0.306138 0.559026
#
# Coordination Sequence:
#
# PCOD8192531 Si02
#       8
#     8   8   8   4   8   8   8   8
#     4   9  18  33  55  84 110 132 173 230 282 322
#     4   9  17  33  56  81 108 138 177 229 273 313
#     4  11  22  35  52  79 116 152 181 213 265 333
#     4  10  22  34  50  76 118 152 184 210 256 332
#     4  10  20  35  59  87 108 134 181 235 281 320
#     4   9  18  33  56  83 108 134 179 235 276 311
#     4  10  21  34  51  79 113 147 178 221 269 325
#     4   9  17  32  58  83 103 132 178 232 279 314
#
# _framework density 18.329464999999999
#
# number of rings (size 3 to 8) (size 9 to 14) (size 15 to 20)
#    0.000    2.400    2.000    0.400    3.733    2.667 
#    0.000    0.000    2.933    0.000    0.000    0.000 
#    0.000    0.000    0.000    0.000    0.000    0.000 
#
# Total GULP energy -371924.378129 kJ/mol
# GULP energy per Si atom -12397.479271 kJ/mol
# Density = 1.828775 g / cm^3
# Si number density = 18.329465 Si / 1000 Ang^3
#
#
#
# Elastic Constant Matrix: (Units=GPa)
#
#
# Indices 1 2 3 4 5 6 
#
# 1 87.5939 53.2904 52.3899 0.0000 0.0000 0.0000
# 2 53.2904 90.9886 43.5855 0.0000 0.0000 0.0000
# 3 52.3899 43.5855 102.0032 0.0000 0.0000 0.0000
# 4 0.0000 0.0000 0.0000 20.3425 0.0000 0.0000
# 5 0.0000 0.0000 0.0000 0.0000 22.2035 0.0000
# 6 0.0000 0.0000 0.0000 0.0000 0.0000 30.0449
#
#
#
# Elastic Compliance Matrix: (Units=1/GPa)
#
#
# Indices 1 2 3 4 5 6 
#
# 1 0.021058 -0.008993 -0.006973 0.000000 0.000000 0.000000
# 2 -0.008993 0.017660 -0.002927 0.000000 0.000000 0.000000
# 3 -0.006973 -0.002927 0.014636 0.000000 0.000000 0.000000
# 4 0.000000 0.000000 0.000000 0.049158 0.000000 0.000000
# 5 0.000000 0.000000 0.000000 0.000000 0.045038 0.000000
# 6 0.000000 0.000000 0.000000 0.000000 0.000000 0.033284
#
#
# Mechanical properties :
#
#
# Convention : Reuss Voigt Hill
#
# Bulk Modulus (GPa) = 64.23696 64.34638 64.29167
# Shear Modulus (GPa) = 22.34058 23.27283 22.80670
#
# Velocity S-wave (km/s) = 3.49497 3.56714 3.53124
# Velocity P-wave (km/s) = 7.16995 7.22133 7.19569
#
# Compressibility (1/GPa) = 0.01556736
#
# Stress axis : x y z
#
# Youngs Moduli (GPa) = 47.48772 56.62656 68.32653
#
# Poissons Ratio (x) = 0.50925 0.47643
# Poissons Ratio (y) = 0.42707 0.19998
# Poissons Ratio (z) = 0.33113 0.16574
#
# Static dielectric constant tensor:
#      x y z
#    x 3.634070 0.000000 0.000000 
#    y 0.000000 3.168480 0.000000 
#    z 0.000000 0.000000 3.192660 
# 
# 
# High freq. dielectric constant tensor:
#      x y z
#    x 1.719730 0.000000 0.000000 
#    y 0.000000 1.689270 0.000000 
#    z 0.000000 0.000000 1.694450 
# 
# From -- ./inp_files/22114.got.cif
#   From: 2010.03.12/outbox.cif.g09.slc.cpg/sg46_12_cif.got.tgz:22114.got - 2010.04.14 02:56:35.
