data_PCOD8192284
_publ_section_title
;
Structure prediction by ZEFSAII (Michael W. Deem and Ramdas Pophale) SiO2 
 PCOD8192284
Probable space group: I M A 2
;
_chemical_formula_sum "Si O2"
_cell_formula_units_Z 48
_cell_length_a 8.811696
_cell_length_b 16.424970
_cell_length_c 18.277326
_cell_angle_alpha 90.000000
_cell_angle_beta 90.000000
_cell_angle_gamma 90.000000
_cell_volume 2645.311067
_symmetry_space_group_name_H-M "I M A 2"
_symmetry_group_IT_number 46
_symmetry_cell_setting 'orthorhombic'
loop_
_space_group_symop_operation_xyz
x,y,z
-x,-y,z
1/2-x,y,z
1/2+x,-y,z
1/2+x,1/2+y,1/2+z
1/2-x,1/2-y,1/2+z
-x,1/2+y,1/2+z
x,1/2-y,1/2+z
loop_
_atom_site_type_symbol
_atom_site_label
_atom_site_fract_x
_atom_site_fract_y
_atom_site_fract_z
Si Si1 0.583054 0.165694 0.709040
Si Si2 0.069483 0.415191 0.751531
Si Si3 0.570610 0.742147 0.995685
Si Si4 0.070366 0.769653 0.339457
Si Si5 0.420466 0.668135 0.620701
Si Si6 0.426016 0.416954 0.084888
O O1 0.750000 0.125411 0.710235
O O2 0.529103 0.189487 0.790855
O O3 0.588228 0.249447 0.665579
O O4 0.471930 0.102563 0.668943
O O5 0.250000 0.419290 0.749572
O O6 0.000000 0.500000 0.779143
O O7 0.018758 0.347914 0.810070
O O8 0.007312 0.398010 0.669897
O O9 0.750000 0.748556 0.983907
O O10 0.514876 0.816503 0.046543
O O11 0.523554 0.655922 0.031562
O O12 0.482172 0.750678 0.920422
O O13 0.250000 0.787249 0.335595
O O14 0.250000 0.637192 0.602462
O O15 0.500000 0.500000 0.056329
O O16 0.250000 0.430663 0.082709
#
# Coordination Sequence:
#
# PCOD8192284 Si02
#       6
#     8   8   8   8   8   8
#     4   8  16  31  50  70  94 125 164 203 241 287
#     4  11  21  34  52  75 103 134 168 208 251 301
#     4  10  20  33  50  75 103 134 169 206 248 295
#     4  10  20  34  52  75 102 134 167 204 251 300
#     4   9  17  32  52  73  97 129 168 208 247 293
#     4  10  20  32  49  72  99 130 164 201 244 290
#
# _framework density 18.145313999999999
#
# number of rings (size 3 to 8) (size 9 to 14) (size 15 to 20)
#    0.000    2.333    0.000    4.500    0.000    7.333 
#    0.000    1.667    0.000    1.000    0.000    2.333 
#    0.000    0.000    0.000    0.000    0.000    0.000 
#
# Total GULP energy -297558.457453 kJ/mol
# GULP energy per Si atom -12398.269061 kJ/mol
# Density = 1.810401 g / cm^3
# Si number density = 18.145314 Si / 1000 Ang^3
#
#
#
# Elastic Constant Matrix: (Units=GPa)
#
#
# Indices 1 2 3 4 5 6 
#
# 1 85.6233 3.3609 25.2090 0.0000 0.0000 0.0000
# 2 3.3609 5.5168 7.8455 0.0000 0.0000 0.0000
# 3 25.2090 7.8455 104.1752 0.0000 0.0000 0.0000
# 4 0.0000 0.0000 0.0000 16.3666 0.0000 0.0000
# 5 0.0000 0.0000 0.0000 0.0000 33.0845 0.0000
# 6 0.0000 0.0000 0.0000 0.0000 0.0000 28.1152
#
#
#
# Elastic Compliance Matrix: (Units=1/GPa)
#
#
# Indices 1 2 3 4 5 6 
#
# 1 0.012644 -0.003754 -0.002777 0.000000 0.000000 0.000000
# 2 -0.003754 0.204120 -0.014464 0.000000 0.000000 0.000000
# 3 -0.002777 -0.014464 0.011360 0.000000 0.000000 0.000000
# 4 0.000000 0.000000 0.000000 0.061100 0.000000 0.000000
# 5 0.000000 0.000000 0.000000 0.000000 0.030226 0.000000
# 6 0.000000 0.000000 0.000000 0.000000 0.000000 0.035568
#
#
# Mechanical properties :
#
#
# Convention : Reuss Voigt Hill
#
# Bulk Modulus (GPa) = 5.37245 29.79400 17.58323
# Shear Modulus (GPa) = 10.89201 26.10658 18.49930
#
# Velocity S-wave (km/s) = 2.45269 3.79720 3.19644
# Velocity P-wave (km/s) = 3.31484 5.97330 4.83055
#
# Compressibility (1/GPa) = 0.18613472
#
# Stress axis : x y z
#
# Youngs Moduli (GPa) = 79.08890 4.89909 88.02439
#
# Poissons Ratio (x) = 0.01839 0.24444
# Poissons Ratio (y) = 0.29688 1.27318
# Poissons Ratio (z) = 0.21963 0.07086
#
# Static dielectric constant tensor:
#      x y z
#    x 3.472120 0.000000 0.000000 
#    y 0.000000 3.278450 0.000000 
#    z 0.000000 0.000000 3.460830 
# 
# 
# High freq. dielectric constant tensor:
#      x y z
#    x 1.717840 0.000000 0.000000 
#    y 0.000000 1.673930 0.000000 
#    z 0.000000 0.000000 1.695930 
# 
# From -- ./inp_files/13898.got.cif
#   From: 2010.03.12/outbox.cif.g09.slc.cpg/sg46_7_cif.got.tgz:13898.got - 2010.04.14 02:56:35.
