data_PCOD8192428
_publ_section_title
;
Structure prediction by ZEFSAII (Michael W. Deem and Ramdas Pophale) SiO2 
 PCOD8192428
Probable space group: I M A 2
;
_chemical_formula_sum "Si O2"
_cell_formula_units_Z 56
_cell_length_a 20.850848
_cell_length_b 10.735638
_cell_length_c 12.751053
_cell_angle_alpha 90.000000
_cell_angle_beta 90.000000
_cell_angle_gamma 90.000000
_cell_volume 2854.286952
_symmetry_space_group_name_H-M "I M A 2"
_symmetry_group_IT_number 46
_symmetry_cell_setting 'orthorhombic'
loop_
_space_group_symop_operation_xyz
x,y,z
-x,-y,z
1/2-x,y,z
1/2+x,-y,z
1/2+x,1/2+y,1/2+z
1/2-x,1/2-y,1/2+z
-x,1/2+y,1/2+z
x,1/2-y,1/2+z
loop_
_atom_site_type_symbol
_atom_site_label
_atom_site_fract_x
_atom_site_fract_y
_atom_site_fract_z
Si Si1 0.919999 0.689209 0.187450
Si Si2 0.064675 0.052930 0.292542
Si Si3 0.677832 0.397108 0.348407
Si Si4 0.675906 0.006925 0.620695
Si Si5 0.621969 0.148423 0.419019
Si Si6 0.982435 0.803083 0.483171
Si Si7 0.935371 0.935005 0.901661
O O1 0.907631 0.833350 0.223012
O O2 0.855386 0.629658 0.138891
O O3 0.945091 0.609223 0.283390
O O4 0.978541 0.667747 0.106317
O O5 0.046415 0.088538 0.411872
O O6 0.115550 0.942504 0.316376
O O7 0.000000 0.000000 0.236223
O O8 0.750000 0.442226 0.374459
O O9 0.664699 0.408264 0.223937
O O10 0.671465 0.254295 0.383728
O O11 0.628757 0.483161 0.414836
O O12 0.750000 0.981986 0.598510
O O13 0.646371 0.076438 0.521111
O O14 0.555307 0.219374 0.446319
O O15 0.933060 0.686819 0.473754
O O16 0.000000 0.000000 0.939031
#
# Coordination Sequence:
#
# PCOD8192428 Si02
#       7
#     8   8   8   8   8   8   8
#     4  10  21  36  60  81 116 152 196 242 297 345
#     4   9  20  35  53  89 117 144 189 244 300 351
#     4  10  22  40  60  86 120 157 197 245 298 356
#     4  10  22  39  61  84 114 164 211 236 288 368
#     4  11  20  36  62  87 123 152 195 249 305 355
#     4  10  20  34  56  87 114 150 191 243 293 354
#     4  10  20  36  57  86 114 150 199 238 287 349
#
# _framework density 19.619610999999999
#
# number of rings (size 3 to 8) (size 9 to 14) (size 15 to 20)
#    0.000    2.000    2.857    0.429    4.000    0.571 
#    2.571    2.143    0.000    0.000    0.000    0.000 
#    0.000    0.000    0.000    0.000    0.000    0.000 
#
# Total GULP energy -346980.840177 kJ/mol
# GULP energy per Si atom -12392.172863 kJ/mol
# Density = 1.957496 g / cm^3
# Si number density = 19.619611 Si / 1000 Ang^3
#
#
#
# Elastic Constant Matrix: (Units=GPa)
#
#
# Indices 1 2 3 4 5 6 
#
# 1 97.2649 45.9820 22.4156 0.0000 0.0000 0.0000
# 2 45.9820 118.5332 28.8282 0.0000 0.0000 0.0000
# 3 22.4156 28.8282 61.5373 0.0000 0.0000 0.0000
# 4 0.0000 0.0000 0.0000 21.5825 0.0000 0.0000
# 5 0.0000 0.0000 0.0000 0.0000 20.5481 0.0000
# 6 0.0000 0.0000 0.0000 0.0000 0.0000 32.6400
#
#
#
# Elastic Compliance Matrix: (Units=1/GPa)
#
#
# Indices 1 2 3 4 5 6 
#
# 1 0.012968 -0.004381 -0.002671 0.000000 0.000000 0.000000
# 2 -0.004381 0.011001 -0.003558 0.000000 0.000000 0.000000
# 3 -0.002671 -0.003558 0.018890 0.000000 0.000000 0.000000
# 4 0.000000 0.000000 0.000000 0.046334 0.000000 0.000000
# 5 0.000000 0.000000 0.000000 0.000000 0.048666 0.000000
# 6 0.000000 0.000000 0.000000 0.000000 0.000000 0.030637
#
#
# Mechanical properties :
#
#
# Convention : Reuss Voigt Hill
#
# Bulk Modulus (GPa) = 46.21307 52.42077 49.31692
# Shear Modulus (GPa) = 25.38974 26.96143 26.17558
#
# Velocity S-wave (km/s) = 3.60126 3.71105 3.65657
# Velocity P-wave (km/s) = 6.39514 6.71856 6.55885
#
# Compressibility (1/GPa) = 0.02163890
#
# Stress axis : x y z
#
# Youngs Moduli (GPa) = 77.11341 90.89898 52.93756
#
# Poissons Ratio (x) = 0.39822 0.14142
# Poissons Ratio (y) = 0.33782 0.18835
# Poissons Ratio (z) = 0.20600 0.32341
#
# Static dielectric constant tensor:
#      x y z
#    x 3.492270 0.000000 0.000000 
#    y 0.000000 3.715010 0.000000 
#    z 0.000000 0.000000 3.500520 
# 
# 
# High freq. dielectric constant tensor:
#      x y z
#    x 1.745480 0.000000 0.000000 
#    y 0.000000 1.772860 0.000000 
#    z 0.000000 0.000000 1.755340 
# 
# From -- ./inp_files/12391.got.cif
#   From: 2010.03.12/outbox.cif.g09.slc.cpg/sg46_7_cif.got.tgz:12391.got - 2010.04.14 02:56:35.
