data_PCOD8192406
_publ_section_title
;
Structure prediction by ZEFSAII (Michael W. Deem and Ramdas Pophale) SiO2 
 PCOD8192406
Probable space group: I M A 2
;
_chemical_formula_sum "Si O2"
_cell_formula_units_Z 48
_cell_length_a 9.712459
_cell_length_b 26.885483
_cell_length_c 9.769626
_cell_angle_alpha 90.000000
_cell_angle_beta 90.000000
_cell_angle_gamma 90.000000
_cell_volume 2551.085298
_symmetry_space_group_name_H-M "I M A 2"
_symmetry_group_IT_number 46
_symmetry_cell_setting 'orthorhombic'
loop_
_space_group_symop_operation_xyz
x,y,z
-x,-y,z
1/2-x,y,z
1/2+x,-y,z
1/2+x,1/2+y,1/2+z
1/2-x,1/2-y,1/2+z
-x,1/2+y,1/2+z
x,1/2-y,1/2+z
loop_
_atom_site_type_symbol
_atom_site_label
_atom_site_fract_x
_atom_site_fract_y
_atom_site_fract_z
Si Si1 0.903557 0.455755 0.643670
Si Si2 0.089637 0.549219 0.125734
Si Si3 0.409931 0.207996 0.308081
Si Si4 0.407768 0.881908 0.376028
Si Si5 0.407336 0.892584 0.892670
Si Si6 0.589842 0.697841 0.492850
O O1 0.750000 0.475121 0.671797
O O2 0.932525 0.405657 0.727743
O O3 0.927141 0.441490 0.486275
O O4 0.000000 0.500000 0.691870
O O5 0.250000 0.533938 0.132142
O O6 0.053149 0.589625 0.241563
O O7 0.000000 0.500000 0.142886
O O8 0.050511 0.576100 0.984884
O O9 0.250000 0.194423 0.323050
O O10 0.495387 0.165753 0.386461
O O11 0.445817 0.258436 0.387261
O O12 0.451900 0.213141 0.148097
O O13 0.250000 0.864866 0.397868
O O14 0.250000 0.873258 0.901154
O O15 0.506427 0.849386 0.942053
O O16 0.750000 0.683917 0.487165
#
# Coordination Sequence:
#
# PCOD8192406 Si02
#       6
#     8   8   8   8   8   8
#     4  10  20  34  55  80 109 143 182 227 273 326
#     4  10  22  38  57  84 117 151 190 233 277 330
#     4  10  22  39  59  85 114 145 185 232 282 337
#     4  10  21  38  57  82 115 148 186 231 277 331
#     4  10  21  38  57  82 115 148 186 231 277 331
#     4  10  22  39  59  85 114 145 185 232 282 337
#
# _framework density 18.815522000000001
#
# number of rings (size 3 to 8) (size 9 to 14) (size 15 to 20)
#    0.000    2.000    1.667    1.000    2.333    3.333 
#    0.000    0.000    0.000    0.000    0.000    0.000 
#    0.000    0.000    0.000    0.000    0.000    0.000 
#
# Total GULP energy -297653.821954 kJ/mol
# GULP energy per Si atom -12402.242581 kJ/mol
# Density = 1.877270 g / cm^3
# Si number density = 18.815522 Si / 1000 Ang^3
#
#
#
# Elastic Constant Matrix: (Units=GPa)
#
#
# Indices 1 2 3 4 5 6 
#
# 1 81.1702 71.6371 37.9312 -0.0012 -0.0005 0.0000
# 2 71.6371 109.3376 38.1963 -0.0019 -0.0010 -0.0003
# 3 37.9312 38.1963 90.4278 -0.0037 -0.0025 -0.0001
# 4 -0.0012 -0.0019 -0.0037 20.5588 -0.0010 0.0000
# 5 -0.0005 -0.0010 -0.0025 -0.0010 24.7068 -0.0002
# 6 0.0000 -0.0003 -0.0001 0.0000 -0.0002 44.6473
#
#
#
# Elastic Compliance Matrix: (Units=1/GPa)
#
#
# Indices 1 2 3 4 5 6 
#
# 1 0.031178 -0.018604 -0.005220 -0.000001 -0.000001 0.000000
# 2 -0.018604 0.021830 -0.001417 0.000001 0.000000 0.000000
# 3 -0.005220 -0.001417 0.013847 0.000002 0.000001 0.000000
# 4 -0.000001 0.000001 0.000002 0.048641 0.000002 0.000000
# 5 -0.000001 0.000000 0.000001 0.000002 0.040475 0.000000
# 6 0.000000 0.000000 0.000000 0.000000 0.000000 0.022398
#
#
# Mechanical properties :
#
#
# Convention : Reuss Voigt Hill
#
# Bulk Modulus (GPa) = 61.07698 64.05164 62.56431
# Shear Modulus (GPa) = 21.33933 26.86064 24.09998
#
# Velocity S-wave (km/s) = 3.37134 3.78243 3.58279
# Velocity P-wave (km/s) = 6.90551 7.29325 7.10203
#
# Compressibility (1/GPa) = 0.01637278
#
# Stress axis : x y z
#
# Youngs Moduli (GPa) = 32.07364 45.80762 72.21929
#
# Poissons Ratio (x) = 0.85222 0.37697
# Poissons Ratio (y) = 0.59671 0.10235
# Poissons Ratio (z) = 0.16742 0.06492
#
# Static dielectric constant tensor:
#      x y z
#    x 3.420510 0.000000 0.000000 
#    y 0.000000 3.174580 0.000000 
#    z 0.000000 0.000000 3.674820 
# 
# 
# High freq. dielectric constant tensor:
#      x y z
#    x 1.728070 0.000000 0.000000 
#    y 0.000000 1.723310 0.000000 
#    z 0.000000 0.000000 1.748420 
# 
# From -- ./inp_files/3885.got.cif
#   From: 2010.03.12/outbox.cif.g09.slc.cpg/sg46_2_cif.got.tgz:3885.got - 2010.04.14 02:56:35.
