data_PCOD8192884
_publ_section_title
;
Structure prediction by ZEFSAII (Michael W. Deem and Ramdas Pophale) SiO2 
 PCOD8192884
Probable space group: I M A 2
;
_chemical_formula_sum "Si O2"
_cell_formula_units_Z 64
_cell_length_a 9.216038
_cell_length_b 29.286183
_cell_length_c 12.456102
_cell_angle_alpha 90.000000
_cell_angle_beta 90.000000
_cell_angle_gamma 90.000000
_cell_volume 3361.934009
_symmetry_space_group_name_H-M "I M A 2"
_symmetry_group_IT_number 46
_symmetry_cell_setting 'orthorhombic'
loop_
_space_group_symop_operation_xyz
x,y,z
-x,-y,z
1/2-x,y,z
1/2+x,-y,z
1/2+x,1/2+y,1/2+z
1/2-x,1/2-y,1/2+z
-x,1/2+y,1/2+z
x,1/2-y,1/2+z
loop_
_atom_site_type_symbol
_atom_site_label
_atom_site_fract_x
_atom_site_fract_y
_atom_site_fract_z
Si Si1 0.921658 0.952311 0.135660
Si Si2 0.418313 0.046203 0.890778
Si Si3 0.415235 0.252921 0.968592
Si Si4 0.421513 0.877876 0.280261
Si Si5 0.580610 0.874308 0.732339
Si Si6 0.090331 0.785167 0.787632
Si Si7 0.084453 0.142709 0.494221
Si Si8 0.090959 0.793597 0.134643
O O1 0.750000 0.956610 0.158764
O O2 0.993317 0.916371 0.215521
O O3 0.951063 0.936920 0.012388
O O4 0.000000 0.000000 0.158361
O O5 0.250000 0.035774 0.876718
O O6 0.471490 0.083104 0.803777
O O7 0.500000 0.000000 0.863367
O O8 0.250000 0.242105 0.941282
O O9 0.508982 0.251286 0.861830
O O10 0.434452 0.303345 0.017867
O O11 0.470630 0.210780 0.042501
O O12 0.250000 0.888276 0.281920
O O13 0.478170 0.876001 0.402445
O O14 0.458648 0.829842 0.223916
O O15 0.750000 0.864480 0.748172
O O16 0.496846 0.831319 0.777664
O O17 0.545629 0.882740 0.606273
O O18 0.250000 0.796622 0.833334
O O19 0.103847 0.758048 0.677081
O O20 0.250000 0.132338 0.459214
O O21 0.250000 0.808133 0.089410
#
# Coordination Sequence:
#
# PCOD8192884 Si02
#       8
#     8   8   8   8   8   8   8   8
#     4  10  21  40  64  91 118 148 187 234 294 352
#     4   9  20  39  64  89 117 146 180 232 289 346
#     4  11  22  35  54  78 110 154 199 243 287 337
#     4  11  23  39  59  85 118 155 196 242 290 347
#     4  10  21  39  59  86 117 152 197 242 288 342
#     4  11  22  36  54  80 115 155 194 239 287 339
#     4  10  21  37  57  81 115 157 198 241 287 339
#     4  10  22  37  53  78 114 153 194 239 287 337
#
# _framework density 19.036660999999999
#
# number of rings (size 3 to 8) (size 9 to 14) (size 15 to 20)
#    0.000    1.750    2.500    1.500    1.750    3.500 
#    0.000    0.625    0.000    1.500    0.000    0.000 
#    0.000    0.000    0.000    0.000    0.000    0.000 
#
# Total GULP energy -396718.719333 kJ/mol
# GULP energy per Si atom -12397.459979 kJ/mol
# Density = 1.899333 g / cm^3
# Si number density = 19.036661 Si / 1000 Ang^3
#
#
#
# Elastic Constant Matrix: (Units=GPa)
#
#
# Indices 1 2 3 4 5 6 
#
# 1 97.9136 50.8021 53.1705 0.0003 0.0000 0.0001
# 2 50.8021 99.7569 50.2354 0.0004 -0.0002 0.0001
# 3 53.1705 50.2354 96.7907 0.0018 0.0005 0.0001
# 4 0.0003 0.0004 0.0018 36.9558 0.0000 -0.0001
# 5 0.0000 -0.0002 0.0005 0.0000 31.3057 0.0001
# 6 0.0001 0.0001 0.0001 -0.0001 0.0001 27.0490
#
#
#
# Elastic Compliance Matrix: (Units=1/GPa)
#
#
# Indices 1 2 3 4 5 6 
#
# 1 0.016288 -0.005130 -0.006285 0.000000 0.000000 0.000000
# 2 -0.005130 0.015187 -0.005064 0.000000 0.000000 0.000000
# 3 -0.006285 -0.005064 0.016413 -0.000001 0.000000 0.000000
# 4 0.000000 0.000000 -0.000001 0.027059 0.000000 0.000000
# 5 0.000000 0.000000 0.000000 0.000000 0.031943 0.000000
# 6 0.000000 0.000000 0.000000 0.000000 0.000000 0.036970
#
#
# Mechanical properties :
#
#
# Convention : Reuss Voigt Hill
#
# Bulk Modulus (GPa) = 66.98269 66.98637 66.98453
# Shear Modulus (GPa) = 27.50370 28.41230 27.95800
#
# Velocity S-wave (km/s) = 3.80514 3.86749 3.83644
# Velocity P-wave (km/s) = 7.38702 7.43019 7.40864
#
# Compressibility (1/GPa) = 0.01492923
#
# Stress axis : x y z
#
# Youngs Moduli (GPa) = 61.39668 65.84604 60.92891
#
# Poissons Ratio (x) = 0.33776 0.38294
# Poissons Ratio (y) = 0.31494 0.30856
# Poissons Ratio (z) = 0.38588 0.33347
#
# Static dielectric constant tensor:
#      x y z
#    x 3.600480 0.000000 0.000000 
#    y 0.000000 3.341440 0.000000 
#    z 0.000000 0.000000 3.512740 
# 
# 
# High freq. dielectric constant tensor:
#      x y z
#    x 1.749520 0.000000 0.000000 
#    y 0.000000 1.722520 0.000000 
#    z 0.000000 0.000000 1.741610 
# 
# From -- ./inp_files/9692.got.cif
#   From: 2010.03.12/outbox.cif.g09.slc.cpg/sg46_5_cif.got.tgz:9692.got - 2010.04.14 02:56:35.
