data_PCOD8192692
_publ_section_title
;
Structure prediction by ZEFSAII (Michael W. Deem and Ramdas Pophale) SiO2 
 PCOD8192692
Probable space group: I M A 2
;
_chemical_formula_sum "Si O2"
_cell_formula_units_Z 56
_cell_length_a 15.089585
_cell_length_b 10.370208
_cell_length_c 16.715727
_cell_angle_alpha 90.000000
_cell_angle_beta 90.000000
_cell_angle_gamma 90.000000
_cell_volume 2615.712650
_symmetry_space_group_name_H-M "I M A 2"
_symmetry_group_IT_number 46
_symmetry_cell_setting 'orthorhombic'
loop_
_space_group_symop_operation_xyz
x,y,z
-x,-y,z
1/2-x,y,z
1/2+x,-y,z
1/2+x,1/2+y,1/2+z
1/2-x,1/2-y,1/2+z
-x,1/2+y,1/2+z
x,1/2-y,1/2+z
loop_
_atom_site_type_symbol
_atom_site_label
_atom_site_fract_x
_atom_site_fract_y
_atom_site_fract_z
Si Si1 0.146903 0.891137 0.318850
Si Si2 0.152010 0.780149 0.152783
Si Si3 0.905973 0.021618 0.717806
Si Si4 0.150298 0.320911 0.808577
Si Si5 0.521916 0.177451 0.864769
Si Si6 0.653644 0.762099 0.644384
Si Si7 0.999323 0.356981 0.547138
O O1 0.250000 0.853329 0.328997
O O2 0.116797 0.865147 0.227102
O O3 0.086587 0.800378 0.374090
O O4 0.129208 0.038341 0.345703
O O5 0.250000 0.822590 0.126917
O O6 0.152924 0.631173 0.178156
O O7 0.090779 0.791902 0.075817
O O8 0.930367 0.066065 0.810252
O O9 0.854648 0.889146 0.701365
O O10 0.000000 0.000000 0.673047
O O11 0.250000 0.275325 0.835884
O O12 0.150381 0.347709 0.712629
O O13 0.073849 0.217985 0.829160
O O14 0.501497 0.126737 0.952461
O O15 0.750000 0.765110 0.601376
O O16 0.581184 0.732382 0.576659
O O17 0.000000 0.500000 0.584663
#
# Coordination Sequence:
#
# PCOD8192692 Si02
#       7
#     8   8   8   8   8   8   8
#     4   9  19  38  64  91 119 162 221 271 319 385
#     4  10  21  39  64  92 123 162 212 268 323 389
#     4  11  19  40  68  92 123 168 224 266 313 388
#     4  10  20  37  63  92 120 163 221 274 323 388
#     4  11  23  39  64  91 133 173 216 271 337 395
#     4  11  23  42  69  96 128 170 220 271 327 393
#     4  12  26  41  62  94 135 171 212 272 347 402
#
# _framework density 21.409078999999998
#
# number of rings (size 3 to 8) (size 9 to 14) (size 15 to 20)
#    0.000    1.429    2.857    3.000    0.000    3.429 
#    5.143    0.000    0.000    0.000    0.000    0.000 
#    0.000    0.000    0.000    0.000    0.000    0.000 
#
# Total GULP energy -346902.940530 kJ/mol
# GULP energy per Si atom -12389.390733 kJ/mol
# Density = 2.136035 g / cm^3
# Si number density = 21.409079 Si / 1000 Ang^3
#
#
#
# Elastic Constant Matrix: (Units=GPa)
#
#
# Indices 1 2 3 4 5 6 
#
# 1 121.0356 29.4154 44.3346 0.0000 0.0000 0.0000
# 2 29.4154 92.6667 36.4228 0.0000 0.0000 0.0000
# 3 44.3346 36.4228 86.4552 0.0000 0.0000 0.0000
# 4 0.0000 0.0000 0.0000 13.4122 0.0000 0.0000
# 5 0.0000 0.0000 0.0000 0.0000 0.3502 0.0000
# 6 0.0000 0.0000 0.0000 0.0000 0.0000 27.1857
#
#
#
# Elastic Compliance Matrix: (Units=1/GPa)
#
#
# Indices 1 2 3 4 5 6 
#
# 1 0.010330 -0.001434 -0.004693 0.000000 0.000000 0.000000
# 2 -0.001434 0.013132 -0.004797 0.000000 0.000000 0.000000
# 3 -0.004693 -0.004797 0.015994 0.000000 0.000000 0.000000
# 4 0.000000 0.000000 0.000000 0.074559 0.000000 0.000000
# 5 0.000000 0.000000 0.000000 0.000000 2.855613 0.000000
# 6 0.000000 0.000000 0.000000 0.000000 0.000000 0.036784
#
#
# Mechanical properties :
#
#
# Convention : Reuss Voigt Hill
#
# Bulk Modulus (GPa) = 56.79355 57.83367 57.31361
# Shear Modulus (GPa) = 1.64792 20.85527 11.25160
#
# Velocity S-wave (km/s) = 0.87829 3.12450 2.29498
# Velocity P-wave (km/s) = 5.25489 6.33158 5.81820
#
# Compressibility (1/GPa) = 0.01760763
#
# Stress axis : x y z
#
# Youngs Moduli (GPa) = 96.80950 76.14916 62.52346
#
# Poissons Ratio (x) = 0.10923 0.29340
# Poissons Ratio (y) = 0.13887 0.29992
# Poissons Ratio (z) = 0.45430 0.36528
#
# Static dielectric constant tensor:
#      x y z
#    x 3.964040 0.000000 0.000000 
#    y 0.000000 3.953610 0.000000 
#    z 0.000000 0.000000 3.349340 
# 
# 
# High freq. dielectric constant tensor:
#      x y z
#    x 1.852870 0.000000 0.000000 
#    y 0.000000 1.852960 0.000000 
#    z 0.000000 0.000000 1.793810 
# 
# From -- ./inp_files/15987.got.cif
#   From: 2010.03.12/outbox.cif.g09.slc.cpg/sg46_8_cif.got.tgz:15987.got - 2010.04.14 02:56:35.
