data_PCOD8192505
_publ_section_title
;
Structure prediction by ZEFSAII (Michael W. Deem and Ramdas Pophale) SiO2 
 PCOD8192505
Probable space group: I M A 2
;
_chemical_formula_sum "Si O2"
_cell_formula_units_Z 64
_cell_length_a 9.030769
_cell_length_b 24.912975
_cell_length_c 14.997322
_cell_angle_alpha 90.000000
_cell_angle_beta 90.000000
_cell_angle_gamma 90.000000
_cell_volume 3374.147330
_symmetry_space_group_name_H-M "I M A 2"
_symmetry_group_IT_number 46
_symmetry_cell_setting 'orthorhombic'
loop_
_space_group_symop_operation_xyz
x,y,z
-x,-y,z
1/2-x,y,z
1/2+x,-y,z
1/2+x,1/2+y,1/2+z
1/2-x,1/2-y,1/2+z
-x,1/2+y,1/2+z
x,1/2-y,1/2+z
loop_
_atom_site_type_symbol
_atom_site_label
_atom_site_fract_x
_atom_site_fract_y
_atom_site_fract_z
Si Si1 0.574504 0.394658 0.426800
Si Si2 0.573838 0.444012 0.242921
Si Si3 0.081571 0.776556 0.898421
Si Si4 0.082604 0.752378 0.694596
Si Si5 0.423473 0.858980 0.596050
Si Si6 0.573898 0.056187 0.112651
Si Si7 0.923152 0.646195 0.725666
Si Si8 0.422405 0.330393 0.927953
O O1 0.750000 0.392219 0.419656
O O2 0.512474 0.424415 0.339055
O O3 0.516778 0.333371 0.432697
O O4 0.520715 0.426282 0.514106
O O5 0.500000 0.500000 0.218166
O O6 0.750000 0.449994 0.244230
O O7 0.520604 0.401973 0.168168
O O8 0.250000 0.767438 0.930958
O O9 0.072788 0.777838 0.792121
O O10 0.983605 0.729675 0.939806
O O11 0.250000 0.732606 0.675099
O O12 0.034193 0.799100 0.627545
O O13 0.973119 0.702325 0.681631
O O14 0.250000 0.865278 0.581765
O O15 0.503598 0.869161 0.501535
O O16 0.750000 0.051498 0.118565
O O17 0.517580 0.098380 0.184826
O O18 0.500000 0.000000 0.136518
O O19 0.750000 0.637704 0.707127
O O20 0.960659 0.646630 0.830609
O O21 0.250000 0.328694 0.945303
#
# Coordination Sequence:
#
# PCOD8192505 Si02
#       8
#     8   8   8   8   8   8   8   8
#     4   9  18  34  57  84 114 149 187 226 271 334
#     4  10  20  37  58  83 115 151 190 231 277 331
#     4   9  16  32  56  81 111 149 188 224 267 329
#     4   9  17  32  56  83 110 146 188 228 273 331
#     4  10  20  35  57  83 113 151 193 231 274 334
#     4  11  23  39  60  85 113 148 194 239 285 337
#     4  10  22  40  58  80 114 150 187 237 291 340
#     4  10  22  37  54  81 117 150 184 234 289 336
#
# _framework density 18.967755
#
# number of rings (size 3 to 8) (size 9 to 14) (size 15 to 20)
#    0.000    2.250    1.250    1.500    1.750    2.500 
#    0.000    2.500    0.000    1.500    0.000    0.000 
#    0.000    0.000    0.000    0.000    0.000    0.000 
#
# Total GULP energy -396863.051625 kJ/mol
# GULP energy per Si atom -12401.970363 kJ/mol
# Density = 1.892458 g / cm^3
# Si number density = 18.967755 Si / 1000 Ang^3
#
#
#
# Elastic Constant Matrix: (Units=GPa)
#
#
# Indices 1 2 3 4 5 6 
#
# 1 62.6056 51.2944 48.9119 0.0000 0.0000 0.0000
# 2 51.2944 121.9366 63.5166 0.0001 0.0000 0.0000
# 3 48.9119 63.5166 108.4615 -0.0001 0.0000 0.0000
# 4 0.0000 0.0001 -0.0001 26.3359 0.0000 0.0000
# 5 0.0000 0.0000 0.0000 0.0000 21.4842 0.0000
# 6 0.0000 0.0000 0.0000 0.0000 0.0000 29.5340
#
#
#
# Elastic Compliance Matrix: (Units=1/GPa)
#
#
# Indices 1 2 3 4 5 6 
#
# 1 0.028991 -0.007749 -0.008536 0.000000 0.000000 0.000000
# 2 -0.007749 0.013872 -0.004629 0.000000 0.000000 0.000000
# 3 -0.008536 -0.004629 0.015780 0.000000 0.000000 0.000000
# 4 0.000000 0.000000 0.000000 0.037971 0.000000 0.000000
# 5 0.000000 0.000000 0.000000 0.000000 0.046546 0.000000
# 6 0.000000 0.000000 0.000000 0.000000 0.000000 0.033859
#
#
# Mechanical properties :
#
#
# Convention : Reuss Voigt Hill
#
# Bulk Modulus (GPa) = 59.47096 68.93882 64.20489
# Shear Modulus (GPa) = 22.27650 24.08954 23.18302
#
# Velocity S-wave (km/s) = 3.43073 3.56761 3.49984
# Velocity P-wave (km/s) = 6.86404 7.30716 7.08906
#
# Compressibility (1/GPa) = 0.01681493
#
# Stress axis : x y z
#
# Youngs Moduli (GPa) = 34.49374 72.08726 63.37133
#
# Poissons Ratio (x) = 0.55862 0.54092
# Poissons Ratio (y) = 0.26730 0.29335
# Poissons Ratio (z) = 0.29443 0.33370
#
# Static dielectric constant tensor:
#      x y z
#    x 3.271910 0.000000 0.000000 
#    y 0.000000 3.416480 0.000000 
#    z 0.000000 0.000000 3.585810 
# 
# 
# High freq. dielectric constant tensor:
#      x y z
#    x 1.719420 0.000000 0.000000 
#    y 0.000000 1.731760 0.000000 
#    z 0.000000 0.000000 1.744050 
# 
# From -- ./inp_files/14500.got.cif
#   From: 2010.03.12/outbox.cif.g09.slc.cpg/sg46_8_cif.got.tgz:14500.got - 2010.04.14 02:56:35.
