data_PCOD8192157
_publ_section_title
;
Structure prediction by ZEFSAII (Michael W. Deem and Ramdas Pophale) SiO2 
 PCOD8192157
Probable space group: I M A 2
;
_chemical_formula_sum "Si O2"
_cell_formula_units_Z 48
_cell_length_a 8.846436
_cell_length_b 28.092519
_cell_length_c 10.275650
_cell_angle_alpha 90.000000
_cell_angle_beta 90.000000
_cell_angle_gamma 90.000000
_cell_volume 2553.690886
_symmetry_space_group_name_H-M "I M A 2"
_symmetry_group_IT_number 46
_symmetry_cell_setting 'orthorhombic'
loop_
_space_group_symop_operation_xyz
x,y,z
-x,-y,z
1/2-x,y,z
1/2+x,-y,z
1/2+x,1/2+y,1/2+z
1/2-x,1/2-y,1/2+z
-x,1/2+y,1/2+z
x,1/2-y,1/2+z
loop_
_atom_site_type_symbol
_atom_site_label
_atom_site_fract_x
_atom_site_fract_y
_atom_site_fract_z
Si Si1 0.570793 0.145231 0.458730
Si Si2 0.925306 0.301174 0.212313
Si Si3 0.927921 0.855557 0.947575
Si Si4 0.072502 0.548107 0.074782
Si Si5 0.426083 0.690143 0.694059
Si Si6 0.428117 0.549002 0.374848
O O1 0.750000 0.145446 0.454474
O O2 0.518057 0.181737 0.570695
O O3 0.509889 0.092346 0.490830
O O4 0.509428 0.161717 0.318949
O O5 0.750000 0.315029 0.235138
O O6 0.951326 0.245334 0.223721
O O7 0.023471 0.327680 0.319232
O O8 0.750000 0.862685 0.946957
O O9 0.005418 0.907250 0.956575
O O10 0.976607 0.824844 0.071168
O O11 0.250000 0.543136 0.061113
O O12 0.026162 0.556621 0.224359
O O13 0.000000 0.500000 0.018889
O O14 0.250000 0.679438 0.666584
O O15 0.500000 0.500000 0.427482
O O16 0.250000 0.546779 0.395308
#
# Coordination Sequence:
#
# PCOD8192157 Si02
#       6
#     8   8   8   8   8   8
#     4   9  17  33  56  83 109 138 181 237 288 331
#     4  10  19  37  62  85 107 143 197 245 285 333
#     4  12  24  37  55  84 122 157 190 230 285 345
#     4   9  17  31  53  80 110 137 175 229 278 328
#     4  10  21  37  60  83 110 150 194 238 285 337
#     4  10  19  35  59  85 114 145 189 241 287 338
#
# _framework density 18.796323000000001
#
# number of rings (size 3 to 8) (size 9 to 14) (size 15 to 20)
#    0.000    2.000    1.667    3.000    0.000    4.000 
#    0.000    2.500    0.000    2.000    0.000    0.000 
#    0.000    0.000    0.000    0.000    0.000    0.000 
#
# Total GULP energy -297654.460254 kJ/mol
# GULP energy per Si atom -12402.269177 kJ/mol
# Density = 1.875354 g / cm^3
# Si number density = 18.796323 Si / 1000 Ang^3
#
#
#
# Elastic Constant Matrix: (Units=GPa)
#
#
# Indices 1 2 3 4 5 6 
#
# 1 69.3860 34.9910 23.7692 0.0008 -0.0003 0.0000
# 2 34.9910 103.5217 20.4391 0.0003 0.0001 0.0000
# 3 23.7692 20.4391 67.7962 0.0025 -0.0007 -0.0006
# 4 0.0008 0.0003 0.0025 15.1996 -0.0012 -0.0002
# 5 -0.0003 0.0001 -0.0007 -0.0012 16.1498 0.0004
# 6 0.0000 0.0000 -0.0006 -0.0002 0.0004 30.2944
#
#
#
# Elastic Compliance Matrix: (Units=1/GPa)
#
#
# Indices 1 2 3 4 5 6 
#
# 1 0.018832 -0.005382 -0.004980 0.000000 0.000000 0.000000
# 2 -0.005382 0.011809 -0.001673 0.000000 0.000000 0.000000
# 3 -0.004980 -0.001673 0.017000 -0.000002 0.000001 0.000000
# 4 0.000000 0.000000 -0.000002 0.065791 0.000005 0.000000
# 5 0.000000 0.000000 0.000001 0.000005 0.061920 -0.000001
# 6 0.000000 0.000000 0.000000 0.000000 -0.000001 0.033009
#
#
# Mechanical properties :
#
#
# Convention : Reuss Voigt Hill
#
# Bulk Modulus (GPa) = 42.42443 44.34472 43.38458
# Shear Modulus (GPa) = 20.80811 23.09574 21.95192
#
# Velocity S-wave (km/s) = 3.33082 3.50914 3.42114
# Velocity P-wave (km/s) = 6.11654 6.32947 6.22391
#
# Compressibility (1/GPa) = 0.02357132
#
# Stress axis : x y z
#
# Youngs Moduli (GPa) = 53.10025 84.67831 58.82182
#
# Poissons Ratio (x) = 0.45576 0.29293
# Poissons Ratio (y) = 0.28580 0.09843
# Poissons Ratio (z) = 0.26444 0.14169
#
# Static dielectric constant tensor:
#      x y z
#    x 3.223880 0.000000 0.000000 
#    y 0.000000 3.711110 0.000000 
#    z 0.000000 0.000000 3.460780 
# 
# 
# High freq. dielectric constant tensor:
#      x y z
#    x 1.706410 0.000000 0.000000 
#    y 0.000000 1.748450 0.000000 
#    z 0.000000 0.000000 1.716340 
# 
# From -- ./inp_files/3901.got.cif
#   From: 2010.03.12/outbox.cif.g09.slc.cpg/sg46_2_cif.got.tgz:3901.got - 2010.04.14 02:56:35.
