data_PCOD8192294
_publ_section_title
;
Structure prediction by ZEFSAII (Michael W. Deem and Ramdas Pophale) SiO2 
 PCOD8192294
Probable space group: I M A 2
;
_chemical_formula_sum "Si O2"
_cell_formula_units_Z 64
_cell_length_a 8.648680
_cell_length_b 14.441363
_cell_length_c 27.708610
_cell_angle_alpha 90.000000
_cell_angle_beta 90.000000
_cell_angle_gamma 90.000000
_cell_volume 3460.770126
_symmetry_space_group_name_H-M "I M A 2"
_symmetry_group_IT_number 46
_symmetry_cell_setting 'orthorhombic'
loop_
_space_group_symop_operation_xyz
x,y,z
-x,-y,z
1/2-x,y,z
1/2+x,-y,z
1/2+x,1/2+y,1/2+z
1/2-x,1/2-y,1/2+z
-x,1/2+y,1/2+z
x,1/2-y,1/2+z
loop_
_atom_site_type_symbol
_atom_site_label
_atom_site_fract_x
_atom_site_fract_y
_atom_site_fract_z
Si Si1 0.578040 0.645137 0.497880
Si Si2 0.933625 0.598555 0.677251
Si Si3 0.080420 0.146069 0.464566
Si Si4 0.571547 0.407461 0.056986
Si Si5 0.567456 0.094589 0.901634
Si Si6 0.933967 0.291165 0.591646
Si Si7 0.566559 0.783448 0.364347
Si Si8 0.066952 0.902230 0.281403
O O1 0.750000 0.600419 0.501170
O O2 0.594588 0.749633 0.481633
O O3 0.474648 0.592727 0.458467
O O4 0.494394 0.640093 0.549741
O O5 0.750000 0.594163 0.677298
O O6 0.000000 0.500000 0.659935
O O7 0.992872 0.678599 0.641988
O O8 0.994299 0.623937 0.730104
O O9 0.250000 0.098857 0.468289
O O10 0.021703 0.148809 0.409209
O O11 0.962905 0.092205 0.499357
O O12 0.500000 0.500000 0.080787
O O13 0.750000 0.413172 0.066058
O O14 0.506908 0.314071 0.081865
O O15 0.750000 0.100279 0.894879
O O16 0.488803 0.179253 0.873623
O O17 0.500000 0.000000 0.878592
O O18 0.750000 0.296438 0.593330
O O19 0.750000 0.783117 0.356349
O O20 0.478572 0.821213 0.317867
O O21 0.250000 0.910162 0.276312
O O22 0.000000 0.000000 0.300054
#
# Coordination Sequence:
#
# PCOD8192294 Si02
#       8
#     8   8   8   8   8   8   8   8
#     4   9  17  31  49  72 101 136 175 217 260 306
#     4  11  22  38  59  82 107 136 169 214 267 322
#     4   8  16  30  48  69  99 134 171 212 254 299
#     4  10  20  32  50  74 106 143 180 218 257 304
#     4  11  21  34  52  77 109 147 185 223 265 314
#     4  10  20  35  54  79 107 139 178 221 266 318
#     4  10  20  36  56  80 108 141 180 223 268 319
#     4  11  22  38  59  83 109 138 172 216 267 322
#
# _framework density 18.492995000000001
#
# number of rings (size 3 to 8) (size 9 to 14) (size 15 to 20)
#    0.000    2.000    0.000    6.375    0.000    6.000 
#    0.000    2.500    0.000    0.750    0.000    3.500 
#    0.000    0.000    0.000    0.000    0.000    0.000 
#
# Total GULP energy -396743.423006 kJ/mol
# GULP energy per Si atom -12398.231969 kJ/mol
# Density = 1.845090 g / cm^3
# Si number density = 18.492995 Si / 1000 Ang^3
#
#
#
# Elastic Constant Matrix: (Units=GPa)
#
#
# Indices 1 2 3 4 5 6 
#
# 1 102.2642 25.1399 29.3383 0.0000 0.0000 0.0000
# 2 25.1399 86.2177 46.4830 0.0000 0.0000 0.0000
# 3 29.3383 46.4830 92.6974 0.0000 0.0000 0.0000
# 4 0.0000 0.0000 0.0000 21.7735 0.0000 0.0000
# 5 0.0000 0.0000 0.0000 0.0000 30.7954 0.0000
# 6 0.0000 0.0000 0.0000 0.0000 0.0000 30.2906
#
#
#
# Elastic Compliance Matrix: (Units=1/GPa)
#
#
# Indices 1 2 3 4 5 6 
#
# 1 0.010959 -0.001817 -0.002558 0.000000 0.000000 0.000000
# 2 -0.001817 0.016197 -0.007547 0.000000 0.000000 0.000000
# 3 -0.002558 -0.007547 0.015382 0.000000 0.000000 0.000000
# 4 0.000000 0.000000 0.000000 0.045927 0.000000 0.000000
# 5 0.000000 0.000000 0.000000 0.000000 0.032472 0.000000
# 6 0.000000 0.000000 0.000000 0.000000 0.000000 0.033014
#
#
# Mechanical properties :
#
#
# Convention : Reuss Voigt Hill
#
# Bulk Modulus (GPa) = 53.48929 53.67796 53.58363
# Shear Modulus (GPa) = 27.17019 28.58645 27.87832
#
# Velocity S-wave (km/s) = 3.83719 3.93593 3.88688
# Velocity P-wave (km/s) = 6.97273 7.05298 7.01297
#
# Compressibility (1/GPa) = 0.01869533
#
# Stress axis : x y z
#
# Youngs Moduli (GPa) = 91.25007 61.73931 65.01233
#
# Poissons Ratio (x) = 0.11216 0.16627
# Poissons Ratio (y) = 0.16577 0.49065
# Poissons Ratio (z) = 0.23337 0.46595
#
# Static dielectric constant tensor:
#      x y z
#    x 3.528640 0.000000 0.000000 
#    y 0.000000 3.552360 0.000000 
#    z 0.000000 0.000000 3.376820 
# 
# 
# High freq. dielectric constant tensor:
#      x y z
#    x 1.733500 0.000000 0.000000 
#    y 0.000000 1.711900 0.000000 
#    z 0.000000 0.000000 1.694880 
# 
# From -- ./inp_files/25272.got.cif
#   From: 2010.03.12/outbox.cif.g09.slc.cpg/sg46_13_cif.got.tgz:25272.got - 2010.04.14 02:56:35.
