data_PCOD8192866
_publ_section_title
;
Structure prediction by ZEFSAII (Michael W. Deem and Ramdas Pophale) SiO2 
 PCOD8192866
Probable space group: I M A 2
;
_chemical_formula_sum "Si O2"
_cell_formula_units_Z 48
_cell_length_a 8.812335
_cell_length_b 20.357002
_cell_length_c 14.305842
_cell_angle_alpha 90.000000
_cell_angle_beta 90.000000
_cell_angle_gamma 90.000000
_cell_volume 2566.363926
_symmetry_space_group_name_H-M "I M A 2"
_symmetry_group_IT_number 46
_symmetry_cell_setting 'orthorhombic'
loop_
_space_group_symop_operation_xyz
x,y,z
-x,-y,z
1/2-x,y,z
1/2+x,-y,z
1/2+x,1/2+y,1/2+z
1/2-x,1/2-y,1/2+z
-x,1/2+y,1/2+z
x,1/2-y,1/2+z
loop_
_atom_site_type_symbol
_atom_site_label
_atom_site_fract_x
_atom_site_fract_y
_atom_site_fract_z
Si Si1 0.571740 0.932596 0.396860
Si Si2 0.429130 0.569102 0.512340
Si Si3 0.927458 0.807997 0.518552
Si Si4 0.928481 0.121030 0.212617
Si Si5 0.572207 0.682754 0.395095
Si Si6 0.071635 0.772509 0.709663
O O1 0.750000 0.940854 0.391257
O O2 0.524916 0.875017 0.467511
O O3 0.513213 0.917661 0.293464
O O4 0.500000 0.000000 0.434731
O O5 0.500000 0.500000 0.484089
O O6 0.250000 0.564363 0.507062
O O7 0.483437 0.589577 0.615572
O O8 0.484279 0.622048 0.438352
O O9 0.750000 0.806260 0.543993
O O10 0.972084 0.748637 0.450284
O O11 0.027106 0.803957 0.611165
O O12 0.750000 0.113532 0.227645
O O13 0.978565 0.196727 0.211951
O O14 0.750000 0.668840 0.398926
O O15 0.519678 0.688963 0.288637
O O16 0.250000 0.780583 0.726066
#
# Coordination Sequence:
#
# PCOD8192866 Si02
#       6
#     8   8   8   8   8   8
#     4  11  23  39  59  87 121 159 198 242 295 353
#     4  11  23  40  59  88 123 160 201 245 298 356
#     4  10  22  39  60  86 118 156 199 243 295 353
#     4  10  21  36  58  89 123 156 192 241 298 353
#     4  11  22  39  62  88 119 158 199 247 296 352
#     4  11  22  37  61  92 121 152 196 249 296 347
#
# _framework density 18.703503999999999
#
# number of rings (size 3 to 8) (size 9 to 14) (size 15 to 20)
#    0.000    1.333    3.333    2.500    0.000    5.333 
#    0.000    0.833    0.000    2.000    0.000    0.000 
#    0.000    0.000    0.000    0.000    0.000    0.000 
#
# Total GULP energy -297769.052080 kJ/mol
# GULP energy per Si atom -12407.043837 kJ/mol
# Density = 1.866093 g / cm^3
# Si number density = 18.703504 Si / 1000 Ang^3
#
#
#
# Elastic Constant Matrix: (Units=GPa)
#
#
# Indices 1 2 3 4 5 6 
#
# 1 48.9319 32.7542 26.3585 0.0000 0.0000 0.0000
# 2 32.7542 132.0077 36.8881 0.0001 0.0000 0.0000
# 3 26.3585 36.8881 90.1361 0.0003 0.0000 0.0000
# 4 0.0000 0.0001 0.0003 32.4799 0.0000 0.0000
# 5 0.0000 0.0000 0.0000 0.0000 32.6468 0.0000
# 6 0.0000 0.0000 0.0000 0.0000 0.0000 31.3257
#
#
#
# Elastic Compliance Matrix: (Units=1/GPa)
#
#
# Indices 1 2 3 4 5 6 
#
# 1 0.026957 -0.005065 -0.005810 0.000000 0.000000 0.000000
# 2 -0.005065 0.009505 -0.002409 0.000000 0.000000 0.000000
# 3 -0.005810 -0.002409 0.013779 0.000000 0.000000 0.000000
# 4 0.000000 0.000000 0.000000 0.030788 0.000000 0.000000
# 5 0.000000 0.000000 0.000000 0.000000 0.030631 0.000000
# 6 0.000000 0.000000 0.000000 0.000000 0.000000 0.031923
#
#
# Mechanical properties :
#
#
# Convention : Reuss Voigt Hill
#
# Bulk Modulus (GPa) = 42.24178 51.45303 46.84741
# Shear Modulus (GPa) = 28.08326 30.96214 29.52270
#
# Velocity S-wave (km/s) = 3.87912 4.07310 3.97729
# Velocity P-wave (km/s) = 6.53433 7.04909 6.79659
#
# Compressibility (1/GPa) = 0.02367324
#
# Stress axis : x y z
#
# Youngs Moduli (GPa) = 37.09641 105.20566 72.57322
#
# Poissons Ratio (x) = 0.53287 0.42166
# Poissons Ratio (y) = 0.18789 0.17482
# Poissons Ratio (z) = 0.21553 0.25342
#
# Static dielectric constant tensor:
#      x y z
#    x 3.442670 0.000000 0.000000 
#    y 0.000000 3.540990 0.000000 
#    z 0.000000 0.000000 3.393530 
# 
# 
# High freq. dielectric constant tensor:
#      x y z
#    x 1.733800 0.000000 0.000000 
#    y 0.000000 1.730740 0.000000 
#    z 0.000000 0.000000 1.727090 
# 
# From -- ./inp_files/9321.got.cif
#   From: 2010.03.12/outbox.cif.g09.slc.cpg/sg46_5_cif.got.tgz:9321.got - 2010.04.14 02:56:35.
