data_PCOD8192350
_publ_section_title
;
Structure prediction by ZEFSAII (Michael W. Deem and Ramdas Pophale) SiO2 
 PCOD8192350
Probable space group: I M A 2
;
_chemical_formula_sum "Si O2"
_cell_formula_units_Z 64
_cell_length_a 8.989318
_cell_length_b 32.989304
_cell_length_c 11.605282
_cell_angle_alpha 90.000000
_cell_angle_beta 90.000000
_cell_angle_gamma 90.000000
_cell_volume 3441.561978
_symmetry_space_group_name_H-M "I M A 2"
_symmetry_group_IT_number 46
_symmetry_cell_setting 'orthorhombic'
loop_
_space_group_symop_operation_xyz
x,y,z
-x,-y,z
1/2-x,y,z
1/2+x,-y,z
1/2+x,1/2+y,1/2+z
1/2-x,1/2-y,1/2+z
-x,1/2+y,1/2+z
x,1/2-y,1/2+z
loop_
_atom_site_type_symbol
_atom_site_label
_atom_site_fract_x
_atom_site_fract_y
_atom_site_fract_z
Si Si1 0.075809 0.721192 0.182920
Si Si2 0.086295 0.315490 0.977076
Si Si3 0.422735 0.958838 0.436683
Si Si4 0.925436 0.880523 0.061526
Si Si5 0.573533 0.456868 0.675384
Si Si6 0.913461 0.898427 0.591031
Si Si7 0.425088 0.349104 0.310616
Si Si8 0.424316 0.304916 0.716499
O O1 0.250000 0.721534 0.204404
O O2 0.002607 0.694171 0.284779
O O3 0.014861 0.766376 0.174994
O O4 0.038842 0.703015 0.058481
O O5 0.250000 0.294939 0.996021
O O6 0.030760 0.311014 0.847985
O O7 0.102781 0.362664 0.000091
O O8 0.250000 0.966303 0.441851
O O9 0.468940 0.945119 0.307325
O O10 0.466669 0.928123 0.536994
O O11 0.500000 0.000000 0.470691
O O12 0.750000 0.888893 0.069110
O O13 0.975275 0.844580 0.146552
O O14 0.010209 0.921854 0.092781
O O15 0.973473 0.866658 0.933585
O O16 0.500000 0.500000 0.642182
O O17 0.750000 0.460408 0.657791
O O18 0.750000 0.919035 0.605557
O O19 0.972000 0.882082 0.714299
O O20 0.250000 0.340507 0.303535
O O21 0.250000 0.297081 0.698084
#
# Coordination Sequence:
#
# PCOD8192350 Si02
#       8
#     8   8   8   8   8   8   8   8
#     4  11  23  36  53  79 112 145 182 232 285 332
#     4   9  19  36  56  76 102 139 181 221 268 329
#     4  10  20  33  53  82 113 144 178 221 275 331
#     4  10  21  38  61  86 110 145 192 239 284 337
#     4  10  21  37  58  85 118 151 184 230 283 339
#     4   9  17  33  56  79 105 136 176 225 269 321
#     4   9  20  39  59  79 108 149 192 228 275 340
#     4  10  21  36  57  82 108 143 187 232 278 337
#
# _framework density 18.596208000000001
#
# number of rings (size 3 to 8) (size 9 to 14) (size 15 to 20)
#    0.000    2.250    0.000    3.375    1.750    6.000 
#    0.000    0.625    0.000    0.000    0.000    0.000 
#    0.000    0.000    0.000    0.000    0.000    0.000 
#
# Total GULP energy -396751.365834 kJ/mol
# GULP energy per Si atom -12398.480182 kJ/mol
# Density = 1.855388 g / cm^3
# Si number density = 18.596208 Si / 1000 Ang^3
#
#
#
# Elastic Constant Matrix: (Units=GPa)
#
#
# Indices 1 2 3 4 5 6 
#
# 1 73.8402 55.6897 34.3768 0.0011 -0.0004 -0.0002
# 2 55.6897 123.0981 60.1135 0.0032 0.0008 0.0005
# 3 34.3768 60.1135 84.4521 0.0025 0.0007 0.0004
# 4 0.0011 0.0032 0.0025 33.9148 0.0011 -0.0002
# 5 -0.0004 0.0008 0.0007 0.0011 21.2090 0.0004
# 6 -0.0002 0.0005 0.0004 -0.0002 0.0004 30.6445
#
#
#
# Elastic Compliance Matrix: (Units=1/GPa)
#
#
# Indices 1 2 3 4 5 6 
#
# 1 0.020960 -0.008148 -0.002732 0.000000 0.000001 0.000000
# 2 -0.008148 0.015620 -0.007801 -0.000001 0.000000 0.000000
# 3 -0.002732 -0.007801 0.018506 -0.000001 0.000000 0.000000
# 4 0.000000 -0.000001 -0.000001 0.029486 -0.000001 0.000000
# 5 0.000001 0.000000 0.000000 -0.000001 0.047150 -0.000001
# 6 0.000000 0.000000 0.000000 0.000000 -0.000001 0.032632
#
#
# Mechanical properties :
#
#
# Convention : Reuss Voigt Hill
#
# Bulk Modulus (GPa) = 56.42483 64.63893 60.53188
# Shear Modulus (GPa) = 24.08202 25.90101 24.99151
#
# Velocity S-wave (km/s) = 3.60251 3.73609 3.66991
# Velocity P-wave (km/s) = 6.90739 7.31066 7.11189
#
# Compressibility (1/GPa) = 0.01772269
#
# Stress axis : x y z
#
# Youngs Moduli (GPa) = 47.71011 64.02250 54.03620
#
# Poissons Ratio (x) = 0.52167 0.14762
# Poissons Ratio (y) = 0.38875 0.42155
# Poissons Ratio (z) = 0.13034 0.49946
#
# Static dielectric constant tensor:
#      x y z
#    x 3.376370 0.000020 0.000000 
#    y 0.000020 2.151340 0.000000 
#    z 0.000000 0.000000 3.489260 
# 
# 
# High freq. dielectric constant tensor:
#      x y z
#    x 1.715100 0.000000 0.000000 
#    y 0.000000 1.718400 0.000000 
#    z 0.000000 0.000000 1.721950 
# 
# From -- ./inp_files/9719.got.cif
#   From: 2010.03.12/outbox.cif.g09.slc.cpg/sg46_5_cif.got.tgz:9719.got - 2010.04.14 02:56:35.
