data_PCOD8192349
_publ_section_title
;
Structure prediction by ZEFSAII (Michael W. Deem and Ramdas Pophale) SiO2 
 PCOD8192349
Probable space group: I M A 2
;
_chemical_formula_sum "Si O2"
_cell_formula_units_Z 56
_cell_length_a 8.760614
_cell_length_b 14.468329
_cell_length_c 22.048052
_cell_angle_alpha 90.000000
_cell_angle_beta 90.000000
_cell_angle_gamma 90.000000
_cell_volume 2794.622464
_symmetry_space_group_name_H-M "I M A 2"
_symmetry_group_IT_number 46
_symmetry_cell_setting 'orthorhombic'
loop_
_space_group_symop_operation_xyz
x,y,z
-x,-y,z
1/2-x,y,z
1/2+x,-y,z
1/2+x,1/2+y,1/2+z
1/2-x,1/2-y,1/2+z
-x,1/2+y,1/2+z
x,1/2-y,1/2+z
loop_
_atom_site_type_symbol
_atom_site_label
_atom_site_fract_x
_atom_site_fract_y
_atom_site_fract_z
Si Si1 0.431000 0.281722 0.732300
Si Si2 0.068655 0.595306 0.832359
Si Si3 0.926384 0.710157 0.499504
Si Si4 0.069424 0.903928 0.759938
Si Si5 0.069455 0.101159 0.116636
Si Si6 0.572779 0.591230 0.963152
Si Si7 0.571380 0.094362 0.899237
O O1 0.250000 0.279913 0.739161
O O2 0.507244 0.319917 0.793194
O O3 0.493614 0.178405 0.721374
O O4 0.484768 0.344727 0.676275
O O5 0.250000 0.592540 0.828907
O O6 0.000000 0.500000 0.805675
O O7 0.014942 0.610255 0.900763
O O8 0.750000 0.685867 0.489803
O O9 0.991281 0.658846 0.558777
O O10 0.949411 0.820691 0.507090
O O11 0.015211 0.679306 0.439528
O O12 0.250000 0.904282 0.750791
O O13 0.021211 0.889286 0.830009
O O14 0.000000 0.000000 0.735668
O O15 0.250000 0.092655 0.114944
O O16 0.000000 0.000000 0.116012
O O17 0.500000 0.500000 0.994739
O O18 0.750000 0.573178 0.948619
O O19 0.750000 0.085216 0.905034
O O20 0.500000 0.000000 0.925133
#
# Coordination Sequence:
#
# PCOD8192349 Si02
#       7
#     8   8   8   8   8   8   8
#     4  11  22  37  57  80 110 147 186 228 275 325
#     4  11  21  34  54  82 115 146 182 226 276 332
#     4  10  21  37  56  79 109 145 183 224 271 321
#     4  10  21  37  57  83 114 146 183 226 273 326
#     4  10  23  41  59  81 109 142 181 225 270 319
#     4  10  20  35  56  81 111 144 180 223 272 326
#     4  10  20  33  53  82 113 144 178 220 269 323
#
# _framework density 20.038485000000001
#
# number of rings (size 3 to 8) (size 9 to 14) (size 15 to 20)
#    0.000    1.714    0.000    5.571    0.000    9.143 
#    0.000    0.714    0.000    1.714    0.000    0.000 
#    0.000    0.000    0.000    0.000    0.000    0.000 
#
# Total GULP energy -347298.695645 kJ/mol
# GULP energy per Si atom -12403.524844 kJ/mol
# Density = 1.999288 g / cm^3
# Si number density = 20.038485 Si / 1000 Ang^3
#
#
#
# Elastic Constant Matrix: (Units=GPa)
#
#
# Indices 1 2 3 4 5 6 
#
# 1 92.2070 51.1006 28.3223 0.0000 0.0000 0.0000
# 2 51.1006 171.4779 54.2980 0.0000 0.0000 0.0000
# 3 28.3223 54.2980 60.7123 0.0000 0.0000 0.0000
# 4 0.0000 0.0000 0.0000 33.4860 0.0000 0.0000
# 5 0.0000 0.0000 0.0000 0.0000 18.1794 0.0000
# 6 0.0000 0.0000 0.0000 0.0000 0.0000 40.4839
#
#
#
# Elastic Compliance Matrix: (Units=1/GPa)
#
#
# Indices 1 2 3 4 5 6 
#
# 1 0.013588 -0.002849 -0.003791 0.000000 0.000000 0.000000
# 2 -0.002849 0.008733 -0.006481 0.000000 0.000000 0.000000
# 3 -0.003791 -0.006481 0.024036 0.000000 0.000000 0.000000
# 4 0.000000 0.000000 0.000000 0.029863 0.000000 0.000000
# 5 0.000000 0.000000 0.000000 0.000000 0.055007 0.000000
# 6 0.000000 0.000000 0.000000 0.000000 0.000000 0.024701
#
#
# Mechanical properties :
#
#
# Convention : Reuss Voigt Hill
#
# Bulk Modulus (GPa) = 49.71407 65.75991 57.73699
# Shear Modulus (GPa) = 26.47229 31.14161 28.80695
#
# Velocity S-wave (km/s) = 3.63860 3.94647 3.79566
# Velocity P-wave (km/s) = 6.52041 7.32491 6.93433
#
# Compressibility (1/GPa) = 0.02011503
#
# Stress axis : x y z
#
# Youngs Moduli (GPa) = 73.59165 114.50931 41.60402
#
# Poissons Ratio (x) = 0.32623 0.15772
# Poissons Ratio (y) = 0.20966 0.26965
# Poissons Ratio (z) = 0.27899 0.74216
#
# Static dielectric constant tensor:
#      x y z
#    x 3.608810 0.000000 0.000000 
#    y 0.000000 3.996540 0.000000 
#    z 0.000000 0.000000 3.481590 
# 
# 
# High freq. dielectric constant tensor:
#      x y z
#    x 1.787680 0.000000 0.000000 
#    y 0.000000 1.801400 0.000000 
#    z 0.000000 0.000000 1.753410 
# 
# From -- ./inp_files/21039.got.cif
#   From: 2010.03.12/outbox.cif.g09.slc.cpg/sg46_11_cif.got.tgz:21039.got - 2010.04.14 02:56:35.
