data_PCOD8192240
_publ_section_title
;
Structure prediction by ZEFSAII (Michael W. Deem and Ramdas Pophale) SiO2 
 PCOD8192240
Probable space group: I M A 2
;
_chemical_formula_sum "Si O2"
_cell_formula_units_Z 56
_cell_length_a 14.382118
_cell_length_b 11.845696
_cell_length_c 14.873129
_cell_angle_alpha 90.000000
_cell_angle_beta 90.000000
_cell_angle_gamma 90.000000
_cell_volume 2533.878435
_symmetry_space_group_name_H-M "I M A 2"
_symmetry_group_IT_number 46
_symmetry_cell_setting 'orthorhombic'
loop_
_space_group_symop_operation_xyz
x,y,z
-x,-y,z
1/2-x,y,z
1/2+x,-y,z
1/2+x,1/2+y,1/2+z
1/2-x,1/2-y,1/2+z
-x,1/2+y,1/2+z
x,1/2-y,1/2+z
loop_
_atom_site_type_symbol
_atom_site_label
_atom_site_fract_x
_atom_site_fract_y
_atom_site_fract_z
Si Si1 0.852393 0.641127 0.442970
Si Si2 0.645370 0.607897 0.763760
Si Si3 0.462148 0.353204 0.941648
Si Si4 0.144660 0.362548 0.247891
Si Si5 0.856320 0.510756 0.080832
Si Si6 0.895990 0.028739 0.088188
Si Si7 0.354064 0.774233 0.520479
O O1 0.750000 0.687163 0.418882
O O2 0.907773 0.746166 0.483570
O O3 0.900345 0.611042 0.346230
O O4 0.839692 0.538528 0.511930
O O5 0.750000 0.589346 0.802631
O O6 0.567214 0.606803 0.841606
O O7 0.637573 0.731168 0.718953
O O8 0.627951 0.511569 0.688883
O O9 0.428456 0.458601 0.001387
O O10 0.570451 0.312506 0.944711
O O11 0.250000 0.405329 0.250846
O O12 0.096959 0.435910 0.170062
O O13 0.750000 0.554336 0.062029
O O14 0.855132 0.375462 0.092919
O O15 0.877362 0.161140 0.076053
O O16 0.000000 0.000000 0.063764
O O17 0.250000 0.763988 0.476965
#
# Coordination Sequence:
#
# PCOD8192240 Si02
#       7
#     8   8   8   8   8   8   8
#     4  10  19  37  67  98 128 163 217 287 345 401
#     4  10  21  39  68 103 135 167 220 292 348 405
#     4  11  21  40  67 102 130 171 227 282 346 411
#     4   8  17  34  62 100 125 154 210 273 339 398
#     4  10  20  38  65  95 131 174 219 277 344 409
#     4  12  24  42  64  96 138 186 230 277 345 419
#     4  11  25  43  64  94 137 186 231 275 342 421
#
# _framework density 22.100508000000001
#
# number of rings (size 3 to 8) (size 9 to 14) (size 15 to 20)
#    0.000    1.714    1.429    4.714    0.000    2.286 
#    0.000    4.286    0.000    8.571    0.000    0.000 
#    0.000    0.000    0.000    0.000    0.000    0.000 
#
# Total GULP energy -346875.436975 kJ/mol
# GULP energy per Si atom -12388.408463 kJ/mol
# Density = 2.205021 g / cm^3
# Si number density = 22.100508 Si / 1000 Ang^3
#
#
#
# Elastic Constant Matrix: (Units=GPa)
#
#
# Indices 1 2 3 4 5 6 
#
# 1 135.3916 41.3717 43.2584 0.0000 0.0000 0.0000
# 2 41.3717 143.6247 63.7966 0.0000 0.0000 0.0000
# 3 43.2584 63.7966 121.2875 0.0000 0.0000 0.0000
# 4 0.0000 0.0000 0.0000 0.2874 0.0000 0.0000
# 5 0.0000 0.0000 0.0000 0.0000 10.9838 0.0000
# 6 0.0000 0.0000 0.0000 0.0000 0.0000 27.1153
#
#
#
# Elastic Compliance Matrix: (Units=1/GPa)
#
#
# Indices 1 2 3 4 5 6 
#
# 1 0.008561 -0.001448 -0.002292 0.000000 0.000000 0.000000
# 2 -0.001448 0.009330 -0.004391 0.000000 0.000000 0.000000
# 3 -0.002292 -0.004391 0.011372 0.000000 0.000000 0.000000
# 4 0.000000 0.000000 0.000000 3.480069 0.000000 0.000000
# 5 0.000000 0.000000 0.000000 0.000000 0.091043 0.000000
# 6 0.000000 0.000000 0.000000 0.000000 0.000000 0.036880
#
#
# Mechanical properties :
#
#
# Convention : Reuss Voigt Hill
#
# Bulk Modulus (GPa) = 76.91610 77.46192 77.18901
# Shear Modulus (GPa) = 1.36692 24.46909 12.91800
#
# Velocity S-wave (km/s) = 0.78730 3.33103 2.42029
# Velocity P-wave (km/s) = 5.97536 7.06543 6.54313
#
# Compressibility (1/GPa) = 0.01300118
#
# Stress axis : x y z
#
# Youngs Moduli (GPa) = 116.81377 107.17848 87.93573
#
# Poissons Ratio (x) = 0.15520 0.20151
# Poissons Ratio (y) = 0.16915 0.38614
# Poissons Ratio (z) = 0.26769 0.47064
#
# Static dielectric constant tensor:
#      x y z
#    x 4.160230 0.000000 0.000000 
#    y 0.000000 4.051660 0.000000 
#    z 0.000000 0.000000 3.844660 
# 
# 
# High freq. dielectric constant tensor:
#      x y z
#    x 1.874180 0.000000 0.000000 
#    y 0.000000 1.872800 0.000000 
#    z 0.000000 0.000000 1.846760 
# 
# From -- ./inp_files/15982.got.cif
#   From: 2010.03.12/outbox.cif.g09.slc.cpg/sg46_8_cif.got.tgz:15982.got - 2010.04.14 02:56:35.
