data_PCOD8192155
_publ_section_title
;
Structure prediction by ZEFSAII (Michael W. Deem and Ramdas Pophale) SiO2 
 PCOD8192155
Probable space group: I M A 2
;
_chemical_formula_sum "Si O2"
_cell_formula_units_Z 64
_cell_length_a 8.861273
_cell_length_b 32.398276
_cell_length_c 11.679272
_cell_angle_alpha 90.000000
_cell_angle_beta 90.000000
_cell_angle_gamma 90.000000
_cell_volume 3353.001829
_symmetry_space_group_name_H-M "I M A 2"
_symmetry_group_IT_number 46
_symmetry_cell_setting 'orthorhombic'
loop_
_space_group_symop_operation_xyz
x,y,z
-x,-y,z
1/2-x,y,z
1/2+x,-y,z
1/2+x,1/2+y,1/2+z
1/2-x,1/2-y,1/2+z
-x,1/2+y,1/2+z
x,1/2-y,1/2+z
loop_
_atom_site_type_symbol
_atom_site_label
_atom_site_fract_x
_atom_site_fract_y
_atom_site_fract_z
Si Si1 0.930137 0.877465 0.521840
Si Si2 0.072991 0.542964 0.397415
Si Si3 0.427003 0.189694 0.700424
Si Si4 0.428547 0.543970 0.135620
Si Si5 0.923304 0.274851 0.648744
Si Si6 0.427018 0.640699 0.780083
Si Si7 0.082588 0.398689 0.577084
Si Si8 0.584355 0.686498 0.452989
O O1 0.750000 0.881165 0.525122
O O2 0.994466 0.842808 0.609539
O O3 0.000620 0.921523 0.553914
O O4 0.983776 0.863460 0.397636
O O5 0.250000 0.539328 0.412933
O O6 0.030432 0.555113 0.267173
O O7 0.000000 0.500000 0.431672
O O8 0.010318 0.575879 0.485266
O O9 0.250000 0.189695 0.683250
O O10 0.482793 0.236058 0.689137
O O11 0.476472 0.175096 0.827071
O O12 0.500000 0.500000 0.101932
O O13 0.250000 0.541701 0.116311
O O14 0.750000 0.262735 0.651993
O O15 0.958963 0.313680 0.730435
O O16 0.967598 0.283580 0.516918
O O17 0.250000 0.633162 0.798645
O O18 0.489559 0.605151 0.695129
O O19 0.250000 0.417717 0.599495
O O20 0.102433 0.353896 0.526581
O O21 0.750000 0.708002 0.443509
#
# Coordination Sequence:
#
# PCOD8192155 Si02
#       8
#     8   8   8   8   8   8   8   8
#     4  11  23  39  60  87 116 153 199 245 293 351
#     4  10  20  34  56  87 120 152 187 231 286 342
#     4  10  22  37  56  82 112 147 189 236 284 341
#     4  10  21  38  61  89 122 158 194 239 293 349
#     4  10  22  37  55  80 111 146 187 237 290 341
#     4  10  22  40  58  80 114 154 195 239 291 350
#     4  10  19  35  59  83 110 145 187 233 282 338
#     4   9  19  36  56  78 105 141 183 226 276 334
#
# _framework density 19.087372999999999
#
# number of rings (size 3 to 8) (size 9 to 14) (size 15 to 20)
#    0.000    2.000    0.000    3.000    1.750    6.000 
#    0.000    0.625    0.000    0.000    0.000    0.000 
#    0.000    0.000    0.000    0.000    0.000    0.000 
#
# Total GULP energy -396777.198663 kJ/mol
# GULP energy per Si atom -12399.287458 kJ/mol
# Density = 1.904393 g / cm^3
# Si number density = 19.087373 Si / 1000 Ang^3
#
#
#
# Elastic Constant Matrix: (Units=GPa)
#
#
# Indices 1 2 3 4 5 6 
#
# 1 65.9457 33.7158 40.2518 -0.0003 0.0000 0.0000
# 2 33.7158 64.1945 32.7836 -0.0015 -0.0001 -0.0001
# 3 40.2518 32.7836 116.9196 -0.0031 -0.0002 -0.0004
# 4 -0.0003 -0.0015 -0.0031 24.8308 -0.0001 -0.0003
# 5 0.0000 -0.0001 -0.0002 -0.0001 33.7236 -0.0003
# 6 0.0000 -0.0001 -0.0004 -0.0003 -0.0003 32.3338
#
#
#
# Elastic Compliance Matrix: (Units=1/GPa)
#
#
# Indices 1 2 3 4 5 6 
#
# 1 0.023287 -0.009496 -0.005354 -0.000001 0.000000 0.000000
# 2 -0.009496 0.022054 -0.002914 0.000001 0.000000 0.000000
# 3 -0.005354 -0.002914 0.011213 0.000001 0.000000 0.000000
# 4 -0.000001 0.000001 0.000001 0.040273 0.000000 0.000000
# 5 0.000000 0.000000 0.000000 0.000000 0.029653 0.000000
# 6 0.000000 0.000000 0.000000 0.000000 0.000000 0.030927
#
#
# Mechanical properties :
#
#
# Convention : Reuss Voigt Hill
#
# Bulk Modulus (GPa) = 47.56452 51.17358 49.36905
# Shear Modulus (GPa) = 25.00679 27.53154 26.26917
#
# Velocity S-wave (km/s) = 3.62349 3.80201 3.71382
# Velocity P-wave (km/s) = 6.51764 6.79280 6.65664
#
# Compressibility (1/GPa) = 0.02102407
#
# Stress axis : x y z
#
# Youngs Moduli (GPa) = 42.94168 45.34391 89.17883
#
# Poissons Ratio (x) = 0.43060 0.47750
# Poissons Ratio (y) = 0.40779 0.25990
# Poissons Ratio (z) = 0.22993 0.13215
#
# Static dielectric constant tensor:
#      x y z
#    x 3.675580 0.000000 0.000000 
#    y 0.000000 3.473130 0.000000 
#    z 0.000000 0.000000 3.615100 
# 
# 
# High freq. dielectric constant tensor:
#      x y z
#    x 1.752310 0.000000 0.000000 
#    y 0.000000 1.733350 0.000000 
#    z 0.000000 0.000000 1.746020 
# 
# From -- ./inp_files/9810.got.cif
#   From: 2010.03.12/outbox.cif.g09.slc.cpg/sg46_5_cif.got.tgz:9810.got - 2010.04.14 02:56:35.
