data_PCOD8192579
_publ_section_title
;
Structure prediction by ZEFSAII (Michael W. Deem and Ramdas Pophale) SiO2 
 PCOD8192579
Probable space group: I M A 2
;
_chemical_formula_sum "Si O2"
_cell_formula_units_Z 56
_cell_length_a 18.899399
_cell_length_b 13.689521
_cell_length_c 10.133444
_cell_angle_alpha 90.000000
_cell_angle_beta 90.000000
_cell_angle_gamma 90.000000
_cell_volume 2621.762323
_symmetry_space_group_name_H-M "I M A 2"
_symmetry_group_IT_number 46
_symmetry_cell_setting 'orthorhombic'
loop_
_space_group_symop_operation_xyz
x,y,z
-x,-y,z
1/2-x,y,z
1/2+x,-y,z
1/2+x,1/2+y,1/2+z
1/2-x,1/2-y,1/2+z
-x,1/2+y,1/2+z
x,1/2-y,1/2+z
loop_
_atom_site_type_symbol
_atom_site_label
_atom_site_fract_x
_atom_site_fract_y
_atom_site_fract_z
Si Si1 0.832143 0.554288 0.535710
Si Si2 0.167468 0.088160 0.729686
Si Si3 0.834906 0.336847 0.586851
Si Si4 0.419353 0.277181 0.662374
Si Si5 0.472693 0.343082 0.931187
Si Si6 0.606952 0.476769 0.998240
Si Si7 0.170427 0.692518 0.872017
O O1 0.750000 0.566280 0.572562
O O2 0.845400 0.572208 0.382656
O O3 0.860982 0.446289 0.564534
O O4 0.876918 0.625688 0.626729
O O5 0.250000 0.085293 0.691232
O O6 0.137323 0.194331 0.697173
O O7 0.127148 0.000646 0.650567
O O8 0.750000 0.331976 0.586988
O O9 0.865639 0.301029 0.728082
O O10 0.867965 0.266651 0.473893
O O11 0.464583 0.244035 0.536069
O O12 0.473413 0.298075 0.783883
O O13 0.541138 0.403473 0.976677
O O14 0.406305 0.418142 0.931629
O O15 0.670533 0.419118 0.926630
O O16 0.250000 0.728390 0.857270
#
# Coordination Sequence:
#
# PCOD8192579 Si02
#       7
#     8   8   8   8   8   8   8
#     4  10  20  36  61  96 133 164 208 273 348 413
#     4  10  21  37  65 101 130 168 212 278 353 414
#     4   9  20  34  53  83 119 153 192 245 312 384
#     4  11  20  41  63  94 127 167 213 272 330 411
#     4  10  23  40  63  83 125 166 213 266 323 387
#     4  10  22  40  61  85 122 165 217 263 321 395
#     4  10  20  36  58  84 114 156 202 260 323 384
#
# _framework density 21.359680000000001
#
# number of rings (size 3 to 8) (size 9 to 14) (size 15 to 20)
#    0.000    2.000    1.429    1.714    2.000    1.143 
#    0.000    1.429    0.000    0.000    0.000    0.000 
#    0.000    0.000    0.000    0.000    0.000    0.000 
#
# Total GULP energy -347043.140194 kJ/mol
# GULP energy per Si atom -12394.397864 kJ/mol
# Density = 2.131106 g / cm^3
# Si number density = 21.359680 Si / 1000 Ang^3
#
#
#
# Elastic Constant Matrix: (Units=GPa)
#
#
# Indices 1 2 3 4 5 6 
#
# 1 55.6158 23.7428 37.4887 0.0000 0.0000 0.0000
# 2 23.7428 120.2603 65.4692 0.0000 0.0000 0.0000
# 3 37.4887 65.4692 148.4908 0.0000 0.0000 0.0000
# 4 0.0000 0.0000 0.0000 40.3442 0.0000 0.0000
# 5 0.0000 0.0000 0.0000 0.0000 19.3969 0.0000
# 6 0.0000 0.0000 0.0000 0.0000 0.0000 27.1047
#
#
#
# Elastic Compliance Matrix: (Units=1/GPa)
#
#
# Indices 1 2 3 4 5 6 
#
# 1 0.021939 -0.001732 -0.004775 0.000000 0.000000 0.000000
# 2 -0.001732 0.011078 -0.004447 0.000000 0.000000 0.000000
# 3 -0.004775 -0.004447 0.009901 0.000000 0.000000 0.000000
# 4 0.000000 0.000000 0.000000 0.024787 0.000000 0.000000
# 5 0.000000 0.000000 0.000000 0.000000 0.051555 0.000000
# 6 0.000000 0.000000 0.000000 0.000000 0.000000 0.036894
#
#
# Mechanical properties :
#
#
# Convention : Reuss Voigt Hill
#
# Bulk Modulus (GPa) = 47.59778 64.19648 55.89713
# Shear Modulus (GPa) = 27.01767 30.54691 28.78229
#
# Velocity S-wave (km/s) = 3.56039 3.78580 3.67482
# Velocity P-wave (km/s) = 6.26372 7.01640 6.65072
#
# Compressibility (1/GPa) = 0.02100938
#
# Stress axis : x y z
#
# Youngs Moduli (GPa) = 45.58183 90.26744 101.00257
#
# Poissons Ratio (x) = 0.15631 0.48231
# Poissons Ratio (y) = 0.07893 0.44917
# Poissons Ratio (z) = 0.21766 0.40143
#
# Static dielectric constant tensor:
#      x y z
#    x 3.712110 0.000000 0.000000 
#    y 0.000000 4.111290 0.000000 
#    z 0.000000 0.000000 4.130600 
# 
# 
# High freq. dielectric constant tensor:
#      x y z
#    x 1.815630 0.000000 0.000000 
#    y 0.000000 1.846680 0.000000 
#    z 0.000000 0.000000 1.850770 
# 
# From -- ./inp_files/7409.got.cif
#   From: 2010.03.12/outbox.cif.g09.slc.cpg/sg46_4_cif.got.tgz:7409.got - 2010.04.14 02:56:35.
