data_PCOD8192419
_publ_section_title
;
Structure prediction by ZEFSAII (Michael W. Deem and Ramdas Pophale) SiO2 
 PCOD8192419
Probable space group: I M A 2
;
_chemical_formula_sum "Si O2"
_cell_formula_units_Z 56
_cell_length_a 8.859765
_cell_length_b 14.048463
_cell_length_c 22.634809
_cell_angle_alpha 90.000000
_cell_angle_beta 90.000000
_cell_angle_gamma 90.000000
_cell_volume 2817.265966
_symmetry_space_group_name_H-M "I M A 2"
_symmetry_group_IT_number 46
_symmetry_cell_setting 'orthorhombic'
loop_
_space_group_symop_operation_xyz
x,y,z
-x,-y,z
1/2-x,y,z
1/2+x,-y,z
1/2+x,1/2+y,1/2+z
1/2-x,1/2-y,1/2+z
-x,1/2+y,1/2+z
x,1/2-y,1/2+z
loop_
_atom_site_type_symbol
_atom_site_label
_atom_site_fract_x
_atom_site_fract_y
_atom_site_fract_z
Si Si1 0.073321 0.595231 0.504250
Si Si2 0.418023 0.328666 0.091112
Si Si3 0.581418 0.591980 0.210270
Si Si4 0.428105 0.896634 0.357284
Si Si5 0.079804 0.848010 0.131502
Si Si6 0.427422 0.197270 0.244718
Si Si7 0.076591 0.210079 0.463657
O O1 0.250000 0.603566 0.487850
O O2 0.050740 0.584571 0.575246
O O3 0.000000 0.500000 0.476234
O O4 0.983867 0.684653 0.477745
O O5 0.250000 0.280987 0.099790
O O6 0.429554 0.414537 0.138320
O O7 0.551778 0.257297 0.106614
O O8 0.434954 0.357373 0.022317
O O9 0.500000 0.500000 0.237836
O O10 0.750000 0.583431 0.233348
O O11 0.518367 0.693703 0.233079
O O12 0.250000 0.908218 0.355413
O O13 0.482633 0.839793 0.300431
O O14 0.474133 0.837330 0.414493
O O15 0.500000 0.000000 0.359306
O O16 0.250000 0.856417 0.154881
O O17 0.969938 0.867449 0.187376
O O18 0.250000 0.188910 0.256089
O O19 0.250000 0.217139 0.442015
#
# Coordination Sequence:
#
# PCOD8192419 Si02
#       7
#     8   8   8   8   8   8   8
#     4  10  20  34  55  86 121 156 193 233 283 343
#     4   8  16  31  51  77 110 148 185 224 273 326
#     4   9  18  32  53  83 117 150 184 224 273 330
#     4  12  26  44  64  85 109 142 188 237 288 344
#     4   9  17  30  51  80 112 147 187 230 278 331
#     4  10  21  39  59  81 113 151 192 239 289 338
#     4  10  20  38  61  84 115 152 191 237 286 336
#
# _framework density 19.877427000000001
#
# number of rings (size 3 to 8) (size 9 to 14) (size 15 to 20)
#    0.000    2.286    0.000    3.857    0.000    6.286 
#    0.000    3.571    0.000    1.714    0.000    0.000 
#    0.000    0.000    0.000    0.000    0.000    0.000 
#
# Total GULP energy -346947.112021 kJ/mol
# GULP energy per Si atom -12390.968286 kJ/mol
# Density = 1.983218 g / cm^3
# Si number density = 19.877427 Si / 1000 Ang^3
#
#
#
# Elastic Constant Matrix: (Units=GPa)
#
#
# Indices 1 2 3 4 5 6 
#
# 1 117.7342 49.2721 46.3649 0.0000 0.0000 0.0000
# 2 49.2721 93.6079 39.6879 0.0000 0.0000 0.0000
# 3 46.3649 39.6879 105.8826 0.0000 0.0000 0.0000
# 4 0.0000 0.0000 0.0000 18.0433 0.0000 0.0000
# 5 0.0000 0.0000 0.0000 0.0000 32.3888 0.0000
# 6 0.0000 0.0000 0.0000 0.0000 0.0000 30.1864
#
#
#
# Elastic Compliance Matrix: (Units=1/GPa)
#
#
# Indices 1 2 3 4 5 6 
#
# 1 0.011833 -0.004793 -0.003385 0.000000 0.000000 0.000000
# 2 -0.004793 0.014643 -0.003390 0.000000 0.000000 0.000000
# 3 -0.003385 -0.003390 0.012197 0.000000 0.000000 0.000000
# 4 0.000000 0.000000 0.000000 0.055422 0.000000 0.000000
# 5 0.000000 0.000000 0.000000 0.000000 0.030875 0.000000
# 6 0.000000 0.000000 0.000000 0.000000 0.000000 0.033127
#
#
# Mechanical properties :
#
#
# Convention : Reuss Voigt Hill
#
# Bulk Modulus (GPa) = 64.36089 65.31938 64.84014
# Shear Modulus (GPa) = 26.82230 28.25035 27.53633
#
# Velocity S-wave (km/s) = 3.67738 3.77401 3.72601
# Velocity P-wave (km/s) = 7.10493 7.20578 7.15553
#
# Compressibility (1/GPa) = 0.01553739
#
# Stress axis : x y z
#
# Youngs Moduli (GPa) = 84.51193 68.29176 81.98643
#
# Poissons Ratio (x) = 0.32734 0.27750
# Poissons Ratio (y) = 0.40509 0.27791
# Poissons Ratio (z) = 0.28605 0.23149
#
# Static dielectric constant tensor:
#      x y z
#    x 3.679040 0.000000 0.000000 
#    y 0.000000 3.436390 0.000000 
#    z 0.000000 0.000000 3.650090 
# 
# 
# High freq. dielectric constant tensor:
#      x y z
#    x 1.784970 0.000000 0.000000 
#    y 0.000000 1.755680 0.000000 
#    z 0.000000 0.000000 1.764450 
# 
# From -- ./inp_files/21071.got.cif
#   From: 2010.03.12/outbox.cif.g09.slc.cpg/sg46_11_cif.got.tgz:21071.got - 2010.04.14 02:56:35.
