data_PCOD8192298
_publ_section_title
;
Structure prediction by ZEFSAII (Michael W. Deem and Ramdas Pophale) SiO2 
 PCOD8192298
Probable space group: I M A 2
;
_chemical_formula_sum "Si O2"
_cell_formula_units_Z 48
_cell_length_a 25.614537
_cell_length_b 11.322913
_cell_length_c 8.453847
_cell_angle_alpha 90.000000
_cell_angle_beta 90.000000
_cell_angle_gamma 90.000000
_cell_volume 2451.879170
_symmetry_space_group_name_H-M "I M A 2"
_symmetry_group_IT_number 46
_symmetry_cell_setting 'orthorhombic'
loop_
_space_group_symop_operation_xyz
x,y,z
-x,-y,z
1/2-x,y,z
1/2+x,-y,z
1/2+x,1/2+y,1/2+z
1/2-x,1/2-y,1/2+z
-x,1/2+y,1/2+z
x,1/2-y,1/2+z
loop_
_atom_site_type_symbol
_atom_site_label
_atom_site_fract_x
_atom_site_fract_y
_atom_site_fract_z
Si Si1 0.534211 0.893926 0.224460
Si Si2 0.142867 0.099246 0.719005
Si Si3 0.519276 0.269457 0.003956
Si Si4 0.250000 0.397394 0.329160
Si Si5 0.857244 0.637905 0.845886
Si Si6 0.250000 0.135440 0.203687
Si Si7 0.448021 0.576640 0.272792
O O1 0.507323 0.861557 0.388655
O O2 0.594723 0.926567 0.254977
O O3 0.500000 0.000000 0.150225
O O4 0.529135 0.784058 0.104905
O O5 0.197870 0.037561 0.767764
O O6 0.138224 0.222643 0.812460
O O7 0.138620 0.116653 0.532059
O O8 0.099513 0.012710 0.788158
O O9 0.552267 0.165757 0.921296
O O10 0.558098 0.343494 0.115668
O O11 0.250000 0.273321 0.237726
O O12 0.250000 0.384458 0.517222
O O13 0.802985 0.581954 0.780726
O O14 0.500000 0.500000 0.266303
#
# Coordination Sequence:
#
# PCOD8192298 Si02
#       7
#     8   8   8   4   8   4   8
#     4  11  21  34  53  77 108 143 177 217 264 323
#     4  11  21  35  57  81 114 148 183 227 280 335
#     4  10  22  36  51  79 111 140 182 222 266 322
#     4  10  20  34  52  78 109 146 186 226 279 338
#     4  11  20  33  53  81 114 147 181 223 276 338
#     4  10  20  32  50  78 115 146 178 228 283 334
#     4  11  22  37  57  81 111 148 182 225 276 326
#
# _framework density 19.576820000000001
#
# number of rings (size 3 to 8) (size 9 to 14) (size 15 to 20)
#    0.000    1.333    0.000   10.500    0.000    4.000 
#    0.000    0.000    0.000    1.000    0.000    4.667 
#    0.000    0.000    0.000    0.000    0.000    0.000 
#
# Total GULP energy -297554.115088 kJ/mol
# GULP energy per Si atom -12398.088129 kJ/mol
# Density = 1.953226 g / cm^3
# Si number density = 19.576820 Si / 1000 Ang^3
#
#
#
# Elastic Constant Matrix: (Units=GPa)
#
#
# Indices 1 2 3 4 5 6 
#
# 1 153.4516 35.5133 8.3514 0.0000 0.0000 0.0000
# 2 35.5133 59.2999 14.4881 0.0000 0.0000 0.0000
# 3 8.3514 14.4881 61.0763 0.0000 0.0000 0.0000
# 4 0.0000 0.0000 0.0000 20.6959 0.0000 0.0000
# 5 0.0000 0.0000 0.0000 0.0000 21.2723 0.0000
# 6 0.0000 0.0000 0.0000 0.0000 0.0000 27.9853
#
#
#
# Elastic Compliance Matrix: (Units=1/GPa)
#
#
# Indices 1 2 3 4 5 6 
#
# 1 0.007565 -0.004541 0.000043 0.000000 0.000000 0.000000
# 2 -0.004541 0.020627 -0.004272 0.000000 0.000000 0.000000
# 3 0.000043 -0.004272 0.017381 0.000000 0.000000 0.000000
# 4 0.000000 0.000000 0.000000 0.048319 0.000000 0.000000
# 5 0.000000 0.000000 0.000000 0.000000 0.047010 0.000000
# 6 0.000000 0.000000 0.000000 0.000000 0.000000 0.035733
#
#
# Mechanical properties :
#
#
# Convention : Reuss Voigt Hill
#
# Bulk Modulus (GPa) = 35.67374 43.39259 39.53317
# Shear Modulus (GPa) = 24.56776 28.35568 26.46172
#
# Velocity S-wave (km/s) = 3.54636 3.80996 3.68052
# Velocity P-wave (km/s) = 5.91869 6.44731 6.18864
#
# Compressibility (1/GPa) = 0.02803182
#
# Stress axis : x y z
#
# Youngs Moduli (GPa) = 132.18174 48.48071 57.53573
#
# Poissons Ratio (x) = 0.22016 -0.00246
# Poissons Ratio (y) = 0.60026 0.24579
# Poissons Ratio (z) = -0.00565 0.20711
#
# Static dielectric constant tensor:
#      x y z
#    x 4.260360 0.000000 0.000000 
#    y 0.000000 3.370140 0.000000 
#    z 0.000000 0.000000 3.785220 
# 
# 
# High freq. dielectric constant tensor:
#      x y z
#    x 1.761630 0.000000 0.000000 
#    y 0.000000 1.719640 0.000000 
#    z 0.000000 0.000000 1.788230 
# 
# From -- ./inp_files/8156.got.cif
#   From: 2010.03.12/outbox.cif.g09.slc.cpg/sg46_5_cif.got.tgz:8156.got - 2010.04.14 02:56:35.
