data_PCOD8192915
_publ_section_title
;
Structure prediction by ZEFSAII (Michael W. Deem and Ramdas Pophale) SiO2 
 PCOD8192915
Probable space group: I M A 2
;
_chemical_formula_sum "Si O2"
_cell_formula_units_Z 60
_cell_length_a 27.370121
_cell_length_b 19.971966
_cell_length_c 5.047167
_cell_angle_alpha 90.000000
_cell_angle_beta 90.000000
_cell_angle_gamma 90.000000
_cell_volume 2758.958769
_symmetry_space_group_name_H-M "I M A 2"
_symmetry_group_IT_number 46
_symmetry_cell_setting 'orthorhombic'
loop_
_space_group_symop_operation_xyz
x,y,z
-x,-y,z
1/2-x,y,z
1/2+x,-y,z
1/2+x,1/2+y,1/2+z
1/2-x,1/2-y,1/2+z
-x,1/2+y,1/2+z
x,1/2-y,1/2+z
loop_
_atom_site_type_symbol
_atom_site_label
_atom_site_fract_x
_atom_site_fract_y
_atom_site_fract_z
Si Si1 0.510145 0.705519 0.896500
Si Si2 0.695500 0.504035 0.497040
Si Si3 0.645602 0.293843 0.507682
Si Si4 0.750000 0.207896 0.897874
Si Si5 0.099406 0.925545 0.905921
Si Si6 0.623945 0.791363 0.374235
Si Si7 0.537797 0.059338 0.400672
Si Si8 0.804263 0.909306 0.498075
O O1 0.494198 0.747964 0.641067
O O2 0.567455 0.689640 0.901377
O O3 0.485559 0.632944 0.907379
O O4 0.750000 0.472855 0.454671
O O5 0.654406 0.450104 0.440278
O O6 0.689632 0.528918 0.797349
O O7 0.688145 0.566056 0.297363
O O8 0.640149 0.268782 0.808550
O O9 0.699096 0.329594 0.467694
O O10 0.602271 0.345729 0.450458
O O11 0.750000 0.225633 0.586416
O O12 0.080489 0.944266 0.616955
O O13 0.061905 0.956534 0.117557
O O14 0.637169 0.732716 0.580233
O O15 0.654735 0.856131 0.435960
O O16 0.500000 0.000000 0.461461
O O17 0.750000 0.877703 0.465250
#
# Coordination Sequence:
#
# PCOD8192915 Si02
#       8
#     8   8   8   4   8   8   8   8
#     4  10  23  43  68  92 127 171 215 266 326 390
#     4  10  23  41  63  93 128 170 213 252 311 382
#     4  10  21  38  61  92 127 163 205 256 311 380
#     4   8  16  32  54  84 124 164 196 240 304 362
#     4  12  26  42  68  96 122 171 212 259 330 372
#     4  10  21  37  61  96 122 164 211 253 318 381
#     4  12  28  47  65 100 132 167 220 276 332 380
#     4  10  21  39  62  91 130 172 205 258 317 370
#
# _framework density 21.747333000000001
#
# number of rings (size 3 to 8) (size 9 to 14) (size 15 to 20)
#    0.000    1.600    0.000    3.600    4.667    3.733 
#    0.000    0.000    0.000    0.000    0.000    0.000 
#    0.000    0.000    0.000    0.000    0.000    0.000 
#
# Total GULP energy -372010.059344 kJ/mol
# GULP energy per Si atom -12400.335311 kJ/mol
# Density = 2.169784 g / cm^3
# Si number density = 21.747333 Si / 1000 Ang^3
#
#
#
# Elastic Constant Matrix: (Units=GPa)
#
#
# Indices 1 2 3 4 5 6 
#
# 1 83.6044 51.4193 19.5097 0.0000 0.0000 0.0000
# 2 51.4193 84.1058 13.9559 0.0000 0.0000 0.0000
# 3 19.5097 13.9559 95.3856 0.0000 0.0000 0.0000
# 4 0.0000 0.0000 0.0000 20.6517 0.0000 0.0000
# 5 0.0000 0.0000 0.0000 0.0000 34.5468 0.0000
# 6 0.0000 0.0000 0.0000 0.0000 0.0000 48.1267
#
#
#
# Elastic Compliance Matrix: (Units=1/GPa)
#
#
# Indices 1 2 3 4 5 6 
#
# 1 0.019657 -0.011633 -0.002318 0.000000 0.000000 0.000000
# 2 -0.011633 0.019070 -0.000411 0.000000 0.000000 0.000000
# 3 -0.002318 -0.000411 0.011018 0.000000 0.000000 0.000000
# 4 0.000000 0.000000 0.000000 0.048422 0.000000 0.000000
# 5 0.000000 0.000000 0.000000 0.000000 0.028946 0.000000
# 6 0.000000 0.000000 0.000000 0.000000 0.000000 0.020779
#
#
# Mechanical properties :
#
#
# Convention : Reuss Voigt Hill
#
# Bulk Modulus (GPa) = 47.57254 48.09617 47.83436
# Shear Modulus (GPa) = 27.22983 32.54574 29.88779
#
# Velocity S-wave (km/s) = 3.54234 3.87271 3.71120
# Velocity P-wave (km/s) = 6.21719 6.49316 6.35667
#
# Compressibility (1/GPa) = 0.02102053
#
# Stress axis : x y z
#
# Youngs Moduli (GPa) = 50.87354 52.43907 90.75989
#
# Poissons Ratio (x) = 0.61000 0.21043
# Poissons Ratio (y) = 0.59179 0.03728
# Poissons Ratio (z) = 0.11795 0.02154
#
# Static dielectric constant tensor:
#      x y z
#    x 4.117720 0.000000 0.000000 
#    y 0.000000 3.540980 0.000000 
#    z 0.000000 0.000000 4.157420 
# 
# 
# High freq. dielectric constant tensor:
#      x y z
#    x 1.870840 0.000000 0.000000 
#    y 0.000000 1.830960 0.000000 
#    z 0.000000 0.000000 1.871210 
# 
# From -- ./inp_files/2585.got.cif
#   From: 2010.03.12/outbox.cif.g09.slc.cpg/sg46_2_cif.got.tgz:2585.got - 2010.04.14 02:56:35.
