data_PCOD8192194
_publ_section_title
;
Structure prediction by ZEFSAII (Michael W. Deem and Ramdas Pophale) SiO2 
 PCOD8192194
Probable space group: I M A 2
;
_chemical_formula_sum "Si O2"
_cell_formula_units_Z 64
_cell_length_a 16.020754
_cell_length_b 9.267058
_cell_length_c 21.932967
_cell_angle_alpha 90.000000
_cell_angle_beta 90.000000
_cell_angle_gamma 90.000000
_cell_volume 3256.283572
_symmetry_space_group_name_H-M "I M A 2"
_symmetry_group_IT_number 46
_symmetry_cell_setting 'orthorhombic'
loop_
_space_group_symop_operation_xyz
x,y,z
-x,-y,z
1/2-x,y,z
1/2+x,-y,z
1/2+x,1/2+y,1/2+z
1/2-x,1/2-y,1/2+z
-x,1/2+y,1/2+z
x,1/2-y,1/2+z
loop_
_atom_site_type_symbol
_atom_site_label
_atom_site_fract_x
_atom_site_fract_y
_atom_site_fract_z
Si Si1 0.844351 0.967101 0.656900
Si Si2 0.951985 0.140361 0.336294
Si Si3 0.843965 0.498537 0.732404
Si Si4 0.093991 0.775836 0.148747
Si Si5 0.348555 0.667250 0.954279
Si Si6 0.582377 0.584057 0.033270
Si Si7 0.550542 0.778092 0.738194
Si Si8 0.524815 0.341247 0.522599
O O1 0.750000 0.933791 0.676099
O O2 0.866369 0.878845 0.594937
O O3 0.900936 0.923724 0.716431
O O4 0.852006 0.133310 0.635262
O O5 0.889230 0.092702 0.283897
O O6 0.896479 0.199051 0.391215
O O7 0.019457 0.259576 0.309364
O O8 0.000000 0.000000 0.361204
O O9 0.750000 0.529909 0.752931
O O10 0.845766 0.405497 0.670153
O O11 0.888961 0.648350 0.719890
O O12 0.035850 0.833235 0.094829
O O13 0.034136 0.729202 0.202354
O O14 0.250000 0.686865 0.945322
O O15 0.366403 0.508789 0.983294
O O16 0.384819 0.793180 0.997047
O O17 0.500000 0.500000 0.056049
O O18 0.550321 0.733003 0.002022
O O19 0.500000 0.500000 0.500079
#
# Coordination Sequence:
#
# PCOD8192194 Si02
#       8
#     8   8   8   8   8   8   8   8
#     4  12  21  33  54  87 121 152 194 251 306 358
#     4   9  19  37  62  84 113 160 208 246 301 367
#     4  10  20  34  54  85 116 148 193 246 298 346
#     4  11  20  35  55  78 116 162 196 232 293 378
#     4  11  22  39  64  92 118 154 212 271 313 359
#     4  10  19  36  59  84 119 160 202 243 300 376
#     4  10  20  36  56  81 114 154 195 241 293 370
#     4  11  22  38  59  85 123 166 207 244 308 386
#
# _framework density 19.654309000000001
#
# number of rings (size 3 to 8) (size 9 to 14) (size 15 to 20)
#    0.000    1.500    3.750    4.875    0.000    0.500 
#    0.000    3.750    0.000    0.000    0.000    1.750 
#    0.000    0.000    0.000    0.000    0.000    0.000 
#
# Total GULP energy -396547.037182 kJ/mol
# GULP energy per Si atom -12392.094912 kJ/mol
# Density = 1.960957 g / cm^3
# Si number density = 19.654309 Si / 1000 Ang^3
#
#
#
# Elastic Constant Matrix: (Units=GPa)
#
#
# Indices 1 2 3 4 5 6 
#
# 1 114.0799 35.9667 21.1326 0.0000 0.0000 0.0000
# 2 35.9667 102.6866 25.2980 0.0000 0.0000 0.0000
# 3 21.1326 25.2980 53.2890 0.0000 0.0000 0.0000
# 4 0.0000 0.0000 0.0000 6.4361 0.0000 0.0000
# 5 0.0000 0.0000 0.0000 0.0000 23.4419 0.0000
# 6 0.0000 0.0000 0.0000 0.0000 0.0000 17.8635
#
#
#
# Elastic Compliance Matrix: (Units=1/GPa)
#
#
# Indices 1 2 3 4 5 6 
#
# 1 0.010175 -0.002910 -0.002653 0.000000 0.000000 0.000000
# 2 -0.002910 0.011860 -0.004477 0.000000 0.000000 0.000000
# 3 -0.002653 -0.004477 0.021943 0.000000 0.000000 0.000000
# 4 0.000000 0.000000 0.000000 0.155374 0.000000 0.000000
# 5 0.000000 0.000000 0.000000 0.000000 0.042659 0.000000
# 6 0.000000 0.000000 0.000000 0.000000 0.000000 0.055980
#
#
# Mechanical properties :
#
#
# Convention : Reuss Voigt Hill
#
# Bulk Modulus (GPa) = 41.84419 48.31668 45.08043
# Shear Modulus (GPa) = 15.33566 22.05886 18.69726
#
# Velocity S-wave (km/s) = 2.79636 3.35377 3.08767
# Velocity P-wave (km/s) = 5.63582 6.29553 5.97479
#
# Compressibility (1/GPa) = 0.02389818
#
# Stress axis : x y z
#
# Youngs Moduli (GPa) = 98.28203 84.31356 45.57257
#
# Poissons Ratio (x) = 0.24536 0.12092
# Poissons Ratio (y) = 0.28601 0.20401
# Poissons Ratio (z) = 0.26079 0.37743
#
# Static dielectric constant tensor:
#      x y z
#    x 3.574280 0.000000 0.000000 
#    y 0.000000 4.389520 0.000000 
#    z 0.000000 0.000000 3.550820 
# 
# 
# High freq. dielectric constant tensor:
#      x y z
#    x 1.764730 0.000000 0.000000 
#    y 0.000000 1.748620 0.000000 
#    z 0.000000 0.000000 1.750790 
# 
# From -- ./inp_files/23669.got.cif
#   From: 2010.03.12/outbox.cif.g09.slc.cpg/sg46_12_cif.got.tgz:23669.got - 2010.04.14 02:56:35.
