data_PCOD8192141
_publ_section_title
;
Structure prediction by ZEFSAII (Michael W. Deem and Ramdas Pophale) SiO2 
 PCOD8192141
Probable space group: I M A 2
;
_chemical_formula_sum "Si O2"
_cell_formula_units_Z 64
_cell_length_a 8.957180
_cell_length_b 33.164983
_cell_length_c 11.544877
_cell_angle_alpha 90.000000
_cell_angle_beta 90.000000
_cell_angle_gamma 90.000000
_cell_volume 3429.575681
_symmetry_space_group_name_H-M "I M A 2"
_symmetry_group_IT_number 46
_symmetry_cell_setting 'orthorhombic'
loop_
_space_group_symop_operation_xyz
x,y,z
-x,-y,z
1/2-x,y,z
1/2+x,-y,z
1/2+x,1/2+y,1/2+z
1/2-x,1/2-y,1/2+z
-x,1/2+y,1/2+z
x,1/2-y,1/2+z
loop_
_atom_site_type_symbol
_atom_site_label
_atom_site_fract_x
_atom_site_fract_y
_atom_site_fract_z
Si Si1 0.582957 0.728697 0.822750
Si Si2 0.426230 0.957980 0.835990
Si Si3 0.916599 0.823156 0.536606
Si Si4 0.076139 0.624268 0.457175
Si Si5 0.922519 0.192568 0.769363
Si Si6 0.574272 0.853184 0.195598
Si Si7 0.926041 0.040866 0.573165
Si Si8 0.075675 0.610049 0.904686
O O1 0.750000 0.742784 0.784550
O O2 0.461446 0.764010 0.821855
O O3 0.529947 0.691552 0.740385
O O4 0.588130 0.716321 0.956979
O O5 0.250000 0.963801 0.843504
O O6 0.477310 0.920213 0.915390
O O7 0.476361 0.947806 0.704130
O O8 0.500000 0.000000 0.878872
O O9 0.750000 0.842729 0.538557
O O10 0.965694 0.811660 0.663675
O O11 0.041217 0.852076 0.484750
O O12 0.250000 0.623463 0.489119
O O13 0.043324 0.656568 0.357494
O O14 0.985141 0.638552 0.568080
O O15 0.750000 0.191661 0.730799
O O16 0.750000 0.858317 0.197186
O O17 0.507869 0.886959 0.281953
O O18 0.750000 0.036784 0.569196
O O19 0.983951 0.072516 0.478940
O O20 0.000000 0.000000 0.532333
O O21 0.250000 0.607347 0.879288
#
# Coordination Sequence:
#
# PCOD8192141 Si02
#       8
#     8   8   8   8   8   8   8   8
#     4   9  21  39  55  76 108 145 182 228 283 332
#     4   9  18  35  57  82 115 147 182 229 284 338
#     4  10  21  37  56  79 108 143 181 223 275 329
#     4  10  22  39  57  82 114 149 189 238 286 337
#     4  11  23  36  56  84 111 142 185 233 279 333
#     4  10  22  39  58  80 109 149 192 234 282 339
#     4   9  18  32  54  84 115 145 178 225 282 336
#     4  10  19  35  58  81 109 144 183 228 277 330
#
# _framework density 18.661200999999998
#
# number of rings (size 3 to 8) (size 9 to 14) (size 15 to 20)
#    0.000    2.250    0.000    3.000    1.750    7.500 
#    0.000    3.125    0.000    0.000    0.000    0.000 
#    0.000    0.000    0.000    0.000    0.000    0.000 
#
# Total GULP energy -396730.626011 kJ/mol
# GULP energy per Si atom -12397.832063 kJ/mol
# Density = 1.861873 g / cm^3
# Si number density = 18.661201 Si / 1000 Ang^3
#
#
#
# Elastic Constant Matrix: (Units=GPa)
#
#
# Indices 1 2 3 4 5 6 
#
# 1 54.5204 39.3227 43.4197 -0.0011 0.0009 0.0003
# 2 39.3227 106.0541 51.9305 -0.0069 0.0008 -0.0006
# 3 43.4197 51.9305 97.9757 -0.0133 0.0064 -0.0014
# 4 -0.0011 -0.0069 -0.0133 18.9335 0.0025 -0.0007
# 5 0.0009 0.0008 0.0064 0.0025 22.3626 -0.0015
# 6 0.0003 -0.0006 -0.0014 -0.0007 -0.0015 30.2480
#
#
#
# Elastic Compliance Matrix: (Units=1/GPa)
#
#
# Indices 1 2 3 4 5 6 
#
# 1 0.031357 -0.006512 -0.010445 -0.000008 0.000002 -0.000001
# 2 -0.006512 0.014087 -0.004580 0.000001 0.000001 0.000000
# 3 -0.010445 -0.004580 0.017263 0.000010 -0.000004 0.000001
# 4 -0.000008 0.000001 0.000010 0.052816 -0.000006 0.000001
# 5 0.000002 0.000001 -0.000004 -0.000006 0.044718 0.000002
# 6 -0.000001 0.000000 0.000001 0.000001 0.000002 0.033060
#
#
# Mechanical properties :
#
#
# Convention : Reuss Voigt Hill
#
# Bulk Modulus (GPa) = 50.93710 58.65509 54.79609
# Shear Modulus (GPa) = 20.58304 22.56731 21.57517
#
# Velocity S-wave (km/s) = 3.32473 3.48130 3.40391
# Velocity P-wave (km/s) = 6.48794 6.90355 6.69897
#
# Compressibility (1/GPa) = 0.01963206
#
# Stress axis : x y z
#
# Youngs Moduli (GPa) = 31.89122 70.98975 57.92706
#
# Poissons Ratio (x) = 0.46229 0.60503
# Poissons Ratio (y) = 0.20768 0.26533
# Poissons Ratio (z) = 0.33309 0.32516
#
# Static dielectric constant tensor:
#      x y z
#    x 3.472080 -0.000010 -0.000010 
#    y -0.000010 3.467480 0.000000 
#    z -0.000010 0.000000 3.495120 
# 
# 
# High freq. dielectric constant tensor:
#      x y z
#    x 1.727060 0.000000 0.000000 
#    y 0.000000 1.720000 0.000000 
#    z 0.000000 0.000000 1.724140 
# 
# From -- ./inp_files/9765.got.cif
#   From: 2010.03.12/outbox.cif.g09.slc.cpg/sg46_5_cif.got.tgz:9765.got - 2010.04.14 02:56:35.
