data_PCOD8192968
_publ_section_title
;
Structure prediction by ZEFSAII (Michael W. Deem and Ramdas Pophale) SiO2 
 PCOD8192968
Probable space group: I M A 2
;
_chemical_formula_sum "Si O2"
_cell_formula_units_Z 64
_cell_length_a 29.928913
_cell_length_b 8.499239
_cell_length_c 11.598313
_cell_angle_alpha 90.000000
_cell_angle_beta 90.000000
_cell_angle_gamma 90.000000
_cell_volume 2950.297494
_symmetry_space_group_name_H-M "I M A 2"
_symmetry_group_IT_number 46
_symmetry_cell_setting 'orthorhombic'
loop_
_space_group_symop_operation_xyz
x,y,z
-x,-y,z
1/2-x,y,z
1/2+x,-y,z
1/2+x,1/2+y,1/2+z
1/2-x,1/2-y,1/2+z
-x,1/2+y,1/2+z
x,1/2-y,1/2+z
loop_
_atom_site_type_symbol
_atom_site_label
_atom_site_fract_x
_atom_site_fract_y
_atom_site_fract_z
Si Si1 0.881470 0.911598 0.465360
Si Si2 0.452576 0.446168 0.633581
Si Si3 0.080331 0.408440 0.394868
Si Si4 0.200630 0.827714 0.064422
Si Si5 0.336050 0.571553 0.335221
Si Si6 0.452016 0.072495 0.647033
Si Si7 0.699188 0.535682 0.107599
Si Si8 0.630791 0.108969 0.245278
O O1 0.912445 0.779114 0.405845
O O2 0.915260 0.996830 0.557215
O O3 0.837218 0.857263 0.538309
O O4 0.861574 0.022864 0.366721
O O5 0.500000 0.500000 0.682405
O O6 0.449627 0.479428 0.497043
O O7 0.447511 0.260683 0.650487
O O8 0.417237 0.554905 0.699585
O O9 0.130172 0.470073 0.410066
O O10 0.059015 0.474793 0.277656
O O11 0.250000 0.865825 0.111070
O O12 0.191074 0.643100 0.070209
O O13 0.167762 0.929520 0.146953
O O14 0.198911 0.865787 0.928710
O O15 0.310617 0.458569 0.244571
O O16 0.364830 0.706213 0.270575
O O17 0.500000 0.000000 0.612057
O O18 0.750000 0.593768 0.083007
#
# Coordination Sequence:
#
# PCOD8192968 Si02
#       8
#     8   8   8   8   8   8   8   8
#     4  11  23  43  66  90 133 174 209 263 329 390
#     4  11  25  43  63  95 130 163 218 272 323 393
#     4  11  23  43  67  89 129 170 210 265 327 390
#     4  10  21  38  65 100 130 165 218 275 324 382
#     4  11  21  38  69  93 126 171 219 267 325 389
#     4  11  25  43  68  95 127 171 215 268 331 390
#     4  10  21  38  63  96 129 169 217 269 323 387
#     4  11  23  40  65  96 129 174 214 266 330 385
#
# _framework density 21.692727000000001
#
# number of rings (size 3 to 8) (size 9 to 14) (size 15 to 20)
#    0.000    1.250    5.000    0.750    1.750    2.500 
#    0.000    1.250    0.000    0.000    0.000    0.000 
#    0.000    0.000    0.000    0.000    0.000    0.000 
#
# Total GULP energy -396554.720729 kJ/mol
# GULP energy per Si atom -12392.335023 kJ/mol
# Density = 2.164335 g / cm^3
# Si number density = 21.692727 Si / 1000 Ang^3
#
#
#
# Elastic Constant Matrix: (Units=GPa)
#
#
# Indices 1 2 3 4 5 6 
#
# 1 146.8524 10.5092 44.1098 0.0000 0.0000 0.0000
# 2 10.5092 17.8473 13.7317 0.0000 0.0000 0.0000
# 3 44.1098 13.7317 118.1686 0.0000 0.0000 0.0000
# 4 0.0000 0.0000 0.0000 25.2488 0.0000 0.0000
# 5 0.0000 0.0000 0.0000 0.0000 29.0489 0.0000
# 6 0.0000 0.0000 0.0000 0.0000 0.0000 26.8602
#
#
#
# Elastic Compliance Matrix: (Units=1/GPa)
#
#
# Indices 1 2 3 4 5 6 
#
# 1 0.007776 -0.002576 -0.002603 0.000000 0.000000 0.000000
# 2 -0.002576 0.062386 -0.006288 0.000000 0.000000 0.000000
# 3 -0.002603 -0.006288 0.010165 0.000000 0.000000 0.000000
# 4 0.000000 0.000000 0.000000 0.039606 0.000000 0.000000
# 5 0.000000 0.000000 0.000000 0.000000 0.034425 0.000000
# 6 0.000000 0.000000 0.000000 0.000000 0.000000 0.037230
#
#
# Mechanical properties :
#
#
# Convention : Reuss Voigt Hill
#
# Bulk Modulus (GPa) = 17.42394 46.61884 32.02139
# Shear Modulus (GPa) = 21.39939 30.53274 25.96606
#
# Velocity S-wave (km/s) = 3.14423 3.75575 3.46351
# Velocity P-wave (km/s) = 4.60773 6.35175 5.54869
#
# Compressibility (1/GPa) = 0.05739231
#
# Stress axis : x y z
#
# Youngs Moduli (GPa) = 128.60388 16.02935 98.37773
#
# Poissons Ratio (x) = 0.04129 0.25610
# Poissons Ratio (y) = 0.33126 0.61860
# Poissons Ratio (z) = 0.33479 0.10079
#
# Static dielectric constant tensor:
#      x y z
#    x 3.865320 0.000000 0.000000 
#    y 0.000000 3.534850 0.000000 
#    z 0.000000 0.000000 4.141860 
# 
# 
# High freq. dielectric constant tensor:
#      x y z
#    x 1.854780 0.000000 0.000000 
#    y 0.000000 1.817840 0.000000 
#    z 0.000000 0.000000 1.872200 
# 
# From -- ./inp_files/13195.got.cif
#   From: 2010.03.12/outbox.cif.g09.slc.cpg/sg46_7_cif.got.tgz:13195.got - 2010.04.14 02:56:35.
