data_PCOD8192136
_publ_section_title
;
Structure prediction by ZEFSAII (Michael W. Deem and Ramdas Pophale) SiO2 
 PCOD8192136
Probable space group: I M A 2
;
_chemical_formula_sum "Si O2"
_cell_formula_units_Z 48
_cell_length_a 8.641125
_cell_length_b 15.403950
_cell_length_c 18.822155
_cell_angle_alpha 90.000000
_cell_angle_beta 90.000000
_cell_angle_gamma 90.000000
_cell_volume 2505.369196
_symmetry_space_group_name_H-M "I M A 2"
_symmetry_group_IT_number 46
_symmetry_cell_setting 'orthorhombic'
loop_
_space_group_symop_operation_xyz
x,y,z
-x,-y,z
1/2-x,y,z
1/2+x,-y,z
1/2+x,1/2+y,1/2+z
1/2-x,1/2-y,1/2+z
-x,1/2+y,1/2+z
x,1/2-y,1/2+z
loop_
_atom_site_type_symbol
_atom_site_label
_atom_site_fract_x
_atom_site_fract_y
_atom_site_fract_z
Si Si1 0.433998 0.907367 0.938870
Si Si2 0.566913 0.907321 0.786846
Si Si3 0.067474 0.909908 0.292251
Si Si4 0.066644 0.754417 0.038795
Si Si5 0.566181 0.252739 0.200457
Si Si6 0.433324 0.909871 0.453625
O O1 0.250000 0.911726 0.934896
O O2 0.494534 0.838179 0.996366
O O3 0.500000 0.000000 0.962364
O O4 0.503357 0.121441 0.862250
O O5 0.750000 0.914303 0.793515
O O6 0.518909 0.837915 0.728206
O O7 0.500000 0.000000 0.762906
O O8 0.250000 0.916153 0.288242
O O9 0.007390 0.830600 0.244370
O O10 0.009944 0.894175 0.372816
O O11 0.000000 0.000000 0.262041
O O12 0.250000 0.751934 0.034209
O O13 0.999646 0.667447 0.002202
O O14 0.011149 0.760684 0.119700
O O15 0.750000 0.265366 0.207102
O O16 0.250000 0.913763 0.457139
O O17 0.500000 0.000000 0.483560
#
# Coordination Sequence:
#
# PCOD8192136 Si02
#       6
#     8   8   8   8   8   8
#     4  10  19  35  57  81 107 140 180 223 267 318
#     4  11  22  37  57  81 106 139 181 228 274 321
#     4   9  18  32  53  76 102 135 172 212 256 303
#     4   9  19  34  54  77 106 141 174 208 260 321
#     4  10  20  36  55  78 108 143 177 216 267 324
#     4   9  17  32  51  73  97 128 168 209 249 297
#
# _framework density 19.158853000000001
#
# number of rings (size 3 to 8) (size 9 to 14) (size 15 to 20)
#    0.000    2.333    0.000    4.000    0.000    4.667 
#    0.000    9.167    0.000    0.000    0.000    0.000 
#    0.000    0.000    0.000    0.000    0.000    0.000 
#
# Total GULP energy -297644.159705 kJ/mol
# GULP energy per Si atom -12401.839988 kJ/mol
# Density = 1.911525 g / cm^3
# Si number density = 19.158853 Si / 1000 Ang^3
#
#
#
# Elastic Constant Matrix: (Units=GPa)
#
#
# Indices 1 2 3 4 5 6 
#
# 1 55.4426 29.9063 23.7043 0.0000 0.0000 0.0000
# 2 29.9063 146.6309 79.7459 0.0000 0.0000 0.0000
# 3 23.7043 79.7459 108.6759 0.0000 0.0000 0.0000
# 4 0.0000 0.0000 0.0000 20.0222 0.0000 0.0000
# 5 0.0000 0.0000 0.0000 0.0000 19.2804 0.0000
# 6 0.0000 0.0000 0.0000 0.0000 0.0000 33.2988
#
#
#
# Elastic Compliance Matrix: (Units=1/GPa)
#
#
# Indices 1 2 3 4 5 6 
#
# 1 0.020620 -0.002928 -0.002349 0.000000 0.000000 0.000000
# 2 -0.002928 0.011765 -0.007994 0.000000 0.000000 0.000000
# 3 -0.002349 -0.007994 0.015580 0.000000 0.000000 0.000000
# 4 0.000000 0.000000 0.000000 0.049945 0.000000 0.000000
# 5 0.000000 0.000000 0.000000 0.000000 0.051866 0.000000
# 6 0.000000 0.000000 0.000000 0.000000 0.000000 0.030031
#
#
# Mechanical properties :
#
#
# Convention : Reuss Voigt Hill
#
# Bulk Modulus (GPa) = 46.67985 64.16250 55.42117
# Shear Modulus (GPa) = 23.42017 26.34645 24.88331
#
# Velocity S-wave (km/s) = 3.50011 3.71234 3.60778
# Velocity P-wave (km/s) = 6.38372 7.20678 6.80770
#
# Compressibility (1/GPa) = 0.02142252
#
# Stress axis : x y z
#
# Youngs Moduli (GPa) = 48.49552 84.99956 64.18405
#
# Poissons Ratio (x) = 0.24889 0.15077
# Poissons Ratio (y) = 0.14200 0.51310
# Poissons Ratio (z) = 0.11392 0.67951
#
# Static dielectric constant tensor:
#      x y z
#    x 3.256980 0.000000 0.000000 
#    y 0.000000 3.718080 0.000000 
#    z 0.000000 0.000000 3.621730 
# 
# 
# High freq. dielectric constant tensor:
#      x y z
#    x 1.724780 0.000000 0.000000 
#    y 0.000000 1.760370 0.000000 
#    z 0.000000 0.000000 1.740570 
# 
# From -- ./inp_files/15165.got.cif
#   From: 2010.03.12/outbox.cif.g09.slc.cpg/sg46_8_cif.got.tgz:15165.got - 2010.04.14 02:56:35.
