data_PCOD8192313
_publ_section_title
;
Structure prediction by ZEFSAII (Michael W. Deem and Ramdas Pophale) SiO2 
 PCOD8192313
Probable space group: I M A 2
;
_chemical_formula_sum "Si O2"
_cell_formula_units_Z 64
_cell_length_a 8.878131
_cell_length_b 14.726307
_cell_length_c 26.956369
_cell_angle_alpha 90.000000
_cell_angle_beta 90.000000
_cell_angle_gamma 90.000000
_cell_volume 3524.331825
_symmetry_space_group_name_H-M "I M A 2"
_symmetry_group_IT_number 46
_symmetry_cell_setting 'orthorhombic'
loop_
_space_group_symop_operation_xyz
x,y,z
-x,-y,z
1/2-x,y,z
1/2+x,-y,z
1/2+x,1/2+y,1/2+z
1/2-x,1/2-y,1/2+z
-x,1/2+y,1/2+z
x,1/2-y,1/2+z
loop_
_atom_site_type_symbol
_atom_site_label
_atom_site_fract_x
_atom_site_fract_y
_atom_site_fract_z
Si Si1 0.073218 0.594277 0.880000
Si Si2 0.927130 0.591548 0.330915
Si Si3 0.574560 0.909409 0.719079
Si Si4 0.425312 0.905584 0.989698
Si Si5 0.075349 0.906271 0.105471
Si Si6 0.072698 0.215619 0.184477
Si Si7 0.926793 0.094100 0.265291
Si Si8 0.571569 0.727970 0.414966
O O1 0.250000 0.589973 0.889865
O O2 0.035572 0.613373 0.822533
O O3 0.000000 0.500000 0.897176
O O4 0.000107 0.672519 0.913278
O O5 0.750000 0.579212 0.333111
O O6 0.985561 0.609361 0.275007
O O7 0.978329 0.674931 0.365256
O O8 0.000000 0.500000 0.352643
O O9 0.750000 0.928006 0.721140
O O10 0.536089 0.823096 0.684899
O O11 0.500000 0.000000 0.696307
O O12 0.250000 0.909044 0.975795
O O13 0.506415 0.822722 0.962744
O O14 0.500000 0.000000 0.972832
O O15 0.451303 0.888706 0.047744
O O16 0.250000 0.911248 0.119484
O O17 0.998695 0.823862 0.134606
O O18 0.000000 0.000000 0.122840
O O19 0.250000 0.197044 0.185601
O O20 0.000139 0.173903 0.233704
O O21 0.750000 0.089226 0.254985
O O22 0.000000 0.000000 0.247712
O O23 0.750000 0.735897 0.420026
#
# Coordination Sequence:
#
# PCOD8192313 Si02
#       8
#     8   8   8   8   8   8   8   8
#     4  10  21  36  53  74 103 139 178 218 258 303
#     4   9  18  31  47  71 103 136 169 204 245 294
#     4   9  19  34  50  70  99 135 171 208 248 291
#     4  10  21  37  56  79 107 136 168 209 258 312
#     4  10  21  37  56  78 105 135 167 208 257 310
#     4  11  21  33  52  76 103 135 172 214 259 310
#     4  10  20  33  50  74 105 140 175 212 254 303
#     4  11  21  33  53  78 105 138 174 213 257 307
#
# _framework density 18.159471
#
# number of rings (size 3 to 8) (size 9 to 14) (size 15 to 20)
#    0.000    2.000    0.000    3.750    0.000    7.000 
#    0.000    2.500    0.000    0.750    0.000    1.750 
#    0.000    0.000    0.000    0.000    0.000    0.000 
#
# Total GULP energy -396924.679052 kJ/mol
# GULP energy per Si atom -12403.896220 kJ/mol
# Density = 1.811814 g / cm^3
# Si number density = 18.159471 Si / 1000 Ang^3
#
#
#
# Elastic Constant Matrix: (Units=GPa)
#
#
# Indices 1 2 3 4 5 6 
#
# 1 98.8461 68.2800 40.2913 0.0000 0.0000 0.0000
# 2 68.2800 153.4968 57.0823 0.0000 0.0000 0.0000
# 3 40.2913 57.0823 61.7327 0.0000 0.0000 0.0000
# 4 0.0000 0.0000 0.0000 59.0024 0.0000 0.0000
# 5 0.0000 0.0000 0.0000 0.0000 27.9261 0.0000
# 6 0.0000 0.0000 0.0000 0.0000 0.0000 36.0700
#
#
#
# Elastic Compliance Matrix: (Units=1/GPa)
#
#
# Indices 1 2 3 4 5 6 
#
# 1 0.015875 -0.004890 -0.005839 0.000000 0.000000 0.000000
# 2 -0.004890 0.011435 -0.007382 0.000000 0.000000 0.000000
# 3 -0.005839 -0.007382 0.026836 0.000000 0.000000 0.000000
# 4 0.000000 0.000000 0.000000 0.016948 0.000000 0.000000
# 5 0.000000 0.000000 0.000000 0.000000 0.035809 0.000000
# 6 0.000000 0.000000 0.000000 0.000000 0.000000 0.027724
#
#
# Mechanical properties :
#
#
# Convention : Reuss Voigt Hill
#
# Bulk Modulus (GPa) = 55.79439 71.70922 63.75181
# Shear Modulus (GPa) = 28.27642 34.49449 31.38546
#
# Velocity S-wave (km/s) = 3.95031 4.36309 4.16182
# Velocity P-wave (km/s) = 7.18318 8.05955 7.63395
#
# Compressibility (1/GPa) = 0.01792295
#
# Stress axis : x y z
#
# Youngs Moduli (GPa) = 62.99248 87.44790 37.26293
#
# Poissons Ratio (x) = 0.42763 0.21759
# Poissons Ratio (y) = 0.30804 0.27509
# Poissons Ratio (z) = 0.36784 0.64557
#
# Static dielectric constant tensor:
#      x y z
#    x 3.425240 0.000000 0.000000 
#    y 0.000000 3.385240 0.000000 
#    z 0.000000 0.000000 3.185630 
# 
# 
# High freq. dielectric constant tensor:
#      x y z
#    x 1.716340 0.000000 0.000000 
#    y 0.000000 1.704840 0.000000 
#    z 0.000000 0.000000 1.681390 
# 
# From -- ./inp_files/23213.got.cif
#   From: 2010.03.12/outbox.cif.g09.slc.cpg/sg46_12_cif.got.tgz:23213.got - 2010.04.14 02:56:35.
