data_PCOD8192401
_publ_section_title
;
Structure prediction by ZEFSAII (Michael W. Deem and Ramdas Pophale) SiO2 
 PCOD8192401
Probable space group: I M A 2
;
_chemical_formula_sum "Si O2"
_cell_formula_units_Z 64
_cell_length_a 8.786320
_cell_length_b 24.767752
_cell_length_c 15.108270
_cell_angle_alpha 90.000000
_cell_angle_beta 90.000000
_cell_angle_gamma 90.000000
_cell_volume 3287.822357
_symmetry_space_group_name_H-M "I M A 2"
_symmetry_group_IT_number 46
_symmetry_cell_setting 'orthorhombic'
loop_
_space_group_symop_operation_xyz
x,y,z
-x,-y,z
1/2-x,y,z
1/2+x,-y,z
1/2+x,1/2+y,1/2+z
1/2-x,1/2-y,1/2+z
-x,1/2+y,1/2+z
x,1/2-y,1/2+z
loop_
_atom_site_type_symbol
_atom_site_label
_atom_site_fract_x
_atom_site_fract_y
_atom_site_fract_z
Si Si1 0.070648 0.393858 0.666770
Si Si2 0.575260 0.646488 0.990409
Si Si3 0.075218 0.715869 0.701976
Si Si4 0.929735 0.443390 0.494837
Si Si5 0.927881 0.854394 0.873713
Si Si6 0.570485 0.942093 0.353730
Si Si7 0.574592 0.243147 0.401485
Si Si8 0.923325 0.825506 0.680054
O O1 0.250000 0.398969 0.654393
O O2 0.014587 0.417272 0.760833
O O3 0.023746 0.331416 0.658260
O O4 0.990058 0.428398 0.591577
O O5 0.750000 0.658059 0.963645
O O6 0.559594 0.634537 0.095697
O O7 0.513124 0.596047 0.933976
O O8 0.477099 0.699783 0.973152
O O9 0.250000 0.705374 0.677534
O O10 0.046468 0.715969 0.806622
O O11 0.026060 0.773152 0.662204
O O12 0.750000 0.448279 0.498907
O O13 0.000000 0.500000 0.464813
O O14 0.975980 0.399995 0.421637
O O15 0.750000 0.864369 0.890803
O O16 0.971777 0.856755 0.769374
O O17 0.973525 0.796472 0.913426
O O18 0.750000 0.948063 0.354628
O O19 0.500000 0.000000 0.370131
O O20 0.750000 0.259041 0.415694
O O21 0.750000 0.805328 0.691143
#
# Coordination Sequence:
#
# PCOD8192401 Si02
#       8
#     8   8   8   8   8   8   8   8
#     4  11  22  38  60  87 118 159 199 240 295 357
#     4  10  20  37  58  85 118 157 199 244 293 354
#     4  10  20  34  54  84 122 158 195 241 292 348
#     4  12  26  44  64  88 117 153 199 252 302 358
#     4  10  21  40  63  87 116 156 199 248 301 354
#     4  10  22  38  59  84 116 156 198 241 291 349
#     4  10  20  34  55  86 120 157 196 242 293 349
#     4   9  20  37  60  85 118 158 199 244 294 353
#
# _framework density 19.465772999999999
#
# number of rings (size 3 to 8) (size 9 to 14) (size 15 to 20)
#    0.000    1.750    1.250    3.000    1.750    4.500 
#    0.000    0.625    0.000    1.500    0.000    0.000 
#    0.000    0.000    0.000    0.000    0.000    0.000 
#
# Total GULP energy -396916.514223 kJ/mol
# GULP energy per Si atom -12403.641069 kJ/mol
# Density = 1.942147 g / cm^3
# Si number density = 19.465773 Si / 1000 Ang^3
#
#
#
# Elastic Constant Matrix: (Units=GPa)
#
#
# Indices 1 2 3 4 5 6 
#
# 1 86.8582 42.2683 35.2850 0.0001 0.0000 0.0000
# 2 42.2683 113.3339 64.2050 0.0001 0.0000 0.0000
# 3 35.2850 64.2050 116.6792 0.0007 0.0000 -0.0001
# 4 0.0001 0.0001 0.0007 26.8987 0.0000 0.0000
# 5 0.0000 0.0000 0.0000 0.0000 22.0226 0.0001
# 6 0.0000 0.0000 -0.0001 0.0000 0.0001 36.7116
#
#
#
# Elastic Compliance Matrix: (Units=1/GPa)
#
#
# Indices 1 2 3 4 5 6 
#
# 1 0.014390 -0.004216 -0.002032 0.000000 0.000000 0.000000
# 2 -0.004216 0.014055 -0.006459 0.000000 0.000000 0.000000
# 3 -0.002032 -0.006459 0.012739 0.000000 0.000000 0.000000
# 4 0.000000 0.000000 0.000000 0.037176 0.000000 0.000000
# 5 0.000000 0.000000 0.000000 0.000000 0.045408 0.000000
# 6 0.000000 0.000000 0.000000 0.000000 0.000000 0.027239
#
#
# Mechanical properties :
#
#
# Convention : Reuss Voigt Hill
#
# Bulk Modulus (GPa) = 63.40883 66.70976 65.05929
# Shear Modulus (GPa) = 27.52120 28.80079 28.16100
#
# Velocity S-wave (km/s) = 3.76417 3.85068 3.80767
# Velocity P-wave (km/s) = 7.17894 7.35629 7.26816
#
# Compressibility (1/GPa) = 0.01577067
#
# Stress axis : x y z
#
# Youngs Moduli (GPa) = 69.49293 71.14952 78.49762
#
# Poissons Ratio (x) = 0.29994 0.15950
# Poissons Ratio (y) = 0.29296 0.50703
# Poissons Ratio (z) = 0.14120 0.45956
#
# Static dielectric constant tensor:
#      x y z
#    x 3.543690 0.000000 0.000000 
#    y 0.000000 3.460610 0.000000 
#    z 0.000000 0.000000 3.688130 
# 
# 
# High freq. dielectric constant tensor:
#      x y z
#    x 1.761980 0.000000 0.000000 
#    y 0.000000 1.745060 0.000000 
#    z 0.000000 0.000000 1.764040 
# 
# From -- ./inp_files/14510.got.cif
#   From: 2010.03.12/outbox.cif.g09.slc.cpg/sg46_8_cif.got.tgz:14510.got - 2010.04.14 02:56:35.
