data_PCOD8192806
_publ_section_title
;
Structure prediction by ZEFSAII (Michael W. Deem and Ramdas Pophale) SiO2 
 PCOD8192806
Probable space group: I M A 2
;
_chemical_formula_sum "Si O2"
_cell_formula_units_Z 48
_cell_length_a 17.397608
_cell_length_b 11.492162
_cell_length_c 12.005377
_cell_angle_alpha 90.000000
_cell_angle_beta 90.000000
_cell_angle_gamma 90.000000
_cell_volume 2400.308611
_symmetry_space_group_name_H-M "I M A 2"
_symmetry_group_IT_number 46
_symmetry_cell_setting 'orthorhombic'
loop_
_space_group_symop_operation_xyz
x,y,z
-x,-y,z
1/2-x,y,z
1/2+x,-y,z
1/2+x,1/2+y,1/2+z
1/2-x,1/2-y,1/2+z
-x,1/2+y,1/2+z
x,1/2-y,1/2+z
loop_
_atom_site_type_symbol
_atom_site_label
_atom_site_fract_x
_atom_site_fract_y
_atom_site_fract_z
Si Si1 0.411332 0.525347 0.668930
Si Si2 0.581244 0.434349 0.424693
Si Si3 0.662806 0.987701 0.513925
Si Si4 0.065962 0.664941 0.875296
Si Si5 0.891668 0.664369 0.830417
Si Si6 0.660504 0.910116 0.756140
O O1 0.500000 0.500000 0.650262
O O2 0.379133 0.553501 0.546486
O O3 0.397612 0.632707 0.754480
O O4 0.371087 0.409999 0.719541
O O5 0.500000 0.500000 0.412963
O O6 0.572191 0.299861 0.398502
O O7 0.642398 0.483708 0.337523
O O8 0.750000 0.034342 0.525287
O O9 0.663255 0.876724 0.430695
O O10 0.631607 0.943898 0.633160
O O11 0.608800 0.092208 0.471465
O O12 0.976651 0.629701 0.872782
O O13 0.885372 0.799022 0.802015
O O14 0.750000 0.879944 0.756121
#
# Coordination Sequence:
#
# PCOD8192806 Si02
#       6
#     8   8   8   8   8   8
#     4   8  19  36  57  89 120 152 198 250 304 361
#     4  11  22  38  61  92 121 157 205 257 309 367
#     4  10  23  41  62  91 127 168 207 254 318 379
#     4  10  21  39  65  90 121 161 213 255 305 374
#     4  10  20  41  63  91 121 162 207 258 312 369
#     4  11  25  40  60  92 127 162 206 259 317 377
#
# _framework density 19.997430000000001
#
# number of rings (size 3 to 8) (size 9 to 14) (size 15 to 20)
#    0.000    2.000    1.667    2.000    4.667    3.333 
#    0.000    3.333    0.000    0.000    0.000    0.000 
#    0.000    0.000    0.000    0.000    0.000    0.000 
#
# Total GULP energy -297564.789922 kJ/mol
# GULP energy per Si atom -12398.532913 kJ/mol
# Density = 1.995191 g / cm^3
# Si number density = 19.997430 Si / 1000 Ang^3
#
#
#
# Elastic Constant Matrix: (Units=GPa)
#
#
# Indices 1 2 3 4 5 6 
#
# 1 57.2080 22.3740 25.9552 0.0000 0.0000 0.0000
# 2 22.3740 134.3996 58.0294 0.0000 0.0000 0.0000
# 3 25.9552 58.0294 155.8035 0.0000 0.0000 0.0000
# 4 0.0000 0.0000 0.0000 28.6404 0.0000 0.0000
# 5 0.0000 0.0000 0.0000 0.0000 23.7245 0.0000
# 6 0.0000 0.0000 0.0000 0.0000 0.0000 24.6371
#
#
#
# Elastic Compliance Matrix: (Units=1/GPa)
#
#
# Indices 1 2 3 4 5 6 
#
# 1 0.019435 -0.002190 -0.002422 0.000000 0.000000 0.000000
# 2 -0.002190 0.009113 -0.003029 0.000000 0.000000 0.000000
# 3 -0.002422 -0.003029 0.007950 0.000000 0.000000 0.000000
# 4 0.000000 0.000000 0.000000 0.034916 0.000000 0.000000
# 5 0.000000 0.000000 0.000000 0.000000 0.042151 0.000000
# 6 0.000000 0.000000 0.000000 0.000000 0.000000 0.040589
#
#
# Mechanical properties :
#
#
# Convention : Reuss Voigt Hill
#
# Bulk Modulus (GPa) = 47.13404 62.23647 54.68526
# Shear Modulus (GPa) = 28.32724 31.47056 29.89890
#
# Velocity S-wave (km/s) = 3.76778 3.97133 3.87089
# Velocity P-wave (km/s) = 6.52300 7.22623 6.88360
#
# Compressibility (1/GPa) = 0.02121609
#
# Stress axis : x y z
#
# Youngs Moduli (GPa) = 51.45252 109.73320 125.78373
#
# Poissons Ratio (x) = 0.24028 0.30467
# Poissons Ratio (y) = 0.11266 0.38105
# Poissons Ratio (z) = 0.12463 0.33242
#
# Static dielectric constant tensor:
#      x y z
#    x 3.374530 0.000000 0.000000 
#    y 0.000000 3.557730 0.000000 
#    z 0.000000 0.000000 3.945160 
# 
# 
# High freq. dielectric constant tensor:
#      x y z
#    x 1.756560 0.000000 0.000000 
#    y 0.000000 1.782250 0.000000 
#    z 0.000000 0.000000 1.793460 
# 
# From -- ./inp_files/11779.got.cif
#   From: 2010.03.12/outbox.cif.g09.slc.cpg/sg46_6_cif.got.tgz:11779.got - 2010.04.14 02:56:35.
