data_PCOD8192392
_publ_section_title
;
Structure prediction by ZEFSAII (Michael W. Deem and Ramdas Pophale) SiO2 
 PCOD8192392
Probable space group: I M A 2
;
_chemical_formula_sum "Si O2"
_cell_formula_units_Z 40
_cell_length_a 8.808755
_cell_length_b 9.161601
_cell_length_c 26.041818
_cell_angle_alpha 90.000000
_cell_angle_beta 90.000000
_cell_angle_gamma 90.000000
_cell_volume 2101.634573
_symmetry_space_group_name_H-M "I M A 2"
_symmetry_group_IT_number 46
_symmetry_cell_setting 'orthorhombic'
loop_
_space_group_symop_operation_xyz
x,y,z
-x,-y,z
1/2-x,y,z
1/2+x,-y,z
1/2+x,1/2+y,1/2+z
1/2-x,1/2-y,1/2+z
-x,1/2+y,1/2+z
x,1/2-y,1/2+z
loop_
_atom_site_type_symbol
_atom_site_label
_atom_site_fract_x
_atom_site_fract_y
_atom_site_fract_z
Si Si1 0.572538 0.157130 0.738340
Si Si2 0.071138 0.342017 0.425500
Si Si3 0.569877 0.158489 0.334536
Si Si4 0.928255 0.158442 0.625594
Si Si5 0.927532 0.658126 0.025543
O O1 0.750000 0.129877 0.743429
O O2 0.515948 0.272679 0.780408
O O3 0.533235 0.225059 0.681864
O O4 0.500000 0.000000 0.748123
O O5 0.250000 0.351925 0.415348
O O6 0.031891 0.258741 0.477715
O O7 0.000000 0.500000 0.429969
O O8 0.992266 0.259495 0.379139
O O9 0.750000 0.147388 0.338652
O O10 0.500000 0.000000 0.340055
O O11 0.750000 0.150754 0.616195
O O12 0.005137 0.239177 0.576804
O O13 0.000000 0.000000 0.625053
O O14 0.750000 0.637138 0.032751
O O15 0.000000 0.500000 0.016084
#
# Coordination Sequence:
#
# PCOD8192392 Si02
#       5
#     8   8   8   8   8
#     4   9  19  34  54  81 110 141 178 221 266 316
#     4  11  24  40  58  81 109 142 181 225 274 326
#     4  11  23  39  58  81 110 143 182 225 272 325
#     4   9  16  29  51  78 108 141 178 218 262 313
#     4  10  20  34  54  81 110 141 179 221 266 316
#
# _framework density 19.032803000000001
#
# number of rings (size 3 to 8) (size 9 to 14) (size 15 to 20)
#    0.000    2.000    0.000    4.800    0.000    8.800 
#    0.000    1.000    0.000    4.800    0.000    0.000 
#    0.000    0.000    0.000    0.000    0.000    0.000 
#
# Total GULP energy -247914.142674 kJ/mol
# GULP energy per Si atom -12395.707134 kJ/mol
# Density = 1.898948 g / cm^3
# Si number density = 19.032803 Si / 1000 Ang^3
#
#
#
# Elastic Constant Matrix: (Units=GPa)
#
#
# Indices 1 2 3 4 5 6 
#
# 1 91.7903 47.8919 77.8924 0.0000 0.0000 0.0000
# 2 47.8919 103.4870 72.2280 0.0000 0.0000 0.0000
# 3 77.8924 72.2280 189.0317 0.0000 0.0000 0.0000
# 4 0.0000 0.0000 0.0000 27.6993 0.0000 0.0000
# 5 0.0000 0.0000 0.0000 0.0000 34.8326 0.0000
# 6 0.0000 0.0000 0.0000 0.0000 0.0000 28.3767
#
#
#
# Elastic Compliance Matrix: (Units=1/GPa)
#
#
# Indices 1 2 3 4 5 6 
#
# 1 0.018063 -0.004315 -0.005794 0.000000 0.000000 0.000000
# 2 -0.004315 0.014208 -0.003651 0.000000 0.000000 0.000000
# 3 -0.005794 -0.003651 0.009073 0.000000 0.000000 0.000000
# 4 0.000000 0.000000 0.000000 0.036102 0.000000 0.000000
# 5 0.000000 0.000000 0.000000 0.000000 0.028709 0.000000
# 6 0.000000 0.000000 0.000000 0.000000 0.000000 0.035240
#
#
# Mechanical properties :
#
#
# Convention : Reuss Voigt Hill
#
# Bulk Modulus (GPa) = 72.34146 86.70372 79.52259
# Shear Modulus (GPa) = 28.81483 30.60150 29.70817
#
# Velocity S-wave (km/s) = 3.89518 4.01413 3.95510
# Velocity P-wave (km/s) = 7.63683 8.19378 7.92020
#
# Compressibility (1/GPa) = 0.01382333
#
# Stress axis : x y z
#
# Youngs Moduli (GPa) = 55.36281 70.38291 110.22254
#
# Poissons Ratio (x) = 0.30371 0.63864
# Poissons Ratio (y) = 0.23890 0.40239
# Poissons Ratio (z) = 0.32078 0.25695
#
# Static dielectric constant tensor:
#      x y z
#    x 3.631760 0.000000 0.000000 
#    y 0.000000 3.260750 0.000000 
#    z 0.000000 0.000000 4.535350 
# 
# 
# High freq. dielectric constant tensor:
#      x y z
#    x 1.753510 0.000000 0.000000 
#    y 0.000000 1.708910 0.000000 
#    z 0.000000 0.000000 1.770890 
# 
# From -- ./inp_files/22740.got.cif
#   From: 2010.03.12/outbox.cif.g09.slc.cpg/sg46_12_cif.got.tgz:22740.got - 2010.04.14 02:56:35.
