data_PCOD8192611
_publ_section_title
;
Structure prediction by ZEFSAII (Michael W. Deem and Ramdas Pophale) SiO2 
 PCOD8192611
Probable space group: I M A 2
;
_chemical_formula_sum "Si O2"
_cell_formula_units_Z 64
_cell_length_a 8.886293
_cell_length_b 23.800551
_cell_length_c 15.324669
_cell_angle_alpha 90.000000
_cell_angle_beta 90.000000
_cell_angle_gamma 90.000000
_cell_volume 3241.147108
_symmetry_space_group_name_H-M "I M A 2"
_symmetry_group_IT_number 46
_symmetry_cell_setting 'orthorhombic'
loop_
_space_group_symop_operation_xyz
x,y,z
-x,-y,z
1/2-x,y,z
1/2+x,-y,z
1/2+x,1/2+y,1/2+z
1/2-x,1/2-y,1/2+z
-x,1/2+y,1/2+z
x,1/2-y,1/2+z
loop_
_atom_site_type_symbol
_atom_site_label
_atom_site_fract_x
_atom_site_fract_y
_atom_site_fract_z
Si Si1 0.572811 0.749896 0.929970
Si Si2 0.926646 0.439595 0.023651
Si Si3 0.928506 0.751758 0.629193
Si Si4 0.576780 0.137958 0.175706
Si Si5 0.926982 0.364707 0.188312
Si Si6 0.426994 0.060225 0.034332
Si Si7 0.927393 0.871045 0.864331
Si Si8 0.077686 0.640119 0.871492
O O1 0.750000 0.745964 0.925824
O O2 0.518067 0.808596 0.889621
O O3 0.506780 0.699269 0.874348
O O4 0.517243 0.745575 0.029346
O O5 0.750000 0.448024 0.015311
O O6 0.971279 0.407939 0.112392
O O7 0.000000 0.500000 0.023389
O O8 0.989881 0.403885 0.941467
O O9 0.750000 0.744127 0.637995
O O10 0.010704 0.700322 0.675190
O O11 0.979372 0.807821 0.677613
O O12 0.750000 0.138705 0.145675
O O13 0.561358 0.114693 0.274519
O O14 0.482259 0.098453 0.113142
O O15 0.750000 0.351822 0.188137
O O16 0.979966 0.391627 0.279851
O O17 0.250000 0.054386 0.043276
O O18 0.472660 0.087627 0.942574
O O19 0.500000 0.000000 0.042210
O O20 0.750000 0.873228 0.845342
O O21 0.250000 0.652377 0.895773
#
# Coordination Sequence:
#
# PCOD8192611 Si02
#       8
#     8   8   8   8   8   8   8   8
#     4  10  20  36  60  89 119 157 198 238 296 358
#     4  10  23  42  61  83 116 154 199 248 295 351
#     4  11  21  37  61  90 125 161 199 245 300 362
#     4  11  23  39  63  93 123 160 202 248 305 361
#     4  11  23  39  61  91 122 157 200 248 303 359
#     4  11  24  44  65  88 121 161 206 255 306 361
#     4  10  22  41  62  88 122 158 198 245 299 360
#     4  10  22  40  60  88 123 155 194 246 300 357
#
# _framework density 19.746096000000001
#
# number of rings (size 3 to 8) (size 9 to 14) (size 15 to 20)
#    0.000    1.500    2.500    2.250    0.000    7.500 
#    0.000    3.750    0.000    0.000    0.000    0.000 
#    0.000    0.000    0.000    0.000    0.000    0.000 
#
# Total GULP energy -396954.529366 kJ/mol
# GULP energy per Si atom -12404.829043 kJ/mol
# Density = 1.970115 g / cm^3
# Si number density = 19.746096 Si / 1000 Ang^3
#
#
#
# Elastic Constant Matrix: (Units=GPa)
#
#
# Indices 1 2 3 4 5 6 
#
# 1 46.4538 14.3814 26.2387 -0.0002 0.0000 0.0000
# 2 14.3814 71.1049 1.7898 -0.0003 0.0001 0.0000
# 3 26.2387 1.7898 97.8507 -0.0005 0.0003 0.0000
# 4 -0.0002 -0.0003 -0.0005 13.0498 0.0000 0.0000
# 5 0.0000 0.0001 0.0003 0.0000 30.6205 0.0000
# 6 0.0000 0.0000 0.0000 0.0000 0.0000 49.2105
#
#
#
# Elastic Compliance Matrix: (Units=1/GPa)
#
#
# Indices 1 2 3 4 5 6 
#
# 1 0.027249 -0.005330 -0.007209 0.000000 0.000000 0.000000
# 2 -0.005330 0.015113 0.001153 0.000000 0.000000 0.000000
# 3 -0.007209 0.001153 0.012132 0.000000 0.000000 0.000000
# 4 0.000000 0.000000 0.000000 0.076630 0.000000 0.000000
# 5 0.000000 0.000000 0.000000 0.000000 0.032658 0.000000
# 6 0.000000 0.000000 0.000000 0.000000 0.000000 0.020321
#
#
# Mechanical properties :
#
#
# Convention : Reuss Voigt Hill
#
# Bulk Modulus (GPa) = 31.52522 33.35880 32.44201
# Shear Modulus (GPa) = 22.99402 30.10946 26.55174
#
# Velocity S-wave (km/s) = 3.41616 3.90914 3.67094
# Velocity P-wave (km/s) = 5.61784 6.10784 5.86796
#
# Compressibility (1/GPa) = 0.03172063
#
# Stress axis : x y z
#
# Youngs Moduli (GPa) = 36.69881 66.16957 82.42841
#
# Poissons Ratio (x) = 0.35267 0.59425
# Poissons Ratio (y) = 0.19560 -0.09502
# Poissons Ratio (z) = 0.26457 -0.07628
#
# Static dielectric constant tensor:
#      x y z
#    x 3.533300 0.000000 0.000000 
#    y 0.000000 3.520270 0.000000 
#    z 0.000000 0.000000 3.889850 
# 
# 
# High freq. dielectric constant tensor:
#      x y z
#    x 1.768810 0.000000 0.000000 
#    y 0.000000 1.764550 0.000000 
#    z 0.000000 0.000000 1.788840 
# 
# From -- ./inp_files/14518.got.cif
#   From: 2010.03.12/outbox.cif.g09.slc.cpg/sg46_8_cif.got.tgz:14518.got - 2010.04.14 02:56:35.
