data_PCOD8192546
_publ_section_title
;
Structure prediction by ZEFSAII (Michael W. Deem and Ramdas Pophale) SiO2 
 PCOD8192546
Probable space group: I M A 2
;
_chemical_formula_sum "Si O2"
_cell_formula_units_Z 48
_cell_length_a 8.442766
_cell_length_b 10.142188
_cell_length_c 29.513249
_cell_angle_alpha 90.000000
_cell_angle_beta 90.000000
_cell_angle_gamma 90.000000
_cell_volume 2527.164027
_symmetry_space_group_name_H-M "I M A 2"
_symmetry_group_IT_number 46
_symmetry_cell_setting 'orthorhombic'
loop_
_space_group_symop_operation_xyz
x,y,z
-x,-y,z
1/2-x,y,z
1/2+x,-y,z
1/2+x,1/2+y,1/2+z
1/2-x,1/2-y,1/2+z
-x,1/2+y,1/2+z
x,1/2-y,1/2+z
loop_
_atom_site_type_symbol
_atom_site_label
_atom_site_fract_x
_atom_site_fract_y
_atom_site_fract_z
Si Si1 0.936138 0.860903 0.256750
Si Si2 0.564464 0.858600 0.591411
Si Si3 0.063827 0.856619 0.158467
Si Si4 0.437739 0.641578 0.322051
Si Si5 0.062978 0.642687 0.993744
Si Si6 0.063458 0.639216 0.425503
O O1 0.750000 0.870848 0.246871
O O2 0.026314 0.825080 0.210562
O O3 0.971983 0.750870 0.293516
O O4 0.000000 0.000000 0.275750
O O5 0.750000 0.871072 0.584617
O O6 0.524337 0.751141 0.628698
O O7 0.489645 0.815041 0.543790
O O8 0.500000 0.000000 0.607644
O O9 0.250000 0.849116 0.149697
O O10 0.000000 0.000000 0.144521
O O11 0.500000 0.500000 0.305323
O O12 0.250000 0.651882 0.315052
O O13 0.490044 0.665081 0.373932
O O14 0.250000 0.640100 0.991856
O O15 0.993004 0.746744 0.957604
O O16 0.000000 0.500000 0.979912
O O17 0.250000 0.635851 0.428822
O O18 0.000000 0.500000 0.443398
#
# Coordination Sequence:
#
# PCOD8192546 Si02
#       6
#     8   8   8   8   8   8
#     4  11  22  38  58  83 112 146 183 226 274 326
#     4  11  22  38  58  83 112 146 184 228 275 326
#     4  11  22  39  60  84 112 145 182 226 273 326
#     4  10  20  37  57  82 112 146 185 229 275 326
#     4  10  20  36  55  80 110 144 183 227 273 325
#     4   9  20  36  56  80 110 143 182 226 272 323
#
# _framework density 18.993621999999998
#
# number of rings (size 3 to 8) (size 9 to 14) (size 15 to 20)
#    0.000    1.667    0.000    7.500    0.000    4.000 
#    0.000    6.667    0.000    0.000    0.000    0.000 
#    0.000    0.000    0.000    0.000    0.000    0.000 
#
# Total GULP energy -297696.449883 kJ/mol
# GULP energy per Si atom -12404.018745 kJ/mol
# Density = 1.895039 g / cm^3
# Si number density = 18.993622 Si / 1000 Ang^3
#
#
#
# Elastic Constant Matrix: (Units=GPa)
#
#
# Indices 1 2 3 4 5 6 
#
# 1 61.7512 15.5354 4.7540 0.0000 0.0000 0.0000
# 2 15.5354 144.0074 83.0509 0.0000 0.0000 0.0000
# 3 4.7540 83.0509 82.8651 0.0000 0.0000 0.0000
# 4 0.0000 0.0000 0.0000 25.9004 0.0000 0.0000
# 5 0.0000 0.0000 0.0000 0.0000 44.8432 0.0000
# 6 0.0000 0.0000 0.0000 0.0000 0.0000 34.5049
#
#
#
# Elastic Compliance Matrix: (Units=1/GPa)
#
#
# Indices 1 2 3 4 5 6 
#
# 1 0.016787 -0.002975 0.002019 0.000000 0.000000 0.000000
# 2 -0.002975 0.016983 -0.016850 0.000000 0.000000 0.000000
# 3 0.002019 -0.016850 0.028840 0.000000 0.000000 0.000000
# 4 0.000000 0.000000 0.000000 0.038609 0.000000 0.000000
# 5 0.000000 0.000000 0.000000 0.000000 0.022300 0.000000
# 6 0.000000 0.000000 0.000000 0.000000 0.000000 0.028981
#
#
# Mechanical properties :
#
#
# Convention : Reuss Voigt Hill
#
# Bulk Modulus (GPa) = 37.04156 55.03380 46.03768
# Shear Modulus (GPa) = 25.36621 33.40194 29.38407
#
# Velocity S-wave (km/s) = 3.65843 4.19810 3.93752
# Velocity P-wave (km/s) = 6.11473 7.24821 6.70546
#
# Compressibility (1/GPa) = 0.02699671
#
# Stress axis : x y z
#
# Youngs Moduli (GPa) = 59.56946 58.88319 34.67411
#
# Poissons Ratio (x) = 0.17520 -0.07000
# Poissons Ratio (y) = 0.17724 0.58426
# Poissons Ratio (z) = -0.12027 0.99219
#
# Static dielectric constant tensor:
#      x y z
#    x 3.559780 0.000000 0.000000 
#    y 0.000000 3.635020 0.000000 
#    z 0.000000 0.000000 3.551220 
# 
# 
# High freq. dielectric constant tensor:
#      x y z
#    x 1.754020 0.000000 0.000000 
#    y 0.000000 1.747290 0.000000 
#    z 0.000000 0.000000 1.736670 
# 
# From -- ./inp_files/25007.got.cif
#   From: 2010.03.12/outbox.cif.g09.slc.cpg/sg46_13_cif.got.tgz:25007.got - 2010.04.14 02:56:35.
