data_PCOD8192408
_publ_section_title
;
Structure prediction by ZEFSAII (Michael W. Deem and Ramdas Pophale) SiO2 
 PCOD8192408
Probable space group: I M A 2
;
_chemical_formula_sum "Si O2"
_cell_formula_units_Z 48
_cell_length_a 16.596100
_cell_length_b 7.680323
_cell_length_c 19.036195
_cell_angle_alpha 90.000000
_cell_angle_beta 90.000000
_cell_angle_gamma 90.000000
_cell_volume 2426.418300
_symmetry_space_group_name_H-M "I M A 2"
_symmetry_group_IT_number 46
_symmetry_cell_setting 'orthorhombic'
loop_
_space_group_symop_operation_xyz
x,y,z
-x,-y,z
1/2-x,y,z
1/2+x,-y,z
1/2+x,1/2+y,1/2+z
1/2-x,1/2-y,1/2+z
-x,1/2+y,1/2+z
x,1/2-y,1/2+z
loop_
_atom_site_type_symbol
_atom_site_label
_atom_site_fract_x
_atom_site_fract_y
_atom_site_fract_z
Si Si1 0.654035 0.263189 0.739620
Si Si2 0.656421 0.265191 0.083860
Si Si3 0.153770 0.415474 0.993072
Si Si4 0.344602 0.067496 0.335280
Si Si5 0.655357 0.956047 0.839774
Si Si6 0.407927 0.037314 0.992835
O O1 0.750000 0.277555 0.736357
O O2 0.617096 0.255759 0.661239
O O3 0.616507 0.429469 0.781020
O O4 0.627179 0.089418 0.780309
O O5 0.750000 0.301797 0.093106
O O6 0.620020 0.434334 0.044374
O O7 0.645355 0.091345 0.039388
O O8 0.250000 0.393896 0.995397
O O9 0.124745 0.466534 0.914553
O O10 0.114174 0.233184 0.015532
O O11 0.250000 0.038004 0.334086
O O12 0.366997 0.263478 0.311913
O O13 0.750000 0.970000 0.856602
O O14 0.609196 0.999457 0.911315
O O15 0.500000 0.000000 0.010238
#
# Coordination Sequence:
#
# PCOD8192408 Si02
#       6
#     8   8   8   8   8   8
#     4   9  17  29  51  80 105 131 170 223 277 319
#     4  10  20  34  55  81 108 142 184 230 278 327
#     4   9  18  34  57  83 107 138 183 232 275 316
#     4   8  14  26  47  75 103 129 163 213 268 312
#     4   9  17  32  54  77 101 134 179 231 271 311
#     4  11  22  35  55  77 112 146 185 222 272 331
#
# _framework density 19.782243999999999
#
# number of rings (size 3 to 8) (size 9 to 14) (size 15 to 20)
#    0.000    2.667    0.000    3.500    0.000    4.667 
#    0.000    5.000   11.000    0.000    0.000    0.000 
#    0.000    0.000    0.000    0.000    0.000    0.000 
#
# Total GULP energy -297552.554559 kJ/mol
# GULP energy per Si atom -12398.023107 kJ/mol
# Density = 1.973722 g / cm^3
# Si number density = 19.782244 Si / 1000 Ang^3
#
#
#
# Elastic Constant Matrix: (Units=GPa)
#
#
# Indices 1 2 3 4 5 6 
#
# 1 18.2333 12.5506 5.4369 0.0000 0.0000 0.0000
# 2 12.5506 185.7933 110.1077 0.0000 0.0000 0.0000
# 3 5.4369 110.1077 129.3231 0.0000 0.0000 0.0000
# 4 0.0000 0.0000 0.0000 16.8991 0.0000 0.0000
# 5 0.0000 0.0000 0.0000 0.0000 6.8316 0.0000
# 6 0.0000 0.0000 0.0000 0.0000 0.0000 10.7666
#
#
#
# Elastic Compliance Matrix: (Units=1/GPa)
#
#
# Indices 1 2 3 4 5 6 
#
# 1 0.057727 -0.004968 0.001803 0.000000 0.000000 0.000000
# 2 -0.004968 0.011292 -0.009405 0.000000 0.000000 0.000000
# 3 0.001803 -0.009405 0.015664 0.000000 0.000000 0.000000
# 4 0.000000 0.000000 0.000000 0.059175 0.000000 0.000000
# 5 0.000000 0.000000 0.000000 0.000000 0.146379 0.000000
# 6 0.000000 0.000000 0.000000 0.000000 0.000000 0.092880
#
#
# Mechanical properties :
#
#
# Convention : Reuss Voigt Hill
#
# Bulk Modulus (GPa) = 16.79471 65.50447 41.14959
# Shear Modulus (GPa) = 11.67939 20.58308 16.13124
#
# Velocity S-wave (km/s) = 2.43245 3.22915 2.85869
# Velocity P-wave (km/s) = 4.04936 6.86206 5.63405
#
# Compressibility (1/GPa) = 0.05954256
#
# Stress axis : x y z
#
# Youngs Moduli (GPa) = 17.32299 88.56057 63.83902
#
# Poissons Ratio (x) = 0.43997 -0.11510
# Poissons Ratio (y) = 0.08606 0.60041
# Poissons Ratio (z) = -0.03123 0.83292
#
# Static dielectric constant tensor:
#      x y z
#    x 3.032380 0.000000 0.000000 
#    y 0.000000 3.839570 0.000000 
#    z 0.000000 0.000000 3.841040 
# 
# 
# High freq. dielectric constant tensor:
#      x y z
#    x 1.718010 0.000000 0.000000 
#    y 0.000000 1.787410 0.000000 
#    z 0.000000 0.000000 1.768700 
# 
# From -- ./inp_files/16557.got.cif
#   From: 2010.03.12/outbox.cif.g09.slc.cpg/sg46_9_cif.got.tgz:16557.got - 2010.04.14 02:56:35.
