data_PCOD8192467
_publ_section_title
;
Structure prediction by ZEFSAII (Michael W. Deem and Ramdas Pophale) SiO2 
 PCOD8192467
Probable space group: I M A 2
;
_chemical_formula_sum "Si O2"
_cell_formula_units_Z 64
_cell_length_a 8.923269
_cell_length_b 20.134654
_cell_length_c 19.403988
_cell_angle_alpha 90.000000
_cell_angle_beta 90.000000
_cell_angle_gamma 90.000000
_cell_volume 3486.255029
_symmetry_space_group_name_H-M "I M A 2"
_symmetry_group_IT_number 46
_symmetry_cell_setting 'orthorhombic'
loop_
_space_group_symop_operation_xyz
x,y,z
-x,-y,z
1/2-x,y,z
1/2+x,-y,z
1/2+x,1/2+y,1/2+z
1/2-x,1/2-y,1/2+z
-x,1/2+y,1/2+z
x,1/2-y,1/2+z
loop_
_atom_site_type_symbol
_atom_site_label
_atom_site_fract_x
_atom_site_fract_y
_atom_site_fract_z
Si Si1 0.924752 0.319294 0.684280
Si Si2 0.572443 0.680216 0.194898
Si Si3 0.076791 0.431941 0.596126
Si Si4 0.576780 0.931789 0.934109
Si Si5 0.925733 0.173499 0.838471
Si Si6 0.574232 0.933006 0.590189
Si Si7 0.079528 0.826584 0.342294
Si Si8 0.925545 0.932722 0.433876
O O1 0.750000 0.309587 0.668505
O O2 0.950297 0.343043 0.762424
O O3 0.006865 0.250129 0.670731
O O4 0.993775 0.372271 0.633087
O O5 0.750000 0.685997 0.202507
O O6 0.503804 0.655268 0.266642
O O7 0.522521 0.628039 0.136970
O O8 0.250000 0.433840 0.617988
O O9 0.057135 0.421299 0.515116
O O10 0.000000 0.500000 0.620275
O O11 0.750000 0.933956 0.912264
O O12 0.494922 0.870476 0.898610
O O13 0.500000 0.000000 0.909728
O O14 0.750000 0.159618 0.831000
O O15 0.957115 0.249879 0.857523
O O16 0.750000 0.943368 0.593898
O O17 0.520965 0.918818 0.512016
O O18 0.500000 0.000000 0.618958
O O19 0.250000 0.843256 0.362327
O O20 0.969803 0.870415 0.387705
O O21 0.750000 0.942692 0.429273
O O22 0.000000 0.000000 0.405097
#
# Coordination Sequence:
#
# PCOD8192467 Si02
#       8
#     8   8   8   8   8   8   8   8
#     4  10  21  37  56  79 108 142 181 222 267 321
#     4  10  20  36  56  79 109 142 179 223 269 317
#     4  10  21  37  57  81 109 141 179 223 270 322
#     4  10  21  37  57  81 109 142 180 222 269 321
#     4  10  21  37  56  80 110 142 179 221 266 320
#     4   9  20  36  54  78 106 137 174 216 261 312
#     4   9  20  37  54  76 106 139 176 217 260 311
#     4  10  20  35  55  78 105 137 174 216 262 312
#
# _framework density 18.357807000000001
#
# number of rings (size 3 to 8) (size 9 to 14) (size 15 to 20)
#    0.000    2.250    0.000    3.000    0.000    8.000 
#    0.000    5.000    0.000    0.000    0.000    0.000 
#    0.000    0.000    0.000    0.000    0.000    0.000 
#
# Total GULP energy -396925.861850 kJ/mol
# GULP energy per Si atom -12403.933183 kJ/mol
# Density = 1.831602 g / cm^3
# Si number density = 18.357807 Si / 1000 Ang^3
#
#
#
# Elastic Constant Matrix: (Units=GPa)
#
#
# Indices 1 2 3 4 5 6 
#
# 1 107.0704 63.3088 48.2671 0.0000 0.0000 0.0000
# 2 63.3088 116.4199 63.6502 0.0000 0.0000 0.0000
# 3 48.2671 63.6502 67.4494 0.0001 0.0000 0.0000
# 4 0.0000 0.0000 0.0001 -222.8865 0.0000 0.0000
# 5 0.0000 0.0000 0.0000 0.0000 31.5578 0.0000
# 6 0.0000 0.0000 0.0000 0.0000 0.0000 39.1849
#
#
#
# Elastic Compliance Matrix: (Units=1/GPa)
#
#
# Indices 1 2 3 4 5 6 
#
# 1 0.014940 -0.004708 -0.006248 0.000000 0.000000 0.000000
# 2 -0.004708 0.019229 -0.014776 0.000000 0.000000 0.000000
# 3 -0.006248 -0.014776 0.033241 0.000000 0.000000 0.000000
# 4 0.000000 0.000000 0.000000 -0.004487 0.000000 0.000000
# 5 0.000000 0.000000 0.000000 0.000000 0.031688 0.000000
# 6 0.000000 0.000000 0.000000 0.000000 0.000000 0.025520
#
#
# Mechanical properties :
#
#
# Convention : Reuss Voigt Hill
#
# Bulk Modulus (GPa) = 62.71766 71.26574 66.99170
# Shear Modulus (GPa) = 28.26276 -22.71454 2.77411
#
# Velocity S-wave (km/s) = 3.92797 -3.52138 1.23062
# Velocity P-wave (km/s) = 7.40338 4.72982 6.21214
#
# Compressibility (1/GPa) = 0.01594447
#
# Stress axis : x y z
#
# Youngs Moduli (GPa) = 66.93295 52.00596 30.08346
#
# Poissons Ratio (x) = 0.24487 0.18796
# Poissons Ratio (y) = 0.31515 0.44451
# Poissons Ratio (z) = 0.41820 0.76844
#
# Static dielectric constant tensor:
#      x y z
#    x 3.488310 0.000000 0.000000 
#    y 0.000000 3.464030 0.000000 
#    z 0.000000 0.000000 3.382080 
# 
# 
# High freq. dielectric constant tensor:
#      x y z
#    x 1.726220 0.000000 0.000000 
#    y 0.000000 1.718210 0.000000 
#    z 0.000000 0.000000 1.708500 
# 
# From -- ./inp_files/21318.got.cif
#   From: 2010.03.12/outbox.cif.g09.slc.cpg/sg46_11_cif.got.tgz:21318.got - 2010.04.14 02:56:35.
