data_PCOD8192770
_publ_section_title
;
Structure prediction by ZEFSAII (Michael W. Deem and Ramdas Pophale) SiO2 
 PCOD8192770
Probable space group: I M A 2
;
_chemical_formula_sum "Si O2"
_cell_formula_units_Z 48
_cell_length_a 16.171366
_cell_length_b 15.392531
_cell_length_c 9.018251
_cell_angle_alpha 90.000000
_cell_angle_beta 90.000000
_cell_angle_gamma 90.000000
_cell_volume 2244.807279
_symmetry_space_group_name_H-M "I M A 2"
_symmetry_group_IT_number 46
_symmetry_cell_setting 'orthorhombic'
loop_
_space_group_symop_operation_xyz
x,y,z
-x,-y,z
1/2-x,y,z
1/2+x,-y,z
1/2+x,1/2+y,1/2+z
1/2-x,1/2-y,1/2+z
-x,1/2+y,1/2+z
x,1/2-y,1/2+z
loop_
_atom_site_type_symbol
_atom_site_label
_atom_site_fract_x
_atom_site_fract_y
_atom_site_fract_z
Si Si1 0.344909 0.338737 0.797090
Si Si2 0.901464 0.681629 0.477136
Si Si3 0.845994 0.509665 0.997859
Si Si4 0.915694 0.328458 0.359837
Si Si5 0.655787 0.181036 0.546669
Si Si6 0.653976 0.509670 0.328818
O O1 0.250000 0.353313 0.746609
O O2 0.400826 0.315181 0.655355
O O3 0.347087 0.260171 0.914073
O O4 0.384650 0.424773 0.876063
O O5 0.860424 0.591203 0.432204
O O6 0.992823 0.691797 0.413785
O O7 0.750000 0.533212 0.999024
O O8 0.863083 0.408758 0.956902
O O9 0.881337 0.528351 0.163324
O O10 0.853762 0.262492 0.440183
O O11 0.906695 0.312393 0.184508
O O12 0.892844 0.427395 0.400506
O O13 0.750000 0.177161 0.606455
O O14 0.750000 0.485255 0.319382
#
# Coordination Sequence:
#
# PCOD8192770 Si02
#       6
#     8   8   8   8   8   8
#     4  11  22  39  61  88 120 162 209 251 297 365
#     4  12  24  38  58  88 124 160 201 257 312 357
#     4   8  18  36  61  87 112 145 198 252 295 348
#     4  11  23  39  59  89 125 157 198 258 312 357
#     4  10  20  39  64  90 119 160 205 248 300 367
#     4  10  20  39  63  86 114 158 205 250 304 370
#
# _framework density 21.382681999999999
#
# number of rings (size 3 to 8) (size 9 to 14) (size 15 to 20)
#    0.000    1.667    0.000    6.500    0.000    2.667 
#    0.000    7.500    0.000    0.000    0.000    0.000 
#    0.000    0.000    0.000    0.000    0.000    0.000 
#
# Total GULP energy -297635.027127 kJ/mol
# GULP energy per Si atom -12401.459464 kJ/mol
# Density = 2.133401 g / cm^3
# Si number density = 21.382682 Si / 1000 Ang^3
#
#
#
# Elastic Constant Matrix: (Units=GPa)
#
#
# Indices 1 2 3 4 5 6 
#
# 1 63.0746 19.3693 22.6995 0.0000 0.0000 0.0000
# 2 19.3693 150.3984 74.0105 0.0000 0.0000 0.0000
# 3 22.6995 74.0105 119.8248 0.0000 0.0000 0.0000
# 4 0.0000 0.0000 0.0000 47.2371 0.0000 0.0000
# 5 0.0000 0.0000 0.0000 0.0000 27.1842 0.0000
# 6 0.0000 0.0000 0.0000 0.0000 0.0000 19.6943
#
#
#
# Elastic Compliance Matrix: (Units=1/GPa)
#
#
# Indices 1 2 3 4 5 6 
#
# 1 0.017094 -0.000873 -0.002699 0.000000 0.000000 0.000000
# 2 -0.000873 0.009597 -0.005762 0.000000 0.000000 0.000000
# 3 -0.002699 -0.005762 0.012416 0.000000 0.000000 0.000000
# 4 0.000000 0.000000 0.000000 0.021170 0.000000 0.000000
# 5 0.000000 0.000000 0.000000 0.000000 0.036786 0.000000
# 6 0.000000 0.000000 0.000000 0.000000 0.000000 0.050776
#
#
# Mechanical properties :
#
#
# Convention : Reuss Voigt Hill
#
# Bulk Modulus (GPa) = 48.92884 62.82849 55.87866
# Shear Modulus (GPa) = 28.84839 33.30435 31.07637
#
# Velocity S-wave (km/s) = 3.67706 3.95085 3.81641
# Velocity P-wave (km/s) = 6.39999 7.08935 6.75347
#
# Compressibility (1/GPa) = 0.02043785
#
# Stress axis : x y z
#
# Youngs Moduli (GPa) = 58.50109 104.19854 80.54223
#
# Poissons Ratio (x) = 0.09101 0.21736
# Poissons Ratio (y) = 0.05109 0.46410
# Poissons Ratio (z) = 0.15788 0.60042
#
# Static dielectric constant tensor:
#      x y z
#    x 3.596450 0.000000 0.000000 
#    y 0.000000 4.029630 0.000000 
#    z 0.000000 0.000000 3.823800 
# 
# 
# High freq. dielectric constant tensor:
#      x y z
#    x 1.823390 0.000000 0.000000 
#    y 0.000000 1.856510 0.000000 
#    z 0.000000 0.000000 1.829570 
# 
# From -- ./inp_files/6624.got.cif
#   From: 2010.03.12/outbox.cif.g09.slc.cpg/sg46_4_cif.got.tgz:6624.got - 2010.04.14 02:56:35.
