data_PCOD8192890
_publ_section_title
;
Structure prediction by ZEFSAII (Michael W. Deem and Ramdas Pophale) SiO2 
 PCOD8192890
Probable space group: I M A 2
;
_chemical_formula_sum "Si O2"
_cell_formula_units_Z 64
_cell_length_a 8.768216
_cell_length_b 24.728403
_cell_length_c 14.797047
_cell_angle_alpha 90.000000
_cell_angle_beta 90.000000
_cell_angle_gamma 90.000000
_cell_volume 3208.354606
_symmetry_space_group_name_H-M "I M A 2"
_symmetry_group_IT_number 46
_symmetry_cell_setting 'orthorhombic'
loop_
_space_group_symop_operation_xyz
x,y,z
-x,-y,z
1/2-x,y,z
1/2+x,-y,z
1/2+x,1/2+y,1/2+z
1/2-x,1/2-y,1/2+z
-x,1/2+y,1/2+z
x,1/2-y,1/2+z
loop_
_atom_site_type_symbol
_atom_site_label
_atom_site_fract_x
_atom_site_fract_y
_atom_site_fract_z
Si Si1 0.422556 0.773110 0.932050
Si Si2 0.571550 0.835290 0.413029
Si Si3 0.575731 0.263452 0.641343
Si Si4 0.428914 0.893409 0.914999
Si Si5 0.431015 0.058578 0.089675
Si Si6 0.069718 0.870734 0.239060
Si Si7 0.070315 0.153803 0.616928
Si Si8 0.931391 0.556333 0.241751
O O1 0.250000 0.754313 0.910855
O O2 0.534981 0.727783 0.892468
O O3 0.456999 0.830982 0.886357
O O4 0.447357 0.780709 0.038356
O O5 0.750000 0.845534 0.402200
O O6 0.481760 0.873852 0.343512
O O7 0.511117 0.849972 0.513492
O O8 0.750000 0.252168 0.665676
O O9 0.512959 0.312787 0.701221
O O10 0.487567 0.208376 0.664838
O O11 0.250000 0.906204 0.924155
O O12 0.503442 0.931976 0.840846
O O13 0.509156 0.902783 0.010586
O O14 0.250000 0.055648 0.087842
O O15 0.486742 0.081360 0.185742
O O16 0.500000 0.000000 0.073625
O O17 0.250000 0.878283 0.228804
O O18 0.250000 0.156184 0.616980
O O19 0.010927 0.102014 0.671974
O O20 0.750000 0.553125 0.246430
O O21 0.000000 0.500000 0.206614
#
# Coordination Sequence:
#
# PCOD8192890 Si02
#       8
#     8   8   8   8   8   8   8   8
#     4   9  18  35  56  83 119 159 196 235 287 353
#     4  10  21  37  58  87 122 160 199 250 305 358
#     4   9  18  34  57  84 116 153 193 236 289 353
#     4  11  22  39  61  88 123 161 199 245 299 361
#     4  12  25  42  64  89 121 162 204 250 301 359
#     4  11  22  39  60  89 124 161 203 249 298 358
#     4   9  21  40  60  84 118 154 198 252 305 357
#     4  11  24  42  61  86 116 154 203 255 304 360
#
# _framework density 19.947921000000001
#
# number of rings (size 3 to 8) (size 9 to 14) (size 15 to 20)
#    0.000    1.750    1.250    3.000    1.750    3.500 
#    0.000    0.625    0.000    1.500    0.000    0.000 
#    0.000    0.000    0.000    0.000    0.000    0.000 
#
# Total GULP energy -396911.578170 kJ/mol
# GULP energy per Si atom -12403.486818 kJ/mol
# Density = 1.990252 g / cm^3
# Si number density = 19.947921 Si / 1000 Ang^3
#
#
#
# Elastic Constant Matrix: (Units=GPa)
#
#
# Indices 1 2 3 4 5 6 
#
# 1 86.7587 32.2676 26.1402 0.0002 0.0000 0.0000
# 2 32.2676 84.4084 19.7884 0.0001 0.0000 0.0000
# 3 26.1402 19.7884 61.4778 0.0004 0.0001 0.0001
# 4 0.0002 0.0001 0.0004 32.4759 0.0000 0.0001
# 5 0.0000 0.0000 0.0001 0.0000 27.9050 0.0000
# 6 0.0000 0.0000 0.0001 0.0001 0.0000 35.2231
#
#
#
# Elastic Compliance Matrix: (Units=1/GPa)
#
#
# Indices 1 2 3 4 5 6 
#
# 1 0.014630 -0.004472 -0.004781 0.000000 0.000000 0.000000
# 2 -0.004472 0.014181 -0.002663 0.000000 0.000000 0.000000
# 3 -0.004781 -0.002663 0.019156 0.000000 0.000000 0.000000
# 4 0.000000 0.000000 0.000000 0.030792 0.000000 0.000000
# 5 0.000000 0.000000 0.000000 0.000000 0.035836 0.000000
# 6 0.000000 0.000000 0.000000 0.000000 0.000000 0.028390
#
#
# Mechanical properties :
#
#
# Convention : Reuss Voigt Hill
#
# Bulk Modulus (GPa) = 41.43404 43.22636 42.33020
# Shear Modulus (GPa) = 28.59382 29.41737 29.00560
#
# Velocity S-wave (km/s) = 3.79017 3.84436 3.81736
# Velocity P-wave (km/s) = 6.32218 6.43600 6.37935
#
# Compressibility (1/GPa) = 0.02413474
#
# Stress axis : x y z
#
# Youngs Moduli (GPa) = 68.35279 70.51693 52.20235
#
# Poissons Ratio (x) = 0.31534 0.24959
# Poissons Ratio (y) = 0.30566 0.13902
# Poissons Ratio (z) = 0.32681 0.18780
#
# Static dielectric constant tensor:
#      x y z
#    x 3.558880 0.000000 0.000000 
#    y 0.000000 3.653210 0.000000 
#    z 0.000000 0.000000 3.700650 
# 
# 
# High freq. dielectric constant tensor:
#      x y z
#    x 1.777950 0.000000 0.000000 
#    y 0.000000 1.772200 0.000000 
#    z 0.000000 0.000000 1.778760 
# 
# From -- ./inp_files/14475.got.cif
#   From: 2010.03.12/outbox.cif.g09.slc.cpg/sg46_8_cif.got.tgz:14475.got - 2010.04.14 02:56:35.
