data_PCOD8192759
_publ_section_title
;
Structure prediction by ZEFSAII (Michael W. Deem and Ramdas Pophale) SiO2 
 PCOD8192759
Probable space group: I M A 2
;
_chemical_formula_sum "Si O2"
_cell_formula_units_Z 64
_cell_length_a 16.917419
_cell_length_b 11.625407
_cell_length_c 15.132558
_cell_angle_alpha 90.000000
_cell_angle_beta 90.000000
_cell_angle_gamma 90.000000
_cell_volume 2976.148650
_symmetry_space_group_name_H-M "I M A 2"
_symmetry_group_IT_number 46
_symmetry_cell_setting 'orthorhombic'
loop_
_space_group_symop_operation_xyz
x,y,z
-x,-y,z
1/2-x,y,z
1/2+x,-y,z
1/2+x,1/2+y,1/2+z
1/2-x,1/2-y,1/2+z
-x,1/2+y,1/2+z
x,1/2-y,1/2+z
loop_
_atom_site_type_symbol
_atom_site_label
_atom_site_fract_x
_atom_site_fract_y
_atom_site_fract_z
Si Si1 0.159859 0.760109 0.810120
Si Si2 0.840409 0.031214 0.227257
Si Si3 0.392631 0.327508 0.403993
Si Si4 0.157319 0.010044 0.754020
Si Si5 0.658578 0.483451 0.535462
Si Si6 0.659661 0.577158 0.902929
Si Si7 0.414822 0.964371 0.571587
Si Si8 0.434044 0.763649 0.973206
O O1 0.250000 0.770076 0.840756
O O2 0.150582 0.670240 0.729633
O O3 0.110780 0.706729 0.890649
O O4 0.127302 0.885354 0.785868
O O5 0.750000 0.992212 0.231595
O O6 0.880347 0.971968 0.312578
O O7 0.875361 0.988334 0.133738
O O8 0.393118 0.394412 0.308770
O O9 0.348570 0.405060 0.475710
O O10 0.340537 0.214146 0.394279
O O11 0.477454 0.291406 0.442187
O O12 0.250000 0.030798 0.772734
O O13 0.144615 0.006273 0.648450
O O14 0.750000 0.443723 0.540704
O O15 0.606447 0.383370 0.495294
O O16 0.750000 0.533681 0.915610
O O17 0.607129 0.534301 0.984005
O O18 0.421384 0.826987 0.553002
O O19 0.500000 0.000000 0.606068
#
# Coordination Sequence:
#
# PCOD8192759 Si02
#       8
#     8   8   8   8   8   8   8   8
#     4  10  20  38  68 100 125 165 221 278 342 401
#     4   9  20  39  66  97 125 163 223 283 332 387
#     4  12  26  44  64 100 141 182 225 273 350 425
#     4  11  25  44  70 100 133 179 232 286 344 413
#     4  11  23  42  69  99 130 173 230 285 338 412
#     4  11  23  44  70  94 132 183 231 282 337 418
#     4  12  26  45  66 101 137 178 229 286 351 416
#     4  12  24  42  68  98 137 178 221 284 352 411
#
# _framework density 21.504301000000002
#
# number of rings (size 3 to 8) (size 9 to 14) (size 15 to 20)
#    0.000    1.000    3.750    3.000    1.750    3.500 
#    0.000    5.000    0.000    0.000    0.000    0.000 
#    0.000    0.000    0.000    0.000    0.000    0.000 
#
# Total GULP energy -396690.007349 kJ/mol
# GULP energy per Si atom -12396.562730 kJ/mol
# Density = 2.145536 g / cm^3
# Si number density = 21.504301 Si / 1000 Ang^3
#
#
#
# Elastic Constant Matrix: (Units=GPa)
#
#
# Indices 1 2 3 4 5 6 
#
# 1 57.2134 12.8075 21.6208 0.0000 0.0000 0.0000
# 2 12.8075 112.8717 37.4679 0.0000 0.0000 0.0000
# 3 21.6208 37.4679 142.1636 0.0000 0.0000 0.0000
# 4 0.0000 0.0000 0.0000 19.5317 0.0000 0.0000
# 5 0.0000 0.0000 0.0000 0.0000 18.9385 0.0000
# 6 0.0000 0.0000 0.0000 0.0000 0.0000 45.4027
#
#
#
# Elastic Compliance Matrix: (Units=1/GPa)
#
#
# Indices 1 2 3 4 5 6 
#
# 1 0.018714 -0.001292 -0.002506 0.000000 0.000000 0.000000
# 2 -0.001292 0.009798 -0.002386 0.000000 0.000000 0.000000
# 3 -0.002506 -0.002386 0.008044 0.000000 0.000000 0.000000
# 4 0.000000 0.000000 0.000000 0.051199 0.000000 0.000000
# 5 0.000000 0.000000 0.000000 0.000000 0.052802 0.000000
# 6 0.000000 0.000000 0.000000 0.000000 0.000000 0.022025
#
#
# Mechanical properties :
#
#
# Convention : Reuss Voigt Hill
#
# Bulk Modulus (GPa) = 41.33947 50.67126 46.00536
# Shear Modulus (GPa) = 27.32044 32.79809 30.05926
#
# Velocity S-wave (km/s) = 3.56822 3.90960 3.74281
# Velocity P-wave (km/s) = 6.02012 6.63283 6.33389
#
# Compressibility (1/GPa) = 0.02418996
#
# Stress axis : x y z
#
# Youngs Moduli (GPa) = 53.43455 102.05961 124.31548
#
# Poissons Ratio (x) = 0.13183 0.31150
# Poissons Ratio (y) = 0.06902 0.29661
# Poissons Ratio (z) = 0.13389 0.24351
#
# Static dielectric constant tensor:
#      x y z
#    x 3.733030 0.000000 0.000000 
#    y 0.000000 3.918290 0.000000 
#    z 0.000000 0.000000 4.151850 
# 
# 
# High freq. dielectric constant tensor:
#      x y z
#    x 1.830670 0.000000 0.000000 
#    y 0.000000 1.849330 0.000000 
#    z 0.000000 0.000000 1.853270 
# 
# From -- ./inp_files/16766.got.cif
#   From: 2010.03.12/outbox.cif.g09.slc.cpg/sg46_9_cif.got.tgz:16766.got - 2010.04.14 02:56:35.
