data_PCOD8192137
_publ_section_title
;
Structure prediction by ZEFSAII (Michael W. Deem and Ramdas Pophale) SiO2 
 PCOD8192137
Probable space group: I M A 2
;
_chemical_formula_sum "Si O2"
_cell_formula_units_Z 64
_cell_length_a 9.052800
_cell_length_b 27.872535
_cell_length_c 12.624578
_cell_angle_alpha 90.000000
_cell_angle_beta 90.000000
_cell_angle_gamma 90.000000
_cell_volume 3185.490140
_symmetry_space_group_name_H-M "I M A 2"
_symmetry_group_IT_number 46
_symmetry_cell_setting 'orthorhombic'
loop_
_space_group_symop_operation_xyz
x,y,z
-x,-y,z
1/2-x,y,z
1/2+x,-y,z
1/2+x,1/2+y,1/2+z
1/2-x,1/2-y,1/2+z
-x,1/2+y,1/2+z
x,1/2-y,1/2+z
loop_
_atom_site_type_symbol
_atom_site_label
_atom_site_fract_x
_atom_site_fract_y
_atom_site_fract_z
Si Si1 0.076935 0.903451 0.556300
Si Si2 0.077208 0.381673 0.660035
Si Si3 0.578605 0.197008 0.041991
Si Si4 0.073047 0.551991 0.833760
Si Si5 0.414019 0.317189 0.326202
Si Si6 0.586700 0.574519 0.256539
Si Si7 0.580293 0.200717 0.626310
Si Si8 0.079619 0.455160 0.479783
O O1 0.250000 0.907728 0.565107
O O2 0.022711 0.926652 0.446774
O O3 0.026300 0.847540 0.564990
O O4 0.010817 0.934889 0.652585
O O5 0.250000 0.377295 0.690665
O O6 0.054330 0.407941 0.548032
O O7 0.005383 0.329445 0.639661
O O8 0.989448 0.410467 0.749164
O O9 0.750000 0.182282 0.046692
O O10 0.557641 0.254215 0.049599
O O11 0.511925 0.182134 0.930403
O O12 0.250000 0.547777 0.822429
O O13 0.000000 0.500000 0.816469
O O14 0.250000 0.296794 0.351392
O O15 0.401270 0.369792 0.280094
O O16 0.490849 0.286801 0.233189
O O17 0.750000 0.553618 0.234759
O O18 0.513824 0.550857 0.361082
O O19 0.750000 0.194178 0.660055
O O20 0.250000 0.467548 0.472378
O O21 0.000000 0.500000 0.535989
#
# Coordination Sequence:
#
# PCOD8192137 Si02
#       8
#     8   8   8   8   8   8   8   8
#     4   9  20  39  61  84 115 154 200 249 298 360
#     4  11  23  41  61  84 119 157 203 256 305 363
#     4  11  22  36  59  88 120 159 202 250 308 372
#     4  11  24  42  63  89 122 164 211 259 315 372
#     4  10  19  35  57  81 114 151 190 242 299 356
#     4   9  18  35  56  80 112 147 184 235 295 349
#     4   9  20  38  58  85 117 155 202 251 304 363
#     4  10  21  36  54  81 114 146 182 235 290 346
#
# _framework density 20.091100000000001
#
# number of rings (size 3 to 8) (size 9 to 14) (size 15 to 20)
#    0.000    2.000    1.250    1.875    0.000    6.500 
#    0.000    5.000    0.000    0.000    0.000    0.000 
#    0.000    0.000    0.000    0.000    0.000    0.000 
#
# Total GULP energy -396709.934495 kJ/mol
# GULP energy per Si atom -12397.185453 kJ/mol
# Density = 2.004537 g / cm^3
# Si number density = 20.091100 Si / 1000 Ang^3
#
#
#
# Elastic Constant Matrix: (Units=GPa)
#
#
# Indices 1 2 3 4 5 6 
#
# 1 72.3732 21.8952 39.5898 0.0001 -0.0001 0.0000
# 2 21.8952 50.7586 13.7052 -0.0001 -0.0005 -0.0001
# 3 39.5898 13.7052 103.1222 0.0011 -0.0003 0.0001
# 4 0.0001 -0.0001 0.0011 21.0472 -0.0005 0.0000
# 5 -0.0001 -0.0005 -0.0003 -0.0005 31.7281 0.0001
# 6 0.0000 -0.0001 0.0001 0.0000 0.0001 28.2108
#
#
#
# Elastic Compliance Matrix: (Units=1/GPa)
#
#
# Indices 1 2 3 4 5 6 
#
# 1 0.019410 -0.006597 -0.006575 0.000000 0.000000 0.000000
# 2 -0.006597 0.022677 -0.000481 0.000000 0.000000 0.000000
# 3 -0.006575 -0.000481 0.012285 -0.000001 0.000000 0.000000
# 4 0.000000 0.000000 -0.000001 0.047512 0.000001 0.000000
# 5 0.000000 0.000000 0.000000 0.000001 0.031518 0.000000
# 6 0.000000 0.000000 0.000000 0.000000 0.000000 0.035447
#
#
# Mechanical properties :
#
#
# Convention : Reuss Voigt Hill
#
# Bulk Modulus (GPa) = 36.94739 41.84828 39.39783
# Shear Modulus (GPa) = 24.36914 26.26813 25.31863
#
# Velocity S-wave (km/s) = 3.48650 3.61979 3.55377
# Velocity P-wave (km/s) = 5.88535 6.19233 6.04079
#
# Compressibility (1/GPa) = 0.02706551
#
# Stress axis : x y z
#
# Youngs Moduli (GPa) = 51.52054 44.09797 81.39801
#
# Poissons Ratio (x) = 0.29093 0.53518
# Poissons Ratio (y) = 0.33990 0.03915
# Poissons Ratio (z) = 0.33874 0.02121
#
# Static dielectric constant tensor:
#      x y z
#    x 3.856850 0.000000 0.000000 
#    y 0.000000 3.646370 0.000000 
#    z 0.000000 0.000000 3.791120 
# 
# 
# High freq. dielectric constant tensor:
#      x y z
#    x 1.786330 0.000000 0.000000 
#    y 0.000000 1.779210 0.000000 
#    z 0.000000 0.000000 1.784780 
# 
# From -- ./inp_files/9741.got.cif
#   From: 2010.03.12/outbox.cif.g09.slc.cpg/sg46_5_cif.got.tgz:9741.got - 2010.04.14 02:56:35.
