data_PCOD8192833
_publ_section_title
;
Structure prediction by ZEFSAII (Michael W. Deem and Ramdas Pophale) SiO2 
 PCOD8192833
Probable space group: I M A 2
;
_chemical_formula_sum "Si O2"
_cell_formula_units_Z 64
_cell_length_a 9.224092
_cell_length_b 18.471910
_cell_length_c 20.743149
_cell_angle_alpha 90.000000
_cell_angle_beta 90.000000
_cell_angle_gamma 90.000000
_cell_volume 3534.354574
_symmetry_space_group_name_H-M "I M A 2"
_symmetry_group_IT_number 46
_symmetry_cell_setting 'orthorhombic'
loop_
_space_group_symop_operation_xyz
x,y,z
-x,-y,z
1/2-x,y,z
1/2+x,-y,z
1/2+x,1/2+y,1/2+z
1/2-x,1/2-y,1/2+z
-x,1/2+y,1/2+z
x,1/2-y,1/2+z
loop_
_atom_site_type_symbol
_atom_site_label
_atom_site_fract_x
_atom_site_fract_y
_atom_site_fract_z
Si Si1 0.918683 0.815023 0.025050
Si Si2 0.417503 0.183086 0.167406
Si Si3 0.920920 0.074109 0.404589
Si Si4 0.421675 0.075509 0.913033
Si Si5 0.585236 0.345626 0.302344
Si Si6 0.083830 0.834670 0.522699
Si Si7 0.086471 0.673559 0.163570
Si Si8 0.582062 0.323334 0.789843
O O1 0.750000 0.796175 0.018858
O O2 0.951664 0.849213 0.096101
O O3 0.002874 0.740863 0.013269
O O4 0.967367 0.873078 0.972073
O O5 0.250000 0.177007 0.184616
O O6 0.463371 0.266379 0.164712
O O7 0.504072 0.145060 0.225646
O O8 0.750000 0.060471 0.403555
O O9 0.975249 0.105281 0.473314
O O10 0.971294 0.131334 0.350866
O O11 0.000000 0.000000 0.389824
O O12 0.250000 0.063566 0.909085
O O13 0.474630 0.110647 0.846368
O O14 0.500000 0.000000 0.924809
O O15 0.750000 0.357632 0.326960
O O16 0.568128 0.375125 0.228162
O O17 0.544625 0.260626 0.302942
O O18 0.250000 0.817733 0.505605
O O19 0.067523 0.867951 0.595297
O O20 0.250000 0.708211 0.166150
O O21 0.750000 0.334440 0.777415
#
# Coordination Sequence:
#
# PCOD8192833 Si02
#       8
#     8   8   8   8   8   8   8   8
#     4   9  19  34  52  76 102 126 159 205 250 292
#     4   9  16  28  49  76 102 125 156 202 249 290
#     4  10  21  35  50  71 101 135 170 206 243 287
#     4  11  23  37  51  70  99 133 168 205 246 293
#     4   9  17  32  54  77 100 126 159 203 249 292
#     4   9  17  32  55  78  99 129 167 202 241 292
#     4   8  15  29  50  75 102 129 159 198 243 292
#     4   9  18  33  52  75 102 131 164 201 243 294
#
# _framework density 18.107973999999999
#
# number of rings (size 3 to 8) (size 9 to 14) (size 15 to 20)
#    0.000    2.750    0.000    2.250    0.000    5.500 
#    0.000    1.250    0.000    4.500    0.000    0.000 
#    0.000    0.000    0.000    0.000    0.000    0.000 
#
# Total GULP energy -396570.219393 kJ/mol
# GULP energy per Si atom -12392.819356 kJ/mol
# Density = 1.806676 g / cm^3
# Si number density = 18.107974 Si / 1000 Ang^3
#
#
#
# Elastic Constant Matrix: (Units=GPa)
#
#
# Indices 1 2 3 4 5 6 
#
# 1 47.9151 19.2700 27.8029 0.0000 0.0000 0.0000
# 2 19.2700 40.3251 13.8560 0.0000 0.0000 0.0000
# 3 27.8029 13.8560 105.4239 0.0000 0.0000 0.0000
# 4 0.0000 0.0000 0.0000 4.4372 0.0000 0.0000
# 5 0.0000 0.0000 0.0000 0.0000 28.3618 0.0000
# 6 0.0000 0.0000 0.0000 0.0000 0.0000 24.5957
#
#
#
# Elastic Compliance Matrix: (Units=1/GPa)
#
#
# Indices 1 2 3 4 5 6 
#
# 1 0.029197 -0.011841 -0.006144 0.000000 0.000000 0.000000
# 2 -0.011841 0.030774 -0.000922 0.000000 0.000000 0.000000
# 3 -0.006144 -0.000922 0.011227 0.000000 0.000000 0.000000
# 4 0.000000 0.000000 0.000000 0.225367 0.000000 0.000000
# 5 0.000000 0.000000 0.000000 0.000000 0.035259 0.000000
# 6 0.000000 0.000000 0.000000 0.000000 0.000000 0.040658
#
#
# Mechanical properties :
#
#
# Convention : Reuss Voigt Hill
#
# Bulk Modulus (GPa) = 29.95423 35.05800 32.50612
# Shear Modulus (GPa) = 11.86455 20.32795 16.09625
#
# Velocity S-wave (km/s) = 2.56249 3.35415 2.98468
# Velocity P-wave (km/s) = 5.03319 5.86541 5.46516
#
# Compressibility (1/GPa) = 0.03338426
#
# Stress axis : x y z
#
# Youngs Moduli (GPa) = 34.24955 32.49521 89.07159
#
# Poissons Ratio (x) = 0.38479 0.54724
# Poissons Ratio (y) = 0.40556 0.08210
# Poissons Ratio (z) = 0.21042 0.02995
#
# Static dielectric constant tensor:
#      x y z
#    x 3.312870 0.000000 0.000000 
#    y 0.000000 2.960840 0.000000 
#    z 0.000000 0.000000 3.910000 
# 
# 
# High freq. dielectric constant tensor:
#      x y z
#    x 1.700600 0.000000 0.000000 
#    y 0.000000 1.652790 0.000000 
#    z 0.000000 0.000000 1.728630 
# 
# From -- ./inp_files/21317.got.cif
#   From: 2010.03.12/outbox.cif.g09.slc.cpg/sg46_11_cif.got.tgz:21317.got - 2010.04.14 02:56:35.
