data_PCOD8192943
_publ_section_title
;
Structure prediction by ZEFSAII (Michael W. Deem and Ramdas Pophale) SiO2 
 PCOD8192943
Probable space group: I M A 2
;
_chemical_formula_sum "Si O2"
_cell_formula_units_Z 56
_cell_length_a 8.995091
_cell_length_b 20.819268
_cell_length_c 14.239407
_cell_angle_alpha 90.000000
_cell_angle_beta 90.000000
_cell_angle_gamma 90.000000
_cell_volume 2666.630982
_symmetry_space_group_name_H-M "I M A 2"
_symmetry_group_IT_number 46
_symmetry_cell_setting 'orthorhombic'
loop_
_space_group_symop_operation_xyz
x,y,z
-x,-y,z
1/2-x,y,z
1/2+x,-y,z
1/2+x,1/2+y,1/2+z
1/2-x,1/2-y,1/2+z
-x,1/2+y,1/2+z
x,1/2-y,1/2+z
loop_
_atom_site_type_symbol
_atom_site_label
_atom_site_fract_x
_atom_site_fract_y
_atom_site_fract_z
Si Si1 0.078215 0.118257 0.121110
Si Si2 0.916576 0.145248 0.474447
Si Si3 0.075570 0.635527 0.257097
Si Si4 0.917473 0.249983 0.614580
Si Si5 0.921429 0.560731 0.106257
Si Si6 0.924157 0.567917 0.415494
Si Si7 0.921542 0.064120 0.299026
O O1 0.250000 0.115599 0.148356
O O2 0.031633 0.192328 0.118220
O O3 0.986853 0.079600 0.198083
O O4 0.044774 0.083683 0.023564
O O5 0.750000 0.119571 0.503725
O O6 0.923381 0.219480 0.508392
O O7 0.942976 0.127722 0.365249
O O8 0.054014 0.115831 0.530558
O O9 0.250000 0.628453 0.271638
O O10 0.037671 0.699896 0.197850
O O11 0.010840 0.574714 0.201257
O O12 0.994958 0.628332 0.357814
O O13 0.750000 0.274863 0.634012
O O14 0.750000 0.550441 0.128480
O O15 0.000000 0.500000 0.058868
O O16 0.750000 0.563521 0.393015
O O17 0.000000 0.500000 0.390125
O O18 0.750000 0.047140 0.287457
O O19 0.000000 0.000000 0.340927
#
# Coordination Sequence:
#
# PCOD8192943 Si02
#       7
#     8   8   8   8   8   8   8
#     4  11  25  42  61  86 119 159 203 250 298 349
#     4   9  20  38  59  86 118 153 194 240 292 353
#     4  10  21  38  60  86 117 154 194 240 294 354
#     4   9  20  40  63  88 120 157 197 238 291 355
#     4  11  20  31  51  80 116 155 192 236 290 349
#     4  11  24  41  61  88 119 155 199 248 300 353
#     4  11  23  40  63  90 121 157 200 248 299 353
#
# _framework density 21.000281999999999
#
# number of rings (size 3 to 8) (size 9 to 14) (size 15 to 20)
#    0.000    1.714    0.000    5.143    0.000    9.714 
#    0.000    4.286    0.000    0.000    0.000    0.000 
#    0.000    0.000    0.000    0.000    0.000    0.000 
#
# Total GULP energy -347012.007345 kJ/mol
# GULP energy per Si atom -12393.285977 kJ/mol
# Density = 2.095248 g / cm^3
# Si number density = 21.000282 Si / 1000 Ang^3
#
#
#
# Elastic Constant Matrix: (Units=GPa)
#
#
# Indices 1 2 3 4 5 6 
#
# 1 114.4006 34.5351 46.0758 0.0003 0.0000 0.0000
# 2 34.5351 73.0961 19.7849 -0.0001 0.0000 0.0000
# 3 46.0758 19.7849 93.0329 0.0000 0.0000 0.0001
# 4 0.0003 -0.0001 0.0000 -94.6354 -0.0002 -0.0001
# 5 0.0000 0.0000 0.0000 -0.0002 30.2345 0.0000
# 6 0.0000 0.0000 0.0001 -0.0001 0.0000 32.9482
#
#
#
# Elastic Compliance Matrix: (Units=1/GPa)
#
#
# Indices 1 2 3 4 5 6 
#
# 1 0.012092 -0.004342 -0.005065 0.000000 0.000000 0.000000
# 2 -0.004342 0.016075 -0.001268 0.000000 0.000000 0.000000
# 3 -0.005065 -0.001268 0.013527 0.000000 0.000000 0.000000
# 4 0.000000 0.000000 0.000000 -0.010567 0.000000 0.000000
# 5 0.000000 0.000000 0.000000 0.000000 0.033075 0.000000
# 6 0.000000 0.000000 0.000000 0.000000 0.000000 0.030351
#
#
# Mechanical properties :
#
#
# Convention : Reuss Voigt Hill
#
# Bulk Modulus (GPa) = 49.15578 53.48013 51.31796
# Shear Modulus (GPa) = 40.75454 5.71839 23.23646
#
# Velocity S-wave (km/s) = 4.41008 1.65194 3.32999
# Velocity P-wave (km/s) = 7.02778 5.40002 6.26698
#
# Compressibility (1/GPa) = 0.02034349
#
# Stress axis : x y z
#
# Youngs Moduli (GPa) = 82.69861 62.20709 73.92463
#
# Poissons Ratio (x) = 0.27010 0.37446
# Poissons Ratio (y) = 0.35908 0.09375
# Poissons Ratio (z) = 0.41890 0.07889
#
# Static dielectric constant tensor:
#      x y z
#    x 3.806260 0.000000 0.000000 
#    y 0.000000 3.719470 0.000000 
#    z 0.000000 0.000000 3.879920 
# 
# 
# High freq. dielectric constant tensor:
#      x y z
#    x 1.829200 0.000000 0.000000 
#    y 0.000000 1.810980 0.000000 
#    z 0.000000 0.000000 1.824420 
# 
# From -- ./inp_files/14201.got.cif
#   From: 2010.03.12/outbox.cif.g09.slc.cpg/sg46_8_cif.got.tgz:14201.got - 2010.04.14 02:56:35.
