data_PCOD8192854
_publ_section_title
;
Structure prediction by ZEFSAII (Michael W. Deem and Ramdas Pophale) SiO2 
 PCOD8192854
Probable space group: I M A 2
;
_chemical_formula_sum "Si O2"
_cell_formula_units_Z 48
_cell_length_a 8.690312
_cell_length_b 30.150462
_cell_length_c 9.784690
_cell_angle_alpha 90.000000
_cell_angle_beta 90.000000
_cell_angle_gamma 90.000000
_cell_volume 2563.754354
_symmetry_space_group_name_H-M "I M A 2"
_symmetry_group_IT_number 46
_symmetry_cell_setting 'orthorhombic'
loop_
_space_group_symop_operation_xyz
x,y,z
-x,-y,z
1/2-x,y,z
1/2+x,-y,z
1/2+x,1/2+y,1/2+z
1/2-x,1/2-y,1/2+z
-x,1/2+y,1/2+z
x,1/2-y,1/2+z
loop_
_atom_site_type_symbol
_atom_site_label
_atom_site_fract_x
_atom_site_fract_y
_atom_site_fract_z
Si Si1 0.930091 0.283643 0.564480
Si Si2 0.428559 0.954767 0.557677
Si Si3 0.432718 0.953360 0.868391
Si Si4 0.074704 0.116042 0.368519
Si Si5 0.428515 0.217085 0.353423
Si Si6 0.930267 0.622046 0.556113
O O1 0.750000 0.277197 0.539050
O O2 0.024894 0.249665 0.473106
O O3 0.969595 0.272771 0.720832
O O4 0.978832 0.333072 0.522662
O O5 0.250000 0.962738 0.558084
O O6 0.485139 0.945418 0.711993
O O7 0.466669 0.913487 0.462392
O O8 0.500000 0.000000 0.498526
O O9 0.250000 0.952434 0.888044
O O10 0.500000 0.000000 0.921010
O O11 0.510954 0.915203 0.955220
O O12 0.250000 0.103324 0.400990
O O13 0.041201 0.167116 0.404573
O O14 0.035432 0.106647 0.210491
O O15 0.250000 0.222994 0.313561
O O16 0.750000 0.631224 0.535501
#
# Coordination Sequence:
#
# PCOD8192854 Si02
#       6
#     8   8   8   8   8   8
#     4  11  22  37  58  85 114 145 185 234 279 326
#     4  10  21  36  56  80 109 142 179 222 270 322
#     4  10  21  37  56  81 110 143 183 227 274 327
#     4   9  20  37  57  80 107 140 181 222 266 321
#     4  10  21  39  59  81 112 150 187 226 276 336
#     4  10  21  38  58  81 110 146 184 225 275 332
#
# _framework density 18.722542000000001
#
# number of rings (size 3 to 8) (size 9 to 14) (size 15 to 20)
#    0.000    2.000    0.000    4.500    0.000    8.000 
#    0.000    3.333    0.000    0.000    0.000    0.000 
#    0.000    0.000    0.000    0.000    0.000    0.000 
#
# Total GULP energy -297695.567750 kJ/mol
# GULP energy per Si atom -12403.981990 kJ/mol
# Density = 1.867993 g / cm^3
# Si number density = 18.722542 Si / 1000 Ang^3
#
#
#
# Elastic Constant Matrix: (Units=GPa)
#
#
# Indices 1 2 3 4 5 6 
#
# 1 55.5755 25.2617 22.7405 0.0000 0.0000 0.0000
# 2 25.2617 108.6280 65.4869 -0.0055 0.0002 0.0006
# 3 22.7405 65.4869 76.0955 -0.0060 -0.0001 0.0004
# 4 0.0000 -0.0055 -0.0060 38.2752 -0.0003 0.0004
# 5 0.0000 0.0002 -0.0001 -0.0003 33.7235 -0.0017
# 6 0.0000 0.0006 0.0004 0.0004 -0.0017 37.1462
#
#
#
# Elastic Compliance Matrix: (Units=1/GPa)
#
#
# Indices 1 2 3 4 5 6 
#
# 1 0.020764 -0.002261 -0.004259 -0.000001 0.000000 0.000000
# 2 -0.002261 0.019377 -0.016000 0.000000 0.000000 0.000000
# 3 -0.004259 -0.016000 0.028184 0.000002 0.000000 0.000000
# 4 -0.000001 0.000000 0.000002 0.026127 0.000000 0.000000
# 5 0.000000 0.000000 0.000000 0.000000 0.029653 0.000001
# 6 0.000000 0.000000 0.000000 0.000000 0.000001 0.026921
#
#
# Mechanical properties :
#
#
# Convention : Reuss Voigt Hill
#
# Bulk Modulus (GPa) = 42.94778 51.91970 47.43374
# Shear Modulus (GPa) = 24.53048 30.28296 27.40672
#
# Velocity S-wave (km/s) = 3.62361 4.02613 3.83016
# Velocity P-wave (km/s) = 6.36367 7.02882 6.70450
#
# Compressibility (1/GPa) = 0.02328409
#
# Stress axis : x y z
#
# Youngs Moduli (GPa) = 48.15999 51.60676 35.48129
#
# Poissons Ratio (x) = 0.11668 0.15113
# Poissons Ratio (y) = 0.10888 0.56771
# Poissons Ratio (z) = 0.20514 0.82572
#
# Static dielectric constant tensor:
#      x y z
#    x 3.480990 0.000000 0.000000 
#    y 0.000000 3.456920 0.000000 
#    z 0.000000 0.000000 3.421380 
# 
# 
# High freq. dielectric constant tensor:
#      x y z
#    x 1.739680 0.000000 0.000000 
#    y 0.000000 1.733520 0.000000 
#    z 0.000000 0.000000 1.724800 
# 
# From -- ./inp_files/3890.got.cif
#   From: 2010.03.12/outbox.cif.g09.slc.cpg/sg46_2_cif.got.tgz:3890.got - 2010.04.14 02:56:35.
