data_PCOD8192490
_publ_section_title
;
Structure prediction by ZEFSAII (Michael W. Deem and Ramdas Pophale) SiO2 
 PCOD8192490
Probable space group: I M A 2
;
_chemical_formula_sum "Si O2"
_cell_formula_units_Z 40
_cell_length_a 8.881798
_cell_length_b 13.431972
_cell_length_c 18.336160
_cell_angle_alpha 90.000000
_cell_angle_beta 90.000000
_cell_angle_gamma 90.000000
_cell_volume 2187.505026
_symmetry_space_group_name_H-M "I M A 2"
_symmetry_group_IT_number 46
_symmetry_cell_setting 'orthorhombic'
loop_
_space_group_symop_operation_xyz
x,y,z
-x,-y,z
1/2-x,y,z
1/2+x,-y,z
1/2+x,1/2+y,1/2+z
1/2-x,1/2-y,1/2+z
-x,1/2+y,1/2+z
x,1/2-y,1/2+z
loop_
_atom_site_type_symbol
_atom_site_label
_atom_site_fract_x
_atom_site_fract_y
_atom_site_fract_z
Si Si1 0.074858 0.899840 0.584550
Si Si2 0.571739 0.795072 0.718311
Si Si3 0.921887 0.200000 0.004190
Si Si4 0.427388 0.604856 0.656861
Si Si5 0.425876 0.106824 0.869359
O O1 0.250000 0.915909 0.601980
O O2 0.052171 0.815313 0.523814
O O3 0.992655 0.871387 0.659248
O O4 0.000000 0.000000 0.553270
O O5 0.750000 0.786651 0.708997
O O6 0.498621 0.686547 0.710281
O O7 0.522782 0.836372 0.796765
O O8 0.750000 0.180177 0.981165
O O9 0.030014 0.174072 0.938014
O O10 0.965128 0.132128 0.073416
O O11 0.500000 0.500000 0.676993
O O12 0.250000 0.602126 0.670486
O O13 0.250000 0.089432 0.870174
O O14 0.500000 0.000000 0.875064
#
# Coordination Sequence:
#
# PCOD8192490 Si02
#       5
#     8   8   8   8   8
#     4  10  20  35  56  81 106 138 177 218 264 313
#     4  10  21  36  54  79 108 140 178 218 260 312
#     4   9  20  36  54  78 107 138 175 215 259 310
#     4  10  20  35  56  81 107 139 177 218 263 312
#     4  11  23  36  54  79 107 139 174 213 262 313
#
# _framework density 18.285672999999999
#
# number of rings (size 3 to 8) (size 9 to 14) (size 15 to 20)
#    0.000    2.000    0.000    4.800    0.000   11.200 
#    0.000    1.000    0.000    2.400    0.000    0.000 
#    0.000    0.000    0.000    0.000    0.000    0.000 
#
# Total GULP energy -248088.133047 kJ/mol
# GULP energy per Si atom -12404.406652 kJ/mol
# Density = 1.824405 g / cm^3
# Si number density = 18.285673 Si / 1000 Ang^3
#
#
#
# Elastic Constant Matrix: (Units=GPa)
#
#
# Indices 1 2 3 4 5 6 
#
# 1 65.5829 38.6220 37.9037 0.0000 0.0000 0.0000
# 2 38.6220 130.5242 44.6133 0.0000 0.0000 0.0000
# 3 37.9037 44.6133 99.4282 0.0000 0.0000 0.0000
# 4 0.0000 0.0000 0.0000 19.2720 0.0000 0.0000
# 5 0.0000 0.0000 0.0000 0.0000 29.3245 0.0000
# 6 0.0000 0.0000 0.0000 0.0000 0.0000 38.4964
#
#
#
# Elastic Compliance Matrix: (Units=1/GPa)
#
#
# Indices 1 2 3 4 5 6 
#
# 1 0.021319 -0.004170 -0.006256 0.000000 0.000000 0.000000
# 2 -0.004170 0.009865 -0.002837 0.000000 0.000000 0.000000
# 3 -0.006256 -0.002837 0.013715 0.000000 0.000000 0.000000
# 4 0.000000 0.000000 0.000000 0.051889 0.000000 0.000000
# 5 0.000000 0.000000 0.000000 0.000000 0.034101 0.000000
# 6 0.000000 0.000000 0.000000 0.000000 0.000000 0.025976
#
#
# Mechanical properties :
#
#
# Convention : Reuss Voigt Hill
#
# Bulk Modulus (GPa) = 54.42548 59.75704 57.09126
# Shear Modulus (GPa) = 26.38291 29.04499 27.71395
#
# Velocity S-wave (km/s) = 3.80257 3.98980 3.89731
# Velocity P-wave (km/s) = 7.00771 7.34679 7.17925
#
# Compressibility (1/GPa) = 0.01837375
#
# Stress axis : x y z
#
# Youngs Moduli (GPa) = 46.90557 101.36950 72.91122
#
# Poissons Ratio (x) = 0.42271 0.45615
# Poissons Ratio (y) = 0.19560 0.20683
# Poissons Ratio (z) = 0.29345 0.28755
#
# Static dielectric constant tensor:
#      x y z
#    x 3.462890 0.000000 0.000000 
#    y 0.000000 3.451240 0.000000 
#    z 0.000000 0.000000 3.254960 
# 
# 
# High freq. dielectric constant tensor:
#      x y z
#    x 1.723860 0.000000 0.000000 
#    y 0.000000 1.720320 0.000000 
#    z 0.000000 0.000000 1.693660 
# 
# From -- ./inp_files/13644.got.cif
#   From: 2010.03.12/outbox.cif.g09.slc.cpg/sg46_7_cif.got.tgz:13644.got - 2010.04.14 02:56:35.
