data_PCOD8192676
_publ_section_title
;
Structure prediction by ZEFSAII (Michael W. Deem and Ramdas Pophale) SiO2 
 PCOD8192676
Probable space group: I M A 2
;
_chemical_formula_sum "Si O2"
_cell_formula_units_Z 56
_cell_length_a 17.152557
_cell_length_b 4.911404
_cell_length_c 30.570349
_cell_angle_alpha 90.000000
_cell_angle_beta 90.000000
_cell_angle_gamma 90.000000
_cell_volume 2575.342101
_symmetry_space_group_name_H-M "I M A 2"
_symmetry_group_IT_number 46
_symmetry_cell_setting 'orthorhombic'
loop_
_space_group_symop_operation_xyz
x,y,z
-x,-y,z
1/2-x,y,z
1/2+x,-y,z
1/2+x,1/2+y,1/2+z
1/2-x,1/2-y,1/2+z
-x,1/2+y,1/2+z
x,1/2-y,1/2+z
loop_
_atom_site_type_symbol
_atom_site_label
_atom_site_fract_x
_atom_site_fract_y
_atom_site_fract_z
Si Si1 0.340334 0.471990 0.807880
Si Si2 0.050770 0.230000 0.943132
Si Si3 0.412736 0.517008 0.350208
Si Si4 0.162460 0.255260 0.521516
Si Si5 0.591993 0.002180 0.212987
Si Si6 0.662763 0.264245 0.578559
Si Si7 0.842684 0.492026 0.166823
O O1 0.250000 0.546780 0.801680
O O2 0.349382 0.172992 0.827421
O O3 0.383208 0.440378 0.761935
O O4 0.381901 0.677517 0.841983
O O5 0.083743 0.073912 0.900598
O O6 0.000000 0.500000 0.931315
O O7 0.120465 0.293578 0.975633
O O8 0.000000 0.000000 0.967860
O O9 0.500000 0.500000 0.329747
O O10 0.250000 0.360089 0.511529
O O11 0.122833 0.468429 0.556299
O O12 0.162968 0.959647 0.541514
O O13 0.625934 0.793947 0.176760
O O14 0.500000 0.000000 0.208508
O O15 0.627395 0.300557 0.205423
O O16 0.750000 0.350381 0.592794
O O17 0.621840 0.137373 0.621807
O O18 0.750000 0.512153 0.164687
#
# Coordination Sequence:
#
# PCOD8192676 Si02
#       7
#     8   8   8   8   8   8   8
#     4  12  25  42  65  94 123 157 208 261 312 374
#     4  11  23  41  62  89 124 163 204 249 311 377
#     4  11  23  43  65  89 124 166 204 251 317 384
#     4  10  20  37  61  89 120 158 205 252 301 361
#     4  12  25  42  62  91 128 164 202 254 320 383
#     4   9  19  36  60  88 119 158 202 251 306 360
#     4  11  22  41  66  90 121 164 214 260 308 373
#
# _framework density 21.744686000000002
#
# number of rings (size 3 to 8) (size 9 to 14) (size 15 to 20)
#    0.000    1.143    0.000    7.714    0.000    3.429 
#    0.000    8.571    0.000    0.000    0.000    0.000 
#    0.000    0.000    0.000    0.000    0.000    0.000 
#
# Total GULP energy -347066.370352 kJ/mol
# GULP energy per Si atom -12395.227513 kJ/mol
# Density = 2.169519 g / cm^3
# Si number density = 21.744686 Si / 1000 Ang^3
#
#
#
# Elastic Constant Matrix: (Units=GPa)
#
#
# Indices 1 2 3 4 5 6 
#
# 1 92.8089 21.9313 26.8574 0.0000 0.0000 0.0000
# 2 21.9313 79.8354 5.2885 0.0000 0.0000 0.0000
# 3 26.8574 5.2885 90.8051 0.0000 0.0000 0.0000
# 4 0.0000 0.0000 0.0000 35.2171 0.0000 0.0000
# 5 0.0000 0.0000 0.0000 0.0000 29.0904 0.0000
# 6 0.0000 0.0000 0.0000 0.0000 0.0000 35.0200
#
#
#
# Elastic Compliance Matrix: (Units=1/GPa)
#
#
# Indices 1 2 3 4 5 6 
#
# 1 0.012555 -0.003215 -0.003526 0.000000 0.000000 0.000000
# 2 -0.003215 0.013398 0.000171 0.000000 0.000000 0.000000
# 3 -0.003526 0.000171 0.012046 0.000000 0.000000 0.000000
# 4 0.000000 0.000000 0.000000 0.028395 0.000000 0.000000
# 5 0.000000 0.000000 0.000000 0.000000 0.034376 0.000000
# 6 0.000000 0.000000 0.000000 0.000000 0.000000 0.028555
#
#
# Mechanical properties :
#
#
# Convention : Reuss Voigt Hill
#
# Bulk Modulus (GPa) = 40.23045 41.28932 40.75988
# Shear Modulus (GPa) = 33.16715 33.82365 33.49540
#
# Velocity S-wave (km/s) = 3.90974 3.94825 3.92904
# Velocity P-wave (km/s) = 6.23882 6.30986 6.27444
#
# Compressibility (1/GPa) = 0.02485680
#
# Stress axis : x y z
#
# Youngs Moduli (GPa) = 79.64923 74.63937 83.01800
#
# Poissons Ratio (x) = 0.23999 0.29273
# Poissons Ratio (y) = 0.25610 -0.01417
# Poissons Ratio (z) = 0.28085 -0.01274
#
# Static dielectric constant tensor:
#      x y z
#    x 3.758550 0.000000 0.000000 
#    y 0.000000 4.137510 0.000000 
#    z 0.000000 0.000000 3.878300 
# 
# 
# High freq. dielectric constant tensor:
#      x y z
#    x 1.834980 0.000000 0.000000 
#    y 0.000000 1.875760 0.000000 
#    z 0.000000 0.000000 1.858740 
# 
# From -- ./inp_files/25392.got.cif
#   From: 2010.03.12/outbox.cif.g09.slc.cpg/sg46_13_cif.got.tgz:25392.got - 2010.04.14 02:56:35.
