data_PCOD8192131
_publ_section_title
;
Structure prediction by ZEFSAII (Michael W. Deem and Ramdas Pophale) SiO2 
 PCOD8192131
Probable space group: I M A 2
;
_chemical_formula_sum "Si O2"
_cell_formula_units_Z 48
_cell_length_a 16.888928
_cell_length_b 5.080849
_cell_length_c 28.118772
_cell_angle_alpha 90.000000
_cell_angle_beta 90.000000
_cell_angle_gamma 90.000000
_cell_volume 2412.874439
_symmetry_space_group_name_H-M "I M A 2"
_symmetry_group_IT_number 46
_symmetry_cell_setting 'orthorhombic'
loop_
_space_group_symop_operation_xyz
x,y,z
-x,-y,z
1/2-x,y,z
1/2+x,-y,z
1/2+x,1/2+y,1/2+z
1/2-x,1/2-y,1/2+z
-x,1/2+y,1/2+z
x,1/2-y,1/2+z
loop_
_atom_site_type_symbol
_atom_site_label
_atom_site_fract_x
_atom_site_fract_y
_atom_site_fract_z
Si Si1 0.655960 0.246315 0.729480
Si Si2 0.091167 0.411509 0.578520
Si Si3 0.343817 0.254203 0.786170
Si Si4 0.342338 0.903150 0.625461
Si Si5 0.054252 0.255350 0.876491
Si Si6 0.052917 0.248425 0.480947
O O1 0.750000 0.255778 0.728294
O O2 0.621958 0.510261 0.753481
O O3 0.625215 0.206830 0.675763
O O4 0.624889 0.008931 0.761610
O O5 0.144610 0.667987 0.587876
O O6 0.111854 0.308807 0.524944
O O7 0.000000 0.500000 0.583198
O O8 0.110096 0.170233 0.613797
O O9 0.250000 0.270215 0.788627
O O10 0.373680 0.255832 0.839970
O O11 0.250000 0.978675 0.627310
O O12 0.093555 0.295305 0.929321
O O13 0.000000 0.500000 0.863888
O O14 0.000000 0.000000 0.871835
O O15 0.000000 0.500000 0.472699
O O16 0.000000 0.000000 0.496147
#
# Coordination Sequence:
#
# PCOD8192131 Si02
#       6
#     8   8   8   8   8   8
#     4   9  19  35  55  75 105 147 181 207 262 335
#     4  11  21  37  59  83 111 145 186 230 273 326
#     4  10  19  35  56  78 104 140 180 219 261 317
#     4  11  22  38  58  82 111 148 188 228 272 326
#     4  10  20  35  56  80 106 138 177 220 267 319
#     4   9  18  34  56  78 105 144 179 210 266 339
#
# _framework density 19.893284000000001
#
# number of rings (size 3 to 8) (size 9 to 14) (size 15 to 20)
#    0.000    2.000    0.000    5.000    0.000    2.667 
#    0.000   10.000    0.000    2.000    0.000    0.000 
#    0.000    0.000    0.000    0.000    0.000    0.000 
#
# Total GULP energy -297494.268607 kJ/mol
# GULP energy per Si atom -12395.594525 kJ/mol
# Density = 1.984801 g / cm^3
# Si number density = 19.893284 Si / 1000 Ang^3
#
#
#
# Elastic Constant Matrix: (Units=GPa)
#
#
# Indices 1 2 3 4 5 6 
#
# 1 36.8197 21.0659 36.6077 0.0000 0.0000 0.0000
# 2 21.0659 121.6710 21.2568 0.0000 0.0000 0.0000
# 3 36.6077 21.2568 125.8530 0.0000 0.0000 0.0000
# 4 0.0000 0.0000 0.0000 36.4383 0.0000 0.0000
# 5 0.0000 0.0000 0.0000 0.0000 32.4454 0.0000
# 6 0.0000 0.0000 0.0000 0.0000 0.0000 22.8846
#
#
#
# Elastic Compliance Matrix: (Units=1/GPa)
#
#
# Indices 1 2 3 4 5 6 
#
# 1 0.041160 -0.005188 -0.011096 0.000000 0.000000 0.000000
# 2 -0.005188 0.009123 -0.000032 0.000000 0.000000 0.000000
# 3 -0.011096 -0.000032 0.011179 0.000000 0.000000 0.000000
# 4 0.000000 0.000000 0.000000 0.027444 0.000000 0.000000
# 5 0.000000 0.000000 0.000000 0.000000 0.030821 0.000000
# 6 0.000000 0.000000 0.000000 0.000000 0.000000 0.043697
#
#
# Mechanical properties :
#
#
# Convention : Reuss Voigt Hill
#
# Bulk Modulus (GPa) = 34.68655 49.13383 41.91019
# Shear Modulus (GPa) = 24.31144 32.04790 28.17967
#
# Velocity S-wave (km/s) = 3.49964 4.01807 3.76778
# Velocity P-wave (km/s) = 5.81413 6.80285 6.32783
#
# Compressibility (1/GPa) = 0.02882962
#
# Stress axis : x y z
#
# Youngs Moduli (GPa) = 24.29562 109.61740 89.45526
#
# Poissons Ratio (x) = 0.56867 0.99261
# Poissons Ratio (y) = 0.12604 0.00285
# Poissons Ratio (z) = 0.26959 0.00349
#
# Static dielectric constant tensor:
#      x y z
#    x 3.106450 0.000000 0.000000 
#    y 0.000000 3.921040 0.000000 
#    z 0.000000 0.000000 4.109060 
# 
# 
# High freq. dielectric constant tensor:
#      x y z
#    x 1.723070 0.000000 0.000000 
#    y 0.000000 1.803610 0.000000 
#    z 0.000000 0.000000 1.794460 
# 
# From -- ./inp_files/23743.got.cif
#   From: 2010.03.12/outbox.cif.g09.slc.cpg/sg46_12_cif.got.tgz:23743.got - 2010.04.14 02:56:35.
