data_PCOD8192238
_publ_section_title
;
Structure prediction by ZEFSAII (Michael W. Deem and Ramdas Pophale) SiO2 
 PCOD8192238
Probable space group: I M A 2
;
_chemical_formula_sum "Si O2"
_cell_formula_units_Z 44
_cell_length_a 13.481302
_cell_length_b 11.462442
_cell_length_c 14.407020
_cell_angle_alpha 90.000000
_cell_angle_beta 90.000000
_cell_angle_gamma 90.000000
_cell_volume 2226.297240
_symmetry_space_group_name_H-M "I M A 2"
_symmetry_group_IT_number 46
_symmetry_cell_setting 'orthorhombic'
loop_
_space_group_symop_operation_xyz
x,y,z
-x,-y,z
1/2-x,y,z
1/2+x,-y,z
1/2+x,1/2+y,1/2+z
1/2-x,1/2-y,1/2+z
-x,1/2+y,1/2+z
x,1/2-y,1/2+z
loop_
_atom_site_type_symbol
_atom_site_label
_atom_site_fract_x
_atom_site_fract_y
_atom_site_fract_z
Si Si1 0.450089 0.185446 0.400870
Si Si2 0.864280 0.908772 0.582584
Si Si3 0.363378 0.804643 0.190119
Si Si4 0.515959 0.867198 0.762850
Si Si5 0.500000 0.500000 0.763305
Si Si6 0.861445 0.159622 0.512835
O O1 0.382774 0.170365 0.491664
O O2 0.425234 0.306899 0.348756
O O3 0.567186 0.183052 0.426572
O O4 0.430838 0.081056 0.328249
O O5 0.750000 0.905355 0.609361
O O6 0.923147 0.853342 0.667840
O O7 0.899137 0.042326 0.565939
O O8 0.250000 0.822401 0.223362
O O9 0.411847 0.700984 0.251179
O O10 0.426292 0.923572 0.199723
O O11 0.365704 0.768591 0.082279
O O12 0.500000 0.000000 0.791444
O O13 0.750000 0.139612 0.474888
#
# Coordination Sequence:
#
# PCOD8192238 Si02
#       6
#     8   8   8   8   4   8
#     4  11  21  38  60  90 125 159 205 257 317 364
#     4  11  21  38  62  87 121 161 210 257 303 367
#     4  10  21  39  66  92 120 165 211 254 309 373
#     4  11  22  39  62  91 126 165 206 258 309 367
#     4  10  22  36  60  96 128 154 202 270 314 370
#     4  10  19  37  66  91 119 161 210 256 303 369
#
# _framework density 19.763756000000001
#
# number of rings (size 3 to 8) (size 9 to 14) (size 15 to 20)
#    0.000    1.455    5.455    0.000    0.000    4.364 
#    1.636    2.727    0.000    0.000    0.000    0.000 
#    0.000    0.000    0.000    0.000    0.000    0.000 
#
# Total GULP energy -272817.414129 kJ/mol
# GULP energy per Si atom -12400.791551 kJ/mol
# Density = 1.971877 g / cm^3
# Si number density = 19.763756 Si / 1000 Ang^3
#
#
#
# Elastic Constant Matrix: (Units=GPa)
#
#
# Indices 1 2 3 4 5 6 
#
# 1 84.8786 46.6175 32.6344 0.0000 0.0000 0.0000
# 2 46.6175 137.5258 56.7257 0.0000 0.0000 0.0000
# 3 32.6344 56.7257 97.0612 0.0000 0.0000 0.0000
# 4 0.0000 0.0000 0.0000 35.5244 0.0000 0.0000
# 5 0.0000 0.0000 0.0000 0.0000 17.7912 0.0000
# 6 0.0000 0.0000 0.0000 0.0000 0.0000 29.4001
#
#
#
# Elastic Compliance Matrix: (Units=1/GPa)
#
#
# Indices 1 2 3 4 5 6 
#
# 1 0.015007 -0.003960 -0.002731 0.000000 0.000000 0.000000
# 2 -0.003960 0.010626 -0.004879 0.000000 0.000000 0.000000
# 3 -0.002731 -0.004879 0.014072 0.000000 0.000000 0.000000
# 4 0.000000 0.000000 0.000000 0.028150 0.000000 0.000000
# 5 0.000000 0.000000 0.000000 0.000000 0.056208 0.000000
# 6 0.000000 0.000000 0.000000 0.000000 0.000000 0.034014
#
#
# Mechanical properties :
#
#
# Convention : Reuss Voigt Hill
#
# Bulk Modulus (GPa) = 60.36858 65.71342 63.04100
# Shear Modulus (GPa) = 26.77552 28.77568 27.77560
#
# Velocity S-wave (km/s) = 3.68473 3.81987 3.75291
# Velocity P-wave (km/s) = 6.97957 7.26477 7.12360
#
# Compressibility (1/GPa) = 0.01656491
#
# Stress axis : x y z
#
# Youngs Moduli (GPa) = 66.63681 94.10742 71.06166
#
# Poissons Ratio (x) = 0.37270 0.19407
# Poissons Ratio (y) = 0.26391 0.34669
# Poissons Ratio (z) = 0.18199 0.45912
#
# Static dielectric constant tensor:
#      x y z
#    x 3.573770 0.000000 0.000000 
#    y 0.000000 3.608410 0.000000 
#    z 0.000000 0.000000 3.538300 
# 
# 
# High freq. dielectric constant tensor:
#      x y z
#    x 1.764570 0.000000 0.000000 
#    y 0.000000 1.758790 0.000000 
#    z 0.000000 0.000000 1.767480 
# 
# From -- ./inp_files/15785.got.cif
#   From: 2010.03.12/outbox.cif.g09.slc.cpg/sg46_8_cif.got.tgz:15785.got - 2010.04.14 02:56:35.
