data_PCOD8192206
_publ_section_title
;
Structure prediction by ZEFSAII (Michael W. Deem and Ramdas Pophale) SiO2 
 PCOD8192206
Probable space group: I M A 2
;
_chemical_formula_sum "Si O2"
_cell_formula_units_Z 48
_cell_length_a 8.721527
_cell_length_b 30.963040
_cell_length_c 9.103665
_cell_angle_alpha 90.000000
_cell_angle_beta 90.000000
_cell_angle_gamma 90.000000
_cell_volume 2458.399118
_symmetry_space_group_name_H-M "I M A 2"
_symmetry_group_IT_number 46
_symmetry_cell_setting 'orthorhombic'
loop_
_space_group_symop_operation_xyz
x,y,z
-x,-y,z
1/2-x,y,z
1/2+x,-y,z
1/2+x,1/2+y,1/2+z
1/2-x,1/2-y,1/2+z
-x,1/2+y,1/2+z
x,1/2-y,1/2+z
loop_
_atom_site_type_symbol
_atom_site_label
_atom_site_fract_x
_atom_site_fract_y
_atom_site_fract_z
Si Si1 0.068448 0.954715 0.818040
Si Si2 0.432423 0.627498 0.834163
Si Si3 0.068888 0.125053 0.652930
Si Si4 0.431491 0.709834 0.652328
Si Si5 0.932736 0.205475 0.819100
Si Si6 0.569513 0.455125 0.652330
O O1 0.250000 0.955564 0.802778
O O2 0.001771 0.919049 0.711139
O O3 0.016502 0.945283 0.985661
O O4 0.000000 0.000000 0.764572
O O5 0.250000 0.628472 0.856398
O O6 0.490397 0.667126 0.734375
O O7 0.487704 0.583483 0.756160
O O8 0.514620 0.632640 0.988173
O O9 0.250000 0.122275 0.659648
O O10 0.010630 0.163684 0.752922
O O11 0.250000 0.710571 0.655046
O O12 0.493474 0.752503 0.733136
O O13 0.490629 0.709768 0.485904
O O14 0.750000 0.200301 0.808776
O O15 0.500000 0.500000 0.710512
O O16 0.750000 0.459516 0.659007
#
# Coordination Sequence:
#
# PCOD8192206 Si02
#       6
#     8   8   8   8   8   8
#     4  10  20  38  62  87 113 145 184 231 281 334
#     4  10  20  37  58  82 111 147 188 233 279 330
#     4  12  25  38  53  80 115 154 193 230 274 329
#     4   9  18  34  62  90 110 139 186 234 283 339
#     4  10  19  36  61  87 112 143 183 232 283 337
#     4   9  19  35  59  86 112 142 181 226 278 333
#
# _framework density 19.524901
#
# number of rings (size 3 to 8) (size 9 to 14) (size 15 to 20)
#    0.000    2.000    0.000    4.000    0.000    7.333 
#    0.000    7.500    0.000    0.000    0.000    0.000 
#    0.000    0.000    0.000    0.000    0.000    0.000 
#
# Total GULP energy -297677.138598 kJ/mol
# GULP energy per Si atom -12403.214108 kJ/mol
# Density = 1.948046 g / cm^3
# Si number density = 19.524901 Si / 1000 Ang^3
#
#
#
# Elastic Constant Matrix: (Units=GPa)
#
#
# Indices 1 2 3 4 5 6 
#
# 1 58.3401 40.5748 36.9517 0.0061 0.0034 -0.0012
# 2 40.5748 166.6624 88.2384 0.0094 -0.0010 0.0006
# 3 36.9517 88.2384 152.2742 0.0297 0.0132 0.0004
# 4 0.0061 0.0094 0.0297 44.4245 0.0052 0.0003
# 5 0.0034 -0.0010 0.0132 0.0052 1.6328 0.0025
# 6 -0.0012 0.0006 0.0004 0.0003 0.0025 31.1912
#
#
#
# Elastic Compliance Matrix: (Units=1/GPa)
#
#
# Indices 1 2 3 4 5 6 
#
# 1 0.021647 -0.003591 -0.003172 0.000000 -0.000022 0.000001
# 2 -0.003591 0.009251 -0.004490 0.000002 0.000050 0.000000
# 3 -0.003172 -0.004490 0.009939 -0.000005 -0.000077 0.000000
# 4 0.000000 0.000002 -0.000005 0.022510 -0.000071 0.000000
# 5 -0.000022 0.000050 -0.000077 -0.000071 0.612458 -0.000050
# 6 0.000001 0.000000 0.000000 0.000000 -0.000050 0.032060
#
#
# Mechanical properties :
#
#
# Convention : Reuss Voigt Hill
#
# Bulk Modulus (GPa) = 54.54909 78.75628 66.65268
# Shear Modulus (GPa) = 6.78903 29.55048 18.16976
#
# Velocity S-wave (km/s) = 1.86673 3.89456 3.05387
# Velocity P-wave (km/s) = 5.71359 7.78764 6.82981
#
# Compressibility (1/GPa) = 0.01833211
#
# Stress axis : x y z
#
# Youngs Moduli (GPa) = 46.19485 108.09371 100.61870
#
# Poissons Ratio (x) = 0.38811 0.31921
# Poissons Ratio (y) = 0.16586 0.45173
# Poissons Ratio (z) = 0.14655 0.48529
#
# Static dielectric constant tensor:
#      x y z
#    x 3.309180 0.000000 0.000000 
#    y 0.000000 3.828440 -0.000010 
#    z 0.000000 -0.000010 3.776420 
# 
# 
# High freq. dielectric constant tensor:
#      x y z
#    x 1.734500 0.000000 0.000000 
#    y 0.000000 1.779830 0.000000 
#    z 0.000000 0.000000 1.770190 
# 
# From -- ./inp_files/3883.got.cif
#   From: 2010.03.12/outbox.cif.g09.slc.cpg/sg46_2_cif.got.tgz:3883.got - 2010.04.14 02:56:35.
