data_PCOD8192617
_publ_section_title
;
Structure prediction by ZEFSAII (Michael W. Deem and Ramdas Pophale) SiO2 
 PCOD8192617
Probable space group: I M A 2
;
_chemical_formula_sum "Si O2"
_cell_formula_units_Z 64
_cell_length_a 21.154837
_cell_length_b 8.853980
_cell_length_c 16.359335
_cell_angle_alpha 90.000000
_cell_angle_beta 90.000000
_cell_angle_gamma 90.000000
_cell_volume 3064.177123
_symmetry_space_group_name_H-M "I M A 2"
_symmetry_group_IT_number 46
_symmetry_cell_setting 'orthorhombic'
loop_
_space_group_symop_operation_xyz
x,y,z
-x,-y,z
1/2-x,y,z
1/2+x,-y,z
1/2+x,1/2+y,1/2+z
1/2-x,1/2-y,1/2+z
-x,1/2+y,1/2+z
x,1/2-y,1/2+z
loop_
_atom_site_type_symbol
_atom_site_label
_atom_site_fract_x
_atom_site_fract_y
_atom_site_fract_z
Si Si1 0.069275 0.863012 0.458870
Si Si2 0.818498 0.827617 0.889449
Si Si3 0.178797 0.818409 0.214124
Si Si4 0.559630 0.815300 0.392775
Si Si5 0.318498 0.172380 0.213210
Si Si6 0.821202 0.181590 0.888532
Si Si7 0.559631 0.684700 0.209881
Si Si8 0.569275 0.136988 0.643786
O O1 0.129348 0.753428 0.451583
O O2 0.066968 0.924752 0.551328
O O3 0.004723 0.770411 0.439785
O O4 0.070963 0.003750 0.395880
O O5 0.750000 0.797516 0.932775
O O6 0.878524 0.757966 0.937656
O O7 0.816736 0.750003 0.801328
O O8 0.830464 0.004215 0.881514
O O9 0.250000 0.777007 0.185625
O O10 0.163229 0.749992 0.301327
O O11 0.129347 0.746576 0.151072
O O12 0.169535 0.995783 0.221151
O O13 0.554712 0.749999 0.301328
O O14 0.250000 0.202475 0.169884
O O15 0.378524 0.242031 0.165002
O O16 0.750000 0.223000 0.917030
O O17 0.495278 0.729588 0.162872
O O18 0.570964 0.503750 0.206775
#
# Coordination Sequence:
#
# PCOD8192617 Si02
#       8
#     8   8   8   8   8   8   8   8
#     4  11  24  41  59  86 125 161 197 248 310 365
#     4   9  18  33  56  87 116 143 187 246 295 338
#     4  10  20  36  61  90 118 154 203 249 290 351
#     4  10  20  36  61  87 114 153 202 248 295 359
#     4   9  18  33  56  87 116 143 187 246 295 338
#     4  10  20  36  61  90 118 154 203 249 290 351
#     4  10  20  36  61  87 114 153 202 248 295 359
#     4  11  24  41  59  86 125 161 197 248 310 365
#
# _framework density 20.886520000000001
#
# number of rings (size 3 to 8) (size 9 to 14) (size 15 to 20)
#    0.000    2.000    0.000    5.250    0.000    8.500 
#    0.000    3.750    0.000    5.250    0.000    0.000 
#    0.000    0.000    0.000    0.000    0.000    0.000 
#
# Total GULP energy -396503.596954 kJ/mol
# GULP energy per Si atom -12390.737405 kJ/mol
# Density = 2.083898 g / cm^3
# Si number density = 20.886520 Si / 1000 Ang^3
#
#
#
# Elastic Constant Matrix: (Units=GPa)
#
#
# Indices 1 2 3 4 5 6 
#
# 1 208.7463 72.7021 40.3599 0.0000 0.0000 0.0000
# 2 72.7021 103.8985 40.0314 0.0000 0.0000 0.0000
# 3 40.3599 40.0314 71.9592 0.0000 0.0000 0.0000
# 4 0.0000 0.0000 0.0000 17.1351 0.0000 0.0000
# 5 0.0000 0.0000 0.0000 0.0000 -7.6747 0.0000
# 6 0.0000 0.0000 0.0000 0.0000 0.0000 44.9294
#
#
#
# Elastic Compliance Matrix: (Units=1/GPa)
#
#
# Indices 1 2 3 4 5 6 
#
# 1 0.006444 -0.003967 -0.001408 0.000000 0.000000 0.000000
# 2 -0.003967 0.014693 -0.005949 0.000000 0.000000 0.000000
# 3 -0.001408 -0.005949 0.017995 0.000000 0.000000 0.000000
# 4 0.000000 0.000000 0.000000 0.058360 0.000000 0.000000
# 5 0.000000 0.000000 0.000000 0.000000 -0.130297 0.000000
# 6 0.000000 0.000000 0.000000 0.000000 0.000000 0.022257
#
#
# Mechanical properties :
#
#
# Convention : Reuss Voigt Hill
#
# Bulk Modulus (GPa) = 60.65743 76.75454 68.70599
# Shear Modulus (GPa) = 284.19441 26.31198 155.25319
#
# Velocity S-wave (km/s) = 11.67739 3.55316 8.63094
# Velocity P-wave (km/s) = 14.52307 7.32539 11.50176
#
# Compressibility (1/GPa) = 0.01648603
#
# Stress axis : x y z
#
# Youngs Moduli (GPa) = 155.17650 68.06139 55.56954
#
# Poissons Ratio (x) = 0.27000 0.07822
# Poissons Ratio (y) = 0.61559 0.33056
# Poissons Ratio (z) = 0.21842 0.40487
#
# Static dielectric constant tensor:
#      x y z
#    x 4.927600 0.000000 0.000000 
#    y 0.000000 3.519290 0.000000 
#    z 0.000000 0.000000 3.266450 
# 
# 
# High freq. dielectric constant tensor:
#      x y z
#    x 1.857020 0.000000 0.000000 
#    y 0.000000 1.814490 0.000000 
#    z 0.000000 0.000000 1.766510 
# 
# From -- ./inp_files/20267.got.cif
#   From: 2010.03.12/outbox.cif.g09.slc.cpg/sg46_11_cif.got.tgz:20267.got - 2010.04.14 02:56:35.
