data_PCOD8192286
_publ_section_title
;
Structure prediction by ZEFSAII (Michael W. Deem and Ramdas Pophale) SiO2 
 PCOD8192286
Probable space group: I M A 2
;
_chemical_formula_sum "Si O2"
_cell_formula_units_Z 64
_cell_length_a 8.836856
_cell_length_b 23.336870
_cell_length_c 18.804815
_cell_angle_alpha 90.000000
_cell_angle_beta 90.000000
_cell_angle_gamma 90.000000
_cell_volume 3878.014693
_symmetry_space_group_name_H-M "I M A 2"
_symmetry_group_IT_number 46
_symmetry_cell_setting 'orthorhombic'
loop_
_space_group_symop_operation_xyz
x,y,z
-x,-y,z
1/2-x,y,z
1/2+x,-y,z
1/2+x,1/2+y,1/2+z
1/2-x,1/2-y,1/2+z
-x,1/2+y,1/2+z
x,1/2-y,1/2+z
loop_
_atom_site_type_symbol
_atom_site_label
_atom_site_fract_x
_atom_site_fract_y
_atom_site_fract_z
Si Si1 0.575949 0.273272 0.656500
Si Si2 0.425891 0.440535 0.166398
Si Si3 0.929072 0.061091 0.952907
Si Si4 0.071020 0.114185 0.813360
Si Si5 0.923901 0.263910 0.310117
Si Si6 0.425322 0.169576 0.583600
Si Si7 0.075168 0.342603 0.540484
Si Si8 0.577980 0.768446 0.445532
O O1 0.750000 0.283349 0.636435
O O2 0.548932 0.275697 0.741158
O O3 0.528671 0.210216 0.631242
O O4 0.477717 0.322601 0.618703
O O5 0.500000 0.500000 0.145037
O O6 0.250000 0.451388 0.172921
O O7 0.485944 0.416766 0.241678
O O8 0.464251 0.395615 0.103719
O O9 0.750000 0.055906 0.950023
O O10 0.987726 0.083672 0.877757
O O11 0.000000 0.000000 0.970296
O O12 0.977165 0.103417 0.016184
O O13 0.250000 0.108904 0.824751
O O14 0.030351 0.180760 0.808757
O O15 0.750000 0.283825 0.314957
O O16 0.967072 0.225642 0.378501
O O17 0.250000 0.184531 0.600772
O O18 0.457820 0.179679 0.500040
O O19 0.250000 0.360335 0.543801
O O20 0.047528 0.291438 0.485111
O O21 0.750000 0.771633 0.418497
#
# Coordination Sequence:
#
# PCOD8192286 Si02
#       8
#     8   8   8   8   8   8   8   8
#     4  10  20  32  49  74 101 131 165 207 255 302
#     4  10  21  34  50  70  97 133 173 211 249 294
#     4  12  24  37  53  73 102 137 175 215 251 298
#     4  11  21  34  50  70 100 140 178 210 247 295
#     4  11  21  31  48  75 105 135 167 206 254 304
#     4   9  18  34  50  69  95 130 168 208 251 301
#     4  10  20  35  53  74  99 132 170 210 253 301
#     4   9  18  31  51  71  96 128 165 206 251 304
#
# _framework density 16.50329
#
# number of rings (size 3 to 8) (size 9 to 14) (size 15 to 20)
#    0.000    1.750    2.500    3.750    0.000    6.000 
#    0.000    0.000    0.000    0.000    0.000    0.875 
#    0.000    4.000    0.000    0.000    0.000    0.000 
#
# Total GULP energy -396873.978422 kJ/mol
# GULP energy per Si atom -12402.311826 kJ/mol
# Density = 1.646573 g / cm^3
# Si number density = 16.503290 Si / 1000 Ang^3
#
#
#
# Elastic Constant Matrix: (Units=GPa)
#
#
# Indices 1 2 3 4 5 6 
#
# 1 83.5371 35.8776 46.9629 0.0000 0.0000 0.0000
# 2 35.8776 93.9943 55.0696 0.0000 0.0000 0.0000
# 3 46.9629 55.0696 103.7300 0.0000 0.0000 0.0000
# 4 0.0000 0.0000 0.0000 21.5513 0.0000 0.0000
# 5 0.0000 0.0000 0.0000 0.0000 26.5484 0.0000
# 6 0.0000 0.0000 0.0000 0.0000 0.0000 27.3167
#
#
#
# Elastic Compliance Matrix: (Units=1/GPa)
#
#
# Indices 1 2 3 4 5 6 
#
# 1 0.016549 -0.002797 -0.006008 0.000000 0.000000 0.000000
# 2 -0.002797 0.015915 -0.007183 0.000000 0.000000 0.000000
# 3 -0.006008 -0.007183 0.016174 0.000000 0.000000 0.000000
# 4 0.000000 0.000000 0.000000 0.046401 0.000000 0.000000
# 5 0.000000 0.000000 0.000000 0.000000 0.037667 0.000000
# 6 0.000000 0.000000 0.000000 0.000000 0.000000 0.036608
#
#
# Mechanical properties :
#
#
# Convention : Reuss Voigt Hill
#
# Bulk Modulus (GPa) = 60.01366 61.89795 60.95581
# Shear Modulus (GPa) = 24.17296 24.64003 24.40649
#
# Velocity S-wave (km/s) = 3.83134 3.86818 3.84980
# Velocity P-wave (km/s) = 7.48437 7.58540 7.53505
#
# Compressibility (1/GPa) = 0.01666287
#
# Stress axis : x y z
#
# Youngs Moduli (GPa) = 60.42505 62.83453 61.82931
#
# Poissons Ratio (x) = 0.17576 0.37145
# Poissons Ratio (y) = 0.16902 0.44410
# Poissons Ratio (z) = 0.36301 0.45132
#
# Static dielectric constant tensor:
#      x y z
#    x 3.175620 0.000000 0.000000 
#    y 0.000000 3.008870 0.000000 
#    z 0.000000 0.000000 3.224910 
# 
# 
# High freq. dielectric constant tensor:
#      x y z
#    x 1.646910 0.000000 0.000000 
#    y 0.000000 1.608510 0.000000 
#    z 0.000000 0.000000 1.630460 
# 
# From -- ./inp_files/18627.got.cif
#   From: 2010.03.12/outbox.cif.g09.slc.cpg/sg46_10_cif.got.tgz:18627.got - 2010.04.14 02:56:35.
