data_PCOD8192723
_publ_section_title
;
Structure prediction by ZEFSAII (Michael W. Deem and Ramdas Pophale) SiO2 
 PCOD8192723
Probable space group: I M A 2
;
_chemical_formula_sum "Si O2"
_cell_formula_units_Z 48
_cell_length_a 24.756647
_cell_length_b 11.512443
_cell_length_c 8.264228
_cell_angle_alpha 90.000000
_cell_angle_beta 90.000000
_cell_angle_gamma 90.000000
_cell_volume 2355.383387
_symmetry_space_group_name_H-M "I M A 2"
_symmetry_group_IT_number 46
_symmetry_cell_setting 'orthorhombic'
loop_
_space_group_symop_operation_xyz
x,y,z
-x,-y,z
1/2-x,y,z
1/2+x,-y,z
1/2+x,1/2+y,1/2+z
1/2-x,1/2-y,1/2+z
-x,1/2+y,1/2+z
x,1/2-y,1/2+z
loop_
_atom_site_type_symbol
_atom_site_label
_atom_site_fract_x
_atom_site_fract_y
_atom_site_fract_z
Si Si1 0.250000 0.404712 0.210410
Si Si2 0.250000 0.155099 0.333520
Si Si3 0.843043 0.495960 0.781195
Si Si4 0.049497 0.918091 0.177230
Si Si5 0.843811 0.442457 0.145257
Si Si6 0.583270 0.184833 0.862636
Si Si7 0.307909 0.796193 0.063708
O O1 0.250000 0.292258 0.321367
O O2 0.193360 0.469813 0.251849
O O3 0.250000 0.381424 0.019328
O O4 0.303573 0.104456 0.245431
O O5 0.899428 0.505645 0.684141
O O6 0.814441 0.378882 0.719891
O O7 0.857339 0.493458 0.970205
O O8 0.059041 0.806220 0.295157
O O9 0.041912 0.868991 0.994178
O O10 0.000000 0.000000 0.229059
O O11 0.902726 0.408933 0.222047
O O12 0.805102 0.331846 0.135211
O O13 0.641771 0.200837 0.943542
O O14 0.250000 0.824581 0.979622
#
# Coordination Sequence:
#
# PCOD8192723 Si02
#       7
#     4   4   8   8   8   8   8
#     4  10  24  35  56  82 127 176 204 241 307 384
#     4  10  22  39  54  84 131 172 204 247 305 392
#     4  10  20  38  61  88 126 164 200 254 319 378
#     4  11  23  43  66  90 125 168 213 275 328 377
#     4  11  19  35  60  90 124 152 205 257 314 369
#     4  11  22  39  62  95 128 151 212 271 314 385
#     4  11  19  30  60 101 129 157 190 250 325 383
#
# _framework density 20.378848000000001
#
# number of rings (size 3 to 8) (size 9 to 14) (size 15 to 20)
#    0.000    1.333    6.667    0.000    1.167    4.000 
#    0.000    8.333    0.000    0.000    0.000    0.000 
#    0.000    0.000    0.000    0.000    0.000    0.000 
#
# Total GULP energy -297321.799175 kJ/mol
# GULP energy per Si atom -12388.408299 kJ/mol
# Density = 2.033246 g / cm^3
# Si number density = 20.378848 Si / 1000 Ang^3
#
#
#
# Elastic Constant Matrix: (Units=GPa)
#
#
# Indices 1 2 3 4 5 6 
#
# 1 103.2383 50.5206 22.0470 0.0000 0.0000 0.0000
# 2 50.5206 97.7217 20.0035 0.0000 0.0000 0.0000
# 3 22.0470 20.0035 62.0528 0.0000 0.0000 0.0000
# 4 0.0000 0.0000 0.0000 26.2725 0.0000 0.0000
# 5 0.0000 0.0000 0.0000 0.0000 16.6669 0.0000
# 6 0.0000 0.0000 0.0000 0.0000 0.0000 39.4314
#
#
#
# Elastic Compliance Matrix: (Units=1/GPa)
#
#
# Indices 1 2 3 4 5 6 
#
# 1 0.013377 -0.006363 -0.002702 0.000000 0.000000 0.000000
# 2 -0.006363 0.013982 -0.002247 0.000000 0.000000 0.000000
# 3 -0.002702 -0.002247 0.017799 0.000000 0.000000 0.000000
# 4 0.000000 0.000000 0.000000 0.038063 0.000000 0.000000
# 5 0.000000 0.000000 0.000000 0.000000 0.059999 0.000000
# 6 0.000000 0.000000 0.000000 0.000000 0.000000 0.025361
#
#
# Mechanical properties :
#
#
# Convention : Reuss Voigt Hill
#
# Bulk Modulus (GPa) = 44.37223 49.79500 47.08362
# Shear Modulus (GPa) = 25.16162 27.83694 26.49928
#
# Velocity S-wave (km/s) = 3.51763 3.69992 3.60992
# Velocity P-wave (km/s) = 6.19025 6.53760 6.36630
#
# Compressibility (1/GPa) = 0.02253662
#
# Stress axis : x y z
#
# Youngs Moduli (GPa) = 74.75583 71.51836 56.18145
#
# Poissons Ratio (x) = 0.45504 0.15178
# Poissons Ratio (y) = 0.47564 0.12623
# Poissons Ratio (z) = 0.20197 0.16069
#
# Static dielectric constant tensor:
#      x y z
#    x 3.570090 0.000000 0.000000 
#    y 0.000000 3.690970 0.000000 
#    z 0.000000 0.000000 3.891910 
# 
# 
# High freq. dielectric constant tensor:
#      x y z
#    x 1.768910 0.000000 0.000000 
#    y 0.000000 1.776330 0.000000 
#    z 0.000000 0.000000 1.801740 
# 
# From -- ./inp_files/7858.got.cif
#   From: 2010.03.12/outbox.cif.g09.slc.cpg/sg46_4_cif.got.tgz:7858.got - 2010.04.14 02:56:35.
