data_PCOD8192040
_publ_section_title
;
Structure prediction by ZEFSAII (Michael W. Deem and Ramdas Pophale) SiO2 
 PCOD8192040
Probable space group: I M A 2
;
_chemical_formula_sum "Si O2"
_cell_formula_units_Z 64
_cell_length_a 9.027592
_cell_length_b 33.189022
_cell_length_c 11.468689
_cell_angle_alpha 90.000000
_cell_angle_beta 90.000000
_cell_angle_gamma 90.000000
_cell_volume 3436.213613
_symmetry_space_group_name_H-M "I M A 2"
_symmetry_group_IT_number 46
_symmetry_cell_setting 'orthorhombic'
loop_
_space_group_symop_operation_xyz
x,y,z
-x,-y,z
1/2-x,y,z
1/2+x,-y,z
1/2+x,1/2+y,1/2+z
1/2-x,1/2-y,1/2+z
-x,1/2+y,1/2+z
x,1/2-y,1/2+z
loop_
_atom_site_type_symbol
_atom_site_label
_atom_site_fract_x
_atom_site_fract_y
_atom_site_fract_z
Si Si1 0.080838 0.722051 0.202910
Si Si2 0.585779 0.330547 0.983040
Si Si3 0.081087 0.958715 0.451102
Si Si4 0.925729 0.880583 0.077003
Si Si5 0.577053 0.456368 0.689464
Si Si6 0.921330 0.896860 0.598671
Si Si7 0.423921 0.349030 0.323650
Si Si8 0.580236 0.311485 0.719037
O O1 0.250000 0.724266 0.245738
O O2 0.016267 0.767161 0.190664
O O3 0.997873 0.694245 0.298021
O O4 0.064043 0.705381 0.073370
O O5 0.750000 0.350403 0.999299
O O6 0.568015 0.312781 0.856867
O O7 0.458115 0.363129 0.002781
O O8 0.250000 0.966191 0.481813
O O9 0.061914 0.939008 0.322076
O O10 0.012493 0.935572 0.560412
O O11 0.000000 0.000000 0.441530
O O12 0.750000 0.885964 0.087968
O O13 0.001957 0.923340 0.105459
O O14 0.978541 0.845660 0.163418
O O15 0.973622 0.867057 0.947214
O O16 0.500000 0.500000 0.672774
O O17 0.750000 0.461094 0.656733
O O18 0.750000 0.907703 0.595419
O O19 0.973134 0.881585 0.725834
O O20 0.250000 0.341681 0.317512
O O21 0.750000 0.317387 0.676250
#
# Coordination Sequence:
#
# PCOD8192040 Si02
#       8
#     8   8   8   8   8   8   8   8
#     4   9  19  34  55  78 103 140 182 226 277 329
#     4   9  18  33  50  74 104 134 172 219 269 319
#     4  10  20  34  55  84 114 140 172 217 270 324
#     4  11  23  38  56  81 112 149 190 232 277 333
#     4  10  21  38  60  86 116 148 182 228 279 332
#     4  10  19  34  55  76 102 138 178 219 265 319
#     4   9  21  39  55  75 108 147 186 229 275 325
#     4  10  21  34  53  80 109 140 180 230 277 327
#
# _framework density 18.625150999999999
#
# number of rings (size 3 to 8) (size 9 to 14) (size 15 to 20)
#    0.000    2.250    0.000    2.250    1.750    7.000 
#    0.000    0.625    0.000    0.000    0.000    0.000 
#    0.000    0.000    0.000    0.000    0.000    0.000 
#
# Total GULP energy -396706.661604 kJ/mol
# GULP energy per Si atom -12397.083175 kJ/mol
# Density = 1.858276 g / cm^3
# Si number density = 18.625151 Si / 1000 Ang^3
#
#
#
# Elastic Constant Matrix: (Units=GPa)
#
#
# Indices 1 2 3 4 5 6 
#
# 1 83.5773 46.9098 38.4496 0.0019 -0.0006 -0.0005
# 2 46.9098 90.8089 46.6383 0.0048 0.0008 0.0016
# 3 38.4496 46.6383 82.6901 0.0080 0.0002 0.0024
# 4 0.0019 0.0048 0.0080 24.6530 0.0002 0.0017
# 5 -0.0006 0.0008 0.0002 0.0002 24.9338 0.0012
# 6 -0.0005 0.0016 0.0024 0.0017 0.0012 30.4993
#
#
#
# Elastic Compliance Matrix: (Units=1/GPa)
#
#
# Indices 1 2 3 4 5 6 
#
# 1 0.017910 -0.007003 -0.004378 0.000001 0.000001 0.000001
# 2 -0.007003 0.018241 -0.007032 -0.000001 -0.000001 -0.000001
# 3 -0.004378 -0.007032 0.018095 -0.000004 0.000000 -0.000001
# 4 0.000001 -0.000001 -0.000004 0.040563 0.000000 -0.000002
# 5 0.000001 -0.000001 0.000000 0.000000 0.040106 -0.000002
# 6 0.000001 -0.000001 -0.000001 -0.000002 -0.000002 0.032788
#
#
# Mechanical properties :
#
#
# Convention : Reuss Voigt Hill
#
# Bulk Modulus (GPa) = 57.40511 57.89687 57.65099
# Shear Modulus (GPa) = 23.77147 24.35578 24.06362
#
# Velocity S-wave (km/s) = 3.57642 3.62011 3.59833
# Velocity P-wave (km/s) = 6.92406 6.97326 6.94871
#
# Compressibility (1/GPa) = 0.01742005
#
# Stress axis : x y z
#
# Youngs Moduli (GPa) = 55.83533 54.82010 55.26372
#
# Poissons Ratio (x) = 0.38393 0.24193
# Poissons Ratio (y) = 0.39104 0.38861
# Poissons Ratio (z) = 0.24443 0.38549
#
# Static dielectric constant tensor:
#      x y z
#    x 3.521070 0.000000 0.000000 
#    y 0.000000 3.367160 0.000000 
#    z 0.000000 0.000000 3.581650 
# 
# 
# High freq. dielectric constant tensor:
#      x y z
#    x 1.724890 0.000000 0.000000 
#    y 0.000000 1.724590 0.000000 
#    z 0.000000 0.000000 1.719710 
# 
# From -- ./inp_files/9745.got.cif
#   From: 2010.03.12/outbox.cif.g09.slc.cpg/sg46_5_cif.got.tgz:9745.got - 2010.04.14 02:56:35.
