data_PCOD8192187
_publ_section_title
;
Structure prediction by ZEFSAII (Michael W. Deem and Ramdas Pophale) SiO2 
 PCOD8192187
Probable space group: I M A 2
;
_chemical_formula_sum "Si O2"
_cell_formula_units_Z 56
_cell_length_a 30.220039
_cell_length_b 16.139378
_cell_length_c 5.250451
_cell_angle_alpha 90.000000
_cell_angle_beta 90.000000
_cell_angle_gamma 90.000000
_cell_volume 2560.816289
_symmetry_space_group_name_H-M "I M A 2"
_symmetry_group_IT_number 46
_symmetry_cell_setting 'orthorhombic'
loop_
_space_group_symop_operation_xyz
x,y,z
-x,-y,z
1/2-x,y,z
1/2+x,-y,z
1/2+x,1/2+y,1/2+z
1/2-x,1/2-y,1/2+z
-x,1/2+y,1/2+z
x,1/2-y,1/2+z
loop_
_atom_site_type_symbol
_atom_site_label
_atom_site_fract_x
_atom_site_fract_y
_atom_site_fract_z
Si Si1 0.917485 0.197169 0.904400
Si Si2 0.493331 0.401320 0.418177
Si Si3 0.157721 0.938624 0.925131
Si Si4 0.141648 0.464917 0.924937
Si Si5 0.699476 0.696233 0.941388
Si Si6 0.040139 0.066474 0.419807
Si Si7 0.200384 0.786562 0.050409
O O1 0.914638 0.231487 0.617584
O O2 0.880162 0.129751 0.953728
O O3 0.962170 0.147848 0.952250
O O4 0.500000 0.500000 0.390607
O O5 0.461428 0.381170 0.658064
O O6 0.468931 0.372832 0.158611
O O7 0.161628 0.975602 0.642782
O O8 0.201388 0.884920 0.991807
O O9 0.153284 0.009064 0.137782
O O10 0.163035 0.375427 0.967018
O O11 0.088740 0.471298 0.958086
O O12 0.750000 0.661037 0.951849
O O13 0.691462 0.741872 0.674836
O O14 0.000000 0.000000 0.396625
O O15 0.250000 0.752639 0.082693
O O16 0.175971 0.762532 0.316618
#
# Coordination Sequence:
#
# PCOD8192187 Si02
#       7
#     8   8   8   8   8   8   8
#     4  12  24  40  61  89 124 167 218 261 314 382
#     4  10  20  37  59  79 112 158 204 254 312 366
#     4  12  23  38  60  92 126 159 205 263 304 358
#     4  12  24  39  67  97 122 164 214 254 316 396
#     4  10  23  46  71  96 131 168 205 266 342 400
#     4  10  19  36  58  83 117 154 192 243 305 361
#     4  10  21  38  57  80 118 166 204 243 305 361
#
# _framework density 21.868027000000001
#
# number of rings (size 3 to 8) (size 9 to 14) (size 15 to 20)
#    0.000    1.143    0.000    8.571    0.000    1.143 
#    0.000    4.286    0.000    0.000    0.000    0.000 
#    0.000    0.000    0.000    0.000    0.000    0.000 
#
# Total GULP energy -347027.653105 kJ/mol
# GULP energy per Si atom -12393.844754 kJ/mol
# Density = 2.181825 g / cm^3
# Si number density = 21.868027 Si / 1000 Ang^3
#
#
#
# Elastic Constant Matrix: (Units=GPa)
#
#
# Indices 1 2 3 4 5 6 
#
# 1 58.2395 23.7623 15.8650 -0.0004 0.0000 0.0000
# 2 23.7623 70.6701 16.2130 -0.0002 -0.0001 0.0000
# 3 15.8650 16.2130 155.0848 -0.0013 -0.0002 0.0002
# 4 -0.0004 -0.0002 -0.0013 39.2233 0.0000 0.0000
# 5 0.0000 -0.0001 -0.0002 0.0000 3.3157 0.0001
# 6 0.0000 0.0000 0.0002 0.0000 0.0001 30.6831
#
#
#
# Elastic Compliance Matrix: (Units=1/GPa)
#
#
# Indices 1 2 3 4 5 6 
#
# 1 0.020188 -0.006470 -0.001389 0.000000 0.000000 0.000000
# 2 -0.006470 0.016571 -0.001071 0.000000 0.000000 0.000000
# 3 -0.001389 -0.001071 0.006702 0.000000 0.000000 0.000000
# 4 0.000000 0.000000 0.000000 0.025495 0.000000 0.000000
# 5 0.000000 0.000000 0.000000 0.000000 0.301594 0.000000
# 6 0.000000 0.000000 0.000000 0.000000 0.000000 0.032591
#
#
# Mechanical properties :
#
#
# Convention : Reuss Voigt Hill
#
# Bulk Modulus (GPa) = 39.05691 43.96387 41.51039
# Shear Modulus (GPa) = 11.64052 29.85471 20.74762
#
# Velocity S-wave (km/s) = 2.30968 3.69890 3.08354
# Velocity P-wave (km/s) = 5.00119 6.19599 5.63037
#
# Compressibility (1/GPa) = 0.02560366
#
# Stress axis : x y z
#
# Youngs Moduli (GPa) = 49.53325 60.34566 149.20717
#
# Poissons Ratio (x) = 0.39041 0.20724
# Poissons Ratio (y) = 0.32046 0.15974
# Poissons Ratio (z) = 0.06880 0.06460
#
# Static dielectric constant tensor:
#      x y z
#    x 4.769880 0.000000 0.000000 
#    y 0.000000 3.930800 0.000000 
#    z 0.000000 0.000000 5.288270 
# 
# 
# High freq. dielectric constant tensor:
#      x y z
#    x 1.856620 0.000000 0.000000 
#    y 0.000000 1.829840 0.000000 
#    z 0.000000 0.000000 1.900070 
# 
# From -- ./inp_files/2726.got.cif
#   From: 2010.03.12/outbox.cif.g09.slc.cpg/sg46_2_cif.got.tgz:2726.got - 2010.04.14 02:56:35.
