data_PCOD8192431
_publ_section_title
;
Structure prediction by ZEFSAII (Michael W. Deem and Ramdas Pophale) SiO2 
 PCOD8192431
Probable space group: I M A 2
;
_chemical_formula_sum "Si O2"
_cell_formula_units_Z 64
_cell_length_a 9.058185
_cell_length_b 18.942849
_cell_length_c 18.641549
_cell_angle_alpha 90.000000
_cell_angle_beta 90.000000
_cell_angle_gamma 90.000000
_cell_volume 3198.662953
_symmetry_space_group_name_H-M "I M A 2"
_symmetry_group_IT_number 46
_symmetry_cell_setting 'orthorhombic'
loop_
_space_group_symop_operation_xyz
x,y,z
-x,-y,z
1/2-x,y,z
1/2+x,-y,z
1/2+x,1/2+y,1/2+z
1/2-x,1/2-y,1/2+z
-x,1/2+y,1/2+z
x,1/2-y,1/2+z
loop_
_atom_site_type_symbol
_atom_site_label
_atom_site_fract_x
_atom_site_fract_y
_atom_site_fract_z
Si Si1 0.419542 0.927614 0.482200
Si Si2 0.425357 0.790771 0.917868
Si Si3 0.575502 0.068505 0.843890
Si Si4 0.581236 0.150814 0.340997
Si Si5 0.423329 0.809689 0.081312
Si Si6 0.574952 0.076513 0.197219
Si Si7 0.086591 0.060570 0.697280
Si Si8 0.913295 0.823341 0.582848
O O1 0.250000 0.934586 0.506228
O O2 0.433704 0.913215 0.397426
O O3 0.488945 0.860173 0.521756
O O4 0.500000 0.000000 0.501968
O O5 0.250000 0.783801 0.918705
O O6 0.483842 0.860207 0.878928
O O7 0.492398 0.721907 0.876046
O O8 0.480617 0.803174 0.999254
O O9 0.750000 0.062212 0.851984
O O10 0.524668 0.073327 0.762341
O O11 0.500000 0.000000 0.881290
O O12 0.750000 0.170151 0.325598
O O13 0.513698 0.122767 0.265315
O O14 0.250000 0.797459 0.087388
O O15 0.465254 0.881902 0.123258
O O16 0.508076 0.744700 0.117476
O O17 0.750000 0.065144 0.204653
O O18 0.500000 0.000000 0.194694
O O19 0.250000 0.035942 0.723557
O O20 0.104418 0.129017 0.651562
O O21 0.000000 0.000000 0.651140
O O22 0.750000 0.806699 0.551472
#
# Coordination Sequence:
#
# PCOD8192431 Si02
#       8
#     8   8   8   8   8   8   8   8
#     4  11  21  35  58  83 116 155 192 238 289 349
#     4   9  18  35  58  85 113 147 193 242 286 342
#     4  10  20  34  57  82 111 146 186 233 284 341
#     4   9  18  35  58  86 117 149 193 244 289 347
#     4  10  21  39  62  85 112 153 199 238 286 346
#     4  10  22  39  63  90 118 156 201 245 297 356
#     4  10  21  36  53  77 112 146 183 226 275 334
#     4  11  23  37  54  82 117 151 190 238 289 344
#
# _framework density 20.008358999999999
#
# number of rings (size 3 to 8) (size 9 to 14) (size 15 to 20)
#    0.000    2.000    1.250    3.000    1.750    4.000 
#    0.000    1.875    0.000    0.000    0.000    0.000 
#    0.000    0.000    0.000    0.000    0.000    0.000 
#
# Total GULP energy -396511.995346 kJ/mol
# GULP energy per Si atom -12390.999855 kJ/mol
# Density = 1.996282 g / cm^3
# Si number density = 20.008359 Si / 1000 Ang^3
#
#
#
# Elastic Constant Matrix: (Units=GPa)
#
#
# Indices 1 2 3 4 5 6 
#
# 1 82.3939 50.9168 29.6413 0.0000 0.0000 0.0000
# 2 50.9168 155.6030 66.2544 0.0000 0.0000 0.0000
# 3 29.6413 66.2544 89.2381 0.0000 0.0000 0.0000
# 4 0.0000 0.0000 0.0000 30.0173 0.0000 0.0000
# 5 0.0000 0.0000 0.0000 0.0000 11.4985 0.0000
# 6 0.0000 0.0000 0.0000 0.0000 0.0000 33.4791
#
#
#
# Elastic Compliance Matrix: (Units=1/GPa)
#
#
# Indices 1 2 3 4 5 6 
#
# 1 0.015457 -0.004199 -0.002016 0.000000 0.000000 0.000000
# 2 -0.004199 0.010538 -0.006429 0.000000 0.000000 0.000000
# 3 -0.002016 -0.006429 0.016649 0.000000 0.000000 0.000000
# 4 0.000000 0.000000 0.000000 0.033314 0.000000 0.000000
# 5 0.000000 0.000000 0.000000 0.000000 0.086968 0.000000
# 6 0.000000 0.000000 0.000000 0.000000 0.000000 0.029869
#
#
# Mechanical properties :
#
#
# Convention : Reuss Voigt Hill
#
# Bulk Modulus (GPa) = 57.62185 68.98446 63.30315
# Shear Modulus (GPa) = 22.33427 27.02713 24.68070
#
# Velocity S-wave (km/s) = 3.34465 3.67930 3.51596
# Velocity P-wave (km/s) = 6.61642 7.25275 6.94188
#
# Compressibility (1/GPa) = 0.01735453
#
# Stress axis : x y z
#
# Youngs Moduli (GPa) = 64.69412 94.89237 60.06321
#
# Poissons Ratio (x) = 0.39849 0.12112
# Poissons Ratio (y) = 0.27168 0.38616
# Poissons Ratio (z) = 0.13046 0.61008
#
# Static dielectric constant tensor:
#      x y z
#    x 3.870830 0.000000 0.000000 
#    y 0.000000 4.117200 0.000000 
#    z 0.000000 0.000000 3.665330 
# 
# 
# High freq. dielectric constant tensor:
#      x y z
#    x 1.759480 0.000000 0.000000 
#    y 0.000000 1.791430 0.000000 
#    z 0.000000 0.000000 1.776680 
# 
# From -- ./inp_files/21281.got.cif
#   From: 2010.03.12/outbox.cif.g09.slc.cpg/sg46_11_cif.got.tgz:21281.got - 2010.04.14 02:56:35.
