data_PCOD8192223
_publ_section_title
;
Structure prediction by ZEFSAII (Michael W. Deem and Ramdas Pophale) SiO2 
 PCOD8192223
Probable space group: I M A 2
;
_chemical_formula_sum "Si O2"
_cell_formula_units_Z 48
_cell_length_a 15.121788
_cell_length_b 16.469273
_cell_length_c 9.747884
_cell_angle_alpha 90.000000
_cell_angle_beta 90.000000
_cell_angle_gamma 90.000000
_cell_volume 2427.660356
_symmetry_space_group_name_H-M "I M A 2"
_symmetry_group_IT_number 46
_symmetry_cell_setting 'orthorhombic'
loop_
_space_group_symop_operation_xyz
x,y,z
-x,-y,z
1/2-x,y,z
1/2+x,-y,z
1/2+x,1/2+y,1/2+z
1/2-x,1/2-y,1/2+z
-x,1/2+y,1/2+z
x,1/2-y,1/2+z
loop_
_atom_site_type_symbol
_atom_site_label
_atom_site_fract_x
_atom_site_fract_y
_atom_site_fract_z
Si Si1 0.656525 0.171921 0.114590
Si Si2 0.968882 0.589800 0.033561
Si Si3 0.473211 0.088197 0.047024
Si Si4 0.441902 0.194667 0.801761
Si Si5 0.897048 0.206649 0.400054
Si Si6 0.853548 0.634346 0.793714
O O1 0.750000 0.128716 0.070282
O O2 0.567544 0.124824 0.085570
O O3 0.668880 0.184054 0.277746
O O4 0.653317 0.256423 0.030480
O O5 0.941530 0.642784 0.163989
O O6 0.000000 0.500000 0.077473
O O7 0.882452 0.592095 0.936280
O O8 0.049509 0.628336 0.949983
O O9 0.408704 0.087571 0.176898
O O10 0.500000 0.000000 0.993169
O O11 0.419466 0.136451 0.929925
O O12 0.539040 0.228306 0.827382
O O13 0.372474 0.268741 0.791822
O O14 0.750000 0.619806 0.770710
#
# Coordination Sequence:
#
# PCOD8192223 Si02
#       6
#     8   8   8   8   8   8
#     4  11  21  36  61  86 116 155 200 242 293 361
#     4  11  21  38  62  89 122 157 196 251 311 360
#     4  11  23  40  60  91 124 159 195 251 313 360
#     4  10  20  39  64  83 118 160 205 242 298 359
#     4  10  19  37  57  87 114 153 195 243 293 353
#     4  11  23  40  65  92 122 163 212 255 298 361
#
# _framework density 19.772123000000001
#
# number of rings (size 3 to 8) (size 9 to 14) (size 15 to 20)
#    0.000    1.333    5.000    3.500    0.000    3.333 
#    0.000    0.833    0.000    2.000    0.000    0.000 
#    0.000    0.000    0.000    0.000    0.000    0.000 
#
# Total GULP energy -297430.707291 kJ/mol
# GULP energy per Si atom -12392.946137 kJ/mol
# Density = 1.972712 g / cm^3
# Si number density = 19.772123 Si / 1000 Ang^3
#
#
#
# Elastic Constant Matrix: (Units=GPa)
#
#
# Indices 1 2 3 4 5 6 
#
# 1 120.9776 6.1452 16.1654 0.0000 0.0000 0.0000
# 2 6.1452 77.3164 10.9814 0.0000 0.0000 0.0000
# 3 16.1654 10.9814 89.6802 0.0000 0.0000 0.0000
# 4 0.0000 0.0000 0.0000 23.4425 0.0000 0.0000
# 5 0.0000 0.0000 0.0000 0.0000 -6.7591 0.0000
# 6 0.0000 0.0000 0.0000 0.0000 0.0000 5.8443
#
#
#
# Elastic Compliance Matrix: (Units=1/GPa)
#
#
# Indices 1 2 3 4 5 6 
#
# 1 0.008486 -0.000465 -0.001473 0.000000 0.000000 0.000000
# 2 -0.000465 0.013188 -0.001531 0.000000 0.000000 0.000000
# 3 -0.001473 -0.001531 0.011604 0.000000 0.000000 0.000000
# 4 0.000000 0.000000 0.000000 0.042658 0.000000 0.000000
# 5 0.000000 0.000000 0.000000 0.000000 -0.147949 0.000000
# 6 0.000000 0.000000 0.000000 0.000000 0.000000 0.171106
#
#
# Mechanical properties :
#
#
# Convention : Reuss Voigt Hill
#
# Bulk Modulus (GPa) = 37.96481 39.39534 38.68008
# Shear Modulus (GPa) = 43.54956 21.48436 32.51696
#
# Velocity S-wave (km/s) = 4.69825 3.29994 4.05975
# Velocity P-wave (km/s) = 6.97669 5.87260 6.44832
#
# Compressibility (1/GPa) = 0.02634018
#
# Stress axis : x y z
#
# Youngs Moduli (GPa) = 117.83531 75.82475 86.17951
#
# Poissons Ratio (x) = 0.03528 0.12692
# Poissons Ratio (y) = 0.05483 0.13194
# Poissons Ratio (z) = 0.17354 0.11609
#
# Static dielectric constant tensor:
#      x y z
#    x 3.492480 0.000000 0.000000 
#    y 0.000000 3.842630 0.000000 
#    z 0.000000 0.000000 3.935550 
# 
# 
# High freq. dielectric constant tensor:
#      x y z
#    x 1.759000 0.000000 0.000000 
#    y 0.000000 1.756380 0.000000 
#    z 0.000000 0.000000 1.786660 
# 
# From -- ./inp_files/5703.got.cif
#   From: 2010.03.12/outbox.cif.g09.slc.cpg/sg46_3_cif.got.tgz:5703.got - 2010.04.14 02:56:35.
