data_PCOD8192067
_publ_section_title
;
Structure prediction by ZEFSAII (Michael W. Deem and Ramdas Pophale) SiO2 
 PCOD8192067
Probable space group: I M A 2
;
_chemical_formula_sum "Si O2"
_cell_formula_units_Z 64
_cell_length_a 8.688946
_cell_length_b 20.685405
_cell_length_c 19.481576
_cell_angle_alpha 90.000000
_cell_angle_beta 90.000000
_cell_angle_gamma 90.000000
_cell_volume 3501.508731
_symmetry_space_group_name_H-M "I M A 2"
_symmetry_group_IT_number 46
_symmetry_cell_setting 'orthorhombic'
loop_
_space_group_symop_operation_xyz
x,y,z
-x,-y,z
1/2-x,y,z
1/2+x,-y,z
1/2+x,1/2+y,1/2+z
1/2-x,1/2-y,1/2+z
-x,1/2+y,1/2+z
x,1/2-y,1/2+z
loop_
_atom_site_type_symbol
_atom_site_label
_atom_site_fract_x
_atom_site_fract_y
_atom_site_fract_z
Si Si1 0.067978 0.933318 0.468680
Si Si2 0.428784 0.617253 0.247013
Si Si3 0.930618 0.618060 0.103709
Si Si4 0.931475 0.184254 0.966853
Si Si5 0.432401 0.809975 0.387576
Si Si6 0.927688 0.267809 0.741281
Si Si7 0.928879 0.767813 0.100397
Si Si8 0.067988 0.432705 0.384982
O O1 0.250000 0.935936 0.465182
O O2 0.001350 0.875087 0.421856
O O3 0.015599 0.924130 0.546792
O O4 0.000000 0.000000 0.439386
O O5 0.250000 0.599636 0.243451
O O6 0.509566 0.594073 0.177205
O O7 0.455355 0.693077 0.259281
O O8 0.505380 0.579156 0.308872
O O9 0.750000 0.606323 0.098498
O O10 0.974875 0.692858 0.092536
O O11 0.750000 0.175924 0.956192
O O12 0.997028 0.247577 0.927809
O O13 0.015805 0.122104 0.937516
O O14 0.971635 0.190705 0.047082
O O15 0.250000 0.808292 0.393826
O O16 0.482242 0.808183 0.307847
O O17 0.750000 0.280453 0.723345
O O18 0.029301 0.291056 0.677129
O O19 0.750000 0.779733 0.086722
O O20 0.250000 0.435999 0.382936
O O21 0.000000 0.500000 0.412629
#
# Coordination Sequence:
#
# PCOD8192067 Si02
#       8
#     8   8   8   8   8   8   8   8
#     4  11  22  37  55  79 111 150 190 233 281 335
#     4  10  19  34  56  81 111 148 188 229 275 332
#     4  10  20  34  52  79 114 150 189 231 276 331
#     4  11  20  37  61  85 110 147 190 232 280 334
#     4   9  18  34  58  83 108 142 187 230 278 334
#     4   9  17  33  56  82 109 143 184 228 275 333
#     4  10  20  33  52  85 118 144 179 231 283 330
#     4  12  25  40  57  82 115 151 188 232 281 334
#
# _framework density 18.277835
#
# number of rings (size 3 to 8) (size 9 to 14) (size 15 to 20)
#    0.000    1.750    2.500    3.000    0.000    2.000 
#    0.000    3.750    0.000    0.750    0.000    3.500 
#    0.000    0.000    0.000    0.000    0.000    0.000 
#
# Total GULP energy -396929.051826 kJ/mol
# GULP energy per Si atom -12404.032870 kJ/mol
# Density = 1.823623 g / cm^3
# Si number density = 18.277835 Si / 1000 Ang^3
#
#
#
# Elastic Constant Matrix: (Units=GPa)
#
#
# Indices 1 2 3 4 5 6 
#
# 1 54.5658 22.4628 13.1453 0.0000 0.0000 0.0000
# 2 22.4628 102.2571 47.8475 0.0000 0.0000 0.0000
# 3 13.1453 47.8475 92.4261 0.0001 0.0000 0.0000
# 4 0.0000 0.0000 0.0001 24.1818 0.0000 0.0000
# 5 0.0000 0.0000 0.0000 0.0000 29.7089 0.0000
# 6 0.0000 0.0000 0.0000 0.0000 0.0000 26.4228
#
#
#
# Elastic Compliance Matrix: (Units=1/GPa)
#
#
# Indices 1 2 3 4 5 6 
#
# 1 0.020189 -0.004080 -0.000759 0.000000 0.000000 0.000000
# 2 -0.004080 0.013730 -0.006527 0.000000 0.000000 0.000000
# 3 -0.000759 -0.006527 0.014307 0.000000 0.000000 0.000000
# 4 0.000000 0.000000 0.000000 0.041353 0.000000 0.000000
# 5 0.000000 0.000000 0.000000 0.000000 0.033660 0.000000
# 6 0.000000 0.000000 0.000000 0.000000 0.000000 0.037846
#
#
# Mechanical properties :
#
#
# Convention : Reuss Voigt Hill
#
# Bulk Modulus (GPa) = 39.22746 46.24003 42.73375
# Shear Modulus (GPa) = 25.99903 27.11560 26.55732
#
# Velocity S-wave (km/s) = 3.77561 3.85583 3.81593
# Velocity P-wave (km/s) = 6.36517 6.72135 6.54568
#
# Compressibility (1/GPa) = 0.02549234
#
# Stress axis : x y z
#
# Youngs Moduli (GPa) = 49.53230 72.83484 69.89766
#
# Poissons Ratio (x) = 0.29713 0.05308
# Poissons Ratio (y) = 0.20207 0.45625
# Poissons Ratio (z) = 0.03762 0.47543
#
# Static dielectric constant tensor:
#      x y z
#    x 3.299980 0.000000 0.000000 
#    y 0.000000 3.335670 0.000000 
#    z 0.000000 0.000000 3.439070 
# 
# 
# High freq. dielectric constant tensor:
#      x y z
#    x 1.708590 0.000000 0.000000 
#    y 0.000000 1.687480 0.000000 
#    z 0.000000 0.000000 1.711280 
# 
# From -- ./inp_files/18562.got.cif
#   From: 2010.03.12/outbox.cif.g09.slc.cpg/sg46_10_cif.got.tgz:18562.got - 2010.04.14 02:56:35.
