data_PCOD8192758
_publ_section_title
;
Structure prediction by ZEFSAII (Michael W. Deem and Ramdas Pophale) SiO2 
 PCOD8192758
Probable space group: I M A 2
;
_chemical_formula_sum "Si O2"
_cell_formula_units_Z 64
_cell_length_a 21.159397
_cell_length_b 10.040001
_cell_length_c 14.273094
_cell_angle_alpha 90.000000
_cell_angle_beta 90.000000
_cell_angle_gamma 90.000000
_cell_volume 3032.181328
_symmetry_space_group_name_H-M "I M A 2"
_symmetry_group_IT_number 46
_symmetry_cell_setting 'orthorhombic'
loop_
_space_group_symop_operation_xyz
x,y,z
-x,-y,z
1/2-x,y,z
1/2+x,-y,z
1/2+x,1/2+y,1/2+z
1/2-x,1/2-y,1/2+z
-x,1/2+y,1/2+z
x,1/2-y,1/2+z
loop_
_atom_site_type_symbol
_atom_site_label
_atom_site_fract_x
_atom_site_fract_y
_atom_site_fract_z
Si Si1 0.411987 0.132771 0.907300
Si Si2 0.323175 0.520117 0.144421
Si Si3 0.323018 0.215773 0.157650
Si Si4 0.819850 0.847363 0.374132
Si Si5 0.623839 0.137998 0.830593
Si Si6 0.175520 0.878258 0.449507
Si Si7 0.956520 0.876528 0.100717
Si Si8 0.003669 0.347159 0.234500
O O1 0.358940 0.240599 0.934922
O O2 0.439656 0.174428 0.806989
O O3 0.382481 0.986958 0.899465
O O4 0.465000 0.132449 0.988408
O O5 0.250000 0.505711 0.128491
O O6 0.348558 0.367683 0.143777
O O7 0.334209 0.598257 0.240884
O O8 0.351630 0.603456 0.055974
O O9 0.250000 0.190937 0.118389
O O10 0.319254 0.190350 0.267008
O O11 0.379382 0.117136 0.118966
O O12 0.750000 0.842170 0.418069
O O13 0.847661 0.994808 0.389040
O O14 0.651936 0.248538 0.897452
O O15 0.558593 0.193138 0.790382
O O16 0.250000 0.865909 0.452317
O O17 0.986472 0.745285 0.145532
O O18 0.000000 0.000000 0.137489
O O19 0.000000 0.500000 0.199503
#
# Coordination Sequence:
#
# PCOD8192758 Si02
#       8
#     8   8   8   8   8   8   8   8
#     4  11  23  43  64  91 123 170 226 265 320 397
#     4  10  20  39  66  93 129 177 225 269 330 405
#     4  10  20  40  68  95 124 172 225 272 329 400
#     4  10  20  38  67  95 124 160 215 274 325 385
#     4  11  22  39  66  88 128 175 218 262 335 406
#     4  10  23  39  60  98 133 161 209 276 333 391
#     4  12  25  41  65  96 137 166 212 287 340 393
#     4  10  23  43  63  86 121 173 222 263 327 407
#
# _framework density 21.106918
#
# number of rings (size 3 to 8) (size 9 to 14) (size 15 to 20)
#    0.000    1.500    2.500    3.000    1.750    4.000 
#    0.000    0.625    0.000    0.000    0.000    0.000 
#    0.000    0.000    0.000    0.000    0.000    0.000 
#
# Total GULP energy -396566.828354 kJ/mol
# GULP energy per Si atom -12392.713386 kJ/mol
# Density = 2.105888 g / cm^3
# Si number density = 21.106918 Si / 1000 Ang^3
#
#
#
# Elastic Constant Matrix: (Units=GPa)
#
#
# Indices 1 2 3 4 5 6 
#
# 1 67.1604 54.9012 27.5084 0.0000 0.0000 0.0000
# 2 54.9012 134.9015 91.2281 0.0000 0.0000 0.0000
# 3 27.5084 91.2281 116.0210 0.0000 0.0000 0.0000
# 4 0.0000 0.0000 0.0000 32.4268 0.0000 0.0000
# 5 0.0000 0.0000 0.0000 0.0000 -3.8750 0.0000
# 6 0.0000 0.0000 0.0000 0.0000 0.0000 33.0434
#
#
#
# Elastic Compliance Matrix: (Units=1/GPa)
#
#
# Indices 1 2 3 4 5 6 
#
# 1 0.023194 -0.012217 0.004107 0.000000 0.000000 0.000000
# 2 -0.012217 0.022265 -0.014611 0.000000 0.000000 0.000000
# 3 0.004107 -0.014611 0.019134 0.000000 0.000000 0.000000
# 4 0.000000 0.000000 0.000000 0.030839 0.000000 0.000000
# 5 0.000000 0.000000 0.000000 0.000000 -0.258064 0.000000
# 6 0.000000 0.000000 0.000000 0.000000 0.000000 0.030263
#
#
# Mechanical properties :
#
#
# Convention : Reuss Voigt Hill
#
# Bulk Modulus (GPa) = 52.21353 73.92870 63.07112
# Shear Modulus (GPa) = -62.07893 21.94872 -20.06510
#
# Velocity S-wave (km/s) = -5.42913 3.22822 -3.08659
# Velocity P-wave (km/s) = 3.80911 6.99979 4.15257
#
# Compressibility (1/GPa) = 0.01915212
#
# Stress axis : x y z
#
# Youngs Moduli (GPa) = 43.11398 44.91295 52.26297
#
# Poissons Ratio (x) = 0.54868 -0.21463
# Poissons Ratio (y) = 0.52671 0.76360
# Poissons Ratio (z) = -0.17705 0.65621
#
# Static dielectric constant tensor:
#      x y z
#    x 4.140040 0.000000 0.000000 
#    y 0.000000 3.845930 0.000000 
#    z 0.000000 0.000000 3.905180 
# 
# 
# High freq. dielectric constant tensor:
#      x y z
#    x 1.828050 0.000000 0.000000 
#    y 0.000000 1.817060 0.000000 
#    z 0.000000 0.000000 1.836850 
# 
# From -- ./inp_files/17409.got.cif
#   From: 2010.03.12/outbox.cif.g09.slc.cpg/sg46_9_cif.got.tgz:17409.got - 2010.04.14 02:56:35.
