data_PCOD8192126
_publ_section_title
;
Structure prediction by ZEFSAII (Michael W. Deem and Ramdas Pophale) SiO2 
 PCOD8192126
Probable space group: I M A 2
;
_chemical_formula_sum "Si O2"
_cell_formula_units_Z 48
_cell_length_a 16.650845
_cell_length_b 9.071022
_cell_length_c 16.381001
_cell_angle_alpha 90.000000
_cell_angle_beta 90.000000
_cell_angle_gamma 90.000000
_cell_volume 2474.189361
_symmetry_space_group_name_H-M "I M A 2"
_symmetry_group_IT_number 46
_symmetry_cell_setting 'orthorhombic'
loop_
_space_group_symop_operation_xyz
x,y,z
-x,-y,z
1/2-x,y,z
1/2+x,-y,z
1/2+x,1/2+y,1/2+z
1/2-x,1/2-y,1/2+z
-x,1/2+y,1/2+z
x,1/2-y,1/2+z
loop_
_atom_site_type_symbol
_atom_site_label
_atom_site_fract_x
_atom_site_fract_y
_atom_site_fract_z
Si Si1 0.655655 0.413630 0.319210
Si Si2 0.410000 0.447993 0.476192
Si Si3 0.338527 0.810119 0.072892
Si Si4 0.844613 0.634302 0.001369
Si Si5 0.409056 0.960700 0.648468
Si Si6 0.838253 0.363339 0.905506
O O1 0.750000 0.403330 0.300921
O O2 0.642722 0.519685 0.396320
O O3 0.610914 0.488367 0.243121
O O4 0.620458 0.246486 0.338931
O O5 0.500000 0.500000 0.458098
O O6 0.378062 0.530322 0.557558
O O7 0.402271 0.274793 0.494464
O O8 0.250000 0.829550 0.112189
O O9 0.393482 0.712931 0.132770
O O10 0.331213 0.732718 0.986414
O O11 0.750000 0.671488 0.989179
O O12 0.853118 0.561023 0.090750
O O13 0.878194 0.519704 0.931217
O O14 0.500000 0.000000 0.629034
O O15 0.750000 0.402159 0.872610
#
# Coordination Sequence:
#
# PCOD8192126 Si02
#       6
#     8   8   8   8   8   8
#     4  10  19  35  55  76 105 147 188 226 276 341
#     4  11  21  34  54  82 113 143 181 235 286 328
#     4   9  17  33  53  73  99 142 187 220 266 338
#     4  10  19  35  57  82 109 144 187 231 274 330
#     4  11  21  34  54  82 113 144 184 237 282 320
#     4   7  14  29  52  75  96 128 179 223 256 311
#
# _framework density 19.400293000000001
#
# number of rings (size 3 to 8) (size 9 to 14) (size 15 to 20)
#    0.000    2.333    0.000    6.500    0.000    0.000 
#    0.000    1.667    0.000    4.000    0.000    0.000 
#    0.000    0.000    0.000    0.000    0.000    0.000 
#
# Total GULP energy -297354.043902 kJ/mol
# GULP energy per Si atom -12389.751829 kJ/mol
# Density = 1.935614 g / cm^3
# Si number density = 19.400293 Si / 1000 Ang^3
#
#
#
# Elastic Constant Matrix: (Units=GPa)
#
#
# Indices 1 2 3 4 5 6 
#
# 1 72.3584 16.7685 7.5946 0.0000 0.0000 0.0000
# 2 16.7685 127.0055 29.1350 0.0000 0.0000 0.0000
# 3 7.5946 29.1350 68.6157 0.0000 0.0000 0.0000
# 4 0.0000 0.0000 0.0000 19.5012 0.0000 0.0000
# 5 0.0000 0.0000 0.0000 0.0000 18.7806 0.0000
# 6 0.0000 0.0000 0.0000 0.0000 0.0000 27.7085
#
#
#
# Elastic Compliance Matrix: (Units=1/GPa)
#
#
# Indices 1 2 3 4 5 6 
#
# 1 0.014303 -0.001690 -0.000866 0.000000 0.000000 0.000000
# 2 -0.001690 0.008923 -0.003602 0.000000 0.000000 0.000000
# 3 -0.000866 -0.003602 0.016199 0.000000 0.000000 0.000000
# 4 0.000000 0.000000 0.000000 0.051279 0.000000 0.000000
# 5 0.000000 0.000000 0.000000 0.000000 0.053247 0.000000
# 6 0.000000 0.000000 0.000000 0.000000 0.000000 0.036090
#
#
# Mechanical properties :
#
#
# Convention : Reuss Voigt Hill
#
# Bulk Modulus (GPa) = 36.88622 41.66397 39.27510
# Shear Modulus (GPa) = 24.82729 27.49681 26.16205
#
# Velocity S-wave (km/s) = 3.58122 3.76884 3.67623
# Velocity P-wave (km/s) = 6.01288 6.36093 6.18935
#
# Compressibility (1/GPa) = 0.02711039
#
# Stress axis : x y z
#
# Youngs Moduli (GPa) = 69.91769 112.06960 61.73189
#
# Poissons Ratio (x) = 0.18938 0.05343
# Poissons Ratio (y) = 0.11815 0.22235
# Poissons Ratio (z) = 0.06052 0.40365
#
# Static dielectric constant tensor:
#      x y z
#    x 3.386930 0.000000 0.000000 
#    y 0.000000 3.729000 0.000000 
#    z 0.000000 0.000000 3.414830 
# 
# 
# High freq. dielectric constant tensor:
#      x y z
#    x 1.742840 0.000000 0.000000 
#    y 0.000000 1.752150 0.000000 
#    z 0.000000 0.000000 1.729460 
# 
# From -- ./inp_files/16501.got.cif
#   From: 2010.03.12/outbox.cif.g09.slc.cpg/sg46_9_cif.got.tgz:16501.got - 2010.04.14 02:56:35.
