data_PCOD8192237
_publ_section_title
;
Structure prediction by ZEFSAII (Michael W. Deem and Ramdas Pophale) SiO2 
 PCOD8192237
Probable space group: I M A 2
;
_chemical_formula_sum "Si O2"
_cell_formula_units_Z 64
_cell_length_a 16.872690
_cell_length_b 9.303644
_cell_length_c 19.298330
_cell_angle_alpha 90.000000
_cell_angle_beta 90.000000
_cell_angle_gamma 90.000000
_cell_volume 3029.403618
_symmetry_space_group_name_H-M "I M A 2"
_symmetry_group_IT_number 46
_symmetry_cell_setting 'orthorhombic'
loop_
_space_group_symop_operation_xyz
x,y,z
-x,-y,z
1/2-x,y,z
1/2+x,-y,z
1/2+x,1/2+y,1/2+z
1/2-x,1/2-y,1/2+z
-x,1/2+y,1/2+z
x,1/2-y,1/2+z
loop_
_atom_site_type_symbol
_atom_site_label
_atom_site_fract_x
_atom_site_fract_y
_atom_site_fract_z
Si Si1 0.342513 0.796490 0.882120
Si Si2 0.344243 0.213135 0.239757
Si Si3 0.343560 0.028855 0.365273
Si Si4 0.342995 0.957099 0.742378
Si Si5 0.656967 0.896271 0.513300
Si Si6 0.928893 0.112588 0.021097
Si Si7 0.157436 0.374985 0.592841
Si Si8 0.927161 0.392454 0.107216
O O1 0.250000 0.808072 0.903840
O O2 0.363950 0.637952 0.855160
O O3 0.363033 0.901233 0.818860
O O4 0.397370 0.836101 0.946956
O O5 0.250000 0.204593 0.243223
O O6 0.371714 0.378093 0.240878
O O7 0.378330 0.140146 0.170040
O O8 0.381468 0.124193 0.303823
O O9 0.250000 0.051873 0.366260
O O10 0.381620 0.083114 0.437466
O O11 0.250000 0.940860 0.726090
O O12 0.391415 0.867870 0.684207
O O13 0.750000 0.882390 0.505130
O O14 0.620028 0.750944 0.545145
O O15 0.640782 0.034646 0.560592
O O16 0.953809 0.244263 0.070812
O O17 0.858668 0.030252 0.061025
O O18 0.000000 0.000000 0.011704
O O19 0.250000 0.348005 0.597983
O O20 0.000000 0.500000 0.110501
#
# Coordination Sequence:
#
# PCOD8192237 Si02
#       8
#     8   8   8   8   8   8   8   8
#     4  10  22  41  65  97 127 159 208 263 323 383
#     4   9  18  34  58  93 127 156 197 253 315 377
#     4   9  18  33  58  92 128 158 195 253 315 376
#     4  10  22  40  68  99 127 160 205 262 323 384
#     4  10  19  37  65  93 121 159 211 263 316 377
#     4  12  27  43  62  89 132 172 218 263 317 372
#     4  10  21  37  63  95 125 160 209 264 319 374
#     4  12  25  43  65  87 125 172 219 260 312 371
#
# _framework density 21.126270999999999
#
# number of rings (size 3 to 8) (size 9 to 14) (size 15 to 20)
#    0.000    1.750    2.500    1.500    3.500    2.000 
#    0.000    0.000    0.000    1.500    0.000    0.000 
#    0.000    0.000    0.000    0.000    0.000    0.000 
#
# Total GULP energy -396775.358932 kJ/mol
# GULP energy per Si atom -12399.229967 kJ/mol
# Density = 2.107819 g / cm^3
# Si number density = 21.126271 Si / 1000 Ang^3
#
#
#
# Elastic Constant Matrix: (Units=GPa)
#
#
# Indices 1 2 3 4 5 6 
#
# 1 33.7031 34.9024 31.8361 0.0000 0.0000 0.0000
# 2 34.9024 107.2276 63.9096 0.0000 0.0000 0.0000
# 3 31.8361 63.9096 154.0637 0.0000 0.0000 0.0000
# 4 0.0000 0.0000 0.0000 42.8082 0.0000 0.0000
# 5 0.0000 0.0000 0.0000 0.0000 14.4912 0.0000
# 6 0.0000 0.0000 0.0000 0.0000 0.0000 15.2084
#
#
#
# Elastic Compliance Matrix: (Units=1/GPa)
#
#
# Indices 1 2 3 4 5 6 
#
# 1 0.046964 -0.012624 -0.004468 0.000000 0.000000 0.000000
# 2 -0.012624 0.015782 -0.003938 0.000000 0.000000 0.000000
# 3 -0.004468 -0.003938 0.009048 0.000000 0.000000 0.000000
# 4 0.000000 0.000000 0.000000 0.023360 0.000000 0.000000
# 5 0.000000 0.000000 0.000000 0.000000 0.069008 0.000000
# 6 0.000000 0.000000 0.000000 0.000000 0.000000 0.065753
#
#
# Mechanical properties :
#
#
# Convention : Reuss Voigt Hill
#
# Bulk Modulus (GPa) = 33.63139 61.81005 47.72072
# Shear Modulus (GPa) = 17.73761 25.45798 21.59779
#
# Velocity S-wave (km/s) = 2.90073 3.47513 3.20084
# Velocity P-wave (km/s) = 5.21275 6.73966 6.02477
#
# Compressibility (1/GPa) = 0.02973413
#
# Stress axis : x y z
#
# Youngs Moduli (GPa) = 21.29271 63.36240 110.52349
#
# Poissons Ratio (x) = 0.79987 0.49384
# Poissons Ratio (y) = 0.26879 0.43527
# Poissons Ratio (z) = 0.09514 0.24954
#
# Static dielectric constant tensor:
#      x y z
#    x 3.432320 0.000000 0.000000 
#    y 0.000000 3.965220 0.000000 
#    z 0.000000 0.000000 4.190500 
# 
# 
# High freq. dielectric constant tensor:
#      x y z
#    x 1.795020 0.000000 0.000000 
#    y 0.000000 1.832420 0.000000 
#    z 0.000000 0.000000 1.843330 
# 
# From -- ./inp_files/20240.got.cif
#   From: 2010.03.12/outbox.cif.g09.slc.cpg/sg46_11_cif.got.tgz:20240.got - 2010.04.14 02:56:35.
