data_PCOD8192982
_publ_section_title
;
Structure prediction by ZEFSAII (Michael W. Deem and Ramdas Pophale) SiO2 
 PCOD8192982
Probable space group: I M A 2
;
_chemical_formula_sum "Si O2"
_cell_formula_units_Z 64
_cell_length_a 13.280665
_cell_length_b 9.763816
_cell_length_c 22.232087
_cell_angle_alpha 90.000000
_cell_angle_beta 90.000000
_cell_angle_gamma 90.000000
_cell_volume 2882.834041
_symmetry_space_group_name_H-M "I M A 2"
_symmetry_group_IT_number 46
_symmetry_cell_setting 'orthorhombic'
loop_
_space_group_symop_operation_xyz
x,y,z
-x,-y,z
1/2-x,y,z
1/2+x,-y,z
1/2+x,1/2+y,1/2+z
1/2-x,1/2-y,1/2+z
-x,1/2+y,1/2+z
x,1/2-y,1/2+z
loop_
_atom_site_type_symbol
_atom_site_label
_atom_site_fract_x
_atom_site_fract_y
_atom_site_fract_z
Si Si1 0.981857 0.646501 0.013280
Si Si2 0.370587 0.418625 0.322515
Si Si3 0.131195 0.388907 0.457236
Si Si4 0.863699 0.802969 0.232626
Si Si5 0.631293 0.126893 0.047557
Si Si6 0.129156 0.582664 0.684205
Si Si7 0.369808 0.867467 0.728726
Si Si8 0.863370 0.918050 0.631946
O O1 0.932506 0.605033 0.075599
O O2 0.000000 0.500000 0.979414
O O3 0.084448 0.729802 0.025528
O O4 0.907967 0.739130 0.974040
O O5 0.250000 0.413679 0.317714
O O6 0.409213 0.424488 0.390637
O O7 0.414271 0.284969 0.286884
O O8 0.409415 0.558177 0.289564
O O9 0.250000 0.381114 0.457677
O O10 0.093642 0.504582 0.503765
O O11 0.750000 0.837238 0.252172
O O12 0.864600 0.716983 0.171882
O O13 0.917720 0.947426 0.216257
O O14 0.750000 0.146787 0.043543
O O15 0.595245 0.089237 0.114658
O O16 0.250000 0.580488 0.686368
O O17 0.085270 0.714483 0.720740
O O18 0.250000 0.861905 0.730372
O O19 0.404498 0.953102 0.670371
O O20 0.750000 0.948308 0.609816
#
# Coordination Sequence:
#
# PCOD8192982 Si02
#       8
#     8   8   8   8   8   8   8   8
#     4  12  24  36  56  84 116 149 188 239 292 340
#     4   8  15  30  52  77 104 141 186 225 268 329
#     4  10  21  39  61  82 110 152 198 236 278 338
#     4   8  14  26  50  82 111 140 177 221 270 328
#     4  10  22  39  59  84 115 153 194 235 279 336
#     4   9  15  26  48  80 113 139 172 225 282 328
#     4   8  14  26  49  80 113 146 179 219 270 331
#     4   9  17  32  54  81 114 150 184 218 269 340
#
# _framework density 22.200377
#
# number of rings (size 3 to 8) (size 9 to 14) (size 15 to 20)
#    0.000    2.750    0.000    3.750    0.000    4.000 
#    0.000    1.250    0.000   19.500    0.000    0.000 
#    0.000    0.000    0.000    0.000    0.000    0.000 
#
# Total GULP energy -396715.909558 kJ/mol
# GULP energy per Si atom -12397.372174 kJ/mol
# Density = 2.214985 g / cm^3
# Si number density = 22.200377 Si / 1000 Ang^3
#
#
#
# Elastic Constant Matrix: (Units=GPa)
#
#
# Indices 1 2 3 4 5 6 
#
# 1 29.0604 30.0709 14.2753 0.0000 0.0000 0.0000
# 2 30.0709 218.5400 86.3174 0.0000 0.0000 0.0000
# 3 14.2753 86.3174 148.3868 0.0000 0.0000 0.0000
# 4 0.0000 0.0000 0.0000 15.2442 0.0000 0.0000
# 5 0.0000 0.0000 0.0000 0.0000 -2.4420 0.0000
# 6 0.0000 0.0000 0.0000 0.0000 0.0000 35.3517
#
#
#
# Elastic Compliance Matrix: (Units=1/GPa)
#
#
# Indices 1 2 3 4 5 6 
#
# 1 0.040205 -0.005199 -0.000844 0.000000 0.000000 0.000000
# 2 -0.005199 0.006613 -0.003347 0.000000 0.000000 0.000000
# 3 -0.000844 -0.003347 0.008767 0.000000 0.000000 0.000000
# 4 0.000000 0.000000 0.000000 0.065599 0.000000 0.000000
# 5 0.000000 0.000000 0.000000 0.000000 -0.409501 0.000000
# 6 0.000000 0.000000 0.000000 0.000000 0.000000 0.028287
#
#
# Mechanical properties :
#
#
# Convention : Reuss Voigt Hill
#
# Bulk Modulus (GPa) = 27.16883 73.03493 50.10188
# Shear Modulus (GPa) = -21.83573 27.31902 2.74165
#
# Velocity S-wave (km/s) = -3.13960 3.51175 1.11249
# Velocity P-wave (km/s) = 0.93714 7.02941 4.92618
#
# Compressibility (1/GPa) = 0.03680689
#
# Stress axis : x y z
#
# Youngs Moduli (GPa) = 24.87232 151.21610 114.06296
#
# Poissons Ratio (x) = 0.78618 0.09622
# Poissons Ratio (y) = 0.12931 0.38173
# Poissons Ratio (z) = 0.02098 0.50607
#
# Static dielectric constant tensor:
#      x y z
#    x 3.995230 0.000000 0.000000 
#    y 0.000000 4.611510 0.000000 
#    z 0.000000 0.000000 3.954010 
# 
# 
# High freq. dielectric constant tensor:
#      x y z
#    x 1.892560 0.000000 0.000000 
#    y 0.000000 1.880970 0.000000 
#    z 0.000000 0.000000 1.842000 
# 
# From -- ./inp_files/23679.got.cif
#   From: 2010.03.12/outbox.cif.g09.slc.cpg/sg46_12_cif.got.tgz:23679.got - 2010.04.14 02:56:35.
