data_PCOD8192566
_publ_section_title
;
Structure prediction by ZEFSAII (Michael W. Deem and Ramdas Pophale) SiO2 
 PCOD8192566
Probable space group: I M A 2
;
_chemical_formula_sum "Si O2"
_cell_formula_units_Z 48
_cell_length_a 8.661431
_cell_length_b 9.162284
_cell_length_c 30.704404
_cell_angle_alpha 90.000000
_cell_angle_beta 90.000000
_cell_angle_gamma 90.000000
_cell_volume 2436.655158
_symmetry_space_group_name_H-M "I M A 2"
_symmetry_group_IT_number 46
_symmetry_cell_setting 'orthorhombic'
loop_
_space_group_symop_operation_xyz
x,y,z
-x,-y,z
1/2-x,y,z
1/2+x,-y,z
1/2+x,1/2+y,1/2+z
1/2-x,1/2-y,1/2+z
-x,1/2+y,1/2+z
x,1/2-y,1/2+z
loop_
_atom_site_type_symbol
_atom_site_label
_atom_site_fract_x
_atom_site_fract_y
_atom_site_fract_z
Si Si1 0.933138 0.339795 0.737090
Si Si2 0.068005 0.840186 0.819891
Si Si3 0.568326 0.158855 0.654832
Si Si4 0.433218 0.342808 0.479884
Si Si5 0.566868 0.341611 0.903629
Si Si6 0.566952 0.345321 0.572754
O O1 0.750000 0.350338 0.737243
O O2 0.994981 0.250631 0.778755
O O3 0.995348 0.259791 0.693774
O O4 0.000000 0.500000 0.738905
O O5 0.250000 0.852969 0.817636
O O6 0.014658 0.760693 0.863885
O O7 0.000000 0.000000 0.818850
O O8 0.750000 0.146436 0.658484
O O9 0.518727 0.227242 0.608743
O O10 0.500000 0.000000 0.659587
O O11 0.500000 0.500000 0.466167
O O12 0.250000 0.351563 0.479084
O O13 0.492415 0.219696 0.447461
O O14 0.490751 0.296144 0.527565
O O15 0.500000 0.500000 0.894031
O O16 0.750000 0.349055 0.908760
O O17 0.500000 0.500000 0.588135
O O18 0.750000 0.358692 0.566838
#
# Coordination Sequence:
#
# PCOD8192566 Si02
#       6
#     8   8   8   8   8   8
#     4  10  21  38  58  85 115 147 186 229 275 329
#     4  10  22  38  59  85 115 148 187 230 277 331
#     4  10  22  37  56  82 114 148 187 230 276 330
#     4  11  22  38  60  85 113 149 189 235 285 338
#     4  11  23  39  58  84 115 150 190 234 282 337
#     4  10  20  36  57  83 112 146 188 234 280 335
#
# _framework density 19.699135999999999
#
# number of rings (size 3 to 8) (size 9 to 14) (size 15 to 20)
#    0.000    1.667    0.000    5.500    0.000    6.000 
#    0.000    1.667    0.000    0.000    0.000    0.000 
#    0.000    0.000    0.000    0.000    0.000    0.000 
#
# Total GULP energy -297709.548161 kJ/mol
# GULP energy per Si atom -12404.564507 kJ/mol
# Density = 1.965430 g / cm^3
# Si number density = 19.699136 Si / 1000 Ang^3
#
#
#
# Elastic Constant Matrix: (Units=GPa)
#
#
# Indices 1 2 3 4 5 6 
#
# 1 75.8151 46.4672 50.0116 0.0000 0.0000 0.0000
# 2 46.4672 181.3349 98.0976 0.0000 0.0000 0.0000
# 3 50.0116 98.0976 143.1392 0.0000 0.0000 0.0000
# 4 0.0000 0.0000 0.0000 49.4630 0.0000 0.0000
# 5 0.0000 0.0000 0.0000 0.0000 9.1035 0.0000
# 6 0.0000 0.0000 0.0000 0.0000 0.0000 40.5355
#
#
#
# Elastic Compliance Matrix: (Units=1/GPa)
#
#
# Indices 1 2 3 4 5 6 
#
# 1 0.017532 -0.001873 -0.004842 0.000000 0.000000 0.000000
# 2 -0.001873 0.008964 -0.005489 0.000000 0.000000 0.000000
# 3 -0.004842 -0.005489 0.012439 0.000000 0.000000 0.000000
# 4 0.000000 0.000000 0.000000 0.020217 0.000000 0.000000
# 5 0.000000 0.000000 0.000000 0.000000 0.109848 0.000000
# 6 0.000000 0.000000 0.000000 0.000000 0.000000 0.024670
#
#
# Mechanical properties :
#
#
# Convention : Reuss Voigt Hill
#
# Bulk Modulus (GPa) = 68.83323 87.71580 78.27451
# Shear Modulus (GPa) = 22.42953 33.53459 27.98206
#
# Velocity S-wave (km/s) = 3.37798 4.13042 3.77300
# Velocity P-wave (km/s) = 7.08749 8.20802 7.66825
#
# Compressibility (1/GPa) = 0.01452787
#
# Stress axis : x y z
#
# Youngs Moduli (GPa) = 57.03864 111.55744 80.38942
#
# Poissons Ratio (x) = 0.20899 0.38922
# Poissons Ratio (y) = 0.10685 0.44124
# Poissons Ratio (z) = 0.27616 0.61231
#
# Static dielectric constant tensor:
#      x y z
#    x 3.556670 0.000000 0.000000 
#    y 0.000000 3.490220 0.000000 
#    z 0.000000 0.000000 3.933430 
# 
# 
# High freq. dielectric constant tensor:
#      x y z
#    x 1.767900 0.000000 0.000000 
#    y 0.000000 1.775460 0.000000 
#    z 0.000000 0.000000 1.786760 
# 
# From -- ./inp_files/24986.got.cif
#   From: 2010.03.12/outbox.cif.g09.slc.cpg/sg46_13_cif.got.tgz:24986.got - 2010.04.14 02:56:35.
