data_PCOD8192959
_publ_section_title
;
Structure prediction by ZEFSAII (Michael W. Deem and Ramdas Pophale) SiO2 
 PCOD8192959
Probable space group: I M A 2
;
_chemical_formula_sum "Si O2"
_cell_formula_units_Z 64
_cell_length_a 23.135650
_cell_length_b 9.067582
_cell_length_c 14.071175
_cell_angle_alpha 90.000000
_cell_angle_beta 90.000000
_cell_angle_gamma 90.000000
_cell_volume 2951.913054
_symmetry_space_group_name_H-M "I M A 2"
_symmetry_group_IT_number 46
_symmetry_cell_setting 'orthorhombic'
loop_
_space_group_symop_operation_xyz
x,y,z
-x,-y,z
1/2-x,y,z
1/2+x,-y,z
1/2+x,1/2+y,1/2+z
1/2-x,1/2-y,1/2+z
-x,1/2+y,1/2+z
x,1/2-y,1/2+z
loop_
_atom_site_type_symbol
_atom_site_label
_atom_site_fract_x
_atom_site_fract_y
_atom_site_fract_z
Si Si1 0.090140 0.375618 0.550320
Si Si2 0.516337 0.169880 0.554830
Si Si3 0.590141 0.875619 0.270622
Si Si4 0.816275 0.862071 0.769247
Si Si5 0.183725 0.137931 0.551694
Si Si6 0.620682 0.100598 0.893330
Si Si7 0.879316 0.100598 0.427612
Si Si8 0.983664 0.330120 0.266114
O O1 0.083865 0.422673 0.660471
O O2 0.149707 0.288536 0.532490
O O3 0.092919 0.521799 0.486081
O O4 0.037219 0.270419 0.518146
O O5 0.570088 0.181764 0.486339
O O6 0.533215 0.223155 0.660472
O O7 0.500000 0.000000 0.557172
O O8 0.649709 0.788538 0.288450
O O9 0.537221 0.770418 0.302796
O O10 0.592920 0.021799 0.334862
O O11 0.750000 0.830945 0.795021
O O12 0.824383 0.912567 0.660470
O O13 0.840743 0.990557 0.833883
O O14 0.250000 0.169064 0.525922
O O15 0.159260 0.009442 0.487057
O O16 0.659009 0.249999 0.910471
O O17 0.570086 0.181768 0.834606
O O18 0.000000 0.500000 0.263771
#
# Coordination Sequence:
#
# PCOD8192959 Si02
#       8
#     8   8   8   8   8   8   8   8
#     4  10  23  42  63  92 126 163 207 257 307 366
#     4  10  21  38  62  90 123 159 204 255 307 363
#     4  10  23  42  63  92 126 163 207 257 307 366
#     4  10  22  43  68  90 117 159 211 262 312 366
#     4  10  22  43  68  90 117 159 211 262 312 366
#     4  12  26  37  63  93 130 166 206 250 309 375
#     4  12  26  37  63  93 130 166 206 250 309 375
#     4  10  21  38  62  90 123 159 204 255 307 363
#
# _framework density 21.680855000000001
#
# number of rings (size 3 to 8) (size 9 to 14) (size 15 to 20)
#    0.000    1.500    2.500    1.500    3.500    4.500 
#    0.000    2.500    0.000    3.000    0.000    0.000 
#    0.000    0.000    0.000    0.000    0.000    0.000 
#
# Total GULP energy -396675.032746 kJ/mol
# GULP energy per Si atom -12396.094773 kJ/mol
# Density = 2.163151 g / cm^3
# Si number density = 21.680855 Si / 1000 Ang^3
#
#
#
# Elastic Constant Matrix: (Units=GPa)
#
#
# Indices 1 2 3 4 5 6 
#
# 1 107.3381 30.7922 43.9458 0.0000 0.0000 0.0000
# 2 30.7922 131.0110 61.2957 0.0000 0.0000 0.0000
# 3 43.9458 61.2957 98.1626 0.0000 0.0000 0.0000
# 4 0.0000 0.0000 0.0000 16.9764 0.0000 0.0000
# 5 0.0000 0.0000 0.0000 0.0000 6.9113 0.0000
# 6 0.0000 0.0000 0.0000 0.0000 0.0000 4.0526
#
#
#
# Elastic Compliance Matrix: (Units=1/GPa)
#
#
# Indices 1 2 3 4 5 6 
#
# 1 0.011423 -0.000413 -0.004856 0.000000 0.000000 0.000000
# 2 -0.000413 0.010798 -0.006558 0.000000 0.000000 0.000000
# 3 -0.004856 -0.006558 0.016456 0.000000 0.000000 0.000000
# 4 0.000000 0.000000 0.000000 0.058905 0.000000 0.000000
# 5 0.000000 0.000000 0.000000 0.000000 0.144692 0.000000
# 6 0.000000 0.000000 0.000000 0.000000 0.000000 0.246755
#
#
# Mechanical properties :
#
#
# Convention : Reuss Voigt Hill
#
# Bulk Modulus (GPa) = 66.56172 67.61990 67.09081
# Shear Modulus (GPa) = 9.65828 18.95326 14.30577
#
# Velocity S-wave (km/s) = 2.11292 2.95988 2.57151
# Velocity P-wave (km/s) = 6.05969 6.55269 6.31101
#
# Compressibility (1/GPa) = 0.01502365
#
# Stress axis : x y z
#
# Youngs Moduli (GPa) = 87.54322 92.60796 60.76755
#
# Poissons Ratio (x) = 0.03823 0.29509
# Poissons Ratio (y) = 0.03614 0.39851
# Poissons Ratio (z) = 0.42512 0.60732
#
# Static dielectric constant tensor:
#      x y z
#    x 3.834680 0.000000 0.000000 
#    y 0.000000 4.182450 0.000000 
#    z 0.000000 0.000000 4.289440 
# 
# 
# High freq. dielectric constant tensor:
#      x y z
#    x 1.830730 0.000000 0.000000 
#    y 0.000000 1.862480 0.000000 
#    z 0.000000 0.000000 1.873530 
# 
# From -- ./inp_files/17427.got.cif
#   From: 2010.03.12/outbox.cif.g09.slc.cpg/sg46_9_cif.got.tgz:17427.got - 2010.04.14 02:56:35.
