data_PCOD8192973
_publ_section_title
;
Structure prediction by ZEFSAII (Michael W. Deem and Ramdas Pophale) SiO2 
 PCOD8192973
Probable space group: I M A 2
;
_chemical_formula_sum "Si O2"
_cell_formula_units_Z 40
_cell_length_a 15.868555
_cell_length_b 5.119071
_cell_length_c 24.474947
_cell_angle_alpha 90.000000
_cell_angle_beta 90.000000
_cell_angle_gamma 90.000000
_cell_volume 1988.155251
_symmetry_space_group_name_H-M "I M A 2"
_symmetry_group_IT_number 46
_symmetry_cell_setting 'orthorhombic'
loop_
_space_group_symop_operation_xyz
x,y,z
-x,-y,z
1/2-x,y,z
1/2+x,-y,z
1/2+x,1/2+y,1/2+z
1/2-x,1/2-y,1/2+z
-x,1/2+y,1/2+z
x,1/2-y,1/2+z
loop_
_atom_site_type_symbol
_atom_site_label
_atom_site_fract_x
_atom_site_fract_y
_atom_site_fract_z
Si Si1 0.595518 0.553386 0.502420
Si Si2 0.399467 0.490583 0.190078
Si Si3 0.750000 0.043807 0.773858
Si Si4 0.901082 0.008399 0.121859
Si Si5 0.841380 0.449221 0.948887
Si Si6 0.750000 0.541626 0.845356
O O1 0.500000 0.500000 0.513972
O O2 0.641168 0.527089 0.561710
O O3 0.631152 0.348226 0.458760
O O4 0.597984 0.843480 0.477554
O O5 0.500000 0.500000 0.206232
O O6 0.338133 0.512615 0.241833
O O7 0.372570 0.221292 0.161930
O O8 0.374241 0.716969 0.147717
O O9 0.750000 0.336872 0.796469
O O10 0.750000 0.834681 0.822681
O O11 0.000000 0.000000 0.115419
O O12 0.750000 0.492643 0.976406
O O13 0.833466 0.497408 0.883388
#
# Coordination Sequence:
#
# PCOD8192973 Si02
#       6
#     8   8   4   8   8   4
#     4  11  20  37  63  91 122 160 199 235 294 371
#     4  10  21  39  59  87 121 153 196 244 295 354
#     4  12  22  42  63  86 107 162 204 250 304 358
#     4   9  19  36  57  84 126 157 179 235 297 347
#     4  10  22  40  58  84 117 167 187 245 310 347
#     4  10  24  42  61  74 123 152 190 256 316 336
#
# _framework density 20.119154000000002
#
# number of rings (size 3 to 8) (size 9 to 14) (size 15 to 20)
#    0.600    1.200    0.000    4.800    0.000    3.200 
#   10.800    6.000    0.000    0.000    0.000    0.000 
#    0.000    0.000    0.000    0.000    0.000    0.000 
#
# Total GULP energy -247866.546625 kJ/mol
# GULP energy per Si atom -12393.327331 kJ/mol
# Density = 2.007336 g / cm^3
# Si number density = 20.119154 Si / 1000 Ang^3
#
#
#
# Elastic Constant Matrix: (Units=GPa)
#
#
# Indices 1 2 3 4 5 6 
#
# 1 57.0868 10.6429 29.1893 0.0000 0.0000 0.0000
# 2 10.6429 88.9211 13.9227 0.0000 0.0000 0.0000
# 3 29.1893 13.9227 97.6398 0.0000 0.0000 0.0000
# 4 0.0000 0.0000 0.0000 125.8613 0.0000 0.0000
# 5 0.0000 0.0000 0.0000 0.0000 14.8453 0.0000
# 6 0.0000 0.0000 0.0000 0.0000 0.0000 25.3528
#
#
#
# Elastic Compliance Matrix: (Units=1/GPa)
#
#
# Indices 1 2 3 4 5 6 
#
# 1 0.020887 -0.001557 -0.006022 0.000000 0.000000 0.000000
# 2 -0.001557 0.011619 -0.001191 0.000000 0.000000 0.000000
# 3 -0.006022 -0.001191 0.012212 0.000000 0.000000 0.000000
# 4 0.000000 0.000000 0.000000 0.007945 0.000000 0.000000
# 5 0.000000 0.000000 0.000000 0.000000 0.067362 0.000000
# 6 0.000000 0.000000 0.000000 0.000000 0.000000 0.039443
#
#
# Mechanical properties :
#
#
# Convention : Reuss Voigt Hill
#
# Bulk Modulus (GPa) = 36.79627 39.01749 37.90688
# Shear Modulus (GPa) = 26.87204 45.87138 36.37171
#
# Velocity S-wave (km/s) = 3.65861 4.78010 4.25645
# Velocity P-wave (km/s) = 6.01466 7.06407 6.56038
#
# Compressibility (1/GPa) = 0.02717667
#
# Stress axis : x y z
#
# Youngs Moduli (GPa) = 47.87757 86.06736 81.88760
#
# Poissons Ratio (x) = 0.13401 0.49313
# Poissons Ratio (y) = 0.07455 0.09755
# Poissons Ratio (z) = 0.28832 0.10253
#
# Static dielectric constant tensor:
#      x y z
#    x 3.941730 0.000000 0.000000 
#    y 0.000000 4.184380 0.000000 
#    z 0.000000 0.000000 3.640580 
# 
# 
# High freq. dielectric constant tensor:
#      x y z
#    x 1.766350 0.000000 0.000000 
#    y 0.000000 1.803450 0.000000 
#    z 0.000000 0.000000 1.781980 
# 
# From -- ./inp_files/23567.got.cif
#   From: 2010.03.12/outbox.cif.g09.slc.cpg/sg46_12_cif.got.tgz:23567.got - 2010.04.14 02:56:35.
