data_PCOD8192705
_publ_section_title
;
Structure prediction by ZEFSAII (Michael W. Deem and Ramdas Pophale) SiO2 
 PCOD8192705
Probable space group: I M A 2
;
_chemical_formula_sum "Si O2"
_cell_formula_units_Z 48
_cell_length_a 16.009791
_cell_length_b 10.130703
_cell_length_c 13.905354
_cell_angle_alpha 90.000000
_cell_angle_beta 90.000000
_cell_angle_gamma 90.000000
_cell_volume 2255.315452
_symmetry_space_group_name_H-M "I M A 2"
_symmetry_group_IT_number 46
_symmetry_cell_setting 'orthorhombic'
loop_
_space_group_symop_operation_xyz
x,y,z
-x,-y,z
1/2-x,y,z
1/2+x,-y,z
1/2+x,1/2+y,1/2+z
1/2-x,1/2-y,1/2+z
-x,1/2+y,1/2+z
x,1/2-y,1/2+z
loop_
_atom_site_type_symbol
_atom_site_label
_atom_site_fract_x
_atom_site_fract_y
_atom_site_fract_z
Si Si1 0.592987 0.150292 0.556940
Si Si2 0.347879 0.458373 0.785871
Si Si3 0.844201 0.386169 0.447366
Si Si4 0.593223 0.869141 0.487340
Si Si5 0.651122 0.264775 0.256094
Si Si6 0.154337 0.388861 0.577858
O O1 0.655962 0.249174 0.505075
O O2 0.501447 0.168020 0.512047
O O3 0.594175 0.187051 0.668640
O O4 0.623880 0.001074 0.541356
O O5 0.250000 0.431499 0.802066
O O6 0.397391 0.387746 0.872686
O O7 0.367957 0.613690 0.783695
O O8 0.382663 0.393882 0.686220
O O9 0.750000 0.431909 0.431020
O O10 0.881959 0.359048 0.342109
O O11 0.890615 0.502130 0.508108
O O12 0.650248 0.753018 0.528589
O O13 0.750000 0.281836 0.234545
O O14 0.250000 0.433133 0.590244
#
# Coordination Sequence:
#
# PCOD8192705 Si02
#       6
#     8   8   8   8   8   8
#     4  11  23  40  59  90 128 167 216 253 315 389
#     4  10  20  39  67  93 121 167 219 262 315 380
#     4  10  20  38  64  92 120 160 219 272 312 371
#     4  11  25  40  58  92 133 170 205 259 331 391
#     4  10  20  37  68  96 119 165 223 273 310 368
#     4  10  22  40  63  95 128 159 210 271 325 379
#
# _framework density 21.283055000000001
#
# number of rings (size 3 to 8) (size 9 to 14) (size 15 to 20)
#    0.000    1.667    3.333    1.000    0.000    5.333 
#    0.000    5.000    0.000    0.000    0.000    0.000 
#    0.000    0.000    0.000    0.000    0.000    0.000 
#
# Total GULP energy -297529.846250 kJ/mol
# GULP energy per Si atom -12397.076927 kJ/mol
# Density = 2.123461 g / cm^3
# Si number density = 21.283055 Si / 1000 Ang^3
#
#
#
# Elastic Constant Matrix: (Units=GPa)
#
#
# Indices 1 2 3 4 5 6 
#
# 1 35.1405 24.9981 44.9452 0.0000 0.0000 0.0000
# 2 24.9981 116.3854 68.8379 0.0000 0.0000 0.0000
# 3 44.9452 68.8379 223.1861 0.0000 0.0000 0.0000
# 4 0.0000 0.0000 0.0000 46.4314 0.0000 0.0000
# 5 0.0000 0.0000 0.0000 0.0000 31.6888 0.0000
# 6 0.0000 0.0000 0.0000 0.0000 0.0000 18.3649
#
#
#
# Elastic Compliance Matrix: (Units=1/GPa)
#
#
# Indices 1 2 3 4 5 6 
#
# 1 0.040345 -0.004721 -0.006668 0.000000 0.000000 0.000000
# 2 -0.004721 0.011062 -0.002461 0.000000 0.000000 0.000000
# 3 -0.006668 -0.002461 0.006583 0.000000 0.000000 0.000000
# 4 0.000000 0.000000 0.000000 0.021537 0.000000 0.000000
# 5 0.000000 0.000000 0.000000 0.000000 0.031557 0.000000
# 6 0.000000 0.000000 0.000000 0.000000 0.000000 0.054452
#
#
# Mechanical properties :
#
#
# Convention : Reuss Voigt Hill
#
# Bulk Modulus (GPa) = 33.01689 72.47493 52.74591
# Shear Modulus (GPa) = 24.59026 35.02574 29.80800
#
# Velocity S-wave (km/s) = 3.40279 4.06114 3.74645
# Velocity P-wave (km/s) = 5.56647 7.49114 6.59935
#
# Compressibility (1/GPa) = 0.03028753
#
# Stress axis : x y z
#
# Youngs Moduli (GPa) = 24.78628 90.40066 151.91760
#
# Poissons Ratio (x) = 0.42682 1.01305
# Poissons Ratio (y) = 0.11703 0.37388
# Poissons Ratio (z) = 0.16529 0.22248
#
# Static dielectric constant tensor:
#      x y z
#    x 3.426770 0.000000 0.000000 
#    y 0.000000 3.837620 0.000000 
#    z 0.000000 0.000000 4.211280 
# 
# 
# High freq. dielectric constant tensor:
#      x y z
#    x 1.802640 0.000000 0.000000 
#    y 0.000000 1.833060 0.000000 
#    z 0.000000 0.000000 1.854480 
# 
# From -- ./inp_files/15863.got.cif
#   From: 2010.03.12/outbox.cif.g09.slc.cpg/sg46_8_cif.got.tgz:15863.got - 2010.04.14 02:56:35.
