data_PCOD8192227
_publ_section_title
;
Structure prediction by ZEFSAII (Michael W. Deem and Ramdas Pophale) SiO2 
 PCOD8192227
Probable space group: I M A 2
;
_chemical_formula_sum "Si O2"
_cell_formula_units_Z 56
_cell_length_a 17.770848
_cell_length_b 8.853814
_cell_length_c 15.396791
_cell_angle_alpha 90.000000
_cell_angle_beta 90.000000
_cell_angle_gamma 90.000000
_cell_volume 2422.527752
_symmetry_space_group_name_H-M "I M A 2"
_symmetry_group_IT_number 46
_symmetry_cell_setting 'orthorhombic'
loop_
_space_group_symop_operation_xyz
x,y,z
-x,-y,z
1/2-x,y,z
1/2+x,-y,z
1/2+x,1/2+y,1/2+z
1/2-x,1/2-y,1/2+z
-x,1/2+y,1/2+z
x,1/2-y,1/2+z
loop_
_atom_site_type_symbol
_atom_site_label
_atom_site_fract_x
_atom_site_fract_y
_atom_site_fract_z
Si Si1 0.336188 0.645924 0.686570
Si Si2 0.336018 0.333800 0.751765
Si Si3 0.335620 0.643949 0.480954
Si Si4 0.941414 0.392540 0.151899
Si Si5 0.023557 0.831059 0.470982
Si Si6 0.835776 0.637873 0.097830
Si Si7 0.377666 0.315436 0.429653
O O1 0.250000 0.689580 0.710788
O O2 0.367935 0.504140 0.741752
O O3 0.343910 0.614137 0.583853
O O4 0.394282 0.780524 0.713674
O O5 0.250000 0.350946 0.723020
O O6 0.373245 0.225490 0.679850
O O7 0.342935 0.264201 0.845903
O O8 0.250000 0.690518 0.457337
O O9 0.390995 0.778478 0.448089
O O10 0.357421 0.491481 0.429944
O O11 0.990383 0.312931 0.075505
O O12 0.881451 0.482603 0.091128
O O13 0.000000 0.500000 0.205925
O O14 0.967320 0.710287 0.427465
O O15 0.000000 0.000000 0.438718
O O16 0.750000 0.592465 0.116388
O O17 0.839561 0.735228 0.011281
#
# Coordination Sequence:
#
# PCOD8192227 Si02
#       7
#     8   8   8   8   8   8   8
#     4   9  18  35  60  92 129 171 222 279 337 405
#     4  10  22  39  62  99 134 169 229 284 334 411
#     4  10  20  37  66  98 131 179 227 275 342 413
#     4  10  19  37  61  88 128 171 219 278 339 403
#     4  10  21  40  62  93 137 172 223 286 337 406
#     4  11  21  38  65  91 122 173 223 278 340 400
#     4  12  21  40  67  95 135 179 222 285 351 404
#
# _framework density 23.116351999999999
#
# number of rings (size 3 to 8) (size 9 to 14) (size 15 to 20)
#    0.000    1.714    4.286    2.143    0.000    0.571 
#    0.000    5.000    0.000    1.714    0.000    0.000 
#    0.000    0.000    0.000    0.000    0.000    0.000 
#
# Total GULP energy -347039.016154 kJ/mol
# GULP energy per Si atom -12394.250577 kJ/mol
# Density = 2.306374 g / cm^3
# Si number density = 23.116352 Si / 1000 Ang^3
#
#
#
# Elastic Constant Matrix: (Units=GPa)
#
#
# Indices 1 2 3 4 5 6 
#
# 1 117.6475 61.9195 12.8127 0.0000 0.0000 0.0000
# 2 61.9195 133.7390 34.1547 0.0000 0.0000 0.0000
# 3 12.8127 34.1547 73.3142 0.0000 0.0000 0.0000
# 4 0.0000 0.0000 0.0000 22.7560 0.0000 0.0000
# 5 0.0000 0.0000 0.0000 0.0000 15.4889 0.0000
# 6 0.0000 0.0000 0.0000 0.0000 0.0000 39.9659
#
#
#
# Elastic Compliance Matrix: (Units=1/GPa)
#
#
# Indices 1 2 3 4 5 6 
#
# 1 0.011256 -0.005345 0.000523 0.000000 0.000000 0.000000
# 2 -0.005345 0.011025 -0.004202 0.000000 0.000000 0.000000
# 3 0.000523 -0.004202 0.015506 0.000000 0.000000 0.000000
# 4 0.000000 0.000000 0.000000 0.043944 0.000000 0.000000
# 5 0.000000 0.000000 0.000000 0.000000 0.064562 0.000000
# 6 0.000000 0.000000 0.000000 0.000000 0.000000 0.025021
#
#
# Mechanical properties :
#
#
# Convention : Reuss Voigt Hill
#
# Bulk Modulus (GPa) = 50.66124 60.27496 55.46810
# Shear Modulus (GPa) = 25.51757 30.02977 27.77367
#
# Velocity S-wave (km/s) = 3.32607 3.60817 3.46999
# Velocity P-wave (km/s) = 6.05918 6.59468 6.33259
#
# Compressibility (1/GPa) = 0.01973896
#
# Stress axis : x y z
#
# Youngs Moduli (GPa) = 88.84009 90.70234 64.49049
#
# Poissons Ratio (x) = 0.48480 -0.03372
# Poissons Ratio (y) = 0.47485 0.27100
# Poissons Ratio (z) = -0.04645 0.38114
#
# Static dielectric constant tensor:
#      x y z
#    x 4.356300 0.000000 0.000000 
#    y 0.000000 4.249880 0.000000 
#    z 0.000000 0.000000 3.608650 
# 
# 
# High freq. dielectric constant tensor:
#      x y z
#    x 1.924570 0.000000 0.000000 
#    y 0.000000 1.914880 0.000000 
#    z 0.000000 0.000000 1.872190 
# 
# From -- ./inp_files/17123.got.cif
#   From: 2010.03.12/outbox.cif.g09.slc.cpg/sg46_9_cif.got.tgz:17123.got - 2010.04.14 02:56:35.
