data_PCOD8192529
_publ_section_title
;
Structure prediction by ZEFSAII (Michael W. Deem and Ramdas Pophale) SiO2 
 PCOD8192529
Probable space group: I M A 2
;
_chemical_formula_sum "Si O2"
_cell_formula_units_Z 48
_cell_length_a 8.509652
_cell_length_b 28.022066
_cell_length_c 10.032805
_cell_angle_alpha 90.000000
_cell_angle_beta 90.000000
_cell_angle_gamma 90.000000
_cell_volume 2392.402915
_symmetry_space_group_name_H-M "I M A 2"
_symmetry_group_IT_number 46
_symmetry_cell_setting 'orthorhombic'
loop_
_space_group_symop_operation_xyz
x,y,z
-x,-y,z
1/2-x,y,z
1/2+x,-y,z
1/2+x,1/2+y,1/2+z
1/2-x,1/2-y,1/2+z
-x,1/2+y,1/2+z
x,1/2-y,1/2+z
loop_
_atom_site_type_symbol
_atom_site_label
_atom_site_fract_x
_atom_site_fract_y
_atom_site_fract_z
Si Si1 0.430538 0.148256 0.469300
Si Si2 0.932099 0.302632 0.216160
Si Si3 0.931892 0.853882 0.962525
Si Si4 0.933267 0.548789 0.089707
Si Si5 0.432206 0.692815 0.715741
Si Si6 0.434875 0.550612 0.380102
O O1 0.250000 0.159666 0.501217
O O2 0.536778 0.180466 0.565635
O O3 0.465326 0.092035 0.488550
O O4 0.468500 0.160822 0.317375
O O5 0.750000 0.310430 0.250750
O O6 0.981326 0.247748 0.230958
O O7 0.037387 0.333798 0.315011
O O8 0.750000 0.849467 0.998348
O O9 0.983611 0.908930 0.969521
O O10 0.032019 0.823258 0.066135
O O11 0.750000 0.542768 0.123962
O O12 0.000000 0.500000 0.024300
O O13 0.025114 0.559284 0.225792
O O14 0.250000 0.685582 0.746486
O O15 0.500000 0.500000 0.430434
O O16 0.250000 0.553135 0.401209
#
# Coordination Sequence:
#
# PCOD8192529 Si02
#       6
#     8   8   8   8   8   8
#     4  11  23  39  61  90 122 157 200 247 299 359
#     4  11  23  40  63  89 118 158 205 251 300 358
#     4  12  24  40  62  90 123 159 203 250 302 360
#     4  10  20  35  58  89 120 152 196 245 294 353
#     4  11  25  42  60  86 122 161 203 249 304 363
#     4  11  21  36  61  90 121 155 197 247 300 354
#
# _framework density 20.063510000000001
#
# number of rings (size 3 to 8) (size 9 to 14) (size 15 to 20)
#    0.000    1.000    1.667    7.000    0.000    8.667 
#    0.000    0.833    0.000    2.000    0.000    0.000 
#    0.000    0.000    0.000    0.000    0.000    0.000 
#
# Total GULP energy -297780.715296 kJ/mol
# GULP energy per Si atom -12407.529804 kJ/mol
# Density = 2.001784 g / cm^3
# Si number density = 20.063510 Si / 1000 Ang^3
#
#
#
# Elastic Constant Matrix: (Units=GPa)
#
#
# Indices 1 2 3 4 5 6 
#
# 1 72.7398 54.6910 14.1356 -0.0003 0.0000 0.0000
# 2 54.6910 134.0679 26.3549 -0.0002 0.0004 0.0001
# 3 14.1356 26.3549 60.7092 0.0000 -0.0001 -0.0005
# 4 -0.0003 -0.0002 0.0000 21.3932 0.0005 0.0000
# 5 0.0000 0.0004 -0.0001 0.0005 33.4453 0.0003
# 6 0.0000 0.0001 -0.0005 0.0000 0.0003 31.7501
#
#
#
# Elastic Compliance Matrix: (Units=1/GPa)
#
#
# Indices 1 2 3 4 5 6 
#
# 1 0.019911 -0.007884 -0.001214 0.000000 0.000000 0.000000
# 2 -0.007884 0.011276 -0.003060 0.000000 0.000000 0.000000
# 3 -0.001214 -0.003060 0.018083 0.000000 0.000000 0.000000
# 4 0.000000 0.000000 0.000000 0.046744 -0.000001 0.000000
# 5 0.000000 0.000000 0.000000 -0.000001 0.029900 0.000000
# 6 0.000000 0.000000 0.000000 0.000000 0.000000 0.031496
#
#
# Mechanical properties :
#
#
# Convention : Reuss Voigt Hill
#
# Bulk Modulus (GPa) = 40.07024 50.87554 45.47289
# Shear Modulus (GPa) = 26.30987 28.80675 27.55831
#
# Velocity S-wave (km/s) = 3.62516 3.79328 3.71017
# Velocity P-wave (km/s) = 6.12678 6.67814 6.40839
#
# Compressibility (1/GPa) = 0.02495618
#
# Stress axis : x y z
#
# Youngs Moduli (GPa) = 50.22310 88.68020 55.30123
#
# Poissons Ratio (x) = 0.69914 0.06711
# Poissons Ratio (y) = 0.39595 0.16920
# Poissons Ratio (z) = 0.06095 0.27133
#
# Static dielectric constant tensor:
#      x y z
#    x 3.664850 0.000000 0.000000 
#    y 0.000000 3.980100 0.000000 
#    z 0.000000 0.000000 3.298560 
# 
# 
# High freq. dielectric constant tensor:
#      x y z
#    x 1.797750 0.000000 0.000000 
#    y 0.000000 1.801530 0.000000 
#    z 0.000000 0.000000 1.758030 
# 
# From -- ./inp_files/3927.got.cif
#   From: 2010.03.12/outbox.cif.g09.slc.cpg/sg46_2_cif.got.tgz:3927.got - 2010.04.14 02:56:35.
