data_PCOD8192696
_publ_section_title
;
Structure prediction by ZEFSAII (Michael W. Deem and Ramdas Pophale) SiO2 
 PCOD8192696
Probable space group: I M A 2
;
_chemical_formula_sum "Si O2"
_cell_formula_units_Z 48
_cell_length_a 8.508981
_cell_length_b 28.253150
_cell_length_c 9.868303
_cell_angle_alpha 90.000000
_cell_angle_beta 90.000000
_cell_angle_gamma 90.000000
_cell_volume 2372.394480
_symmetry_space_group_name_H-M "I M A 2"
_symmetry_group_IT_number 46
_symmetry_cell_setting 'orthorhombic'
loop_
_space_group_symop_operation_xyz
x,y,z
-x,-y,z
1/2-x,y,z
1/2+x,-y,z
1/2+x,1/2+y,1/2+z
1/2-x,1/2-y,1/2+z
-x,1/2+y,1/2+z
x,1/2-y,1/2+z
loop_
_atom_site_type_symbol
_atom_site_label
_atom_site_fract_x
_atom_site_fract_y
_atom_site_fract_z
Si Si1 0.936920 0.708797 0.495540
Si Si2 0.566364 0.947441 0.644054
Si Si3 0.568381 0.106190 0.394296
Si Si4 0.936653 0.794593 0.305142
Si Si5 0.926499 0.888987 0.890657
Si Si6 0.927292 0.549989 0.657388
O O1 0.750000 0.705098 0.499564
O O2 0.992845 0.751955 0.401759
O O3 0.996381 0.714588 0.651025
O O4 0.009249 0.661036 0.428050
O O5 0.750000 0.953373 0.668025
O O6 0.534518 0.917164 0.511112
O O7 0.488923 0.918019 0.769511
O O8 0.500000 0.000000 0.631640
O O9 0.750000 0.104821 0.435615
O O10 0.515212 0.159414 0.368217
O O11 0.541910 0.075565 0.261019
O O12 0.750000 0.801206 0.307950
O O13 0.750000 0.877329 0.842061
O O14 0.925199 0.920877 0.021560
O O15 0.750000 0.545636 0.716285
O O16 0.000000 0.500000 0.621428
#
# Coordination Sequence:
#
# PCOD8192696 Si02
#       6
#     8   8   8   8   8   8
#     4   9  18  34  61  95 120 150 197 246 296 356
#     4  11  23  40  63  89 122 160 203 251 304 359
#     4  12  25  41  59  85 123 163 206 247 297 359
#     4  10  20  37  64  92 121 154 199 251 301 356
#     4   9  19  36  61  91 122 155 197 247 297 360
#     4  11  21  38  63  90 119 153 197 248 303 361
#
# _framework density 20.232723
#
# number of rings (size 3 to 8) (size 9 to 14) (size 15 to 20)
#    0.000    1.667    1.667    3.500    2.333    0.000 
#    0.000    3.333    0.000    0.000    0.000    0.000 
#    0.000    0.000    0.000    0.000    0.000    0.000 
#
# Total GULP energy -297572.091928 kJ/mol
# GULP energy per Si atom -12398.837164 kJ/mol
# Density = 2.018667 g / cm^3
# Si number density = 20.232723 Si / 1000 Ang^3
#
#
#
# Elastic Constant Matrix: (Units=GPa)
#
#
# Indices 1 2 3 4 5 6 
#
# 1 44.2175 27.1765 11.9776 -0.0003 0.0000 -0.0007
# 2 27.1765 186.6578 67.4886 0.0003 0.0006 0.0000
# 3 11.9776 67.4886 129.1787 -0.0008 0.0022 -0.0021
# 4 -0.0003 0.0003 -0.0008 36.1228 0.0001 -0.0003
# 5 0.0000 0.0006 0.0022 0.0001 19.1825 -0.0001
# 6 -0.0007 0.0000 -0.0021 -0.0003 -0.0001 47.9772
#
#
#
# Elastic Compliance Matrix: (Units=1/GPa)
#
#
# Indices 1 2 3 4 5 6 
#
# 1 0.024865 -0.003436 -0.000511 0.000000 0.000000 0.000000
# 2 -0.003436 0.007080 -0.003380 0.000000 0.000000 0.000000
# 3 -0.000511 -0.003380 0.009555 0.000000 -0.000001 0.000000
# 4 0.000000 0.000000 0.000000 0.027683 0.000000 0.000000
# 5 0.000000 0.000000 -0.000001 0.000000 0.052131 0.000000
# 6 0.000000 0.000000 0.000000 0.000000 0.000000 0.020843
#
#
# Mechanical properties :
#
#
# Convention : Reuss Voigt Hill
#
# Bulk Modulus (GPa) = 37.24849 63.70437 50.47643
# Shear Modulus (GPa) = 30.16426 37.55058 33.85742
#
# Velocity S-wave (km/s) = 3.86536 4.31273 4.09516
# Velocity P-wave (km/s) = 6.19446 7.50691 6.88204
#
# Compressibility (1/GPa) = 0.02684673
#
# Stress axis : x y z
#
# Youngs Moduli (GPa) = 40.21652 141.24729 104.66231
#
# Poissons Ratio (x) = 0.48528 0.05344
# Poissons Ratio (y) = 0.13817 0.35378
# Poissons Ratio (z) = 0.02053 0.47745
#
# Static dielectric constant tensor:
#      x y z
#    x 3.436850 0.000000 0.000000 
#    y 0.000000 3.974250 -0.000010 
#    z 0.000000 -0.000010 3.814090 
# 
# 
# High freq. dielectric constant tensor:
#      x y z
#    x 1.752850 0.000000 0.000000 
#    y 0.000000 1.810270 0.000000 
#    z 0.000000 0.000000 1.803500 
# 
# From -- ./inp_files/3894.got.cif
#   From: 2010.03.12/outbox.cif.g09.slc.cpg/sg46_2_cif.got.tgz:3894.got - 2010.04.14 02:56:35.
