data_PCOD8192976
_publ_section_title
;
Structure prediction by ZEFSAII (Michael W. Deem and Ramdas Pophale) SiO2 
 PCOD8192976
Probable space group: I M A 2
;
_chemical_formula_sum "Si O2"
_cell_formula_units_Z 56
_cell_length_a 8.775130
_cell_length_b 23.621299
_cell_length_c 13.628611
_cell_angle_alpha 90.000000
_cell_angle_beta 90.000000
_cell_angle_gamma 90.000000
_cell_volume 2824.938072
_symmetry_space_group_name_H-M "I M A 2"
_symmetry_group_IT_number 46
_symmetry_cell_setting 'orthorhombic'
loop_
_space_group_symop_operation_xyz
x,y,z
-x,-y,z
1/2-x,y,z
1/2+x,-y,z
1/2+x,1/2+y,1/2+z
1/2-x,1/2-y,1/2+z
-x,1/2+y,1/2+z
x,1/2-y,1/2+z
loop_
_atom_site_type_symbol
_atom_site_label
_atom_site_fract_x
_atom_site_fract_y
_atom_site_fract_z
Si Si1 0.570881 0.833441 0.313040
Si Si2 0.930135 0.939584 0.624434
Si Si3 0.571211 0.335651 0.016539
Si Si4 0.572734 0.058023 0.995497
Si Si5 0.430916 0.939978 0.215398
Si Si6 0.572907 0.381159 0.303660
Si Si7 0.574791 0.234069 0.706598
O O1 0.750000 0.839705 0.322219
O O2 0.500117 0.812987 0.415844
O O3 0.499401 0.893721 0.287374
O O4 0.530457 0.787584 0.229827
O O5 0.750000 0.942562 0.615079
O O6 0.993844 0.894424 0.546979
O O7 0.974913 0.922231 0.734893
O O8 0.000000 0.000000 0.597267
O O9 0.750000 0.346380 0.004879
O O10 0.538841 0.287289 0.097135
O O11 0.750000 0.046516 0.999908
O O12 0.515858 0.075181 0.104062
O O13 0.500000 0.000000 0.958303
O O14 0.531897 0.106916 0.917258
O O15 0.250000 0.941429 0.226406
O O16 0.500000 0.000000 0.246990
O O17 0.750000 0.393402 0.279735
O O18 0.535144 0.315804 0.283331
O O19 0.750000 0.253083 0.716519
#
# Coordination Sequence:
#
# PCOD8192976 Si02
#       7
#     8   8   8   8   8   8   8
#     4  12  25  40  61  89 118 149 186 230 284 342
#     4  11  21  34  54  83 118 154 193 237 288 342
#     4  10  22  42  64  85 112 148 192 238 284 336
#     4   9  18  32  53  81 113 149 190 235 280 331
#     4  10  21  39  60  84 115 151 193 239 286 336
#     4   9  18  34  55  82 115 153 196 237 282 336
#     4   9  20  39  61  84 113 150 191 234 278 331
#
# _framework density 19.823443999999999
#
# number of rings (size 3 to 8) (size 9 to 14) (size 15 to 20)
#    0.000    2.000    0.000    4.714    0.000    6.857 
#    0.000    5.714    0.000    0.000    0.000    0.000 
#    0.000    0.000    0.000    0.000    0.000    0.000 
#
# Total GULP energy -347289.299933 kJ/mol
# GULP energy per Si atom -12403.189283 kJ/mol
# Density = 1.977832 g / cm^3
# Si number density = 19.823444 Si / 1000 Ang^3
#
#
#
# Elastic Constant Matrix: (Units=GPa)
#
#
# Indices 1 2 3 4 5 6 
#
# 1 119.0520 54.6955 44.6962 0.0000 0.0000 0.0000
# 2 54.6955 108.0038 51.4800 0.0002 0.0000 0.0000
# 3 44.6962 51.4800 98.1940 0.0004 0.0000 0.0000
# 4 0.0000 0.0002 0.0004 24.2385 0.0000 0.0000
# 5 0.0000 0.0000 0.0000 0.0000 29.2732 0.0000
# 6 0.0000 0.0000 0.0000 0.0000 0.0000 36.1591
#
#
#
# Elastic Compliance Matrix: (Units=1/GPa)
#
#
# Indices 1 2 3 4 5 6 
#
# 1 0.011542 -0.004454 -0.002919 0.000000 0.000000 0.000000
# 2 -0.004454 0.014062 -0.005345 0.000000 0.000000 0.000000
# 3 -0.002919 -0.005345 0.014315 0.000000 0.000000 0.000000
# 4 0.000000 0.000000 0.000000 0.041257 0.000000 0.000000
# 5 0.000000 0.000000 0.000000 0.000000 0.034161 0.000000
# 6 0.000000 0.000000 0.000000 0.000000 0.000000 0.027656
#
#
# Mechanical properties :
#
#
# Convention : Reuss Voigt Hill
#
# Bulk Modulus (GPa) = 69.04363 69.66591 69.35477
# Shear Modulus (GPa) = 28.85934 29.55939 29.20937
#
# Velocity S-wave (km/s) = 3.81966 3.86571 3.84275
# Velocity P-wave (km/s) = 7.37278 7.42593 7.39940
#
# Compressibility (1/GPa) = 0.01448359
#
# Stress axis : x y z
#
# Youngs Moduli (GPa) = 86.64306 71.11282 69.85860
#
# Poissons Ratio (x) = 0.31672 0.20389
# Poissons Ratio (y) = 0.38589 0.37340
# Poissons Ratio (z) = 0.25287 0.38010
#
# Static dielectric constant tensor:
#      x y z
#    x 3.576390 0.000000 0.000000 
#    y 0.000000 3.668020 0.000000 
#    z 0.000000 0.000000 3.758020 
# 
# 
# High freq. dielectric constant tensor:
#      x y z
#    x 1.773620 0.000000 0.000000 
#    y 0.000000 1.768830 0.000000 
#    z 0.000000 0.000000 1.775750 
# 
# From -- ./inp_files/14145.got.cif
#   From: 2010.03.12/outbox.cif.g09.slc.cpg/sg46_8_cif.got.tgz:14145.got - 2010.04.14 02:56:35.
