data_PCOD8192387
_publ_section_title
;
Structure prediction by ZEFSAII (Michael W. Deem and Ramdas Pophale) SiO2 
 PCOD8192387
Probable space group: I M A 2
;
_chemical_formula_sum "Si O2"
_cell_formula_units_Z 48
_cell_length_a 8.846121
_cell_length_b 9.591214
_cell_length_c 30.708401
_cell_angle_alpha 90.000000
_cell_angle_beta 90.000000
_cell_angle_gamma 90.000000
_cell_volume 2605.455498
_symmetry_space_group_name_H-M "I M A 2"
_symmetry_group_IT_number 46
_symmetry_cell_setting 'orthorhombic'
loop_
_space_group_symop_operation_xyz
x,y,z
-x,-y,z
1/2-x,y,z
1/2+x,-y,z
1/2+x,1/2+y,1/2+z
1/2-x,1/2-y,1/2+z
-x,1/2+y,1/2+z
x,1/2-y,1/2+z
loop_
_atom_site_type_symbol
_atom_site_label
_atom_site_fract_x
_atom_site_fract_y
_atom_site_fract_z
Si Si1 0.926471 0.851141 0.904510
Si Si2 0.072224 0.848180 0.724078
Si Si3 0.073141 0.150609 0.809346
Si Si4 0.071550 0.147579 0.575808
Si Si5 0.927053 0.856931 0.476163
Si Si6 0.428649 0.848447 0.143894
O O1 0.750000 0.873290 0.911126
O O2 0.957587 0.780018 0.856817
O O3 0.994449 0.757375 0.943130
O O4 0.000000 0.000000 0.908405
O O5 0.250000 0.867960 0.728266
O O6 0.028044 0.745012 0.685311
O O7 0.007517 0.774499 0.768288
O O8 0.000000 0.000000 0.715451
O O9 0.250000 0.139582 0.799430
O O10 0.000000 0.000000 0.811347
O O11 0.250000 0.139709 0.584208
O O12 0.031241 0.180713 0.525702
O O13 0.998989 0.274650 0.601824
O O14 0.000000 0.000000 0.590376
O O15 0.750000 0.871984 0.470002
O O16 0.000000 0.000000 0.461555
O O17 0.250000 0.862884 0.137704
O O18 0.500000 0.000000 0.149930
#
# Coordination Sequence:
#
# PCOD8192387 Si02
#       6
#     8   8   8   8   8   8
#     4   9  18  32  50  75 105 135 170 210 253 300
#     4  10  20  34  54  78 102 132 171 212 254 303
#     4   9  16  28  49  74 101 133 169 211 252 294
#     4  10  20  36  58  80 104 136 175 217 257 305
#     4   9  19  35  53  76 105 136 171 210 252 300
#     4  11  24  39  55  77 106 138 171 212 263 314
#
# _framework density 18.422882000000001
#
# number of rings (size 3 to 8) (size 9 to 14) (size 15 to 20)
#    0.000    2.333    0.000    3.500    0.000    6.667 
#    0.000    2.500    0.000    4.000    0.000    0.000 
#    0.000    0.000    0.000    0.000    0.000    0.000 
#
# Total GULP energy -297490.823421 kJ/mol
# GULP energy per Si atom -12395.450976 kJ/mol
# Density = 1.838095 g / cm^3
# Si number density = 18.422882 Si / 1000 Ang^3
#
#
#
# Elastic Constant Matrix: (Units=GPa)
#
#
# Indices 1 2 3 4 5 6 
#
# 1 75.3684 48.8022 55.5683 0.0000 0.0000 0.0000
# 2 48.8022 112.1837 82.9811 0.0000 0.0000 0.0000
# 3 55.5683 82.9811 144.4030 0.0000 0.0000 0.0000
# 4 0.0000 0.0000 0.0000 46.1021 0.0000 0.0000
# 5 0.0000 0.0000 0.0000 0.0000 25.6081 0.0000
# 6 0.0000 0.0000 0.0000 0.0000 0.0000 28.6174
#
#
#
# Elastic Compliance Matrix: (Units=1/GPa)
#
#
# Indices 1 2 3 4 5 6 
#
# 1 0.020172 -0.005276 -0.004731 0.000000 0.000000 0.000000
# 2 -0.005276 0.016884 -0.007672 0.000000 0.000000 0.000000
# 3 -0.004731 -0.007672 0.013154 0.000000 0.000000 0.000000
# 4 0.000000 0.000000 0.000000 0.021691 0.000000 0.000000
# 5 0.000000 0.000000 0.000000 0.000000 0.039050 0.000000
# 6 0.000000 0.000000 0.000000 0.000000 0.000000 0.034944
#
#
# Mechanical properties :
#
#
# Convention : Reuss Voigt Hill
#
# Bulk Modulus (GPa) = 67.32686 78.51757 72.92222
# Shear Modulus (GPa) = 26.85215 29.70575 28.27895
#
# Velocity S-wave (km/s) = 3.82192 4.01987 3.92215
# Velocity P-wave (km/s) = 7.49004 8.01611 7.75753
#
# Compressibility (1/GPa) = 0.01485291
#
# Stress axis : x y z
#
# Youngs Moduli (GPa) = 49.57256 59.22698 76.02082
#
# Poissons Ratio (x) = 0.31249 0.35963
# Poissons Ratio (y) = 0.26155 0.58324
# Poissons Ratio (z) = 0.23451 0.45440
#
# Static dielectric constant tensor:
#      x y z
#    x 3.441830 0.000000 0.000000 
#    y 0.000000 3.075600 0.000000 
#    z 0.000000 0.000000 4.102240 
# 
# 
# High freq. dielectric constant tensor:
#      x y z
#    x 1.724110 0.000000 0.000000 
#    y 0.000000 1.684530 0.000000 
#    z 0.000000 0.000000 1.736610 
# 
# From -- ./inp_files/25005.got.cif
#   From: 2010.03.12/outbox.cif.g09.slc.cpg/sg46_13_cif.got.tgz:25005.got - 2010.04.14 02:56:35.
