data_PCOD8192948
_publ_section_title
;
Structure prediction by ZEFSAII (Michael W. Deem and Ramdas Pophale) SiO2 
 PCOD8192948
Probable space group: I M A 2
;
_chemical_formula_sum "Si O2"
_cell_formula_units_Z 64
_cell_length_a 15.096513
_cell_length_b 23.659324
_cell_length_c 8.607314
_cell_angle_alpha 90.000000
_cell_angle_beta 90.000000
_cell_angle_gamma 90.000000
_cell_volume 3074.302680
_symmetry_space_group_name_H-M "I M A 2"
_symmetry_group_IT_number 46
_symmetry_cell_setting 'orthorhombic'
loop_
_space_group_symop_operation_xyz
x,y,z
-x,-y,z
1/2-x,y,z
1/2+x,-y,z
1/2+x,1/2+y,1/2+z
1/2-x,1/2-y,1/2+z
-x,1/2+y,1/2+z
x,1/2-y,1/2+z
loop_
_atom_site_type_symbol
_atom_site_label
_atom_site_fract_x
_atom_site_fract_y
_atom_site_fract_z
Si Si1 0.852854 0.381281 0.674090
Si Si2 0.504576 0.690468 0.538087
Si Si3 0.495663 0.311299 0.174174
Si Si4 0.099243 0.502244 0.165128
Si Si5 0.348875 0.387842 0.032975
Si Si6 0.852702 0.004250 0.008187
Si Si7 0.352846 0.109763 0.175904
Si Si8 0.150740 0.619781 0.033163
O O1 0.750000 0.366584 0.641579
O O2 0.884213 0.437208 0.583893
O O3 0.913465 0.329748 0.617448
O O4 0.870583 0.392861 0.854441
O O5 0.488662 0.694009 0.355908
O O6 0.530449 0.751497 0.602684
O O7 0.587494 0.650265 0.571681
O O8 0.586005 0.332580 0.097312
O O9 0.415947 0.354567 0.142868
O O10 0.095175 0.492770 0.349917
O O11 0.142908 0.562213 0.129445
O O12 0.000000 0.500000 0.099211
O O13 0.154600 0.453367 0.081299
O O14 0.250000 0.363037 0.054467
O O15 0.379398 0.382024 0.854993
O O16 0.750000 0.006888 0.965909
O O17 0.873241 0.954717 0.130083
O O18 0.250000 0.124663 0.146073
O O19 0.250000 0.643458 0.053245
#
# Coordination Sequence:
#
# PCOD8192948 Si02
#       8
#     8   8   8   8   8   8   8   8
#     4  10  23  42  66  95 126 168 210 257 315 370
#     4  12  26  43  68  89 130 160 212 266 308 374
#     4  12  26  45  64  97 120 168 212 258 318 366
#     4  12  23  36  60  98 133 166 207 252 314 375
#     4  11  23  43  67  93 129 166 209 259 312 373
#     4  10  21  38  60  93 132 167 211 253 309 377
#     4  10  23  42  66  95 126 168 210 257 315 370
#     4  11  23  43  67  93 129 166 209 259 312 373
#
# _framework density 20.817730000000001
#
# number of rings (size 3 to 8) (size 9 to 14) (size 15 to 20)
#    0.000    1.000    1.250    5.625    1.750    6.000 
#    0.000    0.000    0.000    0.000    0.000    0.000 
#    0.000    0.000    0.000    0.000    0.000    0.000 
#
# Total GULP energy -397029.189680 kJ/mol
# GULP energy per Si atom -12407.162178 kJ/mol
# Density = 2.077035 g / cm^3
# Si number density = 20.817730 Si / 1000 Ang^3
#
#
#
# Elastic Constant Matrix: (Units=GPa)
#
#
# Indices 1 2 3 4 5 6 
#
# 1 91.7958 20.2416 35.0401 0.0005 0.0001 -0.0001
# 2 20.2416 78.8382 11.6130 -0.0005 -0.0001 0.0000
# 3 35.0401 11.6130 98.7867 -0.0036 -0.0004 -0.0004
# 4 0.0005 -0.0005 -0.0036 39.4791 0.0000 0.0000
# 5 0.0001 -0.0001 -0.0004 0.0000 31.3385 0.0001
# 6 -0.0001 0.0000 -0.0004 0.0000 0.0001 23.2269
#
#
#
# Elastic Compliance Matrix: (Units=1/GPa)
#
#
# Indices 1 2 3 4 5 6 
#
# 1 0.013156 -0.002738 -0.004345 -0.000001 0.000000 0.000000
# 2 -0.002738 0.013477 -0.000613 0.000000 0.000000 0.000000
# 3 -0.004345 -0.000613 0.011736 0.000001 0.000000 0.000000
# 4 -0.000001 0.000000 0.000001 0.025330 0.000000 0.000000
# 5 0.000000 0.000000 0.000000 0.000000 0.031910 0.000000
# 6 0.000000 0.000000 0.000000 0.000000 0.000000 0.043054
#
#
# Mechanical properties :
#
#
# Convention : Reuss Voigt Hill
#
# Bulk Modulus (GPa) = 43.51991 44.80115 44.16053
# Shear Modulus (GPa) = 30.91897 32.31062 31.61479
#
# Velocity S-wave (km/s) = 3.85804 3.94391 3.90121
# Velocity P-wave (km/s) = 6.38722 6.50435 6.44605
#
# Compressibility (1/GPa) = 0.02297799
#
# Stress axis : x y z
#
# Youngs Moduli (GPa) = 76.01176 74.19798 85.20818
#
# Poissons Ratio (x) = 0.20314 0.37020
# Poissons Ratio (y) = 0.20810 0.05225
# Poissons Ratio (z) = 0.33024 0.04550
#
# Static dielectric constant tensor:
#      x y z
#    x 3.837530 0.000000 0.000000 
#    y 0.000000 3.539020 0.000000 
#    z 0.000000 0.000000 3.813970 
# 
# 
# High freq. dielectric constant tensor:
#      x y z
#    x 1.827170 0.000000 0.000000 
#    y 0.000000 1.808120 0.000000 
#    z 0.000000 0.000000 1.828700 
# 
# From -- ./inp_files/6086.got.cif
#   From: 2010.03.12/outbox.cif.g09.slc.cpg/sg46_4_cif.got.tgz:6086.got - 2010.04.14 02:56:35.
