data_PCOD8192435
_publ_section_title
;
Structure prediction by ZEFSAII (Michael W. Deem and Ramdas Pophale) SiO2 
 PCOD8192435
Probable space group: I M A 2
;
_chemical_formula_sum "Si O2"
_cell_formula_units_Z 56
_cell_length_a 19.854068
_cell_length_b 14.751290
_cell_length_c 8.581621
_cell_angle_alpha 90.000000
_cell_angle_beta 90.000000
_cell_angle_gamma 90.000000
_cell_volume 2513.326072
_symmetry_space_group_name_H-M "I M A 2"
_symmetry_group_IT_number 46
_symmetry_cell_setting 'orthorhombic'
loop_
_space_group_symop_operation_xyz
x,y,z
-x,-y,z
1/2-x,y,z
1/2+x,-y,z
1/2+x,1/2+y,1/2+z
1/2-x,1/2-y,1/2+z
-x,1/2+y,1/2+z
x,1/2-y,1/2+z
loop_
_atom_site_type_symbol
_atom_site_label
_atom_site_fract_x
_atom_site_fract_y
_atom_site_fract_z
Si Si1 0.925107 0.989283 0.013450
Si Si2 0.750000 0.883377 0.216605
Si Si3 0.606988 0.653373 0.041506
Si Si4 0.390963 0.839605 0.852112
Si Si5 0.130342 0.995406 0.331077
Si Si6 0.047288 0.186635 0.865805
Si Si7 0.750000 0.723117 0.019305
Si Si8 0.827766 0.175853 0.520322
O O1 0.925304 0.016442 0.196396
O O2 0.877628 0.058505 0.916569
O O3 0.000000 0.000000 0.946421
O O4 0.910577 0.883636 0.975821
O O5 0.813782 0.947054 0.238231
O O6 0.750000 0.797979 0.335330
O O7 0.750000 0.832150 0.049425
O O8 0.557709 0.661632 0.186426
O O9 0.602775 0.550485 0.979162
O O10 0.579609 0.716308 0.902003
O O11 0.683296 0.676880 0.092276
O O12 0.467158 0.809456 0.892621
O O13 0.375404 0.838268 0.669003
O O14 0.340913 0.772968 0.943234
O O15 0.156923 0.899184 0.388960
O O16 0.750000 0.169285 0.571663
#
# Coordination Sequence:
#
# PCOD8192435 Si02
#       8
#     8   4   8   8   8   8   4   8
#     4  10  23  42  64  93 129 167 218 273 329 396
#     4  10  20  38  56  88 122 164 208 258 304 384
#     4  11  22  37  64  94 136 175 215 264 326 393
#     4  11  25  44  68  93 128 168 226 280 339 393
#     4  11  23  40  63  92 130 171 214 267 326 394
#     4  11  22  41  64  98 132 175 218 272 330 401
#     4  10  20  34  58  86 126 166 206 248 304 376
#     4  12  25  46  68  94 129 172 224 289 334 396
#
# _framework density 22.281230000000001
#
# number of rings (size 3 to 8) (size 9 to 14) (size 15 to 20)
#    0.000    1.143    0.714    6.429    0.000    4.571 
#    2.571    0.000    0.000    0.000    0.000    0.000 
#    0.000    0.000    0.000    0.000    0.000    0.000 
#
# Total GULP energy -347228.285682 kJ/mol
# GULP energy per Si atom -12401.010203 kJ/mol
# Density = 2.223052 g / cm^3
# Si number density = 22.281230 Si / 1000 Ang^3
#
#
#
# Elastic Constant Matrix: (Units=GPa)
#
#
# Indices 1 2 3 4 5 6 
#
# 1 70.6424 26.5568 19.9705 0.0000 0.0000 0.0000
# 2 26.5568 103.2084 24.1913 0.0000 0.0000 0.0000
# 3 19.9705 24.1913 91.5084 0.0000 0.0000 0.0000
# 4 0.0000 0.0000 0.0000 47.0744 0.0000 0.0000
# 5 0.0000 0.0000 0.0000 0.0000 32.2809 0.0000
# 6 0.0000 0.0000 0.0000 0.0000 0.0000 22.0335
#
#
#
# Elastic Compliance Matrix: (Units=1/GPa)
#
#
# Indices 1 2 3 4 5 6 
#
# 1 0.016232 -0.003567 -0.002599 0.000000 0.000000 0.000000
# 2 -0.003567 0.011113 -0.002159 0.000000 0.000000 0.000000
# 3 -0.002599 -0.002159 0.012066 0.000000 0.000000 0.000000
# 4 0.000000 0.000000 0.000000 0.021243 0.000000 0.000000
# 5 0.000000 0.000000 0.000000 0.000000 0.030978 0.000000
# 6 0.000000 0.000000 0.000000 0.000000 0.000000 0.045385
#
#
# Mechanical properties :
#
#
# Convention : Reuss Voigt Hill
#
# Bulk Modulus (GPa) = 43.93877 45.19960 44.56918
# Shear Modulus (GPa) = 31.00665 33.25382 32.13023
#
# Velocity S-wave (km/s) = 3.73447 3.86743 3.80153
# Velocity P-wave (km/s) = 6.19338 6.34607 6.27019
#
# Compressibility (1/GPa) = 0.02275894
#
# Stress axis : x y z
#
# Youngs Moduli (GPa) = 61.60782 89.98311 82.87702
#
# Poissons Ratio (x) = 0.32100 0.21542
# Poissons Ratio (y) = 0.21978 0.17896
# Poissons Ratio (z) = 0.16014 0.19431
#
# Static dielectric constant tensor:
#      x y z
#    x 3.923530 0.000000 0.000000 
#    y 0.000000 4.169480 0.000000 
#    z 0.000000 0.000000 3.802750 
# 
# 
# High freq. dielectric constant tensor:
#      x y z
#    x 1.874410 0.000000 0.000000 
#    y 0.000000 1.884700 0.000000 
#    z 0.000000 0.000000 1.875930 
# 
# From -- ./inp_files/7434.got.cif
#   From: 2010.03.12/outbox.cif.g09.slc.cpg/sg46_4_cif.got.tgz:7434.got - 2010.04.14 02:56:35.
