data_PCOD8192127
_publ_section_title
;
Structure prediction by ZEFSAII (Michael W. Deem and Ramdas Pophale) SiO2 
 PCOD8192127
Probable space group: I M A 2
;
_chemical_formula_sum "Si O2"
_cell_formula_units_Z 48
_cell_length_a 8.391303
_cell_length_b 30.082124
_cell_length_c 9.976667
_cell_angle_alpha 90.000000
_cell_angle_beta 90.000000
_cell_angle_gamma 90.000000
_cell_volume 2518.392266
_symmetry_space_group_name_H-M "I M A 2"
_symmetry_group_IT_number 46
_symmetry_cell_setting 'orthorhombic'
loop_
_space_group_symop_operation_xyz
x,y,z
-x,-y,z
1/2-x,y,z
1/2+x,-y,z
1/2+x,1/2+y,1/2+z
1/2-x,1/2-y,1/2+z
-x,1/2+y,1/2+z
x,1/2-y,1/2+z
loop_
_atom_site_type_symbol
_atom_site_label
_atom_site_fract_x
_atom_site_fract_y
_atom_site_fract_z
Si Si1 0.565151 0.952910 0.722980
Si Si2 0.062069 0.780260 0.227321
Si Si3 0.062748 0.951713 0.434359
Si Si4 0.437212 0.616952 0.426490
Si Si5 0.936413 0.787179 0.938760
Si Si6 0.438395 0.619673 0.728228
O O1 0.750000 0.958162 0.692160
O O2 0.480773 0.938640 0.585387
O O3 0.535738 0.915785 0.833055
O O4 0.500000 0.000000 0.776109
O O5 0.250000 0.773493 0.249554
O O6 0.004844 0.830392 0.261392
O O7 0.962246 0.748437 0.322603
O O8 0.019821 0.769302 0.073517
O O9 0.250000 0.951936 0.418046
O O10 0.986665 0.915077 0.333995
O O11 0.000000 0.000000 0.393568
O O12 0.250000 0.609578 0.404001
O O13 0.481709 0.667315 0.389986
O O14 0.491219 0.606306 0.578352
O O15 0.750000 0.794796 0.963772
O O16 0.250000 0.618936 0.735914
#
# Coordination Sequence:
#
# PCOD8192127 Si02
#       6
#     8   8   8   8   8   8
#     4  11  22  37  55  80 110 144 183 226 272 324
#     4  10  20  38  59  80 108 149 190 227 276 338
#     4  10  19  35  55  79 108 141 179 224 272 325
#     4  10  20  38  59  81 109 145 183 224 273 332
#     4  11  22  37  56  84 115 144 182 234 282 327
#     4   8  18  35  57  80 105 137 180 223 267 322
#
# _framework density 19.059778999999999
#
# number of rings (size 3 to 8) (size 9 to 14) (size 15 to 20)
#    0.000    2.000    0.000    6.500    0.000    2.000 
#    0.000   16.667    0.000    0.000    0.000    0.000 
#    0.000    0.000    0.000    0.000    0.000    0.000 
#
# Total GULP energy -297653.394679 kJ/mol
# GULP energy per Si atom -12402.224778 kJ/mol
# Density = 1.901640 g / cm^3
# Si number density = 19.059779 Si / 1000 Ang^3
#
#
#
# Elastic Constant Matrix: (Units=GPa)
#
#
# Indices 1 2 3 4 5 6 
#
# 1 56.4260 6.1292 4.9640 -0.0002 0.0000 0.0001
# 2 6.1292 111.6253 85.6944 -0.0017 -0.0001 -0.0002
# 3 4.9640 85.6944 105.5780 -0.0013 -0.0002 -0.0002
# 4 -0.0002 -0.0017 -0.0013 46.1086 -0.0001 -0.0002
# 5 0.0000 -0.0001 -0.0002 -0.0001 23.4655 -0.0004
# 6 0.0001 -0.0002 -0.0002 -0.0002 -0.0004 29.1737
#
#
#
# Elastic Compliance Matrix: (Units=1/GPa)
#
#
# Indices 1 2 3 4 5 6 
#
# 1 0.017829 -0.000890 -0.000116 0.000000 0.000000 0.000000
# 2 -0.000890 0.023814 -0.019288 0.000000 0.000000 0.000000
# 3 -0.000116 -0.019288 0.025132 0.000000 0.000000 0.000000
# 4 0.000000 0.000000 0.000000 0.021688 0.000000 0.000000
# 5 0.000000 0.000000 0.000000 0.000000 0.042616 0.000001
# 6 0.000000 0.000000 0.000000 0.000000 0.000001 0.034277
#
#
# Mechanical properties :
#
#
# Convention : Reuss Voigt Hill
#
# Bulk Modulus (GPa) = 38.18409 51.91161 45.04785
# Shear Modulus (GPa) = 23.29118 31.53902 27.41510
#
# Velocity S-wave (km/s) = 3.49951 4.07227 3.79671
# Velocity P-wave (km/s) = 6.03375 7.02897 6.55029
#
# Compressibility (1/GPa) = 0.02618892
#
# Stress axis : x y z
#
# Youngs Moduli (GPa) = 56.08776 41.99136 39.78954
#
# Poissons Ratio (x) = 0.03737 0.00461
# Poissons Ratio (y) = 0.04992 0.76744
# Poissons Ratio (z) = 0.00650 0.80991
#
# Static dielectric constant tensor:
#      x y z
#    x 3.399510 0.000000 0.000000 
#    y 0.000000 3.683790 0.000000 
#    z 0.000000 0.000000 3.556420 
# 
# 
# High freq. dielectric constant tensor:
#      x y z
#    x 1.741610 0.000000 0.000000 
#    y 0.000000 1.744740 0.000000 
#    z 0.000000 0.000000 1.742340 
# 
# From -- ./inp_files/3957.got.cif
#   From: 2010.03.12/outbox.cif.g09.slc.cpg/sg46_2_cif.got.tgz:3957.got - 2010.04.14 02:56:35.
