data_PCOD8192580
_publ_section_title
;
Structure prediction by ZEFSAII (Michael W. Deem and Ramdas Pophale) SiO2 
 PCOD8192580
Probable space group: I M A 2
;
_chemical_formula_sum "Si O2"
_cell_formula_units_Z 64
_cell_length_a 8.766662
_cell_length_b 33.627981
_cell_length_c 11.685191
_cell_angle_alpha 90.000000
_cell_angle_beta 90.000000
_cell_angle_gamma 90.000000
_cell_volume 3444.854406
_symmetry_space_group_name_H-M "I M A 2"
_symmetry_group_IT_number 46
_symmetry_cell_setting 'orthorhombic'
loop_
_space_group_symop_operation_xyz
x,y,z
-x,-y,z
1/2-x,y,z
1/2+x,-y,z
1/2+x,1/2+y,1/2+z
1/2-x,1/2-y,1/2+z
-x,1/2+y,1/2+z
x,1/2-y,1/2+z
loop_
_atom_site_type_symbol
_atom_site_label
_atom_site_fract_x
_atom_site_fract_y
_atom_site_fract_z
Si Si1 0.431720 0.456585 0.400110
Si Si2 0.431894 0.720066 0.888402
Si Si3 0.077835 0.460747 0.144964
Si Si4 0.572237 0.850978 0.255069
Si Si5 0.068437 0.809658 0.857537
Si Si6 0.426044 0.677672 0.109877
Si Si7 0.568407 0.380060 0.521364
Si Si8 0.078594 0.111360 0.491503
O O1 0.500000 0.500000 0.433706
O O2 0.250000 0.457560 0.416842
O O3 0.484209 0.445713 0.269182
O O4 0.498370 0.422050 0.481589
O O5 0.250000 0.715745 0.874760
O O6 0.507495 0.692625 0.789929
O O7 0.487483 0.765403 0.886790
O O8 0.493638 0.706394 0.012342
O O9 0.250000 0.471384 0.170965
O O10 0.058670 0.433214 0.034244
O O11 0.000000 0.500000 0.101181
O O12 0.750000 0.846521 0.225003
O O13 0.482342 0.869526 0.149304
O O14 0.544400 0.882692 0.357529
O O15 0.250000 0.811716 0.857794
O O16 0.995470 0.817070 0.732581
O O17 0.006319 0.843547 0.942875
O O18 0.250000 0.687160 0.124476
O O19 0.454060 0.633247 0.068527
O O20 0.750000 0.383440 0.516190
O O21 0.250000 0.126984 0.518352
#
# Coordination Sequence:
#
# PCOD8192580 Si02
#       8
#     8   8   8   8   8   8   8   8
#     4  10  20  36  58  84 115 146 180 224 277 332
#     4   9  18  33  54  76 101 136 177 221 270 324
#     4   9  18  32  53  81 108 137 168 211 268 323
#     4  10  21  37  54  74 106 146 184 226 274 326
#     4   9  19  32  52  80 106 136 176 225 273 323
#     4   9  17  30  50  75  99 128 170 214 261 312
#     4  11  22  36  56  82 110 146 190 232 276 331
#     4   9  18  34  53  72 101 137 172 211 265 319
#
# _framework density 18.578433
#
# number of rings (size 3 to 8) (size 9 to 14) (size 15 to 20)
#    0.000    2.500    0.000    1.875    1.750    1.500 
#    0.000    3.125    0.000    1.500    0.000    0.000 
#    0.000    0.000    0.000    0.000    0.000    0.000 
#
# Total GULP energy -396523.807057 kJ/mol
# GULP energy per Si atom -12391.368971 kJ/mol
# Density = 1.853615 g / cm^3
# Si number density = 18.578433 Si / 1000 Ang^3
#
#
#
# Elastic Constant Matrix: (Units=GPa)
#
#
# Indices 1 2 3 4 5 6 
#
# 1 44.4476 41.6826 33.5038 -0.0003 -0.0003 -0.0001
# 2 41.6826 142.2630 77.7747 0.0006 0.0000 0.0000
# 3 33.5038 77.7747 128.2013 0.0017 -0.0001 -0.0004
# 4 -0.0003 0.0006 0.0017 26.0650 0.0000 -0.0001
# 5 -0.0003 0.0000 -0.0001 0.0000 23.1242 0.0004
# 6 -0.0001 0.0000 -0.0004 -0.0001 0.0004 24.4630
#
#
#
# Elastic Compliance Matrix: (Units=1/GPa)
#
#
# Indices 1 2 3 4 5 6 
#
# 1 0.032368 -0.007271 -0.004048 0.000001 0.000000 0.000000
# 2 -0.007271 0.012151 -0.005471 0.000000 0.000000 0.000000
# 3 -0.004048 -0.005471 0.012177 -0.000001 0.000000 0.000000
# 4 0.000001 0.000000 -0.000001 0.038366 0.000000 0.000000
# 5 0.000000 0.000000 0.000000 0.000000 0.043245 -0.000001
# 6 0.000000 0.000000 0.000000 0.000000 -0.000001 0.040878
#
#
# Mechanical properties :
#
#
# Convention : Reuss Voigt Hill
#
# Bulk Modulus (GPa) = 43.26000 68.98155 56.12078
# Shear Modulus (GPa) = 22.67885 25.52719 24.10302
#
# Velocity S-wave (km/s) = 3.49765 3.71080 3.60580
# Velocity P-wave (km/s) = 6.29659 7.45457 6.89991
#
# Compressibility (1/GPa) = 0.02311604
#
# Stress axis : x y z
#
# Youngs Moduli (GPa) = 30.89455 82.30055 82.11971
#
# Poissons Ratio (x) = 0.59838 0.33244
# Poissons Ratio (y) = 0.22462 0.44929
# Poissons Ratio (z) = 0.12507 0.45028
#
# Static dielectric constant tensor:
#      x y z
#    x 3.323500 0.000000 0.000000 
#    y 0.000000 3.397150 0.000000 
#    z 0.000000 0.000000 3.558580 
# 
# 
# High freq. dielectric constant tensor:
#      x y z
#    x 1.708060 0.000000 0.000000 
#    y 0.000000 1.719190 0.000000 
#    z 0.000000 0.000000 1.724170 
# 
# From -- ./inp_files/9720.got.cif
#   From: 2010.03.12/outbox.cif.g09.slc.cpg/sg46_5_cif.got.tgz:9720.got - 2010.04.14 02:56:35.
