data_PCOD8192741
_publ_section_title
;
Structure prediction by ZEFSAII (Michael W. Deem and Ramdas Pophale) SiO2 
 PCOD8192741
Probable space group: I M A 2
;
_chemical_formula_sum "Si O2"
_cell_formula_units_Z 40
_cell_length_a 8.574289
_cell_length_b 23.153347
_cell_length_c 10.079708
_cell_angle_alpha 90.000000
_cell_angle_beta 90.000000
_cell_angle_gamma 90.000000
_cell_volume 2001.058795
_symmetry_space_group_name_H-M "I M A 2"
_symmetry_group_IT_number 46
_symmetry_cell_setting 'orthorhombic'
loop_
_space_group_symop_operation_xyz
x,y,z
-x,-y,z
1/2-x,y,z
1/2+x,-y,z
1/2+x,1/2+y,1/2+z
1/2-x,1/2-y,1/2+z
-x,1/2+y,1/2+z
x,1/2-y,1/2+z
loop_
_atom_site_type_symbol
_atom_site_label
_atom_site_fract_x
_atom_site_fract_y
_atom_site_fract_z
Si Si1 0.426204 0.231521 0.087090
Si Si2 0.569624 0.146039 0.613442
Si Si3 0.432377 0.439737 0.906586
Si Si4 0.065937 0.618900 0.656680
Si Si5 0.426665 0.135523 0.892633
O O1 0.250000 0.248463 0.129304
O O2 0.535560 0.286844 0.090289
O O3 0.493028 0.182574 0.188197
O O4 0.428526 0.203168 0.938943
O O5 0.750000 0.133676 0.584871
O O6 0.465784 0.109526 0.513201
O O7 0.529191 0.127201 0.762331
O O8 0.500000 0.500000 0.960683
O O9 0.250000 0.444797 0.882944
O O10 0.513719 0.426183 0.767013
O O11 0.250000 0.623913 0.653194
O O12 0.001924 0.597666 0.512432
O O13 0.250000 0.114820 0.865618
#
# Coordination Sequence:
#
# PCOD8192741 Si02
#       5
#     8   8   8   8   8
#     4   9  20  36  59  90 127 166 206 254 317 378
#     4  12  24  38  62  94 129 168 212 264 321 381
#     4  12  26  46  67  91 126 171 219 266 319 381
#     4  10  20  38  63  92 124 160 208 261 313 376
#     4   9  20  38  60  89 125 163 204 251 314 376
#
# _framework density 19.989419000000002
#
# number of rings (size 3 to 8) (size 9 to 14) (size 15 to 20)
#    1.200    0.400    0.000    6.000    2.800    0.000 
#    0.000    1.000    0.000    0.000    0.000    0.000 
#    0.000    0.000    0.000    0.000    0.000    0.000 
#
# Total GULP energy -247946.461825 kJ/mol
# GULP energy per Si atom -12397.323091 kJ/mol
# Density = 1.994392 g / cm^3
# Si number density = 19.989419 Si / 1000 Ang^3
#
#
#
# Elastic Constant Matrix: (Units=GPa)
#
#
# Indices 1 2 3 4 5 6 
#
# 1 121.9200 17.1129 23.3132 0.0027 -0.0013 0.0001
# 2 17.1129 52.2392 7.6165 0.0040 -0.0006 -0.0001
# 3 23.3132 7.6165 89.9414 0.0210 0.0011 -0.0009
# 4 0.0027 0.0040 0.0210 -20.3259 -0.0010 -0.0003
# 5 -0.0013 -0.0006 0.0011 -0.0010 36.8940 0.0009
# 6 0.0001 -0.0001 -0.0009 -0.0003 0.0009 31.3989
#
#
#
# Elastic Compliance Matrix: (Units=1/GPa)
#
#
# Indices 1 2 3 4 5 6 
#
# 1 0.008974 -0.002633 -0.002103 -0.000002 0.000000 0.000000
# 2 -0.002633 0.020155 -0.001024 0.000003 0.000000 0.000000
# 3 -0.002103 -0.001024 0.011750 0.000012 0.000000 0.000000
# 4 -0.000002 0.000003 0.000012 -0.049198 -0.000001 -0.000001
# 5 0.000000 0.000000 0.000000 -0.000001 0.027105 -0.000001
# 6 0.000000 0.000000 0.000000 -0.000001 -0.000001 0.031848
#
#
# Mechanical properties :
#
#
# Convention : Reuss Voigt Hill
#
# Bulk Modulus (GPa) = 34.06247 40.02065 37.04156
# Shear Modulus (GPa) = 69.50244 23.99727 46.74986
#
# Velocity S-wave (km/s) = 5.90297 3.46858 4.84129
# Velocity P-wave (km/s) = 7.97103 6.00881 7.05844
#
# Compressibility (1/GPa) = 0.02935783
#
# Stress axis : x y z
#
# Youngs Moduli (GPa) = 111.43514 49.61647 85.10483
#
# Poissons Ratio (x) = 0.13064 0.17898
# Poissons Ratio (y) = 0.29342 0.08717
# Poissons Ratio (z) = 0.23436 0.05082
#
# Static dielectric constant tensor:
#      x y z
#    x 3.634310 0.000000 0.000000 
#    y 0.000000 4.085730 0.000020 
#    z 0.000000 0.000020 3.520710 
# 
# 
# High freq. dielectric constant tensor:
#      x y z
#    x 1.798730 0.000000 0.000000 
#    y 0.000000 1.751020 0.000000 
#    z 0.000000 0.000000 1.776040 
# 
# From -- ./inp_files/3661.got.cif
#   From: 2010.03.12/outbox.cif.g09.slc.cpg/sg46_2_cif.got.tgz:3661.got - 2010.04.14 02:56:35.
