data_PCOD8192176
_publ_section_title
;
Structure prediction by ZEFSAII (Michael W. Deem and Ramdas Pophale) SiO2 
 PCOD8192176
Probable space group: I M A 2
;
_chemical_formula_sum "Si O2"
_cell_formula_units_Z 64
_cell_length_a 16.288290
_cell_length_b 19.236645
_cell_length_c 10.308896
_cell_angle_alpha 90.000000
_cell_angle_beta 90.000000
_cell_angle_gamma 90.000000
_cell_volume 3230.107542
_symmetry_space_group_name_H-M "I M A 2"
_symmetry_group_IT_number 46
_symmetry_cell_setting 'orthorhombic'
loop_
_space_group_symop_operation_xyz
x,y,z
-x,-y,z
1/2-x,y,z
1/2+x,-y,z
1/2+x,1/2+y,1/2+z
1/2-x,1/2-y,1/2+z
-x,1/2+y,1/2+z
x,1/2-y,1/2+z
loop_
_atom_site_type_symbol
_atom_site_label
_atom_site_fract_x
_atom_site_fract_y
_atom_site_fract_z
Si Si1 0.845588 0.455616 0.700540
Si Si2 0.153475 0.403248 0.823280
Si Si3 0.153666 0.698189 0.720247
Si Si4 0.343047 0.701477 0.433519
Si Si5 0.347355 0.158681 0.591749
Si Si6 0.914061 0.908744 0.845676
Si Si7 0.346723 0.319666 0.578502
Si Si8 0.097953 0.944774 0.920780
O O1 0.750000 0.462431 0.658101
O O2 0.869731 0.515853 0.801950
O O3 0.861898 0.380934 0.767256
O O4 0.902118 0.462536 0.573813
O O5 0.250000 0.391286 0.824494
O O6 0.116193 0.357203 0.706124
O O7 0.119456 0.377916 0.961041
O O8 0.250000 0.713238 0.707935
O O9 0.114769 0.709953 0.575895
O O10 0.112331 0.750074 0.825508
O O11 0.250000 0.726984 0.442631
O O12 0.343503 0.620662 0.390608
O O13 0.250000 0.148612 0.614685
O O14 0.398429 0.123518 0.705841
O O15 0.371160 0.239288 0.583176
O O16 0.009114 0.922146 0.871773
O O17 0.870029 0.984735 0.851165
O O18 0.882134 0.854310 0.950350
O O19 0.250000 0.329498 0.572156
#
# Coordination Sequence:
#
# PCOD8192176 Si02
#       8
#     8   8   8   8   8   8   8   8
#     4   9  16  32  58  84 108 141 189 236 272 324
#     4   9  17  31  55  85 111 139 184 235 283 340
#     4   8  15  28  50  76 104 130 165 218 264 304
#     4   9  17  33  54  78 104 136 181 228 269 319
#     4  10  21  36  56  87 119 145 183 243 302 345
#     4  11  22  37  56  78 118 151 187 233 282 343
#     4  10  19  35  62  86 109 147 193 238 289 348
#     4  10  21  36  56  78 112 152 190 229 271 338
#
# _framework density 19.813583000000001
#
# number of rings (size 3 to 8) (size 9 to 14) (size 15 to 20)
#    0.000    2.500    1.250    2.250    0.000    3.500 
#    6.750    0.000    5.500    0.000    0.000    0.000 
#    0.000    0.000    0.000    0.000    0.000    0.000 
#
# Total GULP energy -396612.141127 kJ/mol
# GULP energy per Si atom -12394.129410 kJ/mol
# Density = 1.976849 g / cm^3
# Si number density = 19.813583 Si / 1000 Ang^3
#
#
#
# Elastic Constant Matrix: (Units=GPa)
#
#
# Indices 1 2 3 4 5 6 
#
# 1 20.3921 20.5171 23.6806 0.0000 0.0000 0.0000
# 2 20.5171 176.0537 104.0076 0.0000 0.0000 0.0000
# 3 23.6806 104.0076 166.1172 0.0000 0.0000 0.0000
# 4 0.0000 0.0000 0.0000 38.9204 0.0000 0.0000
# 5 0.0000 0.0000 0.0000 0.0000 17.4890 0.0000
# 6 0.0000 0.0000 0.0000 0.0000 0.0000 16.7623
#
#
#
# Elastic Compliance Matrix: (Units=1/GPa)
#
#
# Indices 1 2 3 4 5 6 
#
# 1 0.059793 -0.003067 -0.006603 0.000000 0.000000 0.000000
# 2 -0.003067 0.009172 -0.005305 0.000000 0.000000 0.000000
# 3 -0.006603 -0.005305 0.010283 0.000000 0.000000 0.000000
# 4 0.000000 0.000000 0.000000 0.025693 0.000000 0.000000
# 5 0.000000 0.000000 0.000000 0.000000 0.057179 0.000000
# 6 0.000000 0.000000 0.000000 0.000000 0.000000 0.059658
#
#
# Mechanical properties :
#
#
# Convention : Reuss Voigt Hill
#
# Bulk Modulus (GPa) = 20.28572 73.21930 46.75251
# Shear Modulus (GPa) = 18.64557 28.92487 23.78522
#
# Velocity S-wave (km/s) = 3.07098 3.82494 3.46851
# Velocity P-wave (km/s) = 4.77861 7.51939 6.29985
#
# Compressibility (1/GPa) = 0.04929575
#
# Stress axis : x y z
#
# Youngs Moduli (GPa) = 16.72449 109.03060 97.24923
#
# Poissons Ratio (x) = 0.33441 0.64217
# Poissons Ratio (y) = 0.05130 0.51593
# Poissons Ratio (z) = 0.11044 0.57844
#
# Static dielectric constant tensor:
#      x y z
#    x 3.171190 0.000000 0.000000 
#    y 0.000000 3.981520 0.000000 
#    z 0.000000 0.000000 3.799020 
# 
# 
# High freq. dielectric constant tensor:
#      x y z
#    x 1.729190 0.000000 0.000000 
#    y 0.000000 1.791680 0.000000 
#    z 0.000000 0.000000 1.764370 
# 
# From -- ./inp_files/6965.got.cif
#   From: 2010.03.12/outbox.cif.g09.slc.cpg/sg46_4_cif.got.tgz:6965.got - 2010.04.14 02:56:35.
