data_PCOD8192160
_publ_section_title
;
Structure prediction by ZEFSAII (Michael W. Deem and Ramdas Pophale) SiO2 
 PCOD8192160
Probable space group: I M A 2
;
_chemical_formula_sum "Si O2"
_cell_formula_units_Z 64
_cell_length_a 9.243626
_cell_length_b 23.646649
_cell_length_c 15.277494
_cell_angle_alpha 90.000000
_cell_angle_beta 90.000000
_cell_angle_gamma 90.000000
_cell_volume 3339.366547
_symmetry_space_group_name_H-M "I M A 2"
_symmetry_group_IT_number 46
_symmetry_cell_setting 'orthorhombic'
loop_
_space_group_symop_operation_xyz
x,y,z
-x,-y,z
1/2-x,y,z
1/2+x,-y,z
1/2+x,1/2+y,1/2+z
1/2-x,1/2-y,1/2+z
-x,1/2+y,1/2+z
x,1/2-y,1/2+z
loop_
_atom_site_type_symbol
_atom_site_label
_atom_site_fract_x
_atom_site_fract_y
_atom_site_fract_z
Si Si1 0.083152 0.633680 0.272240
Si Si2 0.583581 0.364068 0.596555
Si Si3 0.420876 0.257578 0.534772
Si Si4 0.915798 0.250408 0.855801
Si Si5 0.414620 0.625134 0.794235
Si Si6 0.919976 0.058861 0.936445
Si Si7 0.418727 0.135793 0.600871
Si Si8 0.578954 0.941371 0.437831
O O1 0.250000 0.621797 0.253694
O O2 0.052776 0.699954 0.288059
O O3 0.030371 0.598206 0.356066
O O4 0.997421 0.612822 0.187142
O O5 0.750000 0.346634 0.579637
O O6 0.487016 0.308378 0.590138
O O7 0.562936 0.390456 0.692673
O O8 0.532859 0.410399 0.526101
O O9 0.250000 0.264365 0.530201
O O10 0.479501 0.257495 0.436940
O O11 0.466904 0.199761 0.581961
O O12 0.750000 0.247213 0.888863
O O13 0.950001 0.308792 0.807096
O O14 0.250000 0.612006 0.823625
O O15 0.524596 0.586988 0.848503
O O16 0.750000 0.047485 0.934939
O O17 0.000000 0.000000 0.929082
O O18 0.250000 0.130824 0.618339
O O19 0.465419 0.098379 0.518275
O O20 0.750000 0.950593 0.430697
O O21 0.500000 0.000000 0.453378
#
# Coordination Sequence:
#
# PCOD8192160 Si02
#       8
#     8   8   8   8   8   8   8   8
#     4  10  21  38  61  88 116 153 196 239 288 345
#     4  10  21  40  62  87 121 155 193 241 289 349
#     4  11  21  35  58  89 121 156 193 233 292 350
#     4  10  19  35  59  88 120 152 191 237 291 352
#     4  10  21  37  63  92 116 152 195 239 297 353
#     4  10  22  40  60  83 115 152 195 242 289 341
#     4  10  23  40  58  86 121 154 189 239 296 346
#     4  11  24  43  62  83 118 156 199 249 295 346
#
# _framework density 19.165310999999999
#
# number of rings (size 3 to 8) (size 9 to 14) (size 15 to 20)
#    0.000    1.750    2.500    1.500    0.000    6.000 
#    0.000    3.750    0.000    0.000    0.000    0.000 
#    0.000    0.000    0.000    0.000    0.000    0.000 
#
# Total GULP energy -396949.861964 kJ/mol
# GULP energy per Si atom -12404.683186 kJ/mol
# Density = 1.912169 g / cm^3
# Si number density = 19.165311 Si / 1000 Ang^3
#
#
#
# Elastic Constant Matrix: (Units=GPa)
#
#
# Indices 1 2 3 4 5 6 
#
# 1 66.7415 46.5691 45.5824 0.0001 0.0000 0.0000
# 2 46.5691 89.5132 28.9780 0.0001 0.0000 0.0000
# 3 45.5824 28.9780 117.9768 0.0002 0.0000 0.0000
# 4 0.0001 0.0001 0.0002 9.5554 0.0000 0.0000
# 5 0.0000 0.0000 0.0000 0.0000 25.9287 0.0000
# 6 0.0000 0.0000 0.0000 0.0000 0.0000 35.5310
#
#
#
# Elastic Compliance Matrix: (Units=1/GPa)
#
#
# Indices 1 2 3 4 5 6 
#
# 1 0.029460 -0.012647 -0.008276 0.000000 0.000000 0.000000
# 2 -0.012647 0.017566 0.000572 0.000000 0.000000 0.000000
# 3 -0.008276 0.000572 0.011533 0.000000 0.000000 0.000000
# 4 0.000000 0.000000 0.000000 0.104652 0.000000 0.000000
# 5 0.000000 0.000000 0.000000 0.000000 0.038567 0.000000
# 6 0.000000 0.000000 0.000000 0.000000 0.000000 0.028144
#
#
# Mechanical properties :
#
#
# Convention : Reuss Voigt Hill
#
# Bulk Modulus (GPa) = 56.00139 57.38784 56.69461
# Shear Modulus (GPa) = 18.07801 24.40984 21.24392
#
# Velocity S-wave (km/s) = 3.07460 3.57269 3.33296
# Velocity P-wave (km/s) = 6.47208 6.85765 6.66765
#
# Compressibility (1/GPa) = 0.01785670
#
# Stress axis : x y z
#
# Youngs Moduli (GPa) = 33.94415 56.92749 86.70524
#
# Poissons Ratio (x) = 0.71999 0.71757
# Poissons Ratio (y) = 0.42931 -0.04958
# Poissons Ratio (z) = 0.28092 -0.03256
#
# Static dielectric constant tensor:
#      x y z
#    x 3.460400 0.000000 0.000000 
#    y 0.000000 3.535120 0.000000 
#    z 0.000000 0.000000 3.546540 
# 
# 
# High freq. dielectric constant tensor:
#      x y z
#    x 1.740920 0.000000 0.000000 
#    y 0.000000 1.744790 0.000000 
#    z 0.000000 0.000000 1.755000 
# 
# From -- ./inp_files/14467.got.cif
#   From: 2010.03.12/outbox.cif.g09.slc.cpg/sg46_8_cif.got.tgz:14467.got - 2010.04.14 02:56:35.
