data_PCOD8192675
_publ_section_title
;
Structure prediction by ZEFSAII (Michael W. Deem and Ramdas Pophale) SiO2 
 PCOD8192675
Probable space group: I M A 2
;
_chemical_formula_sum "Si O2"
_cell_formula_units_Z 64
_cell_length_a 8.664003
_cell_length_b 14.573415
_cell_length_c 24.286862
_cell_angle_alpha 90.000000
_cell_angle_beta 90.000000
_cell_angle_gamma 90.000000
_cell_volume 3066.559046
_symmetry_space_group_name_H-M "I M A 2"
_symmetry_group_IT_number 46
_symmetry_cell_setting 'orthorhombic'
loop_
_space_group_symop_operation_xyz
x,y,z
-x,-y,z
1/2-x,y,z
1/2+x,-y,z
1/2+x,1/2+y,1/2+z
1/2-x,1/2-y,1/2+z
-x,1/2+y,1/2+z
x,1/2-y,1/2+z
loop_
_atom_site_type_symbol
_atom_site_label
_atom_site_fract_x
_atom_site_fract_y
_atom_site_fract_z
Si Si1 0.930987 0.399175 0.285440
Si Si2 0.932279 0.602008 0.054099
Si Si3 0.570209 0.400075 0.163583
Si Si4 0.932169 0.601443 0.510714
Si Si5 0.931701 0.227201 0.459685
Si Si6 0.932869 0.733037 0.844105
Si Si7 0.567161 0.600778 0.748563
Si Si8 0.429218 0.401664 0.630108
O O1 0.750000 0.403222 0.298408
O O2 0.960506 0.356650 0.223931
O O3 0.000000 0.500000 0.291160
O O4 0.016205 0.336194 0.329849
O O5 0.750000 0.597385 0.053460
O O6 0.000000 0.500000 0.049126
O O7 0.986982 0.650464 0.111924
O O8 0.987438 0.661101 0.002966
O O9 0.500000 0.500000 0.166247
O O10 0.750000 0.405617 0.150043
O O11 0.750000 0.598418 0.499059
O O12 0.967458 0.646813 0.571653
O O13 0.000000 0.500000 0.503749
O O14 0.015141 0.667683 0.467591
O O15 0.750000 0.217930 0.465803
O O16 0.985114 0.197241 0.399125
O O17 0.750000 0.728914 0.851582
O O18 0.996043 0.667471 0.795636
O O19 0.500000 0.500000 0.757615
O O20 0.750000 0.594430 0.752775
O O21 0.514100 0.642698 0.688226
O O22 0.500000 0.500000 0.624379
O O23 0.250000 0.417199 0.635300
#
# Coordination Sequence:
#
# PCOD8192675 Si02
#       8
#     8   8   8   8   8   8   8   8
#     4  10  21  38  61  89 120 155 193 237 291 348
#     4  11  22  39  63  90 120 154 193 239 294 352
#     4   9  17  32  56  88 122 153 189 232 285 349
#     4  10  20  37  61  89 120 153 190 234 287 346
#     4  12  26  43  60  82 114 153 201 250 295 348
#     4  11  24  41  59  83 115 152 199 247 290 343
#     4   9  19  36  59  86 116 149 184 226 278 334
#     4   8  15  30  54  85 117 147 180 221 274 336
#
# _framework density 20.870296
#
# number of rings (size 3 to 8) (size 9 to 14) (size 15 to 20)
#    0.000    2.000    0.000    4.500    0.000    5.000 
#    0.000    5.000    0.000    0.000    0.000    0.000 
#    0.000    0.000    0.000    0.000    0.000    0.000 
#
# Total GULP energy -396552.452949 kJ/mol
# GULP energy per Si atom -12392.264155 kJ/mol
# Density = 2.082279 g / cm^3
# Si number density = 20.870296 Si / 1000 Ang^3
#
#
#
# Elastic Constant Matrix: (Units=GPa)
#
#
# Indices 1 2 3 4 5 6 
#
# 1 103.4814 12.6315 29.2650 0.0000 0.0000 0.0000
# 2 12.6315 38.6671 8.3648 0.0000 0.0000 0.0000
# 3 29.2650 8.3648 93.8750 0.0000 0.0000 0.0000
# 4 0.0000 0.0000 0.0000 33.5573 0.0000 0.0000
# 5 0.0000 0.0000 0.0000 0.0000 35.5019 0.0000
# 6 0.0000 0.0000 0.0000 0.0000 0.0000 30.6470
#
#
#
# Elastic Compliance Matrix: (Units=1/GPa)
#
#
# Indices 1 2 3 4 5 6 
#
# 1 0.010904 -0.002882 -0.003142 0.000000 0.000000 0.000000
# 2 -0.002882 0.027132 -0.001519 0.000000 0.000000 0.000000
# 3 -0.003142 -0.001519 0.011767 0.000000 0.000000 0.000000
# 4 0.000000 0.000000 0.000000 0.029800 0.000000 0.000000
# 5 0.000000 0.000000 0.000000 0.000000 0.028168 0.000000
# 6 0.000000 0.000000 0.000000 0.000000 0.000000 0.032630
#
#
# Mechanical properties :
#
#
# Convention : Reuss Voigt Hill
#
# Bulk Modulus (GPa) = 28.80524 37.39401 33.09962
# Shear Modulus (GPa) = 29.92935 32.32538 31.12737
#
# Velocity S-wave (km/s) = 3.79101 3.93984 3.86614
# Velocity P-wave (km/s) = 5.74407 6.21713 5.98527
#
# Compressibility (1/GPa) = 0.03471591
#
# Stress axis : x y z
#
# Youngs Moduli (GPa) = 91.70858 36.85690 84.98004
#
# Poissons Ratio (x) = 0.10623 0.26705
# Poissons Ratio (y) = 0.26433 0.12909
# Poissons Ratio (z) = 0.28819 0.05599
#
# Static dielectric constant tensor:
#      x y z
#    x 3.774970 0.000000 0.000000 
#    y 0.000000 3.500060 0.000000 
#    z 0.000000 0.000000 4.456580 
# 
# 
# High freq. dielectric constant tensor:
#      x y z
#    x 1.823690 0.000000 0.000000 
#    y 0.000000 1.795520 0.000000 
#    z 0.000000 0.000000 1.836340 
# 
# From -- ./inp_files/23200.got.cif
#   From: 2010.03.12/outbox.cif.g09.slc.cpg/sg46_12_cif.got.tgz:23200.got - 2010.04.14 02:56:35.
