data_PCOD8192755
_publ_section_title
;
Structure prediction by ZEFSAII (Michael W. Deem and Ramdas Pophale) SiO2 
 PCOD8192755
Probable space group: I M A 2
;
_chemical_formula_sum "Si O2"
_cell_formula_units_Z 64
_cell_length_a 17.430718
_cell_length_b 12.738402
_cell_length_c 13.436457
_cell_angle_alpha 90.000000
_cell_angle_beta 90.000000
_cell_angle_gamma 90.000000
_cell_volume 2983.424100
_symmetry_space_group_name_H-M "I M A 2"
_symmetry_group_IT_number 46
_symmetry_cell_setting 'orthorhombic'
loop_
_space_group_symop_operation_xyz
x,y,z
-x,-y,z
1/2-x,y,z
1/2+x,-y,z
1/2+x,1/2+y,1/2+z
1/2-x,1/2-y,1/2+z
-x,1/2+y,1/2+z
x,1/2-y,1/2+z
loop_
_atom_site_type_symbol
_atom_site_label
_atom_site_fract_x
_atom_site_fract_y
_atom_site_fract_z
Si Si1 0.925210 0.283830 0.992710
Si Si2 0.838410 0.124421 0.872455
Si Si3 0.082099 0.939828 0.678752
Si Si4 0.164141 0.073902 0.005529
Si Si5 0.333870 0.268445 0.867547
Si Si6 0.518579 0.881694 0.321282
Si Si7 0.335186 0.148628 0.662341
Si Si8 0.549442 0.812601 0.111031
O O1 0.851972 0.220937 0.949385
O O2 0.955680 0.349592 0.900566
O O3 0.910907 0.360829 0.085662
O O4 0.984598 0.193571 0.026800
O O5 0.750000 0.129118 0.836829
O O6 0.897071 0.126417 0.778647
O O7 0.856432 0.016665 0.929287
O O8 0.148408 0.025198 0.664975
O O9 0.000000 0.000000 0.686453
O O10 0.250000 0.058203 0.048471
O O11 0.153509 0.188073 0.956943
O O12 0.102448 0.082306 0.095933
O O13 0.250000 0.322399 0.874616
O O14 0.396346 0.361773 0.866648
O O15 0.339024 0.196151 0.771338
O O16 0.510655 0.815204 0.219623
O O17 0.500000 0.000000 0.293736
O O18 0.250000 0.164637 0.616251
O O19 0.399199 0.207233 0.597352
#
# Coordination Sequence:
#
# PCOD8192755 Si02
#       8
#     8   8   8   8   8   8   8   8
#     4  12  26  43  67  96 139 181 226 282 340 423
#     4  11  27  46  69 100 138 183 235 293 352 423
#     4  12  24  42  72 104 131 183 240 294 350 414
#     4  10  20  38  67 101 132 169 224 283 337 398
#     4   9  18  38  67  98 129 165 216 283 341 389
#     4  11  25  43  63  96 140 177 222 275 337 421
#     4  10  20  38  66  99 133 167 219 286 345 396
#     4  11  23  39  65 100 132 178 221 276 347 404
#
# _framework density 21.451862999999999
#
# number of rings (size 3 to 8) (size 9 to 14) (size 15 to 20)
#    0.000    1.250    3.750    1.875    5.250    1.500 
#    0.000    0.625    0.000    0.000    0.000    0.000 
#    0.000    0.000    0.000    0.000    0.000    0.000 
#
# Total GULP energy -396632.105078 kJ/mol
# GULP energy per Si atom -12394.753284 kJ/mol
# Density = 2.140304 g / cm^3
# Si number density = 21.451863 Si / 1000 Ang^3
#
#
#
# Elastic Constant Matrix: (Units=GPa)
#
#
# Indices 1 2 3 4 5 6 
#
# 1 85.2771 48.8221 35.9213 0.0000 0.0000 0.0000
# 2 48.8221 89.0278 30.2646 0.0000 0.0000 0.0000
# 3 35.9213 30.2646 94.5037 0.0000 0.0000 0.0000
# 4 0.0000 0.0000 0.0000 27.9090 0.0000 0.0000
# 5 0.0000 0.0000 0.0000 0.0000 18.9677 0.0000
# 6 0.0000 0.0000 0.0000 0.0000 0.0000 31.4369
#
#
#
# Elastic Compliance Matrix: (Units=1/GPa)
#
#
# Indices 1 2 3 4 5 6 
#
# 1 0.018495 -0.008700 -0.004244 0.000000 0.000000 0.000000
# 2 -0.008700 0.016697 -0.002040 0.000000 0.000000 0.000000
# 3 -0.004244 -0.002040 0.012848 0.000000 0.000000 0.000000
# 4 0.000000 0.000000 0.000000 0.035831 0.000000 0.000000
# 5 0.000000 0.000000 0.000000 0.000000 0.052721 0.000000
# 6 0.000000 0.000000 0.000000 0.000000 0.000000 0.031810
#
#
# Mechanical properties :
#
#
# Convention : Reuss Voigt Hill
#
# Bulk Modulus (GPa) = 55.33439 55.42495 55.37967
# Shear Modulus (GPa) = 24.46263 25.91610 25.18937
#
# Velocity S-wave (km/s) = 3.38057 3.47955 3.43042
# Velocity P-wave (km/s) = 6.41002 6.48352 6.44687
#
# Compressibility (1/GPa) = 0.01807194
#
# Stress axis : x y z
#
# Youngs Moduli (GPa) = 54.06919 59.89134 77.83220
#
# Poissons Ratio (x) = 0.52104 0.33031
# Poissons Ratio (y) = 0.47039 0.15881
# Poissons Ratio (z) = 0.22946 0.12220
#
# Static dielectric constant tensor:
#      x y z
#    x 4.122070 0.000000 0.000000 
#    y 0.000000 3.776180 0.000000 
#    z 0.000000 0.000000 4.002190 
# 
# 
# High freq. dielectric constant tensor:
#      x y z
#    x 1.841600 0.000000 0.000000 
#    y 0.000000 1.824630 0.000000 
#    z 0.000000 0.000000 1.849900 
# 
# From -- ./inp_files/16747.got.cif
#   From: 2010.03.12/outbox.cif.g09.slc.cpg/sg46_9_cif.got.tgz:16747.got - 2010.04.14 02:56:35.
