data_PCOD8192470
_publ_section_title
;
Structure prediction by ZEFSAII (Michael W. Deem and Ramdas Pophale) SiO2 
 PCOD8192470
Probable space group: I M A 2
;
_chemical_formula_sum "Si O2"
_cell_formula_units_Z 56
_cell_length_a 16.602842
_cell_length_b 12.111590
_cell_length_c 14.941599
_cell_angle_alpha 90.000000
_cell_angle_beta 90.000000
_cell_angle_gamma 90.000000
_cell_volume 3004.558556
_symmetry_space_group_name_H-M "I M A 2"
_symmetry_group_IT_number 46
_symmetry_cell_setting 'orthorhombic'
loop_
_space_group_symop_operation_xyz
x,y,z
-x,-y,z
1/2-x,y,z
1/2+x,-y,z
1/2+x,1/2+y,1/2+z
1/2-x,1/2-y,1/2+z
-x,1/2+y,1/2+z
x,1/2-y,1/2+z
loop_
_atom_site_type_symbol
_atom_site_label
_atom_site_fract_x
_atom_site_fract_y
_atom_site_fract_z
Si Si1 0.053736 0.750510 0.364490
Si Si2 0.345049 0.308618 0.112417
Si Si3 0.941848 0.905627 0.458002
Si Si4 0.088318 0.974318 0.279651
Si Si5 0.653614 0.454823 0.422868
Si Si6 0.562688 0.910876 0.772576
Si Si7 0.342548 0.062399 0.105138
O O1 0.099223 0.847171 0.309374
O O2 0.120262 0.667713 0.404162
O O3 0.000695 0.801407 0.444317
O O4 0.990072 0.693511 0.299550
O O5 0.250000 0.306919 0.117171
O O6 0.375341 0.375250 0.197501
O O7 0.381858 0.184550 0.110468
O O8 0.370739 0.374697 0.024301
O O9 0.899646 0.945772 0.365565
O O10 0.000000 0.000000 0.498174
O O11 0.149434 0.999179 0.199502
O O12 0.000000 0.000000 0.240235
O O13 0.750000 0.453698 0.412148
O O14 0.614206 0.541832 0.355069
O O15 0.623414 0.490940 0.522008
O O16 0.500000 0.000000 0.733891
O O17 0.250000 0.080278 0.084001
#
# Coordination Sequence:
#
# PCOD8192470 Si02
#       7
#     8   8   8   8   8   8   8
#     4   9  19  35  58  78 102 143 180 220 276 323
#     4  11  21  34  54  80 109 145 181 222 273 323
#     4   9  19  36  54  78 108 138 180 227 266 319
#     4   9  19  36  56  79 105 135 176 223 262 312
#     4  10  21  37  54  80 112 142 179 224 268 320
#     4  10  20  35  55  78 106 141 181 224 270 323
#     4  10  22  35  52  79 109 138 174 218 266 318
#
# _framework density 18.638345999999999
#
# number of rings (size 3 to 8) (size 9 to 14) (size 15 to 20)
#    0.000    2.571    0.000    3.429    0.000    5.143 
#    0.000    7.143    0.000    6.857    0.000    0.000 
#    0.000    0.000    0.000    0.000    0.000    0.000 
#
# Total GULP energy -347093.407495 kJ/mol
# GULP energy per Si atom -12396.193125 kJ/mol
# Density = 1.859592 g / cm^3
# Si number density = 18.638346 Si / 1000 Ang^3
#
#
#
# Elastic Constant Matrix: (Units=GPa)
#
#
# Indices 1 2 3 4 5 6 
#
# 1 66.5075 40.5828 49.2158 0.0000 0.0000 0.0000
# 2 40.5828 128.2596 71.3331 0.0000 0.0000 0.0000
# 3 49.2158 71.3331 129.2144 0.0000 0.0000 0.0000
# 4 0.0000 0.0000 0.0000 22.5219 0.0000 0.0000
# 5 0.0000 0.0000 0.0000 0.0000 32.8095 0.0000
# 6 0.0000 0.0000 0.0000 0.0000 0.0000 23.0130
#
#
#
# Elastic Compliance Matrix: (Units=1/GPa)
#
#
# Indices 1 2 3 4 5 6 
#
# 1 0.021864 -0.003300 -0.006506 0.000000 0.000000 0.000000
# 2 -0.003300 0.011749 -0.005229 0.000000 0.000000 0.000000
# 3 -0.006506 -0.005229 0.013104 0.000000 0.000000 0.000000
# 4 0.000000 0.000000 0.000000 0.044401 0.000000 0.000000
# 5 0.000000 0.000000 0.000000 0.000000 0.030479 0.000000
# 6 0.000000 0.000000 0.000000 0.000000 0.000000 0.043454
#
#
# Mechanical properties :
#
#
# Convention : Reuss Voigt Hill
#
# Bulk Modulus (GPa) = 60.07104 71.80498 65.93801
# Shear Modulus (GPa) = 24.91656 26.52553 25.72104
#
# Velocity S-wave (km/s) = 3.66025 3.77658 3.71887
# Velocity P-wave (km/s) = 7.08259 7.59117 7.34128
#
# Compressibility (1/GPa) = 0.01664696
#
# Stress axis : x y z
#
# Youngs Moduli (GPa) = 45.73778 85.11326 76.31254
#
# Poissons Ratio (x) = 0.28083 0.49649
# Poissons Ratio (y) = 0.15091 0.39906
# Poissons Ratio (z) = 0.29757 0.44509
#
# Static dielectric constant tensor:
#      x y z
#    x 3.243460 0.000000 0.000000 
#    y 0.000000 4.427410 0.000000 
#    z 0.000000 0.000000 3.305330 
# 
# 
# High freq. dielectric constant tensor:
#      x y z
#    x 1.710820 0.000000 0.000000 
#    y 0.000000 1.737660 0.000000 
#    z 0.000000 0.000000 1.721470 
# 
# From -- ./inp_files/15986.got.cif
#   From: 2010.03.12/outbox.cif.g09.slc.cpg/sg46_8_cif.got.tgz:15986.got - 2010.04.14 02:56:35.
