data_PCOD8192456
_publ_section_title
;
Structure prediction by ZEFSAII (Michael W. Deem and Ramdas Pophale) SiO2 
 PCOD8192456
Probable space group: I M A 2
;
_chemical_formula_sum "Si O2"
_cell_formula_units_Z 60
_cell_length_a 23.691629
_cell_length_b 13.470815
_cell_length_c 9.371984
_cell_angle_alpha 90.000000
_cell_angle_beta 90.000000
_cell_angle_gamma 90.000000
_cell_volume 2991.027001
_symmetry_space_group_name_H-M "I M A 2"
_symmetry_group_IT_number 46
_symmetry_cell_setting 'orthorhombic'
loop_
_space_group_symop_operation_xyz
x,y,z
-x,-y,z
1/2-x,y,z
1/2+x,-y,z
1/2+x,1/2+y,1/2+z
1/2-x,1/2-y,1/2+z
-x,1/2+y,1/2+z
x,1/2-y,1/2+z
loop_
_atom_site_type_symbol
_atom_site_label
_atom_site_fract_x
_atom_site_fract_y
_atom_site_fract_z
Si Si1 0.969589 0.159451 0.654240
Si Si2 0.616090 0.045892 0.315916
Si Si3 0.482239 0.650002 0.481004
Si Si4 0.410117 0.453722 0.543423
Si Si5 0.185641 0.819638 0.121997
Si Si6 0.000000 0.500000 0.960066
Si Si7 0.688648 0.016263 0.889323
Si Si8 0.152578 0.903339 0.605682
O O1 0.956115 0.260892 0.571246
O O2 0.989228 0.178178 0.815158
O O3 0.911572 0.098299 0.660481
O O4 0.015368 0.092794 0.565760
O O5 0.639136 0.147157 0.240504
O O6 0.654189 0.033480 0.457585
O O7 0.620797 0.958450 0.198633
O O8 0.549852 0.043670 0.359994
O O9 0.443296 0.555285 0.506959
O O10 0.545989 0.635734 0.538991
O O11 0.360056 0.437053 0.428653
O O12 0.250000 0.834702 0.179134
O O13 0.176749 0.706023 0.079354
O O14 0.176428 0.882825 0.977649
O O15 0.750000 0.972096 0.928622
O O16 0.689495 0.039798 0.721750
#
# Coordination Sequence:
#
# PCOD8192456 Si02
#       8
#     8   8   8   8   8   4   8   8
#     4  11  24  35  56  87 114 157 194 243 294 365
#     4  10  22  34  56  77 111 158 201 241 295 341
#     4  11  23  36  61  84 120 152 200 233 309 358
#     4  10  21  40  56  81 118 161 189 250 289 357
#     4  10  21  35  52  80 118 160 200 241 290 355
#     4  10  22  38  56  82 122 148 200 256 302 344
#     4  10  20  35  53  76 108 155 198 233 290 348
#     4  11  21  31  51  79 117 150 196 241 284 343
#
# _framework density 20.059999999999999
#
# number of rings (size 3 to 8) (size 9 to 14) (size 15 to 20)
#    0.000    1.600    1.333    4.400   11.200    2.133 
#    0.000    0.000    0.000    0.000    0.000    1.867 
#    0.000    0.000    0.000    0.000    0.000    0.000 
#
# Total GULP energy -371727.615032 kJ/mol
# GULP energy per Si atom -12390.920501 kJ/mol
# Density = 2.001434 g / cm^3
# Si number density = 20.060000 Si / 1000 Ang^3
#
#
#
# Elastic Constant Matrix: (Units=GPa)
#
#
# Indices 1 2 3 4 5 6 
#
# 1 103.1623 11.9362 31.0514 0.0000 0.0000 0.0000
# 2 11.9362 23.7413 14.5172 0.0000 0.0000 0.0000
# 3 31.0514 14.5172 138.2385 0.0000 0.0000 0.0000
# 4 0.0000 0.0000 0.0000 20.1898 0.0000 0.0000
# 5 0.0000 0.0000 0.0000 0.0000 26.8102 0.0000
# 6 0.0000 0.0000 0.0000 0.0000 0.0000 25.0947
#
#
#
# Elastic Compliance Matrix: (Units=1/GPa)
#
#
# Indices 1 2 3 4 5 6 
#
# 1 0.010776 -0.004208 -0.001979 0.000000 0.000000 0.000000
# 2 -0.004208 0.046654 -0.003954 0.000000 0.000000 0.000000
# 3 -0.001979 -0.003954 0.008094 0.000000 0.000000 0.000000
# 4 0.000000 0.000000 0.000000 0.049530 0.000000 0.000000
# 5 0.000000 0.000000 0.000000 0.000000 0.037299 0.000000
# 6 0.000000 0.000000 0.000000 0.000000 0.000000 0.039849
#
#
# Mechanical properties :
#
#
# Convention : Reuss Voigt Hill
#
# Bulk Modulus (GPa) = 22.10327 42.23907 32.17117
# Shear Modulus (GPa) = 21.97186 28.26143 25.11665
#
# Velocity S-wave (km/s) = 3.31313 3.75753 3.54231
# Velocity P-wave (km/s) = 5.06738 6.31882 5.72738
#
# Compressibility (1/GPa) = 0.04524218
#
# Stress axis : x y z
#
# Youngs Moduli (GPa) = 92.79990 21.43437 123.55490
#
# Poissons Ratio (x) = 0.09019 0.24447
# Poissons Ratio (y) = 0.39048 0.48857
# Poissons Ratio (z) = 0.18361 0.08476
#
# Static dielectric constant tensor:
#      x y z
#    x 3.875740 0.000000 0.000000 
#    y 0.000000 3.230030 0.000000 
#    z 0.000000 0.000000 3.998600 
# 
# 
# High freq. dielectric constant tensor:
#      x y z
#    x 1.779700 0.000000 0.000000 
#    y 0.000000 1.715640 0.000000 
#    z 0.000000 0.000000 1.805120 
# 
# From -- ./inp_files/7925.got.cif
#   From: 2010.03.12/outbox.cif.g09.slc.cpg/sg46_4_cif.got.tgz:7925.got - 2010.04.14 02:56:35.
