data_PCOD8192363
_publ_section_title
;
Structure prediction by ZEFSAII (Michael W. Deem and Ramdas Pophale) SiO2 
 PCOD8192363
Probable space group: I M A 2
;
_chemical_formula_sum "Si O2"
_cell_formula_units_Z 64
_cell_length_a 9.140515
_cell_length_b 14.381991
_cell_length_c 27.694283
_cell_angle_alpha 90.000000
_cell_angle_beta 90.000000
_cell_angle_gamma 90.000000
_cell_volume 3640.657334
_symmetry_space_group_name_H-M "I M A 2"
_symmetry_group_IT_number 46
_symmetry_cell_setting 'orthorhombic'
loop_
_space_group_symop_operation_xyz
x,y,z
-x,-y,z
1/2-x,y,z
1/2+x,-y,z
1/2+x,1/2+y,1/2+z
1/2-x,1/2-y,1/2+z
-x,1/2+y,1/2+z
x,1/2-y,1/2+z
loop_
_atom_site_type_symbol
_atom_site_label
_atom_site_fract_x
_atom_site_fract_y
_atom_site_fract_z
Si Si1 0.585783 0.588392 0.978970
Si Si2 0.076098 0.207383 0.012331
Si Si3 0.918238 0.091899 0.201667
Si Si4 0.082201 0.167432 0.380030
Si Si5 0.416302 0.588446 0.321385
Si Si6 0.917796 0.339375 0.422233
Si Si7 0.423466 0.596360 0.591919
Si Si8 0.421561 0.708581 0.791942
O O1 0.500000 0.500000 0.000107
O O2 0.750000 0.574931 0.996714
O O3 0.575950 0.586531 0.920296
O O4 0.528591 0.686532 0.000370
O O5 0.250000 0.195787 0.016284
O O6 0.996352 0.179145 0.061555
O O7 0.017251 0.139625 0.969345
O O8 0.750000 0.065087 0.204117
O O9 0.961313 0.120767 0.147360
O O10 0.955347 0.177224 0.237283
O O11 0.000000 0.000000 0.219164
O O12 0.250000 0.202931 0.375197
O O13 0.972699 0.245564 0.398217
O O14 0.015537 0.140493 0.327648
O O15 0.500000 0.500000 0.299252
O O16 0.250000 0.577571 0.305374
O O17 0.432643 0.584373 0.379860
O O18 0.476643 0.684980 0.298623
O O19 0.750000 0.328819 0.439051
O O20 0.500000 0.500000 0.576764
O O21 0.250000 0.589807 0.582292
O O22 0.250000 0.699652 0.804799
#
# Coordination Sequence:
#
# PCOD8192363 Si02
#       8
#     8   8   8   8   8   8   8   8
#     4   9  19  32  47  69  99 133 167 202 240 281
#     4  10  20  34  51  74 102 130 163 207 249 293
#     4   9  19  35  54  75  99 124 157 200 248 300
#     4   9  17  29  44  67  96 126 162 203 240 277
#     4   9  18  30  46  68  96 129 164 198 234 276
#     4   9  17  30  46  66  93 128 165 199 238 285
#     4  10  20  35  55  77  98 126 160 200 252 306
#     4   9  18  33  50  70  97 130 163 199 243 294
#
# _framework density 17.579242000000001
#
# number of rings (size 3 to 8) (size 9 to 14) (size 15 to 20)
#    0.000    2.750    0.000    3.000    0.000    7.500 
#    0.000    3.750    0.000    0.750    0.000    3.500 
#    0.000    0.000    0.000    0.000    0.000    0.000 
#
# Total GULP energy -396548.421565 kJ/mol
# GULP energy per Si atom -12392.138174 kJ/mol
# Density = 1.753923 g / cm^3
# Si number density = 17.579242 Si / 1000 Ang^3
#
#
#
# Elastic Constant Matrix: (Units=GPa)
#
#
# Indices 1 2 3 4 5 6 
#
# 1 77.6046 45.8657 40.8953 0.0000 0.0000 0.0000
# 2 45.8657 87.3213 51.0640 0.0000 0.0000 0.0000
# 3 40.8953 51.0640 96.5563 0.0000 0.0000 0.0000
# 4 0.0000 0.0000 0.0000 21.2372 0.0000 0.0000
# 5 0.0000 0.0000 0.0000 0.0000 23.1127 0.0000
# 6 0.0000 0.0000 0.0000 0.0000 0.0000 28.5032
#
#
#
# Elastic Compliance Matrix: (Units=1/GPa)
#
#
# Indices 1 2 3 4 5 6 
#
# 1 0.019785 -0.007951 -0.004175 0.000000 0.000000 0.000000
# 2 -0.007951 0.019774 -0.007090 0.000000 0.000000 0.000000
# 3 -0.004175 -0.007090 0.015875 0.000000 0.000000 0.000000
# 4 0.000000 0.000000 0.000000 0.047087 0.000000 0.000000
# 5 0.000000 0.000000 0.000000 0.000000 0.043266 0.000000
# 6 0.000000 0.000000 0.000000 0.000000 0.000000 0.035084
#
#
# Mechanical properties :
#
#
# Convention : Reuss Voigt Hill
#
# Bulk Modulus (GPa) = 58.81629 59.68133 59.24881
# Shear Modulus (GPa) = 22.22518 22.81444 22.51981
#
# Velocity S-wave (km/s) = 3.55954 3.60642 3.58305
# Velocity P-wave (km/s) = 7.10100 7.16695 7.13405
#
# Compressibility (1/GPa) = 0.01700209
#
# Stress axis : x y z
#
# Youngs Moduli (GPa) = 50.54369 50.57071 62.99366
#
# Poissons Ratio (x) = 0.40207 0.26300
# Poissons Ratio (y) = 0.40185 0.44664
# Poissons Ratio (z) = 0.21102 0.35856
#
# Static dielectric constant tensor:
#      x y z
#    x 3.339100 0.000000 0.000000 
#    y 0.000000 3.059070 0.000000 
#    z 0.000000 0.000000 3.424640 
# 
# 
# High freq. dielectric constant tensor:
#      x y z
#    x 1.688300 0.000000 0.000000 
#    y 0.000000 1.656090 0.000000 
#    z 0.000000 0.000000 1.662270 
# 
# From -- ./inp_files/23146.got.cif
#   From: 2010.03.12/outbox.cif.g09.slc.cpg/sg46_12_cif.got.tgz:23146.got - 2010.04.14 02:56:35.
