data_PCOD8192388
_publ_section_title
;
Structure prediction by ZEFSAII (Michael W. Deem and Ramdas Pophale) SiO2 
 PCOD8192388
Probable space group: I M A 2
;
_chemical_formula_sum "Si O2"
_cell_formula_units_Z 48
_cell_length_a 8.987278
_cell_length_b 23.155267
_cell_length_c 11.663703
_cell_angle_alpha 90.000000
_cell_angle_beta 90.000000
_cell_angle_gamma 90.000000
_cell_volume 2427.249506
_symmetry_space_group_name_H-M "I M A 2"
_symmetry_group_IT_number 46
_symmetry_cell_setting 'orthorhombic'
loop_
_space_group_symop_operation_xyz
x,y,z
-x,-y,z
1/2-x,y,z
1/2+x,-y,z
1/2+x,1/2+y,1/2+z
1/2-x,1/2-y,1/2+z
-x,1/2+y,1/2+z
x,1/2-y,1/2+z
loop_
_atom_site_type_symbol
_atom_site_label
_atom_site_fract_x
_atom_site_fract_y
_atom_site_fract_z
Si Si1 0.925710 0.861276 0.211600
Si Si2 0.586641 0.445739 0.562718
Si Si3 0.425421 0.221990 0.008492
Si Si4 0.416481 0.862171 0.851261
Si Si5 0.574333 0.849031 0.466903
Si Si6 0.572408 0.936672 0.658145
O O1 0.750000 0.868558 0.212433
O O2 0.991035 0.850581 0.338348
O O3 0.997031 0.921027 0.170648
O O4 0.973617 0.809512 0.126176
O O5 0.500000 0.500000 0.511611
O O6 0.750000 0.464296 0.604759
O O7 0.597987 0.400126 0.463226
O O8 0.250000 0.215942 0.986958
O O9 0.503488 0.196467 0.893866
O O10 0.475931 0.288501 0.024053
O O11 0.250000 0.849397 0.802594
O O12 0.516367 0.896175 0.760455
O O13 0.750000 0.850539 0.460028
O O14 0.521138 0.903953 0.541666
O O15 0.750000 0.943240 0.667806
O O16 0.500000 0.000000 0.662021
#
# Coordination Sequence:
#
# PCOD8192388 Si02
#       6
#     8   8   8   8   8   8
#     4   9  18  34  55  81 112 143 183 229 278 336
#     4  10  20  34  54  79 109 142 183 229 280 333
#     4   9  18  34  60  87 112 146 190 237 287 341
#     4  10  21  37  57  85 117 149 188 237 290 344
#     4   9  20  36  58  86 113 150 194 236 283 343
#     4  11  23  39  59  84 118 158 201 243 288 346
#
# _framework density 19.775471
#
# number of rings (size 3 to 8) (size 9 to 14) (size 15 to 20)
#    0.000    2.333    0.000    2.000    2.333    4.000 
#    0.000    5.833    0.000    0.000    0.000    0.000 
#    0.000    0.000    0.000    0.000    0.000    0.000 
#
# Total GULP energy -297502.320000 kJ/mol
# GULP energy per Si atom -12395.930000 kJ/mol
# Density = 1.973046 g / cm^3
# Si number density = 19.775471 Si / 1000 Ang^3
#
#
#
# Elastic Constant Matrix: (Units=GPa)
#
#
# Indices 1 2 3 4 5 6 
#
# 1 68.9626 27.6448 33.4510 0.0004 0.0000 -0.0001
# 2 27.6448 85.1232 34.2664 -0.0001 0.0002 -0.0002
# 3 33.4510 34.2664 109.0865 -0.0007 0.0011 -0.0003
# 4 0.0004 -0.0001 -0.0007 23.3624 0.0001 -0.0001
# 5 0.0000 0.0002 0.0011 0.0001 9.8526 0.0000
# 6 -0.0001 -0.0002 -0.0003 -0.0001 0.0000 24.2791
#
#
#
# Elastic Compliance Matrix: (Units=1/GPa)
#
#
# Indices 1 2 3 4 5 6 
#
# 1 0.018263 -0.004209 -0.004278 0.000000 0.000001 0.000000
# 2 -0.004209 0.014418 -0.003238 0.000000 0.000000 0.000000
# 3 -0.004278 -0.003238 0.011496 0.000000 -0.000001 0.000000
# 4 0.000000 0.000000 0.000000 0.042804 -0.000001 0.000000
# 5 0.000001 0.000000 -0.000001 -0.000001 0.101496 0.000000
# 6 0.000000 0.000000 0.000000 0.000000 0.000000 0.041188
#
#
# Mechanical properties :
#
#
# Convention : Reuss Voigt Hill
#
# Bulk Modulus (GPa) = 48.24779 50.43297 49.34038
# Shear Modulus (GPa) = 19.22897 22.68617 20.95757
#
# Velocity S-wave (km/s) = 3.12166 3.39069 3.25895
# Velocity P-wave (km/s) = 6.11913 6.39431 6.25823
#
# Compressibility (1/GPa) = 0.02072634
#
# Stress axis : x y z
#
# Youngs Moduli (GPa) = 54.75546 69.35671 86.98535
#
# Poissons Ratio (x) = 0.29192 0.37214
# Poissons Ratio (y) = 0.23046 0.28169
# Poissons Ratio (z) = 0.23425 0.22461
#
# Static dielectric constant tensor:
#      x y z
#    x 3.728290 0.000000 0.000000 
#    y 0.000000 3.732240 0.000000 
#    z 0.000000 0.000000 3.791460 
# 
# 
# High freq. dielectric constant tensor:
#      x y z
#    x 1.757740 0.000000 0.000000 
#    y 0.000000 1.774640 0.000000 
#    z 0.000000 0.000000 1.767080 
# 
# From -- ./inp_files/9282.got.cif
#   From: 2010.03.12/outbox.cif.g09.slc.cpg/sg46_5_cif.got.tgz:9282.got - 2010.04.14 02:56:35.
