data_PCOD8192041
_publ_section_title
;
Structure prediction by ZEFSAII (Michael W. Deem and Ramdas Pophale) SiO2 
 PCOD8192041
Probable space group: I M A 2
;
_chemical_formula_sum "Si O2"
_cell_formula_units_Z 56
_cell_length_a 8.845032
_cell_length_b 19.061361
_cell_length_c 18.324214
_cell_angle_alpha 90.000000
_cell_angle_beta 90.000000
_cell_angle_gamma 90.000000
_cell_volume 3089.432209
_symmetry_space_group_name_H-M "I M A 2"
_symmetry_group_IT_number 46
_symmetry_cell_setting 'orthorhombic'
loop_
_space_group_symop_operation_xyz
x,y,z
-x,-y,z
1/2-x,y,z
1/2+x,-y,z
1/2+x,1/2+y,1/2+z
1/2-x,1/2-y,1/2+z
-x,1/2+y,1/2+z
x,1/2-y,1/2+z
loop_
_atom_site_type_symbol
_atom_site_label
_atom_site_fract_x
_atom_site_fract_y
_atom_site_fract_z
Si Si1 0.574639 0.707011 0.020070
Si Si2 0.921795 0.322292 0.604892
Si Si3 0.923801 0.075205 0.978639
Si Si4 0.578288 0.185944 0.275633
Si Si5 0.927090 0.932535 0.357961
Si Si6 0.924835 0.211406 0.895476
Si Si7 0.571622 0.069210 0.515811
O O1 0.750000 0.690107 0.011357
O O2 0.546201 0.768691 0.076633
O O3 0.490352 0.639254 0.054133
O O4 0.510193 0.728620 0.941188
O O5 0.750000 0.297651 0.587645
O O6 0.950651 0.395668 0.561501
O O7 0.949866 0.322995 0.690408
O O8 0.750000 0.060877 0.963480
O O9 0.984212 0.133241 0.918476
O O10 0.000000 0.000000 0.967707
O O11 0.750000 0.162735 0.294638
O O12 0.454348 0.135381 0.309747
O O13 0.553206 0.265096 0.310069
O O14 0.750000 0.942900 0.372550
O O15 0.016162 0.925120 0.433111
O O16 0.000000 0.000000 0.316883
O O17 0.750000 0.213983 0.918738
O O18 0.750000 0.064927 0.521495
O O19 0.500000 0.000000 0.553478
#
# Coordination Sequence:
#
# PCOD8192041 Si02
#       7
#     8   8   8   8   8   8   8
#     4  11  20  32  51  76 103 134 172 215 261 312
#     4   9  20  36  53  75 103 138 177 216 266 324
#     4   9  18  33  52  76 104 134 173 218 263 315
#     4  10  19  34  55  76 102 139 178 220 271 320
#     4  11  21  32  47  72 105 138 172 208 250 303
#     4   9  18  33  54  76 100 133 175 223 268 315
#     4  11  20  32  50  73 101 132 168 210 255 304
#
# _framework density 18.126307000000001
#
# number of rings (size 3 to 8) (size 9 to 14) (size 15 to 20)
#    0.000    2.000    1.429    5.571    0.000    3.429 
#    0.000    1.429    0.000    0.857    0.000    2.000 
#    0.000    0.000    0.000    0.000    0.000    0.000 
#
# Total GULP energy -346897.579480 kJ/mol
# GULP energy per Si atom -12389.199267 kJ/mol
# Density = 1.808505 g / cm^3
# Si number density = 18.126307 Si / 1000 Ang^3
#
#
#
# Elastic Constant Matrix: (Units=GPa)
#
#
# Indices 1 2 3 4 5 6 
#
# 1 99.1331 41.3597 2.0648 0.0000 0.0000 0.0000
# 2 41.3597 128.9608 26.4160 0.0000 0.0000 0.0000
# 3 2.0648 26.4160 53.5949 0.0000 0.0000 0.0000
# 4 0.0000 0.0000 0.0000 15.9696 0.0000 0.0000
# 5 0.0000 0.0000 0.0000 0.0000 15.0828 0.0000
# 6 0.0000 0.0000 0.0000 0.0000 0.0000 34.9028
#
#
#
# Elastic Compliance Matrix: (Units=1/GPa)
#
#
# Indices 1 2 3 4 5 6 
#
# 1 0.011762 -0.004093 0.001564 0.000000 0.000000 0.000000
# 2 -0.004093 0.010049 -0.004795 0.000000 0.000000 0.000000
# 3 0.001564 -0.004795 0.020962 0.000000 0.000000 0.000000
# 4 0.000000 0.000000 0.000000 0.062619 0.000000 0.000000
# 5 0.000000 0.000000 0.000000 0.000000 0.066301 0.000000
# 6 0.000000 0.000000 0.000000 0.000000 0.000000 0.028651
#
#
# Mechanical properties :
#
#
# Convention : Reuss Voigt Hill
#
# Bulk Modulus (GPa) = 35.55519 46.81887 41.18703
# Shear Modulus (GPa) = 22.28489 27.31426 24.79957
#
# Velocity S-wave (km/s) = 3.51012 3.88607 3.70287
# Velocity P-wave (km/s) = 6.00714 6.78386 6.40728
#
# Compressibility (1/GPa) = 0.02812529
#
# Stress axis : x y z
#
# Youngs Moduli (GPa) = 85.01640 99.51042 47.70576
#
# Poissons Ratio (x) = 0.40727 -0.07462
# Poissons Ratio (y) = 0.34795 0.22877
# Poissons Ratio (z) = -0.13298 0.47719
#
# Static dielectric constant tensor:
#      x y z
#    x 3.298170 0.000000 0.000000 
#    y 0.000000 3.995910 0.000000 
#    z 0.000000 0.000000 3.151710 
# 
# 
# High freq. dielectric constant tensor:
#      x y z
#    x 1.704320 0.000000 0.000000 
#    y 0.000000 1.708110 0.000000 
#    z 0.000000 0.000000 1.663110 
# 
# From -- ./inp_files/18450.got.cif
#   From: 2010.03.12/outbox.cif.g09.slc.cpg/sg46_10_cif.got.tgz:18450.got - 2010.04.14 02:56:35.
