data_PCOD8192323
_publ_section_title
;
Structure prediction by ZEFSAII (Michael W. Deem and Ramdas Pophale) SiO2 
 PCOD8192323
Probable space group: I M A 2
;
_chemical_formula_sum "Si O2"
_cell_formula_units_Z 64
_cell_length_a 8.827427
_cell_length_b 14.486096
_cell_length_c 27.431955
_cell_angle_alpha 90.000000
_cell_angle_beta 90.000000
_cell_angle_gamma 90.000000
_cell_volume 3507.860010
_symmetry_space_group_name_H-M "I M A 2"
_symmetry_group_IT_number 46
_symmetry_cell_setting 'orthorhombic'
loop_
_space_group_symop_operation_xyz
x,y,z
-x,-y,z
1/2-x,y,z
1/2+x,-y,z
1/2+x,1/2+y,1/2+z
1/2-x,1/2-y,1/2+z
-x,1/2+y,1/2+z
x,1/2-y,1/2+z
loop_
_atom_site_type_symbol
_atom_site_label
_atom_site_fract_x
_atom_site_fract_y
_atom_site_fract_z
Si Si1 0.574398 0.781377 0.067090
Si Si2 0.573016 0.710271 0.844429
Si Si3 0.429444 0.907158 0.539679
Si Si4 0.083825 0.849566 0.436294
Si Si5 0.427742 0.409878 0.382070
Si Si6 0.929640 0.402495 0.761106
Si Si7 0.582355 0.354345 0.476412
Si Si8 0.573510 0.905258 0.158811
O O1 0.750000 0.769643 0.054002
O O2 0.497482 0.681129 0.067173
O O3 0.548950 0.824152 0.120200
O O4 0.501857 0.852155 0.028288
O O5 0.750000 0.700512 0.833861
O O6 0.532928 0.646579 0.891344
O O7 0.524372 0.816361 0.854148
O O8 0.478336 0.677256 0.798254
O O9 0.250000 0.905084 0.546698
O O10 0.474701 0.909058 0.482161
O O11 0.500000 0.000000 0.563065
O O12 0.250000 0.883267 0.418216
O O13 0.099030 0.747813 0.456782
O O14 0.500000 0.500000 0.355509
O O15 0.250000 0.420325 0.382413
O O16 0.486062 0.412076 0.437682
O O17 0.750000 0.411014 0.759833
O O18 0.000000 0.500000 0.777964
O O19 0.991645 0.373814 0.708299
O O20 0.750000 0.398283 0.482814
O O21 0.750000 0.922995 0.169445
O O22 0.500000 0.000000 0.139147
#
# Coordination Sequence:
#
# PCOD8192323 Si02
#       8
#     8   8   8   8   8   8   8   8
#     4  10  20  34  53  77 106 139 175 215 259 309
#     4  10  20  34  53  77 105 137 173 214 258 306
#     4  10  20  33  51  75 106 143 180 218 258 304
#     4   8  16  30  46  68  98 133 171 209 249 293
#     4  10  20  33  51  75 106 143 179 216 256 302
#     4  11  22  37  58  80 104 132 164 208 259 313
#     4   9  17  30  48  70 100 135 172 213 252 296
#     4  10  21  37  57  80 105 132 165 209 259 311
#
# _framework density 18.244743
#
# number of rings (size 3 to 8) (size 9 to 14) (size 15 to 20)
#    0.000    2.250    0.000    4.875    0.000    8.000 
#    0.000    2.500    0.000    0.750    0.000    3.500 
#    0.000    0.000    0.000    0.000    0.000    0.000 
#
# Total GULP energy -396733.296317 kJ/mol
# GULP energy per Si atom -12397.915510 kJ/mol
# Density = 1.820322 g / cm^3
# Si number density = 18.244743 Si / 1000 Ang^3
#
#
#
# Elastic Constant Matrix: (Units=GPa)
#
#
# Indices 1 2 3 4 5 6 
#
# 1 131.8835 56.7380 58.5518 0.0000 0.0000 0.0000
# 2 56.7380 99.8219 51.6647 0.0000 0.0000 0.0000
# 3 58.5518 51.6647 88.7261 0.0000 0.0000 0.0000
# 4 0.0000 0.0000 0.0000 21.4990 0.0000 0.0000
# 5 0.0000 0.0000 0.0000 0.0000 30.4909 0.0000
# 6 0.0000 0.0000 0.0000 0.0000 0.0000 30.1754
#
#
#
# Elastic Compliance Matrix: (Units=1/GPa)
#
#
# Indices 1 2 3 4 5 6 
#
# 1 0.011643 -0.003780 -0.005482 0.000000 0.000000 0.000000
# 2 -0.003780 0.015567 -0.006570 0.000000 0.000000 0.000000
# 3 -0.005482 -0.006570 0.018714 0.000000 0.000000 0.000000
# 4 0.000000 0.000000 0.000000 0.046514 0.000000 0.000000
# 5 0.000000 0.000000 0.000000 0.000000 0.032797 0.000000
# 6 0.000000 0.000000 0.000000 0.000000 0.000000 0.033140
#
#
# Mechanical properties :
#
#
# Convention : Reuss Voigt Hill
#
# Bulk Modulus (GPa) = 70.12996 72.70449 71.41722
# Shear Modulus (GPa) = 25.66862 26.66484 26.16673
#
# Velocity S-wave (km/s) = 3.75494 3.82711 3.79120
# Velocity P-wave (km/s) = 7.57109 7.71136 7.64155
#
# Compressibility (1/GPa) = 0.01425924
#
# Stress axis : x y z
#
# Youngs Moduli (GPa) = 85.89189 64.23903 53.43663
#
# Poissons Ratio (x) = 0.24284 0.29293
# Poissons Ratio (y) = 0.32470 0.35107
# Poissons Ratio (z) = 0.47085 0.42204
#
# Static dielectric constant tensor:
#      x y z
#    x 3.539960 0.000000 0.000000 
#    y 0.000000 3.422270 0.000000 
#    z 0.000000 0.000000 3.227470 
# 
# 
# High freq. dielectric constant tensor:
#      x y z
#    x 1.725080 0.000000 0.000000 
#    y 0.000000 1.701450 0.000000 
#    z 0.000000 0.000000 1.680920 
# 
# From -- ./inp_files/23193.got.cif
#   From: 2010.03.12/outbox.cif.g09.slc.cpg/sg46_12_cif.got.tgz:23193.got - 2010.04.14 02:56:35.
