data_PCOD8192361
_publ_section_title
;
Structure prediction by ZEFSAII (Michael W. Deem and Ramdas Pophale) SiO2 
 PCOD8192361
Probable space group: I M A 2
;
_chemical_formula_sum "Si O2"
_cell_formula_units_Z 56
_cell_length_a 8.704437
_cell_length_b 13.668061
_cell_length_c 29.457057
_cell_angle_alpha 90.000000
_cell_angle_beta 90.000000
_cell_angle_gamma 90.000000
_cell_volume 3504.587841
_symmetry_space_group_name_H-M "I M A 2"
_symmetry_group_IT_number 46
_symmetry_cell_setting 'orthorhombic'
loop_
_space_group_symop_operation_xyz
x,y,z
-x,-y,z
1/2-x,y,z
1/2+x,-y,z
1/2+x,1/2+y,1/2+z
1/2-x,1/2-y,1/2+z
-x,1/2+y,1/2+z
x,1/2-y,1/2+z
loop_
_atom_site_type_symbol
_atom_site_label
_atom_site_fract_x
_atom_site_fract_y
_atom_site_fract_z
Si Si1 0.932390 0.713371 0.023450
Si Si2 0.428956 0.102217 0.612229
Si Si3 0.430764 0.393205 0.847639
Si Si4 0.068275 0.202613 0.157766
Si Si5 0.431655 0.891468 0.438360
Si Si6 0.570770 0.894190 0.248799
Si Si7 0.932361 0.104541 0.072310
O O1 0.750000 0.721113 0.018864
O O2 0.980757 0.634756 0.061873
O O3 0.999029 0.818642 0.036502
O O4 0.006586 0.680092 0.976705
O O5 0.250000 0.087058 0.613615
O O6 0.480615 0.185519 0.647964
O O7 0.500000 0.000000 0.626891
O O8 0.500000 0.500000 0.844192
O O9 0.250000 0.397012 0.857732
O O10 0.515255 0.342294 0.890343
O O11 0.467499 0.345216 0.798203
O O12 0.250000 0.188768 0.149861
O O13 0.015141 0.178391 0.209013
O O14 0.982190 0.130140 0.123546
O O15 0.250000 0.898575 0.440943
O O16 0.500000 0.000000 0.444217
O O17 0.750000 0.911751 0.245100
O O18 0.500000 0.000000 0.241632
O O19 0.750000 0.103463 0.068787
O O20 0.000000 0.000000 0.058623
#
# Coordination Sequence:
#
# PCOD8192361 Si02
#       7
#     8   8   8   8   8   8   8
#     4  10  20  34  49  67  90 119 153 190 228 269
#     4   9  18  30  45  63  88 117 147 183 222 261
#     4   9  16  27  42  62  87 117 149 184 225 272
#     4   9  18  32  46  65  91 121 154 189 227 269
#     4  11  20  30  45  67  94 124 153 186 226 273
#     4   9  17  28  44  64  89 118 150 185 225 270
#     4  11  21  33  48  68  93 122 153 187 224 268
#
# _framework density 15.979055000000001
#
# number of rings (size 3 to 8) (size 9 to 14) (size 15 to 20)
#    0.000    2.286    0.000    6.000    0.000    6.286 
#    0.000    0.000    0.000    0.000    0.000    1.000 
#    0.000    4.571    0.000    0.000    0.000    0.000 
#
# Total GULP energy -347056.645609 kJ/mol
# GULP energy per Si atom -12394.880200 kJ/mol
# Density = 1.594269 g / cm^3
# Si number density = 15.979055 Si / 1000 Ang^3
#
#
#
# Elastic Constant Matrix: (Units=GPa)
#
#
# Indices 1 2 3 4 5 6 
#
# 1 84.5093 38.3972 51.5120 0.0000 0.0000 0.0000
# 2 38.3972 95.3735 62.3417 -0.0001 0.0000 0.0000
# 3 51.5120 62.3417 157.1723 -0.0001 0.0000 0.0000
# 4 0.0000 -0.0001 -0.0001 8.9164 0.0000 0.0000
# 5 0.0000 0.0000 0.0000 0.0000 23.0470 0.0000
# 6 0.0000 0.0000 0.0000 0.0000 0.0000 24.9388
#
#
#
# Elastic Compliance Matrix: (Units=1/GPa)
#
#
# Indices 1 2 3 4 5 6 
#
# 1 0.015858 -0.004033 -0.003598 0.000000 0.000000 0.000000
# 2 -0.004033 0.015181 -0.004700 0.000000 0.000000 0.000000
# 3 -0.003598 -0.004700 0.009406 0.000000 0.000000 0.000000
# 4 0.000000 0.000000 0.000000 0.112153 0.000000 0.000000
# 5 0.000000 0.000000 0.000000 0.000000 0.043390 0.000000
# 6 0.000000 0.000000 0.000000 0.000000 0.000000 0.040098
#
#
# Mechanical properties :
#
#
# Convention : Reuss Voigt Hill
#
# Bulk Modulus (GPa) = 63.35462 71.28412 67.31937
# Shear Modulus (GPa) = 18.79648 23.70072 21.24860
#
# Velocity S-wave (km/s) = 3.43347 3.85546 3.65057
# Velocity P-wave (km/s) = 7.44667 8.03288 7.74533
#
# Compressibility (1/GPa) = 0.01578417
#
# Stress axis : x y z
#
# Youngs Moduli (GPa) = 63.05809 65.87345 106.31849
#
# Poissons Ratio (x) = 0.26565 0.38252
# Poissons Ratio (y) = 0.25430 0.49966
# Poissons Ratio (z) = 0.22688 0.30958
#
# Static dielectric constant tensor:
#      x y z
#    x 3.121460 0.000000 0.000000 
#    y 0.000000 3.096930 0.000000 
#    z 0.000000 0.000000 3.627390 
# 
# 
# High freq. dielectric constant tensor:
#      x y z
#    x 1.625690 0.000000 0.000000 
#    y 0.000000 1.580130 0.000000 
#    z 0.000000 0.000000 1.618680 
# 
# From -- ./inp_files/25242.got.cif
#   From: 2010.03.12/outbox.cif.g09.slc.cpg/sg46_13_cif.got.tgz:25242.got - 2010.04.14 02:56:35.
