data_PCOD8192039
_publ_section_title
;
Structure prediction by ZEFSAII (Michael W. Deem and Ramdas Pophale) SiO2 
 PCOD8192039
Probable space group: I M A 2
;
_chemical_formula_sum "Si O2"
_cell_formula_units_Z 64
_cell_length_a 9.472687
_cell_length_b 28.015663
_cell_length_c 12.527885
_cell_angle_alpha 90.000000
_cell_angle_beta 90.000000
_cell_angle_gamma 90.000000
_cell_volume 3324.695306
_symmetry_space_group_name_H-M "I M A 2"
_symmetry_group_IT_number 46
_symmetry_cell_setting 'orthorhombic'
loop_
_space_group_symop_operation_xyz
x,y,z
-x,-y,z
1/2-x,y,z
1/2+x,-y,z
1/2+x,1/2+y,1/2+z
1/2-x,1/2-y,1/2+z
-x,1/2+y,1/2+z
x,1/2-y,1/2+z
loop_
_atom_site_type_symbol
_atom_site_label
_atom_site_fract_x
_atom_site_fract_y
_atom_site_fract_z
Si Si1 0.412194 0.699196 0.187350
Si Si2 0.907905 0.682367 0.993823
Si Si3 0.094433 0.426482 0.061351
Si Si4 0.910522 0.391489 0.683892
Si Si5 0.416453 0.455425 0.830278
Si Si6 0.091267 0.702064 0.792866
Si Si7 0.085006 0.594222 0.254429
Si Si8 0.084045 0.951161 0.977387
O O1 0.250000 0.695920 0.151071
O O2 0.439765 0.743336 0.264598
O O3 0.456906 0.650272 0.247839
O O4 0.504011 0.710301 0.083028
O O5 0.750000 0.703513 0.988350
O O6 0.979011 0.687265 0.880056
O O7 0.905270 0.627735 0.025436
O O8 0.250000 0.441643 0.101023
O O9 0.987583 0.435563 0.158703
O O10 0.051146 0.456042 0.956681
O O11 0.750000 0.407456 0.711239
O O12 0.923096 0.333606 0.690138
O O13 0.952953 0.412122 0.568227
O O14 0.018275 0.409326 0.774164
O O15 0.500000 0.500000 0.779113
O O16 0.250000 0.458229 0.806020
O O17 0.250000 0.697401 0.839325
O O18 0.250000 0.587025 0.239795
O O19 0.033442 0.572721 0.366689
O O20 0.250000 0.962990 0.975402
O O21 0.000000 0.000000 0.998773
#
# Coordination Sequence:
#
# PCOD8192039 Si02
#       8
#     8   8   8   8   8   8   8   8
#     4   9  19  35  56  84 112 147 190 234 286 341
#     4  10  19  34  54  77 110 147 181 227 282 339
#     4   9  19  35  54  77 107 142 178 223 278 333
#     4  10  21  37  57  82 112 147 187 234 285 343
#     4  11  22  36  54  80 111 143 180 228 280 335
#     4  10  20  34  57  85 112 146 190 237 287 346
#     4   9  19  36  58  81 110 145 185 233 282 336
#     4  10  22  39  57  80 111 150 192 237 288 338
#
# _framework density 19.249884000000002
#
# number of rings (size 3 to 8) (size 9 to 14) (size 15 to 20)
#    0.000    2.250    1.250    1.125    0.000    5.500 
#    0.000    6.250    0.000    1.500    0.000    0.000 
#    0.000    0.000    0.000    0.000    0.000    0.000 
#
# Total GULP energy -396711.594168 kJ/mol
# GULP energy per Si atom -12397.237318 kJ/mol
# Density = 1.920607 g / cm^3
# Si number density = 19.249884 Si / 1000 Ang^3
#
#
#
# Elastic Constant Matrix: (Units=GPa)
#
#
# Indices 1 2 3 4 5 6 
#
# 1 80.5267 25.7174 55.2638 0.0005 0.0000 0.0001
# 2 25.7174 57.3176 21.1297 -0.0002 0.0001 0.0001
# 3 55.2638 21.1297 94.7194 0.0008 0.0002 0.0003
# 4 0.0005 -0.0002 0.0008 16.7293 0.0001 0.0000
# 5 0.0000 0.0001 0.0002 0.0001 26.5366 0.0000
# 6 0.0001 0.0001 0.0003 0.0000 0.0000 21.8671
#
#
#
# Elastic Compliance Matrix: (Units=1/GPa)
#
#
# Indices 1 2 3 4 5 6 
#
# 1 0.022284 -0.005672 -0.011736 0.000000 0.000000 0.000000
# 2 -0.005672 0.020454 -0.001253 0.000000 0.000000 0.000000
# 3 -0.011736 -0.001253 0.017685 -0.000001 0.000000 0.000000
# 4 0.000000 0.000000 -0.000001 0.059775 0.000000 0.000000
# 5 0.000000 0.000000 0.000000 0.000000 0.037684 0.000000
# 6 0.000000 0.000000 0.000000 0.000000 0.000000 0.045731
#
#
# Mechanical properties :
#
#
# Convention : Reuss Voigt Hill
#
# Bulk Modulus (GPa) = 43.29204 48.53169 45.91187
# Shear Modulus (GPa) = 20.10979 21.72347 20.91663
#
# Velocity S-wave (km/s) = 3.23564 3.36296 3.29991
# Velocity P-wave (km/s) = 6.04132 6.35181 6.19851
#
# Compressibility (1/GPa) = 0.02309893
#
# Stress axis : x y z
#
# Youngs Moduli (GPa) = 44.87525 48.89106 56.54636
#
# Poissons Ratio (x) = 0.27731 0.66364
# Poissons Ratio (y) = 0.25453 0.07088
# Poissons Ratio (z) = 0.52667 0.06128
#
# Static dielectric constant tensor:
#      x y z
#    x 3.684100 0.000000 0.000000 
#    y 0.000000 3.542790 0.000000 
#    z 0.000000 0.000000 3.514450 
# 
# 
# High freq. dielectric constant tensor:
#      x y z
#    x 1.748810 0.000000 0.000000 
#    y 0.000000 1.745340 0.000000 
#    z 0.000000 0.000000 1.741960 
# 
# From -- ./inp_files/9732.got.cif
#   From: 2010.03.12/outbox.cif.g09.slc.cpg/sg46_5_cif.got.tgz:9732.got - 2010.04.14 02:56:35.
