data_PCOD8192444
_publ_section_title
;
Structure prediction by ZEFSAII (Michael W. Deem and Ramdas Pophale) SiO2 
 PCOD8192444
Probable space group: I M A 2
;
_chemical_formula_sum "Si O2"
_cell_formula_units_Z 48
_cell_length_a 8.918128
_cell_length_b 31.226104
_cell_length_c 9.579133
_cell_angle_alpha 90.000000
_cell_angle_beta 90.000000
_cell_angle_gamma 90.000000
_cell_volume 2667.581559
_symmetry_space_group_name_H-M "I M A 2"
_symmetry_group_IT_number 46
_symmetry_cell_setting 'orthorhombic'
loop_
_space_group_symop_operation_xyz
x,y,z
-x,-y,z
1/2-x,y,z
1/2+x,-y,z
1/2+x,1/2+y,1/2+z
1/2-x,1/2-y,1/2+z
-x,1/2+y,1/2+z
x,1/2-y,1/2+z
loop_
_atom_site_type_symbol
_atom_site_label
_atom_site_fract_x
_atom_site_fract_y
_atom_site_fract_z
Si Si1 0.419804 0.457440 0.896930
Si Si2 0.083506 0.041805 0.730102
Si Si3 0.915070 0.375980 0.231584
Si Si4 0.428921 0.718935 0.218018
Si Si5 0.928327 0.786827 0.418983
Si Si6 0.918565 0.126775 0.400140
O O1 0.500000 0.500000 0.839118
O O2 0.250000 0.456553 0.841638
O O3 0.506755 0.416076 0.837000
O O4 0.423234 0.457296 0.063729
O O5 0.250000 0.038428 0.787483
O O6 0.017996 0.086146 0.791922
O O7 0.000000 0.000000 0.788755
O O8 0.750000 0.384604 0.291510
O O9 0.969342 0.328588 0.276304
O O10 0.911910 0.377490 0.065399
O O11 0.250000 0.727441 0.225142
O O12 0.525008 0.751524 0.307681
O O13 0.482602 0.723785 0.059583
O O14 0.750000 0.786740 0.443908
O O15 0.979610 0.832733 0.357880
O O16 0.750000 0.132195 0.339859
#
# Coordination Sequence:
#
# PCOD8192444 Si02
#       6
#     8   8   8   8   8   8
#     4   9  15  22  33  52  78 110 146 184 225 273
#     4   9  15  21  32  50  76 108 142 178 219 267
#     4   8  15  26  40  57  80 111 148 185 224 271
#     4  10  20  35  52  70  95 129 163 197 240 291
#     4  11  21  33  50  73  98 125 160 203 244 285
#     4   9  16  27  41  58  83 117 152 187 230 281
#
# _framework density 17.993825999999999
#
# number of rings (size 3 to 8) (size 9 to 14) (size 15 to 20)
#    0.000    2.667    0.000    4.500    0.000    8.667 
#    0.000    0.000    0.000    0.000    0.000    0.000 
#    0.000    1.333    0.000    9.333    0.000   11.667 
#
# Total GULP energy -297482.621855 kJ/mol
# GULP energy per Si atom -12395.109244 kJ/mol
# Density = 1.795287 g / cm^3
# Si number density = 17.993826 Si / 1000 Ang^3
#
#
#
# Elastic Constant Matrix: (Units=GPa)
#
#
# Indices 1 2 3 4 5 6 
#
# 1 126.3736 64.2241 8.2598 0.0006 -0.0004 -0.0002
# 2 64.2241 159.1921 19.5906 0.0003 0.0000 0.0002
# 3 8.2598 19.5906 14.1854 0.0023 0.0005 0.0010
# 4 0.0006 0.0003 0.0023 14.4407 0.0005 0.0008
# 5 -0.0004 0.0000 0.0005 0.0005 13.9723 0.0004
# 6 -0.0002 0.0002 0.0010 0.0008 0.0004 41.0209
#
#
#
# Elastic Compliance Matrix: (Units=1/GPa)
#
#
# Indices 1 2 3 4 5 6 
#
# 1 0.009955 -0.003979 -0.000301 0.000000 0.000000 0.000000
# 2 -0.003979 0.009158 -0.010331 0.000002 0.000000 0.000000
# 3 -0.000301 -0.010331 0.084938 -0.000013 -0.000003 -0.000002
# 4 0.000000 0.000002 -0.000013 0.069249 -0.000003 -0.000001
# 5 0.000000 0.000000 -0.000003 -0.000003 0.071570 -0.000001
# 6 0.000000 0.000000 -0.000002 -0.000001 -0.000001 0.024378
#
#
# Mechanical properties :
#
#
# Convention : Reuss Voigt Hill
#
# Bulk Modulus (GPa) = 13.36392 53.76669 33.56530
# Shear Modulus (GPa) = 15.46007 27.73190 21.59598
#
# Velocity S-wave (km/s) = 2.93437 3.93006 3.46813
# Velocity P-wave (km/s) = 4.35015 7.10910 5.89335
#
# Compressibility (1/GPa) = 0.07482832
#
# Stress axis : x y z
#
# Youngs Moduli (GPa) = 100.45241 109.18886 11.77330
#
# Poissons Ratio (x) = 0.43448 0.00355
# Poissons Ratio (y) = 0.39971 0.12163
# Poissons Ratio (z) = 0.03025 1.12805
#
# Static dielectric constant tensor:
#      x y z
#    x 3.546810 0.000000 0.000000 
#    y 0.000000 3.715680 0.000000 
#    z 0.000000 0.000000 2.538930 
# 
# 
# High freq. dielectric constant tensor:
#      x y z
#    x 1.713280 0.000000 0.000000 
#    y 0.000000 1.720390 0.000000 
#    z 0.000000 0.000000 1.603930 
# 
# From -- ./inp_files/3954.got.cif
#   From: 2010.03.12/outbox.cif.g09.slc.cpg/sg46_2_cif.got.tgz:3954.got - 2010.04.14 02:56:35.
