data_PCOD8192268
_publ_section_title
;
Structure prediction by ZEFSAII (Michael W. Deem and Ramdas Pophale) SiO2 
 PCOD8192268
Probable space group: I M A 2
;
_chemical_formula_sum "Si O2"
_cell_formula_units_Z 64
_cell_length_a 9.383609
_cell_length_b 28.163572
_cell_length_c 14.130394
_cell_angle_alpha 90.000000
_cell_angle_beta 90.000000
_cell_angle_gamma 90.000000
_cell_volume 3734.323266
_symmetry_space_group_name_H-M "I M A 2"
_symmetry_group_IT_number 46
_symmetry_cell_setting 'orthorhombic'
loop_
_space_group_symop_operation_xyz
x,y,z
-x,-y,z
1/2-x,y,z
1/2+x,-y,z
1/2+x,1/2+y,1/2+z
1/2-x,1/2-y,1/2+z
-x,1/2+y,1/2+z
x,1/2-y,1/2+z
loop_
_atom_site_type_symbol
_atom_site_label
_atom_site_fract_x
_atom_site_fract_y
_atom_site_fract_z
Si Si1 0.416429 0.642765 0.433730
Si Si2 0.586932 0.770895 0.891704
Si Si3 0.410062 0.829953 0.147269
Si Si4 0.586641 0.363773 0.005001
Si Si5 0.914919 0.669609 0.823702
Si Si6 0.091977 0.736646 0.058829
Si Si7 0.583306 0.046090 0.622222
Si Si8 0.916189 0.453947 0.340149
O O1 0.250000 0.649033 0.414434
O O2 0.494942 0.682135 0.367903
O O3 0.455097 0.650127 0.544195
O O4 0.467682 0.590729 0.402259
O O5 0.750000 0.786841 0.898285
O O6 0.566800 0.726907 0.819798
O O7 0.536804 0.750901 0.991809
O O8 0.250000 0.846781 0.171836
O O9 0.515762 0.850333 0.226948
O O10 0.417722 0.771887 0.148581
O O11 0.750000 0.370848 0.972725
O O12 0.493080 0.354408 0.912335
O O13 0.575330 0.319519 0.079617
O O14 0.529290 0.409721 0.059790
O O15 0.750000 0.654821 0.828051
O O16 0.250000 0.745139 0.011387
O O17 0.750000 0.037042 0.608498
O O18 0.546206 0.056851 0.731134
O O19 0.500000 0.000000 0.585508
O O20 0.750000 0.464070 0.354024
O O21 0.000000 0.500000 0.377062
#
# Coordination Sequence:
#
# PCOD8192268 Si02
#       8
#     8   8   8   8   8   8   8   8
#     4   9  18  32  50  71  95 125 160 195 231 275
#     4   9  17  28  42  63  92 123 155 191 230 270
#     4   9  17  29  46  68  94 127 163 195 229 271
#     4   9  17  31  50  70  93 124 161 196 231 276
#     4  10  20  31  44  67  98 130 162 196 234 274
#     4   8  15  28  45  65  89 119 157 194 226 265
#     4   9  18  32  51  74  97 121 150 188 237 287
#     4   9  18  33  52  74  98 121 149 189 236 286
#
# _framework density 17.138311999999999
#
# number of rings (size 3 to 8) (size 9 to 14) (size 15 to 20)
#    0.000    3.000    0.000    1.500    0.000    5.500 
#    0.000    2.500    0.000    0.750    0.000    1.750 
#    0.000    0.000    0.000    0.000    0.000    0.000 
#
# Total GULP energy -396510.070725 kJ/mol
# GULP energy per Si atom -12390.939710 kJ/mol
# Density = 1.709930 g / cm^3
# Si number density = 17.138312 Si / 1000 Ang^3
#
#
#
# Elastic Constant Matrix: (Units=GPa)
#
#
# Indices 1 2 3 4 5 6 
#
# 1 69.8411 46.6897 39.1121 0.0000 0.0000 0.0000
# 2 46.6897 133.1650 48.1386 0.0002 0.0000 0.0000
# 3 39.1121 48.1386 66.9115 0.0007 -0.0001 0.0000
# 4 0.0000 0.0002 0.0007 22.0675 -0.0001 0.0000
# 5 0.0000 0.0000 -0.0001 -0.0001 18.3972 0.0001
# 6 0.0000 0.0000 0.0000 0.0000 0.0001 28.5459
#
#
#
# Elastic Compliance Matrix: (Units=1/GPa)
#
#
# Indices 1 2 3 4 5 6 
#
# 1 0.022996 -0.004329 -0.010327 0.000000 0.000000 0.000000
# 2 -0.004329 0.010964 -0.005357 0.000000 0.000000 0.000000
# 3 -0.010327 -0.005357 0.024836 -0.000001 0.000000 0.000000
# 4 0.000000 0.000000 -0.000001 0.045316 0.000000 0.000000
# 5 0.000000 0.000000 0.000000 0.000000 0.054356 0.000000
# 6 0.000000 0.000000 0.000000 0.000000 0.000000 0.035031
#
#
# Mechanical properties :
#
#
# Convention : Reuss Voigt Hill
#
# Bulk Modulus (GPa) = 53.28169 59.75539 56.51854
# Shear Modulus (GPa) = 20.85224 22.86726 21.85975
#
# Velocity S-wave (km/s) = 3.49191 3.65674 3.57527
# Velocity P-wave (km/s) = 6.88583 7.26438 7.07764
#
# Compressibility (1/GPa) = 0.01876817
#
# Stress axis : x y z
#
# Youngs Moduli (GPa) = 43.48612 91.20688 40.26443
#
# Poissons Ratio (x) = 0.39488 0.41581
# Poissons Ratio (y) = 0.18827 0.21571
# Poissons Ratio (z) = 0.44908 0.48862
#
# Static dielectric constant tensor:
#      x y z
#    x 3.179430 0.000000 0.000000 
#    y 0.000000 3.277940 0.000000 
#    z 0.000000 0.000000 2.910980 
# 
# 
# High freq. dielectric constant tensor:
#      x y z
#    x 1.662750 0.000000 0.000000 
#    y 0.000000 1.648580 0.000000 
#    z 0.000000 0.000000 1.632970 
# 
# From -- ./inp_files/14776.got.cif
#   From: 2010.03.12/outbox.cif.g09.slc.cpg/sg46_8_cif.got.tgz:14776.got - 2010.04.14 02:56:35.
