data_PCOD8192117
_publ_section_title
;
Structure prediction by ZEFSAII (Michael W. Deem and Ramdas Pophale) SiO2 
 PCOD8192117
Probable space group: I M A 2
;
_chemical_formula_sum "Si O2"
_cell_formula_units_Z 64
_cell_length_a 15.272129
_cell_length_b 23.588367
_cell_length_c 9.096297
_cell_angle_alpha 90.000000
_cell_angle_beta 90.000000
_cell_angle_gamma 90.000000
_cell_volume 3276.891726
_symmetry_space_group_name_H-M "I M A 2"
_symmetry_group_IT_number 46
_symmetry_cell_setting 'orthorhombic'
loop_
_space_group_symop_operation_xyz
x,y,z
-x,-y,z
1/2-x,y,z
1/2+x,-y,z
1/2+x,1/2+y,1/2+z
1/2-x,1/2-y,1/2+z
-x,1/2+y,1/2+z
x,1/2-y,1/2+z
loop_
_atom_site_type_symbol
_atom_site_label
_atom_site_fract_x
_atom_site_fract_y
_atom_site_fract_z
Si Si1 0.900639 0.497040 0.515210
Si Si2 0.002893 0.190652 0.167962
Si Si3 0.846938 0.605871 0.674501
Si Si4 0.502893 0.809348 0.517672
Si Si5 0.850020 0.371816 0.173019
Si Si6 0.149980 0.871816 0.012615
Si Si7 0.099361 0.502960 0.170423
Si Si8 0.846938 0.605871 0.011133
O O1 0.846304 0.546709 0.589727
O O2 0.859807 0.437016 0.561613
O O3 0.894106 0.506818 0.342817
O O4 0.000000 0.500000 0.571383
O O5 0.001441 0.197900 0.342817
O O6 0.023141 0.250000 0.092817
O O7 0.079993 0.148828 0.113021
O O8 0.909454 0.167561 0.114439
O O9 0.750000 0.633081 0.656209
O O10 0.868267 0.592399 0.842817
O O11 0.409454 0.832439 0.571195
O O12 0.579993 0.851172 0.572613
O O13 0.750000 0.352651 0.150198
O O14 0.878947 0.364652 0.342817
O O15 0.859807 0.437016 0.124020
O O16 0.250000 0.852651 0.035436
O O17 0.153696 0.453291 0.095906
O O18 0.000000 0.500000 0.114250
O O19 0.750000 0.633081 0.029425
#
# Coordination Sequence:
#
# PCOD8192117 Si02
#       8
#     8   8   8   8   8   8   8   8
#     4  10  19  34  60  90 120 152 188 231 282 340
#     4  11  24  41  61  83 112 150 195 242 289 339
#     4  10  22  39  59  86 119 153 190 234 285 342
#     4  11  24  41  61  83 112 150 195 242 289 339
#     4  10  21  38  60  87 119 153 190 233 282 339
#     4  10  21  38  60  87 119 153 190 233 282 339
#     4  10  19  34  60  90 120 152 188 231 282 340
#     4  10  22  39  59  86 119 153 190 234 285 342
#
# _framework density 19.530702999999999
#
# number of rings (size 3 to 8) (size 9 to 14) (size 15 to 20)
#    0.000    1.750    2.500    1.500    0.000    5.500 
#    0.000    0.000    0.000    0.000    0.000    0.000 
#    0.000    0.000    0.000    0.000    0.000    0.000 
#
# Total GULP energy -396916.657177 kJ/mol
# GULP energy per Si atom -12403.645537 kJ/mol
# Density = 1.948625 g / cm^3
# Si number density = 19.530703 Si / 1000 Ang^3
#
#
#
# Elastic Constant Matrix: (Units=GPa)
#
#
# Indices 1 2 3 4 5 6 
#
# 1 96.7649 23.8624 22.7078 -0.0001 -0.0001 0.0001
# 2 23.8624 94.6354 32.4688 -0.0001 0.0000 0.0000
# 3 22.7078 32.4688 51.9132 -0.0008 0.0011 -0.0002
# 4 -0.0001 -0.0001 -0.0008 33.8024 0.0001 -0.0001
# 5 -0.0001 0.0000 0.0011 0.0001 27.5558 0.0000
# 6 0.0001 0.0000 -0.0002 -0.0001 0.0000 12.1205
#
#
#
# Elastic Compliance Matrix: (Units=1/GPa)
#
#
# Indices 1 2 3 4 5 6 
#
# 1 0.011685 -0.001519 -0.004162 0.000000 0.000000 0.000000
# 2 -0.001519 0.013651 -0.007874 0.000000 0.000000 0.000000
# 3 -0.004162 -0.007874 0.026008 0.000001 -0.000001 0.000001
# 4 0.000000 0.000000 0.000001 0.029584 0.000000 0.000000
# 5 0.000000 0.000000 -0.000001 0.000000 0.036290 0.000000
# 6 0.000000 0.000000 0.000001 0.000000 0.000000 0.082505
#
#
# Mechanical properties :
#
#
# Convention : Reuss Voigt Hill
#
# Bulk Modulus (GPa) = 41.26010 44.59903 42.92957
# Shear Modulus (GPa) = 21.28472 25.64737 23.46604
#
# Velocity S-wave (km/s) = 3.30481 3.62772 3.47002
# Velocity P-wave (km/s) = 5.97779 6.35862 6.17114
#
# Compressibility (1/GPa) = 0.02423649
#
# Stress axis : x y z
#
# Youngs Moduli (GPa) = 85.57662 73.25331 38.44986
#
# Poissons Ratio (x) = 0.11125 0.16001
# Poissons Ratio (y) = 0.12996 0.30275
# Poissons Ratio (z) = 0.35613 0.57678
#
# Static dielectric constant tensor:
#      x y z
#    x 3.697060 0.000000 0.000000 
#    y 0.000000 3.507420 0.000000 
#    z 0.000000 0.000000 3.438930 
# 
# 
# High freq. dielectric constant tensor:
#      x y z
#    x 1.775170 0.000000 0.000000 
#    y 0.000000 1.755620 0.000000 
#    z 0.000000 0.000000 1.752510 
# 
# From -- ./inp_files/6089.got.cif
#   From: 2010.03.12/outbox.cif.g09.slc.cpg/sg46_4_cif.got.tgz:6089.got - 2010.04.14 02:56:35.
