data_PCOD8192258
_publ_section_title
;
Structure prediction by ZEFSAII (Michael W. Deem and Ramdas Pophale) SiO2 
 PCOD8192258
Probable space group: I M A 2
;
_chemical_formula_sum "Si O2"
_cell_formula_units_Z 48
_cell_length_a 14.368854
_cell_length_b 4.936051
_cell_length_c 28.924416
_cell_angle_alpha 90.000000
_cell_angle_beta 90.000000
_cell_angle_gamma 90.000000
_cell_volume 2051.475663
_symmetry_space_group_name_H-M "I M A 2"
_symmetry_group_IT_number 46
_symmetry_cell_setting 'orthorhombic'
loop_
_space_group_symop_operation_xyz
x,y,z
-x,-y,z
1/2-x,y,z
1/2+x,-y,z
1/2+x,1/2+y,1/2+z
1/2-x,1/2-y,1/2+z
-x,1/2+y,1/2+z
x,1/2-y,1/2+z
loop_
_atom_site_type_symbol
_atom_site_label
_atom_site_fract_x
_atom_site_fract_y
_atom_site_fract_z
Si Si1 0.561156 0.726389 0.701770
Si Si2 0.142302 0.086918 0.447993
Si Si3 0.250000 0.839981 0.817231
Si Si4 0.353250 0.935195 0.547724
Si Si5 0.096216 0.893274 0.891112
Si Si6 0.750000 0.676049 0.755686
Si Si7 0.144412 0.456405 0.607995
O O1 0.500000 0.500000 0.729060
O O2 0.658989 0.767724 0.727298
O O3 0.582279 0.580333 0.653080
O O4 0.500000 0.000000 0.697385
O O5 0.250000 0.997780 0.444740
O O6 0.102701 0.053826 0.500427
O O7 0.078897 0.882590 0.418811
O O8 0.135894 0.390331 0.428073
O O9 0.159469 0.807525 0.848367
O O10 0.250000 0.635404 0.773241
O O11 0.250000 0.149637 0.801820
O O12 0.250000 0.832348 0.535243
O O13 0.403122 0.678776 0.573069
O O14 0.351512 0.168730 0.584660
O O15 0.000000 0.000000 0.869812
O O16 0.250000 0.550888 0.621475
#
# Coordination Sequence:
#
# PCOD8192258 Si02
#       7
#     8   8   4   8   8   4   8
#     4  12  26  46  73 105 141 183 233 290 356 429
#     4  11  20  41  66  97 140 185 230 278 334 405
#     4  12  26  48  76  99 134 177 222 288 360 428
#     4   9  19  32  63  96 131 184 234 272 324 389
#     4  12  25  43  69 102 136 176 225 281 346 420
#     4  12  28  50  76 103 136 177 228 294 366 432
#     4  10  19  39  62  96 136 181 229 279 332 395
#
# _framework density 23.397791999999999
#
# number of rings (size 3 to 8) (size 9 to 14) (size 15 to 20)
#    0.000    1.000    2.500    4.500    0.000    4.667 
#    0.000    8.333    0.000    0.000    0.000    0.000 
#    0.000    0.000    0.000    0.000    0.000    0.000 
#
# Total GULP energy -297455.727958 kJ/mol
# GULP energy per Si atom -12393.988665 kJ/mol
# Density = 2.334454 g / cm^3
# Si number density = 23.397792 Si / 1000 Ang^3
#
#
#
# Elastic Constant Matrix: (Units=GPa)
#
#
# Indices 1 2 3 4 5 6 
#
# 1 114.1806 21.3274 35.4840 0.0000 0.0000 0.0000
# 2 21.3274 123.2738 28.5249 0.0000 0.0000 0.0000
# 3 35.4840 28.5249 103.1629 0.0000 0.0000 0.0000
# 4 0.0000 0.0000 0.0000 43.0632 0.0000 0.0000
# 5 0.0000 0.0000 0.0000 0.0000 10.8319 0.0000
# 6 0.0000 0.0000 0.0000 0.0000 0.0000 31.4185
#
#
#
# Elastic Compliance Matrix: (Units=1/GPa)
#
#
# Indices 1 2 3 4 5 6 
#
# 1 0.009918 -0.000990 -0.003138 0.000000 0.000000 0.000000
# 2 -0.000990 0.008765 -0.002083 0.000000 0.000000 0.000000
# 3 -0.003138 -0.002083 0.011349 0.000000 0.000000 0.000000
# 4 0.000000 0.000000 0.000000 0.023222 0.000000 0.000000
# 5 0.000000 0.000000 0.000000 0.000000 0.092320 0.000000
# 6 0.000000 0.000000 0.000000 0.000000 0.000000 0.031828
#
#
# Mechanical properties :
#
#
# Convention : Reuss Voigt Hill
#
# Bulk Modulus (GPa) = 56.78417 56.80998 56.79707
# Shear Modulus (GPa) = 25.55012 34.08145 29.81578
#
# Velocity S-wave (km/s) = 3.30811 3.82070 3.57361
# Velocity P-wave (km/s) = 6.23804 6.61788 6.43077
#
# Compressibility (1/GPa) = 0.01761054
#
# Stress axis : x y z
#
# Youngs Moduli (GPa) = 100.82612 114.08611 88.11605
#
# Poissons Ratio (x) = 0.11293 0.27648
# Poissons Ratio (y) = 0.09980 0.18356
# Poissons Ratio (z) = 0.31637 0.23766
#
# Static dielectric constant tensor:
#      x y z
#    x 4.349710 0.000000 0.000000 
#    y 0.000000 4.145880 0.000000 
#    z 0.000000 0.000000 4.173120 
# 
# 
# High freq. dielectric constant tensor:
#      x y z
#    x 1.929190 0.000000 0.000000 
#    y 0.000000 1.938340 0.000000 
#    z 0.000000 0.000000 1.917040 
# 
# From -- ./inp_files/24599.got.cif
#   From: 2010.03.12/outbox.cif.g09.slc.cpg/sg46_13_cif.got.tgz:24599.got - 2010.04.14 02:56:35.
