data_PCOD8192362
_publ_section_title
;
Structure prediction by ZEFSAII (Michael W. Deem and Ramdas Pophale) SiO2 
 PCOD8192362
Probable space group: I M A 2
;
_chemical_formula_sum "Si O2"
_cell_formula_units_Z 64
_cell_length_a 9.086190
_cell_length_b 30.005578
_cell_length_c 14.285563
_cell_angle_alpha 90.000000
_cell_angle_beta 90.000000
_cell_angle_gamma 90.000000
_cell_volume 3894.764222
_symmetry_space_group_name_H-M "I M A 2"
_symmetry_group_IT_number 46
_symmetry_cell_setting 'orthorhombic'
loop_
_space_group_symop_operation_xyz
x,y,z
-x,-y,z
1/2-x,y,z
1/2+x,-y,z
1/2+x,1/2+y,1/2+z
1/2-x,1/2-y,1/2+z
-x,1/2+y,1/2+z
x,1/2-y,1/2+z
loop_
_atom_site_type_symbol
_atom_site_label
_atom_site_fract_x
_atom_site_fract_y
_atom_site_fract_z
Si Si1 0.421241 0.281080 0.540210
Si Si2 0.581915 0.639042 0.405942
Si Si3 0.577328 0.544089 0.153353
Si Si4 0.923718 0.863820 0.565478
Si Si5 0.575975 0.199422 0.434595
Si Si6 0.418120 0.457287 0.367003
Si Si7 0.414847 0.674874 0.234143
Si Si8 0.585776 0.222630 0.229614
O O1 0.250000 0.268285 0.538545
O O2 0.450523 0.329231 0.493508
O O3 0.508006 0.242425 0.486316
O O4 0.472989 0.287282 0.646665
O O5 0.750000 0.645674 0.369981
O O6 0.556687 0.586728 0.431097
O O7 0.469171 0.648690 0.323899
O O8 0.500000 0.500000 0.112889
O O9 0.750000 0.537203 0.146364
O O10 0.527725 0.585802 0.089632
O O11 0.527557 0.552892 0.260645
O O12 0.750000 0.859521 0.551786
O O13 0.006901 0.846513 0.473217
O O14 0.973568 0.831563 0.648986
O O15 0.750000 0.201006 0.453347
O O16 0.537971 0.197491 0.324475
O O17 0.500000 0.500000 0.410799
O O18 0.250000 0.471357 0.364354
O O19 0.250000 0.658593 0.207697
O O20 0.414911 0.726299 0.259976
O O21 0.750000 0.208192 0.197761
#
# Coordination Sequence:
#
# PCOD8192362 Si02
#       8
#     8   8   8   8   8   8   8   8
#     4  11  22  33  52  75  97 131 169 206 248 294
#     4  10  20  34  49  71 102 134 167 206 248 291
#     4   9  18  31  48  70  99 131 161 199 244 292
#     4  11  21  34  50  73 101 133 168 206 247 291
#     4  11  22  36  51  71  99 133 169 206 247 290
#     4   9  17  31  47  68  99 130 162 201 244 294
#     4  11  20  30  48  72  99 135 171 204 242 290
#     4  10  22  37  50  68 101 135 167 210 248 285
#
# _framework density 16.432317000000001
#
# number of rings (size 3 to 8) (size 9 to 14) (size 15 to 20)
#    0.000    1.750    3.750    1.500    0.000    3.500 
#    0.000    0.000    0.000    0.000    0.000    0.875 
#    0.000    2.000    0.000    0.000    0.000    0.000 
#
# Total GULP energy -396745.430518 kJ/mol
# GULP energy per Si atom -12398.294704 kJ/mol
# Density = 1.639492 g / cm^3
# Si number density = 16.432317 Si / 1000 Ang^3
#
#
#
# Elastic Constant Matrix: (Units=GPa)
#
#
# Indices 1 2 3 4 5 6 
#
# 1 68.9648 36.6648 31.8080 0.0000 -0.0001 0.0000
# 2 36.6648 97.1139 25.0520 0.0002 -0.0002 0.0000
# 3 31.8080 25.0520 58.3972 -0.0008 -0.0003 0.0000
# 4 0.0000 0.0002 -0.0008 24.0252 -0.0001 0.0000
# 5 -0.0001 -0.0002 -0.0003 -0.0001 21.5112 -0.0001
# 6 0.0000 0.0000 0.0000 0.0000 -0.0001 27.1009
#
#
#
# Elastic Compliance Matrix: (Units=1/GPa)
#
#
# Indices 1 2 3 4 5 6 
#
# 1 0.021976 -0.005857 -0.009457 0.000000 0.000000 0.000000
# 2 -0.005857 0.013140 -0.002446 0.000000 0.000000 0.000000
# 3 -0.009457 -0.002446 0.023325 0.000001 0.000000 0.000000
# 4 0.000000 0.000000 0.000001 0.041623 0.000000 0.000000
# 5 0.000000 0.000000 0.000000 0.000000 0.046487 0.000000
# 6 0.000000 0.000000 0.000000 0.000000 0.000000 0.036899
#
#
# Mechanical properties :
#
#
# Convention : Reuss Voigt Hill
#
# Bulk Modulus (GPa) = 43.63278 45.72505 44.67891
# Shear Modulus (GPa) = 22.06418 23.25752 22.66085
#
# Velocity S-wave (km/s) = 3.66830 3.76620 3.71757
# Velocity P-wave (km/s) = 6.67478 6.84098 6.75839
#
# Compressibility (1/GPa) = 0.02291855
#
# Stress axis : x y z
#
# Youngs Moduli (GPa) = 45.50413 76.10531 42.87276
#
# Poissons Ratio (x) = 0.44577 0.40546
# Poissons Ratio (y) = 0.26653 0.10489
# Poissons Ratio (z) = 0.43034 0.18619
#
# Static dielectric constant tensor:
#      x y z
#    x 3.219140 0.000000 0.000000 
#    y 0.000000 3.170740 0.000000 
#    z 0.000000 0.000000 2.990020 
# 
# 
# High freq. dielectric constant tensor:
#      x y z
#    x 1.643960 0.000000 0.000000 
#    y 0.000000 1.625720 0.000000 
#    z 0.000000 0.000000 1.600230 
# 
# From -- ./inp_files/14750.got.cif
#   From: 2010.03.12/outbox.cif.g09.slc.cpg/sg46_8_cif.got.tgz:14750.got - 2010.04.14 02:56:35.
