data_PCOD8192089
_publ_section_title
;
Structure prediction by ZEFSAII (Michael W. Deem and Ramdas Pophale) SiO2 
 PCOD8192089
Probable space group: I M A 2
;
_chemical_formula_sum "Si O2"
_cell_formula_units_Z 48
_cell_length_a 15.624544
_cell_length_b 9.220695
_cell_length_c 16.328254
_cell_angle_alpha 90.000000
_cell_angle_beta 90.000000
_cell_angle_gamma 90.000000
_cell_volume 2352.397752
_symmetry_space_group_name_H-M "I M A 2"
_symmetry_group_IT_number 46
_symmetry_cell_setting 'orthorhombic'
loop_
_space_group_symop_operation_xyz
x,y,z
-x,-y,z
1/2-x,y,z
1/2+x,-y,z
1/2+x,1/2+y,1/2+z
1/2-x,1/2-y,1/2+z
-x,1/2+y,1/2+z
x,1/2-y,1/2+z
loop_
_atom_site_type_symbol
_atom_site_label
_atom_site_fract_x
_atom_site_fract_y
_atom_site_fract_z
Si Si1 0.653592 0.300957 0.099910
Si Si2 0.846404 0.872185 0.859327
Si Si3 0.500357 0.343785 0.669779
Si Si4 0.910158 0.928990 0.680118
Si Si5 0.347664 0.687962 0.421048
Si Si6 0.494001 0.158507 0.356701
O O1 0.750000 0.256487 0.118457
O O2 0.596359 0.216817 0.165480
O O3 0.640228 0.473788 0.113516
O O4 0.626440 0.249211 0.009936
O O5 0.750000 0.810699 0.871339
O O6 0.856519 0.911478 0.763367
O O7 0.915887 0.755454 0.892523
O O8 0.858315 0.015089 0.915219
O O9 0.500000 0.500000 0.623871
O O10 0.432039 0.225335 0.634906
O O11 0.471197 0.366166 0.762565
O O12 0.000000 0.000000 0.707070
O O13 0.250000 0.733120 0.398683
O O14 0.414766 0.761536 0.360018
O O15 0.500000 0.000000 0.400469
#
# Coordination Sequence:
#
# PCOD8192089 Si02
#       6
#     8   8   8   8   8   8
#     4  10  20  34  52  78 107 138 179 224 266 317
#     4  10  19  34  57  83 108 141 183 226 270 323
#     4   9  19  35  53  78 107 138 179 220 266 323
#     4   9  17  32  56  79 106 142 180 219 267 321
#     4  10  21  35  53  78 108 142 183 224 268 319
#     4  10  21  36  55  80 109 141 180 225 272 321
#
# _framework density 20.404713000000001
#
# number of rings (size 3 to 8) (size 9 to 14) (size 15 to 20)
#    0.000    2.333    0.000    4.000    0.000    6.000 
#    0.000    7.500    0.000    4.000    0.000    1.167 
#    0.000    0.000    0.000    0.000    0.000    0.000 
#
# Total GULP energy -297413.041250 kJ/mol
# GULP energy per Si atom -12392.210052 kJ/mol
# Density = 2.035827 g / cm^3
# Si number density = 20.404713 Si / 1000 Ang^3
#
#
#
# Elastic Constant Matrix: (Units=GPa)
#
#
# Indices 1 2 3 4 5 6 
#
# 1 113.4137 58.8891 15.8702 0.0000 0.0000 0.0000
# 2 58.8891 162.5520 32.8553 0.0000 0.0000 0.0000
# 3 15.8702 32.8553 43.8186 0.0000 0.0000 0.0000
# 4 0.0000 0.0000 0.0000 20.9577 0.0000 0.0000
# 5 0.0000 0.0000 0.0000 0.0000 17.5838 0.0000
# 6 0.0000 0.0000 0.0000 0.0000 0.0000 27.3453
#
#
#
# Elastic Compliance Matrix: (Units=1/GPa)
#
#
# Indices 1 2 3 4 5 6 
#
# 1 0.010910 -0.003717 -0.001164 0.000000 0.000000 0.000000
# 2 -0.003717 0.008517 -0.005040 0.000000 0.000000 0.000000
# 3 -0.001164 -0.005040 0.027022 0.000000 0.000000 0.000000
# 4 0.000000 0.000000 0.000000 0.047715 0.000000 0.000000
# 5 0.000000 0.000000 0.000000 0.000000 0.056871 0.000000
# 6 0.000000 0.000000 0.000000 0.000000 0.000000 0.036569
#
#
# Mechanical properties :
#
#
# Convention : Reuss Voigt Hill
#
# Bulk Modulus (GPa) = 37.58467 59.44596 48.51531
# Shear Modulus (GPa) = 23.11426 27.32198 25.21812
#
# Velocity S-wave (km/s) = 3.36935 3.66321 3.51935
# Velocity P-wave (km/s) = 5.79623 6.86213 6.35158
#
# Compressibility (1/GPa) = 0.02660659
#
# Stress axis : x y z
#
# Youngs Moduli (GPa) = 91.65600 117.40886 37.00690
#
# Poissons Ratio (x) = 0.43644 0.04309
# Poissons Ratio (y) = 0.34071 0.18651
# Poissons Ratio (z) = 0.10672 0.59173
#
# Static dielectric constant tensor:
#      x y z
#    x 3.699400 0.000000 0.000000 
#    y 0.000000 4.289740 0.000000 
#    z 0.000000 0.000000 3.306740 
# 
# 
# High freq. dielectric constant tensor:
#      x y z
#    x 1.799150 0.000000 0.000000 
#    y 0.000000 1.806530 0.000000 
#    z 0.000000 0.000000 1.760930 
# 
# From -- ./inp_files/19408.got.cif
#   From: 2010.03.12/outbox.cif.g09.slc.cpg/sg46_10_cif.got.tgz:19408.got - 2010.04.14 02:56:35.
