data_PCOD8192367
_publ_section_title
;
Structure prediction by ZEFSAII (Michael W. Deem and Ramdas Pophale) SiO2 
 PCOD8192367
Probable space group: I M A 2
;
_chemical_formula_sum "Si O2"
_cell_formula_units_Z 64
_cell_length_a 9.173567
_cell_length_b 20.185960
_cell_length_c 19.544907
_cell_angle_alpha 90.000000
_cell_angle_beta 90.000000
_cell_angle_gamma 90.000000
_cell_volume 3619.272257
_symmetry_space_group_name_H-M "I M A 2"
_symmetry_group_IT_number 46
_symmetry_cell_setting 'orthorhombic'
loop_
_space_group_symop_operation_xyz
x,y,z
-x,-y,z
1/2-x,y,z
1/2+x,-y,z
1/2+x,1/2+y,1/2+z
1/2-x,1/2-y,1/2+z
-x,1/2+y,1/2+z
x,1/2-y,1/2+z
loop_
_atom_site_type_symbol
_atom_site_label
_atom_site_fract_x
_atom_site_fract_y
_atom_site_fract_z
Si Si1 0.419281 0.183994 0.965610
Si Si2 0.419763 0.177365 0.320511
Si Si3 0.919777 0.433946 0.062206
Si Si4 0.420057 0.065026 0.216674
Si Si5 0.922637 0.318640 0.959770
Si Si6 0.421232 0.932954 0.719358
Si Si7 0.920843 0.934605 0.060691
Si Si8 0.083575 0.172099 0.808872
O O1 0.250000 0.201644 0.976964
O O2 0.512180 0.248678 0.983216
O O3 0.445529 0.158475 0.888755
O O4 0.474779 0.127135 0.016239
O O5 0.250000 0.170498 0.340136
O O6 0.468550 0.127877 0.260898
O O7 0.513044 0.159402 0.387017
O O8 0.451814 0.251151 0.293395
O O9 0.750000 0.447782 0.053879
O O10 0.960578 0.417502 0.140611
O O11 0.000000 0.500000 0.036683
O O12 0.970297 0.372581 0.015916
O O13 0.250000 0.051395 0.223002
O O14 0.466123 0.079791 0.138805
O O15 0.500000 0.000000 0.245103
O O16 0.750000 0.312309 0.953766
O O17 0.250000 0.942058 0.730573
O O18 0.475517 0.871883 0.764441
O O19 0.500000 0.000000 0.743920
O O20 0.750000 0.945958 0.052206
O O21 0.000000 0.000000 0.032911
O O22 0.250000 0.154923 0.789236
#
# Coordination Sequence:
#
# PCOD8192367 Si02
#       8
#     8   8   8   8   8   8   8   8
#     4   9  19  35  53  74 101 132 166 202 242 293
#     4   9  19  35  52  72 101 134 166 201 243 293
#     4   9  20  36  52  73 100 129 164 205 246 292
#     4   9  18  33  52  74 101 132 166 204 244 288
#     4  10  20  34  52  75 101 128 163 206 248 291
#     4  10  20  35  53  73  99 130 164 203 247 294
#     4   9  18  33  52  74 100 131 167 204 243 289
#     4   9  18  33  51  73 100 128 162 205 247 290
#
# _framework density 17.683112999999999
#
# number of rings (size 3 to 8) (size 9 to 14) (size 15 to 20)
#    0.000    2.750    0.000    1.500    0.000    6.500 
#    0.000    5.000    0.000    0.000    0.000    0.000 
#    0.000    0.000    0.000    0.000    0.000    0.000 
#
# Total GULP energy -396873.272831 kJ/mol
# GULP energy per Si atom -12402.289776 kJ/mol
# Density = 1.764286 g / cm^3
# Si number density = 17.683113 Si / 1000 Ang^3
#
#
#
# Elastic Constant Matrix: (Units=GPa)
#
#
# Indices 1 2 3 4 5 6 
#
# 1 65.4230 62.5219 47.0238 0.0000 0.0000 0.0000
# 2 62.5219 151.4875 92.5376 0.0000 0.0000 0.0000
# 3 47.0238 92.5376 92.8870 0.0000 0.0000 0.0000
# 4 0.0000 0.0000 0.0000 37.0585 0.0000 0.0000
# 5 0.0000 0.0000 0.0000 0.0000 25.2791 0.0000
# 6 0.0000 0.0000 0.0000 0.0000 0.0000 35.2875
#
#
#
# Elastic Compliance Matrix: (Units=1/GPa)
#
#
# Indices 1 2 3 4 5 6 
#
# 1 0.026685 -0.007054 -0.006482 0.000000 0.000000 0.000000
# 2 -0.007054 0.018729 -0.015087 0.000000 0.000000 0.000000
# 3 -0.006482 -0.015087 0.029078 0.000000 0.000000 0.000000
# 4 0.000000 0.000000 0.000000 0.026984 0.000000 0.000000
# 5 0.000000 0.000000 0.000000 0.000000 0.039558 0.000000
# 6 0.000000 0.000000 0.000000 0.000000 0.000000 0.028339
#
#
# Mechanical properties :
#
#
# Convention : Reuss Voigt Hill
#
# Bulk Modulus (GPa) = 57.98618 79.32937 68.65777
# Shear Modulus (GPa) = 21.51764 26.70597 24.11180
#
# Velocity S-wave (km/s) = 3.49212 3.89041 3.69663
# Velocity P-wave (km/s) = 7.00877 8.07090 7.55852
#
# Compressibility (1/GPa) = 0.01724549
#
# Stress axis : x y z
#
# Youngs Moduli (GPa) = 37.47373 53.39407 34.39079
#
# Poissons Ratio (x) = 0.37665 0.22292
# Poissons Ratio (y) = 0.26434 0.51886
# Poissons Ratio (z) = 0.24290 0.80556
#
# Static dielectric constant tensor:
#      x y z
#    x 3.214890 0.000000 0.000000 
#    y 0.000000 3.376140 0.000000 
#    z 0.000000 0.000000 3.327430 
# 
# 
# High freq. dielectric constant tensor:
#      x y z
#    x 1.682090 0.000000 0.000000 
#    y 0.000000 1.688740 0.000000 
#    z 0.000000 0.000000 1.681430 
# 
# From -- ./inp_files/21300.got.cif
#   From: 2010.03.12/outbox.cif.g09.slc.cpg/sg46_11_cif.got.tgz:21300.got - 2010.04.14 02:56:35.
