data_PCOD8192403
_publ_section_title
;
Structure prediction by ZEFSAII (Michael W. Deem and Ramdas Pophale) SiO2 
 PCOD8192403
Probable space group: I M A 2
;
_chemical_formula_sum "Si O2"
_cell_formula_units_Z 64
_cell_length_a 8.811253
_cell_length_b 24.679509
_cell_length_c 15.110082
_cell_angle_alpha 90.000000
_cell_angle_beta 90.000000
_cell_angle_gamma 90.000000
_cell_volume 3285.799111
_symmetry_space_group_name_H-M "I M A 2"
_symmetry_group_IT_number 46
_symmetry_cell_setting 'orthorhombic'
loop_
_space_group_symop_operation_xyz
x,y,z
-x,-y,z
1/2-x,y,z
1/2+x,-y,z
1/2+x,1/2+y,1/2+z
1/2-x,1/2-y,1/2+z
-x,1/2+y,1/2+z
x,1/2-y,1/2+z
loop_
_atom_site_type_symbol
_atom_site_label
_atom_site_fract_x
_atom_site_fract_y
_atom_site_fract_z
Si Si1 0.925516 0.100542 0.229220
Si Si2 0.074714 0.264625 0.504732
Si Si3 0.573959 0.359542 0.416235
Si Si4 0.076396 0.662583 0.220989
Si Si5 0.426526 0.142637 0.540937
Si Si6 0.929165 0.942127 0.051027
Si Si7 0.428932 0.556559 0.915497
Si Si8 0.421998 0.718071 0.682082
O O1 0.750000 0.085783 0.212930
O O2 0.989201 0.073147 0.318269
O O3 0.947238 0.165228 0.242793
O O4 0.019032 0.078359 0.146722
O O5 0.250000 0.274826 0.483350
O O6 0.032446 0.201337 0.500910
O O7 0.973385 0.297537 0.435285
O O8 0.039439 0.287421 0.601968
O O9 0.750000 0.367633 0.439392
O O10 0.542036 0.369136 0.312054
O O11 0.476534 0.400767 0.474105
O O12 0.250000 0.653309 0.191747
O O13 0.046196 0.726933 0.236510
O O14 0.968633 0.639409 0.144582
O O15 0.250000 0.129328 0.530778
O O16 0.524504 0.099906 0.488093
O O17 0.750000 0.947605 0.051168
O O18 0.000000 0.000000 0.028473
O O19 0.500000 0.500000 0.944064
O O20 0.250000 0.551707 0.914638
O O21 0.250000 0.718302 0.643977
#
# Coordination Sequence:
#
# PCOD8192403 Si02
#       8
#     8   8   8   8   8   8   8   8
#     4  10  21  37  60  90 122 158 199 243 294 353
#     4  10  20  34  54  86 121 157 195 237 293 350
#     4  11  22  37  60  89 122 158 200 246 295 353
#     4   9  20  37  60  88 120 159 200 246 297 353
#     4  10  22  40  61  87 121 157 199 250 302 354
#     4  12  25  41  62  86 120 160 202 247 298 355
#     4  11  24  41  63  88 118 156 203 252 301 356
#     4   9  17  33  56  84 119 157 196 236 285 348
#
# _framework density 19.477758999999999
#
# number of rings (size 3 to 8) (size 9 to 14) (size 15 to 20)
#    0.000    1.750    1.250    3.000    1.750    4.500 
#    0.000    0.625    0.000    3.000    0.000    0.000 
#    0.000    0.000    0.000    0.000    0.000    0.000 
#
# Total GULP energy -396853.948237 kJ/mol
# GULP energy per Si atom -12401.685882 kJ/mol
# Density = 1.943343 g / cm^3
# Si number density = 19.477759 Si / 1000 Ang^3
#
#
#
# Elastic Constant Matrix: (Units=GPa)
#
#
# Indices 1 2 3 4 5 6 
#
# 1 83.4533 42.0993 40.6844 0.0000 0.0000 0.0000
# 2 42.0993 106.9066 52.2652 0.0000 0.0000 0.0000
# 3 40.6844 52.2652 97.2909 -0.0001 0.0003 0.0000
# 4 0.0000 0.0000 -0.0001 23.8308 0.0000 0.0000
# 5 0.0000 0.0000 0.0003 0.0000 18.7008 0.0000
# 6 0.0000 0.0000 0.0000 0.0000 0.0000 32.2072
#
#
#
# Elastic Compliance Matrix: (Units=1/GPa)
#
#
# Indices 1 2 3 4 5 6 
#
# 1 0.016329 -0.004193 -0.004576 0.000000 0.000000 0.000000
# 2 -0.004193 0.013762 -0.005640 0.000000 0.000000 0.000000
# 3 -0.004576 -0.005640 0.015222 0.000000 0.000000 0.000000
# 4 0.000000 0.000000 0.000000 0.041963 0.000000 0.000000
# 5 0.000000 0.000000 0.000000 0.000000 0.053474 0.000000
# 6 0.000000 0.000000 0.000000 0.000000 0.000000 0.031049
#
#
# Mechanical properties :
#
#
# Convention : Reuss Voigt Hill
#
# Bulk Modulus (GPa) = 60.62241 61.97204 61.29723
# Shear Modulus (GPa) = 24.25846 25.12121 24.68984
#
# Velocity S-wave (km/s) = 3.53291 3.59519 3.56419
# Velocity P-wave (km/s) = 6.91617 7.00855 6.96251
#
# Compressibility (1/GPa) = 0.01649555
#
# Stress axis : x y z
#
# Youngs Moduli (GPa) = 61.24168 72.66158 65.69630
#
# Poissons Ratio (x) = 0.30469 0.30060
# Poissons Ratio (y) = 0.25680 0.37051
# Poissons Ratio (z) = 0.28022 0.40979
#
# Static dielectric constant tensor:
#      x y z
#    x 3.572420 0.000000 0.000000 
#    y 0.000000 3.633690 0.000000 
#    z 0.000000 0.000000 3.432540 
# 
# 
# High freq. dielectric constant tensor:
#      x y z
#    x 1.762310 0.000000 0.000000 
#    y 0.000000 1.756890 0.000000 
#    z 0.000000 0.000000 1.750390 
# 
# From -- ./inp_files/14491.got.cif
#   From: 2010.03.12/outbox.cif.g09.slc.cpg/sg46_8_cif.got.tgz:14491.got - 2010.04.14 02:56:35.
