data_PCOD8192318
_publ_section_title
;
Structure prediction by ZEFSAII (Michael W. Deem and Ramdas Pophale) SiO2 
 PCOD8192318
Probable space group: I M A 2
;
_chemical_formula_sum "Si O2"
_cell_formula_units_Z 32
_cell_length_a 8.809278
_cell_length_b 15.345318
_cell_length_c 13.281841
_cell_angle_alpha 90.000000
_cell_angle_beta 90.000000
_cell_angle_gamma 90.000000
_cell_volume 1795.454836
_symmetry_space_group_name_H-M "I M A 2"
_symmetry_group_IT_number 46
_symmetry_cell_setting 'orthorhombic'
loop_
_space_group_symop_operation_xyz
x,y,z
-x,-y,z
1/2-x,y,z
1/2+x,-y,z
1/2+x,1/2+y,1/2+z
1/2-x,1/2-y,1/2+z
-x,1/2+y,1/2+z
x,1/2-y,1/2+z
loop_
_atom_site_type_symbol
_atom_site_label
_atom_site_fract_x
_atom_site_fract_y
_atom_site_fract_z
Si Si1 0.080009 0.336500 0.766560
Si Si2 0.428349 0.743768 0.100263
Si Si3 0.919768 0.913241 0.063242
Si Si4 0.930255 0.906605 0.478468
O O1 0.250000 0.299215 0.784037
O O2 0.086808 0.416032 0.685668
O O3 0.009942 0.371016 0.870724
O O4 0.974301 0.260563 0.717632
O O5 0.250000 0.732663 0.088455
O O6 0.486714 0.825943 0.031958
O O7 0.512742 0.656983 0.065599
O O8 0.750000 0.908092 0.017675
O O9 0.000000 0.000000 0.021477
O O10 0.750000 0.913576 0.479479
O O11 0.000000 0.000000 0.500700
#
# Coordination Sequence:
#
# PCOD8192318 Si02
#       4
#     8   8   8   8
#     4   8  18  33  51  75 106 139 173 218 266 312
#     4  10  20  33  50  76 110 144 178 220 269 321
#     4   9  16  29  48  73 101 134 171 211 261 309
#     4  11  21  35  55  81 111 142 182 225 269 320
#
# _framework density 17.822782
#
# number of rings (size 3 to 8) (size 9 to 14) (size 15 to 20)
#    1.500    1.000    0.000    3.750    0.000    2.000 
#    0.000    0.000    0.000    1.500    0.000    0.000 
#    0.000    0.000    0.000    0.000    0.000    0.000 
#
# Total GULP energy -198222.927164 kJ/mol
# GULP energy per Si atom -12388.932948 kJ/mol
# Density = 1.778222 g / cm^3
# Si number density = 17.822782 Si / 1000 Ang^3
#
#
#
# Elastic Constant Matrix: (Units=GPa)
#
#
# Indices 1 2 3 4 5 6 
#
# 1 102.2997 48.1736 20.7976 0.0000 0.0000 0.0000
# 2 48.1736 134.3455 43.7143 0.0000 0.0000 0.0000
# 3 20.7976 43.7143 26.4394 0.0000 0.0000 0.0000
# 4 0.0000 0.0000 0.0000 22.2504 0.0000 0.0000
# 5 0.0000 0.0000 0.0000 0.0000 16.1967 0.0000
# 6 0.0000 0.0000 0.0000 0.0000 0.0000 34.2773
#
#
#
# Elastic Compliance Matrix: (Units=1/GPa)
#
#
# Indices 1 2 3 4 5 6 
#
# 1 0.012066 -0.002680 -0.005060 0.000000 0.000000 0.000000
# 2 -0.002680 0.016706 -0.025514 0.000000 0.000000 0.000000
# 3 -0.005060 -0.025514 0.083987 0.000000 0.000000 0.000000
# 4 0.000000 0.000000 0.000000 0.044943 0.000000 0.000000
# 5 0.000000 0.000000 0.000000 0.000000 0.061741 0.000000
# 6 0.000000 0.000000 0.000000 0.000000 0.000000 0.029174
#
#
# Mechanical properties :
#
#
# Convention : Reuss Voigt Hill
#
# Bulk Modulus (GPa) = 21.62103 54.27282 37.94692
# Shear Modulus (GPa) = 15.12668 24.57148 19.84908
#
# Velocity S-wave (km/s) = 2.91645 3.71705 3.34082
# Velocity P-wave (km/s) = 4.84751 6.99567 6.01822
#
# Compressibility (1/GPa) = 0.04625126
#
# Stress axis : x y z
#
# Youngs Moduli (GPa) = 82.87749 59.85720 11.90666
#
# Poissons Ratio (x) = 0.16043 0.06025
# Poissons Ratio (y) = 0.22213 0.30378
# Poissons Ratio (z) = 0.41935 1.52719
#
# Static dielectric constant tensor:
#      x y z
#    x 3.254030 0.000000 0.000000 
#    y 0.000000 3.088770 0.000000 
#    z 0.000000 0.000000 2.929220 
# 
# 
# High freq. dielectric constant tensor:
#      x y z
#    x 1.699730 0.000000 0.000000 
#    y 0.000000 1.675400 0.000000 
#    z 0.000000 0.000000 1.642490 
# 
# From -- ./inp_files/8895.got.cif
#   From: 2010.03.12/outbox.cif.g09.slc.cpg/sg46_5_cif.got.tgz:8895.got - 2010.04.14 02:56:35.
