data_PCOD8192639
_publ_section_title
;
Structure prediction by ZEFSAII (Michael W. Deem and Ramdas Pophale) SiO2 
 PCOD8192639
Probable space group: I M A 2
;
_chemical_formula_sum "Si O2"
_cell_formula_units_Z 48
_cell_length_a 8.332995
_cell_length_b 30.281881
_cell_length_c 9.886004
_cell_angle_alpha 90.000000
_cell_angle_beta 90.000000
_cell_angle_gamma 90.000000
_cell_volume 2494.622020
_symmetry_space_group_name_H-M "I M A 2"
_symmetry_group_IT_number 46
_symmetry_cell_setting 'orthorhombic'
loop_
_space_group_symop_operation_xyz
x,y,z
-x,-y,z
1/2-x,y,z
1/2+x,-y,z
1/2+x,1/2+y,1/2+z
1/2-x,1/2-y,1/2+z
-x,1/2+y,1/2+z
x,1/2-y,1/2+z
loop_
_atom_site_type_symbol
_atom_site_label
_atom_site_fract_x
_atom_site_fract_y
_atom_site_fract_z
Si Si1 0.562693 0.951055 0.375000
Si Si2 0.564557 0.382510 0.085263
Si Si3 0.560246 0.713750 0.371020
Si Si4 0.436361 0.114821 0.877948
Si Si5 0.941197 0.711568 0.068005
Si Si6 0.935821 0.452941 0.585934
O O1 0.750000 0.947535 0.406776
O O2 0.466294 0.918730 0.471980
O O3 0.530444 0.937524 0.219701
O O4 0.500000 0.000000 0.403182
O O5 0.750000 0.381947 0.125307
O O6 0.463354 0.394001 0.219224
O O7 0.512940 0.335355 0.023481
O O8 0.750000 0.716593 0.376119
O O9 0.507246 0.664570 0.415074
O O10 0.500632 0.723496 0.219161
O O11 0.486834 0.750466 0.470811
O O12 0.250000 0.107277 0.910940
O O13 0.541879 0.082009 0.966754
O O14 0.750000 0.708402 0.059021
O O15 0.750000 0.457466 0.623799
O O16 0.000000 0.500000 0.533679
#
# Coordination Sequence:
#
# PCOD8192639 Si02
#       6
#     8   8   8   8   8   8
#     4  11  22  39  60  83 110 144 182 226 273 327
#     4  11  22  37  55  81 113 147 184 229 277 326
#     4   8  16  30  52  77 104 137 180 224 267 320
#     4  10  20  37  58  83 111 146 187 229 273 325
#     4   9  17  33  53  76 104 140 181 224 269 323
#     4  11  22  38  58  84 114 146 181 224 272 325
#
# _framework density 19.241392999999999
#
# number of rings (size 3 to 8) (size 9 to 14) (size 15 to 20)
#    0.000    2.000    0.000    7.000    0.000    2.000 
#    0.000   10.833    0.000    0.000    0.000    0.000 
#    0.000    0.000    0.000    0.000    0.000    0.000 
#
# Total GULP energy -297657.205312 kJ/mol
# GULP energy per Si atom -12402.383555 kJ/mol
# Density = 1.919760 g / cm^3
# Si number density = 19.241393 Si / 1000 Ang^3
#
#
#
# Elastic Constant Matrix: (Units=GPa)
#
#
# Indices 1 2 3 4 5 6 
#
# 1 67.2445 13.9430 4.3473 0.0007 0.0000 0.0000
# 2 13.9430 129.8407 82.0548 0.0017 0.0001 -0.0001
# 3 4.3473 82.0548 90.7503 0.0056 0.0003 0.0003
# 4 0.0007 0.0017 0.0056 36.5425 0.0003 0.0001
# 5 0.0000 0.0001 0.0003 0.0003 26.3397 0.0007
# 6 0.0000 -0.0001 0.0003 0.0001 0.0007 25.9289
#
#
#
# Elastic Compliance Matrix: (Units=1/GPa)
#
#
# Indices 1 2 3 4 5 6 
#
# 1 0.015329 -0.002758 0.001759 0.000000 0.000000 0.000000
# 2 -0.002758 0.018466 -0.016565 0.000002 0.000000 0.000000
# 3 0.001759 -0.016565 0.025913 -0.000003 0.000000 0.000000
# 4 0.000000 0.000002 -0.000003 0.027365 0.000000 0.000000
# 5 0.000000 0.000000 0.000000 0.000000 0.037966 -0.000001
# 6 0.000000 0.000000 0.000000 0.000000 -0.000001 0.038567
#
#
# Mechanical properties :
#
#
# Convention : Reuss Voigt Hill
#
# Bulk Modulus (GPa) = 40.68130 54.28061 47.48096
# Shear Modulus (GPa) = 24.16319 30.26158 27.21239
#
# Velocity S-wave (km/s) = 3.54756 3.97007 3.76475
# Velocity P-wave (km/s) = 6.16188 7.02046 6.60514
#
# Compressibility (1/GPa) = 0.02458132
#
# Stress axis : x y z
#
# Youngs Moduli (GPa) = 65.23485 54.15283 38.59141
#
# Poissons Ratio (x) = 0.14936 -0.06790
# Poissons Ratio (y) = 0.17992 0.63926
# Poissons Ratio (z) = -0.11478 0.89703
#
# Static dielectric constant tensor:
#      x y z
#    x 3.374750 0.000000 0.000000 
#    y 0.000000 3.657430 0.000000 
#    z 0.000000 0.000000 3.567420 
# 
# 
# High freq. dielectric constant tensor:
#      x y z
#    x 1.742980 0.000000 0.000000 
#    y 0.000000 1.753940 0.000000 
#    z 0.000000 0.000000 1.745810 
# 
# From -- ./inp_files/3909.got.cif
#   From: 2010.03.12/outbox.cif.g09.slc.cpg/sg46_2_cif.got.tgz:3909.got - 2010.04.14 02:56:35.
