data_PCOD8192228
_publ_section_title
;
Structure prediction by ZEFSAII (Michael W. Deem and Ramdas Pophale) SiO2 
 PCOD8192228
Probable space group: I M A 2
;
_chemical_formula_sum "Si O2"
_cell_formula_units_Z 56
_cell_length_a 18.699471
_cell_length_b 10.029059
_cell_length_c 14.956758
_cell_angle_alpha 90.000000
_cell_angle_beta 90.000000
_cell_angle_gamma 90.000000
_cell_volume 2804.961946
_symmetry_space_group_name_H-M "I M A 2"
_symmetry_group_IT_number 46
_symmetry_cell_setting 'orthorhombic'
loop_
_space_group_symop_operation_xyz
x,y,z
-x,-y,z
1/2-x,y,z
1/2+x,-y,z
1/2+x,1/2+y,1/2+z
1/2-x,1/2-y,1/2+z
-x,1/2+y,1/2+z
x,1/2-y,1/2+z
loop_
_atom_site_type_symbol
_atom_site_label
_atom_site_fract_x
_atom_site_fract_y
_atom_site_fract_z
Si Si1 0.502037 0.716308 0.454760
Si Si2 0.111916 0.501563 0.495158
Si Si3 0.669918 0.709314 0.202613
Si Si4 0.472704 0.357882 0.123450
Si Si5 0.827817 0.459789 0.314776
Si Si6 0.832226 0.007338 0.195349
Si Si7 0.065885 0.765545 0.266425
O O1 0.444778 0.619162 0.499121
O O2 0.576682 0.635594 0.458181
O O3 0.505786 0.843083 0.520119
O O4 0.479991 0.772197 0.357750
O O5 0.170477 0.544686 0.422103
O O6 0.148270 0.489696 0.591226
O O7 0.750000 0.695024 0.161222
O O8 0.612637 0.663210 0.128488
O O9 0.658682 0.612473 0.286698
O O10 0.658366 0.860324 0.237585
O O11 0.500000 0.500000 0.158454
O O12 0.509896 0.245392 0.185453
O O13 0.750000 0.409891 0.283184
O O14 0.885562 0.365955 0.267897
O O15 0.750000 0.057408 0.204093
O O16 0.884568 0.105042 0.250368
#
# Coordination Sequence:
#
# PCOD8192228 Si02
#       7
#     8   8   8   8   8   8   8
#     4  10  22  38  58  91 126 153 211 272 316 374
#     4  10  19  37  61  90 119 163 214 264 314 380
#     4  10  22  39  62  92 126 167 212 261 323 388
#     4  12  22  41  64  90 124 168 212 259 317 384
#     4  10  20  38  62  89 125 168 212 256 314 385
#     4  11  22  39  63  93 133 172 213 268 331 387
#     4  11  23  39  65  95 123 167 214 268 318 378
#
# _framework density 19.96462
#
# number of rings (size 3 to 8) (size 9 to 14) (size 15 to 20)
#    0.000    1.429    4.286    1.714    2.000    0.571 
#    5.143    0.000    0.000    0.000    0.000    0.000 
#    0.000    0.000    0.000    0.000    0.000    0.000 
#
# Total GULP energy -347071.416166 kJ/mol
# GULP energy per Si atom -12395.407720 kJ/mol
# Density = 1.991918 g / cm^3
# Si number density = 19.964620 Si / 1000 Ang^3
#
#
#
# Elastic Constant Matrix: (Units=GPa)
#
#
# Indices 1 2 3 4 5 6 
#
# 1 109.8184 47.9829 43.6673 0.0000 0.0000 0.0000
# 2 47.9829 100.3448 34.3069 0.0000 0.0000 0.0000
# 3 43.6673 34.3069 97.1108 0.0000 0.0000 0.0000
# 4 0.0000 0.0000 0.0000 29.4593 0.0000 0.0000
# 5 0.0000 0.0000 0.0000 0.0000 25.1927 0.0000
# 6 0.0000 0.0000 0.0000 0.0000 0.0000 31.8795
#
#
#
# Elastic Compliance Matrix: (Units=1/GPa)
#
#
# Indices 1 2 3 4 5 6 
#
# 1 0.012793 -0.004721 -0.004085 0.000000 0.000000 0.000000
# 2 -0.004721 0.013077 -0.002497 0.000000 0.000000 0.000000
# 3 -0.004085 -0.002497 0.013016 0.000000 0.000000 0.000000
# 4 0.000000 0.000000 0.000000 0.033945 0.000000 0.000000
# 5 0.000000 0.000000 0.000000 0.000000 0.039694 0.000000
# 6 0.000000 0.000000 0.000000 0.000000 0.000000 0.031368
#
#
# Mechanical properties :
#
#
# Convention : Reuss Voigt Hill
#
# Bulk Modulus (GPa) = 61.42113 62.13204 61.77659
# Shear Modulus (GPa) = 29.08247 29.39411 29.23829
#
# Velocity S-wave (km/s) = 3.82082 3.84123 3.83104
# Velocity P-wave (km/s) = 7.09201 7.13176 7.11191
#
# Compressibility (1/GPa) = 0.01628104
#
# Stress axis : x y z
#
# Youngs Moduli (GPa) = 78.16903 76.47198 76.82621
#
# Poissons Ratio (x) = 0.36100 0.31382
# Poissons Ratio (y) = 0.36902 0.19183
# Poissons Ratio (z) = 0.31930 0.19095
#
# Static dielectric constant tensor:
#      x y z
#    x 3.784970 0.000000 0.000000 
#    y 0.000000 3.568980 0.000000 
#    z 0.000000 0.000000 3.383540 
# 
# 
# High freq. dielectric constant tensor:
#      x y z
#    x 1.791380 0.000000 0.000000 
#    y 0.000000 1.773930 0.000000 
#    z 0.000000 0.000000 1.763650 
# 
# From -- ./inp_files/17112.got.cif
#   From: 2010.03.12/outbox.cif.g09.slc.cpg/sg46_9_cif.got.tgz:17112.got - 2010.04.14 02:56:35.
