data_PCOD8192014
_publ_section_title
;
Structure prediction by ZEFSAII (Michael W. Deem and Ramdas Pophale) SiO2 
 PCOD8192014
Probable space group: I M A 2
;
_chemical_formula_sum "Si O2"
_cell_formula_units_Z 64
_cell_length_a 8.746296
_cell_length_b 33.721776
_cell_length_c 11.233320
_cell_angle_alpha 90.000000
_cell_angle_beta 90.000000
_cell_angle_gamma 90.000000
_cell_volume 3313.162529
_symmetry_space_group_name_H-M "I M A 2"
_symmetry_group_IT_number 46
_symmetry_cell_setting 'orthorhombic'
loop_
_space_group_symop_operation_xyz
x,y,z
-x,-y,z
1/2-x,y,z
1/2+x,-y,z
1/2+x,1/2+y,1/2+z
1/2-x,1/2-y,1/2+z
-x,1/2+y,1/2+z
x,1/2-y,1/2+z
loop_
_atom_site_type_symbol
_atom_site_label
_atom_site_fract_x
_atom_site_fract_y
_atom_site_fract_z
Si Si1 0.068650 0.876493 0.516570
Si Si2 0.069930 0.541828 0.410270
Si Si3 0.427735 0.193032 0.667645
Si Si4 0.429093 0.542430 0.138206
Si Si5 0.923146 0.274581 0.644282
Si Si6 0.571109 0.654490 0.773537
Si Si7 0.427272 0.388890 0.532370
Si Si8 0.420761 0.678033 0.402580
O O1 0.250000 0.875311 0.508149
O O2 0.013036 0.920673 0.556591
O O3 0.016182 0.844080 0.612196
O O4 0.999386 0.865590 0.389373
O O5 0.250000 0.543216 0.433375
O O6 0.028810 0.553668 0.274254
O O7 0.000000 0.500000 0.437789
O O8 0.980817 0.566750 0.510281
O O9 0.250000 0.187850 0.640968
O O10 0.484191 0.234773 0.616660
O O11 0.461923 0.195595 0.807648
O O12 0.500000 0.500000 0.099007
O O13 0.250000 0.536817 0.123855
O O14 0.750000 0.265041 0.685347
O O15 0.927444 0.295814 0.519064
O O16 0.998420 0.302384 0.745833
O O17 0.750000 0.661177 0.793347
O O18 0.535195 0.624313 0.666410
O O19 0.250000 0.382287 0.504079
O O20 0.527666 0.365821 0.435555
O O21 0.250000 0.676565 0.348754
#
# Coordination Sequence:
#
# PCOD8192014 Si02
#       8
#     8   8   8   8   8   8   8   8
#     4  11  23  40  61  87 119 157 203 246 295 360
#     4  10  19  33  56  86 119 151 188 238 295 354
#     4  12  25  38  58  86 118 152 192 244 295 347
#     4   9  20  37  59  87 118 153 191 241 296 353
#     4  10  22  40  61  83 112 152 194 239 293 351
#     4  10  22  40  60  84 116 154 197 245 296 351
#     4  10  20  36  58  83 113 148 189 236 289 348
#     4  10  21  38  59  82 109 145 189 233 286 344
#
# _framework density 19.316890000000001
#
# number of rings (size 3 to 8) (size 9 to 14) (size 15 to 20)
#    0.000    1.750    0.000    4.125    1.750    5.500 
#    0.000    0.625    0.000    1.500    0.000    0.000 
#    0.000    0.000    0.000    0.000    0.000    0.000 
#
# Total GULP energy -396784.756377 kJ/mol
# GULP energy per Si atom -12399.523637 kJ/mol
# Density = 1.927292 g / cm^3
# Si number density = 19.316890 Si / 1000 Ang^3
#
#
#
# Elastic Constant Matrix: (Units=GPa)
#
#
# Indices 1 2 3 4 5 6 
#
# 1 76.0787 39.3890 38.6811 0.0005 -0.0004 0.0001
# 2 39.3890 126.2076 43.5885 0.0040 -0.0002 0.0004
# 3 38.6811 43.5885 58.1802 0.0087 -0.0004 0.0009
# 4 0.0005 0.0040 0.0087 26.3736 -0.0003 0.0005
# 5 -0.0004 -0.0002 -0.0004 -0.0003 30.1423 0.0003
# 6 0.0001 0.0004 0.0009 0.0005 0.0003 36.1410
#
#
#
# Elastic Compliance Matrix: (Units=1/GPa)
#
#
# Indices 1 2 3 4 5 6 
#
# 1 0.020324 -0.002261 -0.011818 0.000004 0.000000 0.000000
# 2 -0.002261 0.010941 -0.006693 0.000001 0.000000 0.000000
# 3 -0.011818 -0.006693 0.030060 -0.000009 0.000000 -0.000001
# 4 0.000004 0.000001 -0.000009 0.037917 0.000000 -0.000001
# 5 0.000000 0.000000 0.000000 0.000000 0.033176 0.000000
# 6 0.000000 0.000000 -0.000001 -0.000001 0.000000 0.027669
#
#
# Mechanical properties :
#
#
# Convention : Reuss Voigt Hill
#
# Bulk Modulus (GPa) = 50.55892 55.97596 53.26744
# Shear Modulus (GPa) = 24.01242 27.78524 25.89883
#
# Velocity S-wave (km/s) = 3.52956 3.79673 3.66558
# Velocity P-wave (km/s) = 6.54527 6.94700 6.74913
#
# Compressibility (1/GPa) = 0.01977890
#
# Stress axis : x y z
#
# Youngs Moduli (GPa) = 49.20342 91.39970 33.26684
#
# Poissons Ratio (x) = 0.20669 0.39315
# Poissons Ratio (y) = 0.11127 0.22267
# Poissons Ratio (z) = 0.58149 0.61178
#
# Static dielectric constant tensor:
#      x y z
#    x 3.699530 0.000000 0.000000 
#    y 0.000000 3.673010 0.000000 
#    z 0.000000 0.000000 3.468970 
# 
# 
# High freq. dielectric constant tensor:
#      x y z
#    x 1.763810 0.000000 0.000000 
#    y 0.000000 1.760160 0.000000 
#    z 0.000000 0.000000 1.744270 
# 
# From -- ./inp_files/9811.got.cif
#   From: 2010.03.12/outbox.cif.g09.slc.cpg/sg46_5_cif.got.tgz:9811.got - 2010.04.14 02:56:35.
