data_PCOD8192510
_publ_section_title
;
Structure prediction by ZEFSAII (Michael W. Deem and Ramdas Pophale) SiO2 
 PCOD8192510
Probable space group: I M A 2
;
_chemical_formula_sum "Si O2"
_cell_formula_units_Z 64
_cell_length_a 22.686419
_cell_length_b 8.810049
_cell_length_c 15.484023
_cell_angle_alpha 90.000000
_cell_angle_beta 90.000000
_cell_angle_gamma 90.000000
_cell_volume 3094.767878
_symmetry_space_group_name_H-M "I M A 2"
_symmetry_group_IT_number 46
_symmetry_cell_setting 'orthorhombic'
loop_
_space_group_symop_operation_xyz
x,y,z
-x,-y,z
1/2-x,y,z
1/2+x,-y,z
1/2+x,1/2+y,1/2+z
1/2-x,1/2-y,1/2+z
-x,1/2+y,1/2+z
x,1/2-y,1/2+z
loop_
_atom_site_type_symbol
_atom_site_label
_atom_site_fract_x
_atom_site_fract_y
_atom_site_fract_z
Si Si1 0.122773 0.400335 0.680520
Si Si2 0.377227 0.400335 0.126604
Si Si3 0.817300 0.364279 0.805906
Si Si4 0.022641 0.171776 0.499080
Si Si5 0.317300 0.864279 0.501218
Si Si6 0.086598 0.840565 0.066482
Si Si7 0.977359 0.671776 0.808044
Si Si8 0.586598 0.340565 0.240642
O O1 0.160381 0.250000 0.653562
O O2 0.162775 0.508073 0.738643
O O3 0.095587 0.484671 0.595402
O O4 0.071439 0.318892 0.735121
O O5 0.404413 0.484671 0.211722
O O6 0.428561 0.318892 0.072003
O O7 0.337225 0.508073 0.068481
O O8 0.750000 0.320130 0.786421
O O9 0.825033 0.425860 0.903562
O O10 0.856118 0.213019 0.794384
O O11 0.048852 0.203120 0.403562
O O12 0.972202 0.300430 0.513102
O O13 0.000000 0.000000 0.503298
O O14 0.250000 0.820130 0.520703
O O15 0.356118 0.713019 0.512740
O O16 0.080984 0.750000 0.153562
O O17 0.000000 0.500000 0.803826
O O18 0.027798 0.800430 0.794022
#
# Coordination Sequence:
#
# PCOD8192510 Si02
#       8
#     8   8   8   8   8   8   8   8
#     4  11  24  37  58  86 122 154 191 238 288 344
#     4  11  24  37  58  86 122 154 191 238 288 344
#     4  10  21  40  63  83 108 149 198 241 290 348
#     4  11  20  34  58  84 116 151 190 234 287 342
#     4  10  21  40  63  83 108 149 198 241 290 348
#     4  10  20  35  57  86 112 147 192 237 281 337
#     4  11  20  34  58  84 116 151 190 234 287 342
#     4  10  20  35  57  86 112 147 192 237 281 337
#
# _framework density 20.680064999999999
#
# number of rings (size 3 to 8) (size 9 to 14) (size 15 to 20)
#    0.000    1.500    5.000    2.250    0.000    5.000 
#    0.000    6.250    0.000    3.000    0.000    0.000 
#    0.000    0.000    0.000    0.000    0.000    0.000 
#
# Total GULP energy -396490.335934 kJ/mol
# GULP energy per Si atom -12390.322998 kJ/mol
# Density = 2.063300 g / cm^3
# Si number density = 20.680065 Si / 1000 Ang^3
#
#
#
# Elastic Constant Matrix: (Units=GPa)
#
#
# Indices 1 2 3 4 5 6 
#
# 1 108.1012 21.6508 34.4152 0.0000 0.0000 0.0000
# 2 21.6508 105.5423 36.6044 0.0000 0.0000 0.0000
# 3 34.4152 36.6044 91.4883 0.0000 0.0000 0.0000
# 4 0.0000 0.0000 0.0000 22.1913 0.0000 0.0000
# 5 0.0000 0.0000 0.0000 0.0000 18.2461 0.0000
# 6 0.0000 0.0000 0.0000 0.0000 0.0000 8.3438
#
#
#
# Elastic Compliance Matrix: (Units=1/GPa)
#
#
# Indices 1 2 3 4 5 6 
#
# 1 0.010585 -0.000918 -0.003615 0.000000 0.000000 0.000000
# 2 -0.000918 0.011081 -0.004088 0.000000 0.000000 0.000000
# 3 -0.003615 -0.004088 0.013926 0.000000 0.000000 0.000000
# 4 0.000000 0.000000 0.000000 0.045063 0.000000 0.000000
# 5 0.000000 0.000000 0.000000 0.000000 0.054806 0.000000
# 6 0.000000 0.000000 0.000000 0.000000 0.000000 0.119849
#
#
# Mechanical properties :
#
#
# Convention : Reuss Voigt Hill
#
# Bulk Modulus (GPa) = 54.49404 54.49696 54.49550
# Shear Modulus (GPa) = 17.94249 23.92035 20.93142
#
# Velocity S-wave (km/s) = 2.94874 3.40470 3.18489
# Velocity P-wave (km/s) = 6.16455 6.47036 6.31930
#
# Compressibility (1/GPa) = 0.01835063
#
# Stress axis : x y z
#
# Youngs Moduli (GPa) = 94.47188 90.24414 71.80924
#
# Poissons Ratio (x) = 0.08283 0.25956
# Poissons Ratio (y) = 0.08671 0.29358
# Poissons Ratio (z) = 0.34148 0.36894
#
# Static dielectric constant tensor:
#      x y z
#    x 3.675150 0.000000 0.000000 
#    y 0.000000 4.325540 0.000000 
#    z 0.000000 0.000000 4.419600 
# 
# 
# High freq. dielectric constant tensor:
#      x y z
#    x 1.785460 0.000000 0.000000 
#    y 0.000000 1.800350 0.000000 
#    z 0.000000 0.000000 1.822110 
# 
# From -- ./inp_files/17426.got.cif
#   From: 2010.03.12/outbox.cif.g09.slc.cpg/sg46_9_cif.got.tgz:17426.got - 2010.04.14 02:56:35.
