data_PCOD8192134
_publ_section_title
;
Structure prediction by ZEFSAII (Michael W. Deem and Ramdas Pophale) SiO2 
 PCOD8192134
Probable space group: I M A 2
;
_chemical_formula_sum "Si O2"
_cell_formula_units_Z 40
_cell_length_a 13.784014
_cell_length_b 9.017310
_cell_length_c 15.317638
_cell_angle_alpha 90.000000
_cell_angle_beta 90.000000
_cell_angle_gamma 90.000000
_cell_volume 1903.901638
_symmetry_space_group_name_H-M "I M A 2"
_symmetry_group_IT_number 46
_symmetry_cell_setting 'orthorhombic'
loop_
_space_group_symop_operation_xyz
x,y,z
-x,-y,z
1/2-x,y,z
1/2+x,-y,z
1/2+x,1/2+y,1/2+z
1/2-x,1/2-y,1/2+z
-x,1/2+y,1/2+z
x,1/2-y,1/2+z
loop_
_atom_site_type_symbol
_atom_site_label
_atom_site_fract_x
_atom_site_fract_y
_atom_site_fract_z
Si Si1 0.857170 0.736588 0.297080
Si Si2 0.358673 0.416188 0.962206
Si Si3 0.947150 0.221173 0.509179
Si Si4 0.862599 0.416309 0.365517
Si Si5 0.468571 0.833578 0.696315
O O1 0.750000 0.715069 0.256159
O O2 0.860392 0.878169 0.359613
O O3 0.886268 0.589950 0.353069
O O4 0.934630 0.759029 0.220415
O O5 0.250000 0.387034 0.000313
O O6 0.385090 0.588025 0.968155
O O7 0.437469 0.313718 0.010776
O O8 0.921977 0.364220 0.451117
O O9 0.918871 0.242387 0.611447
O O10 0.750000 0.386037 0.381876
O O11 0.894964 0.329547 0.277854
O O12 0.500000 0.000000 0.670030
#
# Coordination Sequence:
#
# PCOD8192134 Si02
#       5
#     8   8   8   8   8
#     4   9  19  37  62  84 114 153 188 232 284 339
#     4  10  20  35  58  84 114 150 189 231 283 338
#     4  11  21  36  59  86 115 150 189 239 285 332
#     4  10  21  36  59  84 113 151 191 236 282 335
#     4  10  19  35  56  85 113 145 192 231 279 333
#
# _framework density 21.009488000000001
#
# number of rings (size 3 to 8) (size 9 to 14) (size 15 to 20)
#    0.000    2.000    4.000    0.600    0.000    2.400 
#    0.000    0.000    8.800    0.000    0.000    0.000 
#    0.000    0.000    0.000    0.000    0.000    0.000 
#
# Total GULP energy -247949.057115 kJ/mol
# GULP energy per Si atom -12397.452856 kJ/mol
# Density = 2.096167 g / cm^3
# Si number density = 21.009488 Si / 1000 Ang^3
#
#
#
# Elastic Constant Matrix: (Units=GPa)
#
#
# Indices 1 2 3 4 5 6 
#
# 1 109.9409 27.8753 37.5660 0.0000 0.0000 0.0000
# 2 27.8753 43.8081 37.0824 0.0000 0.0000 0.0000
# 3 37.5660 37.0824 137.1203 0.0000 0.0000 0.0000
# 4 0.0000 0.0000 0.0000 24.4678 0.0000 0.0000
# 5 0.0000 0.0000 0.0000 0.0000 19.0274 0.0000
# 6 0.0000 0.0000 0.0000 0.0000 0.0000 22.2540
#
#
#
# Elastic Compliance Matrix: (Units=1/GPa)
#
#
# Indices 1 2 3 4 5 6 
#
# 1 0.011067 -0.005804 -0.001462 0.000000 0.000000 0.000000
# 2 -0.005804 0.032648 -0.007239 0.000000 0.000000 0.000000
# 3 -0.001462 -0.007239 0.009651 0.000000 0.000000 0.000000
# 4 0.000000 0.000000 0.000000 0.040870 0.000000 0.000000
# 5 0.000000 0.000000 0.000000 0.000000 0.052556 0.000000
# 6 0.000000 0.000000 0.000000 0.000000 0.000000 0.044936
#
#
# Mechanical properties :
#
#
# Convention : Reuss Voigt Hill
#
# Bulk Modulus (GPa) = 41.05945 55.10185 48.08065
# Shear Modulus (GPa) = 21.84771 25.70622 23.77696
#
# Velocity S-wave (km/s) = 3.22824 3.50173 3.36776
# Velocity P-wave (km/s) = 5.78629 6.52943 6.16906
#
# Compressibility (1/GPa) = 0.02435493
#
# Stress axis : x y z
#
# Youngs Moduli (GPa) = 90.35785 30.62999 103.61435
#
# Poissons Ratio (x) = 0.17778 0.15152
# Poissons Ratio (y) = 0.52446 0.75006
# Poissons Ratio (z) = 0.13213 0.22173
#
# Static dielectric constant tensor:
#      x y z
#    x 4.083960 0.000000 0.000000 
#    y 0.000000 3.466490 0.000000 
#    z 0.000000 0.000000 3.644330 
# 
# 
# High freq. dielectric constant tensor:
#      x y z
#    x 1.837100 0.000000 0.000000 
#    y 0.000000 1.785970 0.000000 
#    z 0.000000 0.000000 1.808290 
# 
# From -- ./inp_files/15670.got.cif
#   From: 2010.03.12/outbox.cif.g09.slc.cpg/sg46_8_cif.got.tgz:15670.got - 2010.04.14 02:56:35.
