data_PCOD8192752
_publ_section_title
;
Structure prediction by ZEFSAII (Michael W. Deem and Ramdas Pophale) SiO2 
 PCOD8192752
Probable space group: I M A 2
;
_chemical_formula_sum "Si O2"
_cell_formula_units_Z 48
_cell_length_a 17.357752
_cell_length_b 9.352144
_cell_length_c 13.575346
_cell_angle_alpha 90.000000
_cell_angle_beta 90.000000
_cell_angle_gamma 90.000000
_cell_volume 2203.715731
_symmetry_space_group_name_H-M "I M A 2"
_symmetry_group_IT_number 46
_symmetry_cell_setting 'orthorhombic'
loop_
_space_group_symop_operation_xyz
x,y,z
-x,-y,z
1/2-x,y,z
1/2+x,-y,z
1/2+x,1/2+y,1/2+z
1/2-x,1/2-y,1/2+z
-x,1/2+y,1/2+z
x,1/2-y,1/2+z
loop_
_atom_site_type_symbol
_atom_site_label
_atom_site_fract_x
_atom_site_fract_y
_atom_site_fract_z
Si Si1 0.661379 0.075297 0.223150
Si Si2 0.546488 0.358393 0.565710
Si Si3 0.165757 0.262122 0.808814
Si Si4 0.569388 0.382321 0.909754
Si Si5 0.835797 0.899283 0.513042
Si Si6 0.453128 0.354620 0.180293
O O1 0.750000 0.129723 0.230203
O O2 0.630476 0.101849 0.111539
O O3 0.606255 0.155725 0.303491
O O4 0.656899 0.907915 0.247483
O O5 0.500000 0.500000 0.538112
O O6 0.545169 0.262410 0.466413
O O7 0.509028 0.276567 0.658696
O O8 0.250000 0.193955 0.785298
O O9 0.159431 0.286438 0.924663
O O10 0.093149 0.160775 0.782908
O O11 0.500000 0.500000 0.902084
O O12 0.637009 0.446052 0.976886
O O13 0.750000 0.915250 0.554016
O O14 0.887721 0.842345 0.599091
O O15 0.500000 0.500000 0.177717
#
# Coordination Sequence:
#
# PCOD8192752 Si02
#       6
#     8   8   8   8   8   8
#     4  10  23  41  67  94 125 172 215 262 323 384
#     4  12  23  40  65  95 132 169 212 263 320 383
#     4   9  20  39  65  93 122 169 219 261 312 382
#     4  11  21  41  67  96 121 165 222 262 316 381
#     4  10  20  38  66  93 126 168 217 264 316 383
#     4  12  22  40  63  98 129 167 214 263 321 379
#
# _framework density 21.781393000000001
#
# number of rings (size 3 to 8) (size 9 to 14) (size 15 to 20)
#    0.000    1.333    5.000    2.500    2.333    1.333 
#    0.000    4.167    0.000    2.000    0.000    0.000 
#    0.000    0.000    0.000    0.000    0.000    0.000 
#
# Total GULP energy -297446.166892 kJ/mol
# GULP energy per Si atom -12393.590287 kJ/mol
# Density = 2.173182 g / cm^3
# Si number density = 21.781393 Si / 1000 Ang^3
#
#
#
# Elastic Constant Matrix: (Units=GPa)
#
#
# Indices 1 2 3 4 5 6 
#
# 1 154.0851 53.1663 55.7153 0.0000 0.0000 0.0000
# 2 53.1663 75.7125 43.6095 0.0000 0.0000 0.0000
# 3 55.7153 43.6095 65.6099 0.0000 0.0000 0.0000
# 4 0.0000 0.0000 0.0000 2.9303 0.0000 0.0000
# 5 0.0000 0.0000 0.0000 0.0000 -250.3402 0.0000
# 6 0.0000 0.0000 0.0000 0.0000 0.0000 22.8822
#
#
#
# Elastic Compliance Matrix: (Units=1/GPa)
#
#
# Indices 1 2 3 4 5 6 
#
# 1 0.009881 -0.003412 -0.006123 0.000000 0.000000 0.000000
# 2 -0.003412 0.022579 -0.012111 0.000000 0.000000 0.000000
# 3 -0.006123 -0.012111 0.028491 0.000000 0.000000 0.000000
# 4 0.000000 0.000000 0.000000 0.341258 0.000000 0.000000
# 5 0.000000 0.000000 0.000000 0.000000 -0.003995 0.000000
# 6 0.000000 0.000000 0.000000 0.000000 0.000000 0.043702
#
#
# Mechanical properties :
#
#
# Convention : Reuss Voigt Hill
#
# Bulk Modulus (GPa) = 56.62487 66.70999 61.66743
# Shear Modulus (GPa) = 10.18132 -35.37775 -12.59822
#
# Velocity S-wave (km/s) = 2.16436 -4.03453 -2.40759
# Velocity P-wave (km/s) = 5.68325 2.99838 4.54365
#
# Compressibility (1/GPa) = 0.01766008
#
# Stress axis : x y z
#
# Youngs Moduli (GPa) = 101.20173 44.28837 35.09857
#
# Poissons Ratio (x) = 0.15110 0.21492
# Poissons Ratio (y) = 0.34528 0.42507
# Poissons Ratio (z) = 0.61969 0.53636
#
# Static dielectric constant tensor:
#      x y z
#    x 9.668490 0.000000 0.000000 
#    y 0.000000 3.617010 0.000000 
#    z 0.000000 0.000000 4.001660 
# 
# 
# High freq. dielectric constant tensor:
#      x y z
#    x 1.877970 0.000000 0.000000 
#    y 0.000000 1.820150 0.000000 
#    z 0.000000 0.000000 1.853860 
# 
# From -- ./inp_files/16523.got.cif
#   From: 2010.03.12/outbox.cif.g09.slc.cpg/sg46_9_cif.got.tgz:16523.got - 2010.04.14 02:56:35.
