data_PCOD8192142
_publ_section_title
;
Structure prediction by ZEFSAII (Michael W. Deem and Ramdas Pophale) SiO2 
 PCOD8192142
Probable space group: I M A 2
;
_chemical_formula_sum "Si O2"
_cell_formula_units_Z 64
_cell_length_a 9.111741
_cell_length_b 27.986016
_cell_length_c 12.584692
_cell_angle_alpha 90.000000
_cell_angle_beta 90.000000
_cell_angle_gamma 90.000000
_cell_volume 3209.113190
_symmetry_space_group_name_H-M "I M A 2"
_symmetry_group_IT_number 46
_symmetry_cell_setting 'orthorhombic'
loop_
_space_group_symop_operation_xyz
x,y,z
-x,-y,z
1/2-x,y,z
1/2+x,-y,z
1/2+x,1/2+y,1/2+z
1/2-x,1/2-y,1/2+z
-x,1/2+y,1/2+z
x,1/2-y,1/2+z
loop_
_atom_site_type_symbol
_atom_site_label
_atom_site_fract_x
_atom_site_fract_y
_atom_site_fract_z
Si Si1 0.077345 0.902611 0.558610
Si Si2 0.420586 0.380830 0.661729
Si Si3 0.580750 0.196726 0.049634
Si Si4 0.925243 0.551417 0.856707
Si Si5 0.412138 0.316986 0.334559
Si Si6 0.587083 0.575739 0.259858
Si Si7 0.582719 0.201364 0.636164
Si Si8 0.079100 0.454920 0.485642
O O1 0.250000 0.910671 0.539878
O O2 0.035937 0.846569 0.572400
O O3 0.985290 0.923664 0.462038
O O4 0.026793 0.931783 0.663585
O O5 0.250000 0.368001 0.671056
O O6 0.510797 0.331350 0.651005
O O7 0.470114 0.413265 0.760777
O O8 0.458774 0.408266 0.552914
O O9 0.750000 0.182326 0.043409
O O10 0.560240 0.253558 0.060034
O O11 0.502928 0.182079 0.941792
O O12 0.750000 0.544600 0.863774
O O13 0.000000 0.500000 0.838847
O O14 0.250000 0.295637 0.356612
O O15 0.398320 0.369509 0.289533
O O16 0.491251 0.286982 0.242303
O O17 0.750000 0.556737 0.228296
O O18 0.523950 0.549572 0.364130
O O19 0.750000 0.195265 0.673286
O O20 0.250000 0.464832 0.490078
O O21 0.000000 0.500000 0.539193
#
# Coordination Sequence:
#
# PCOD8192142 Si02
#       8
#     8   8   8   8   8   8   8   8
#     4  10  21  39  62  85 118 157 200 249 301 362
#     4  10  22  41  60  84 119 156 200 252 301 358
#     4  11  22  36  59  88 121 160 202 250 302 363
#     4  11  24  42  65  89 121 162 208 259 311 371
#     4  10  19  35  58  81 112 151 191 242 297 353
#     4   9  18  35  57  80 112 149 186 236 294 349
#     4   9  21  39  57  85 120 158 202 250 303 360
#     4  10  20  35  55  82 115 146 182 235 290 348
#
# _framework density 19.943204000000001
#
# number of rings (size 3 to 8) (size 9 to 14) (size 15 to 20)
#    0.000    2.000    1.250    1.875    0.000    5.500 
#    0.000    5.000    0.000    0.000    0.000    0.000 
#    0.000    0.000    0.000    0.000    0.000    0.000 
#
# Total GULP energy -396728.658024 kJ/mol
# GULP energy per Si atom -12397.770563 kJ/mol
# Density = 1.989781 g / cm^3
# Si number density = 19.943204 Si / 1000 Ang^3
#
#
#
# Elastic Constant Matrix: (Units=GPa)
#
#
# Indices 1 2 3 4 5 6 
#
# 1 82.7607 29.6776 46.6106 -0.0002 0.0001 0.0000
# 2 29.6776 57.1942 23.9897 -0.0027 0.0003 -0.0001
# 3 46.6106 23.9897 105.6995 0.0042 -0.0007 0.0003
# 4 -0.0002 -0.0027 0.0042 -32.0891 -0.0024 0.0004
# 5 0.0001 0.0003 -0.0007 -0.0024 28.4708 0.0000
# 6 0.0000 -0.0001 0.0003 0.0004 0.0000 30.7262
#
#
#
# Elastic Compliance Matrix: (Units=1/GPa)
#
#
# Indices 1 2 3 4 5 6 
#
# 1 0.018130 -0.006691 -0.006476 0.000000 0.000000 0.000000
# 2 -0.006691 0.021793 -0.001996 -0.000002 0.000000 0.000000
# 3 -0.006476 -0.001996 0.012770 0.000002 0.000000 0.000000
# 4 0.000000 -0.000002 0.000002 -0.031163 -0.000003 0.000000
# 5 0.000000 0.000000 0.000000 -0.000003 0.035124 0.000000
# 6 0.000000 0.000000 0.000000 0.000000 0.000000 0.032546
#
#
# Mechanical properties :
#
#
# Convention : Reuss Voigt Hill
#
# Bulk Modulus (GPa) = 44.70890 49.57890 47.14390
# Shear Modulus (GPa) = 39.37637 15.11335 27.24486
#
# Velocity S-wave (km/s) = 4.44827 2.75584 3.70012
# Velocity P-wave (km/s) = 6.98925 5.91948 6.47649
#
# Compressibility (1/GPa) = 0.02236691
#
# Stress axis : x y z
#
# Youngs Moduli (GPa) = 55.15803 45.88577 78.31157
#
# Poissons Ratio (x) = 0.30702 0.50715
# Poissons Ratio (y) = 0.36906 0.15628
# Poissons Ratio (z) = 0.35721 0.09157
#
# Static dielectric constant tensor:
#      x y z
#    x 3.878530 0.000020 0.000000 
#    y 0.000020 3.779730 -0.000010 
#    z 0.000000 -0.000010 3.737930 
# 
# 
# High freq. dielectric constant tensor:
#      x y z
#    x 1.781800 0.000000 0.000000 
#    y 0.000000 1.774040 0.000000 
#    z 0.000000 0.000000 1.777710 
# 
# From -- ./inp_files/9771.got.cif
#   From: 2010.03.12/outbox.cif.g09.slc.cpg/sg46_5_cif.got.tgz:9771.got - 2010.04.14 02:56:35.
