data_PCOD8192351
_publ_section_title
;
Structure prediction by ZEFSAII (Michael W. Deem and Ramdas Pophale) SiO2 
 PCOD8192351
Probable space group: I M A 2
;
_chemical_formula_sum "Si O2"
_cell_formula_units_Z 64
_cell_length_a 8.819466
_cell_length_b 32.973727
_cell_length_c 11.574817
_cell_angle_alpha 90.000000
_cell_angle_beta 90.000000
_cell_angle_gamma 90.000000
_cell_volume 3366.080219
_symmetry_space_group_name_H-M "I M A 2"
_symmetry_group_IT_number 46
_symmetry_cell_setting 'orthorhombic'
loop_
_space_group_symop_operation_xyz
x,y,z
-x,-y,z
1/2-x,y,z
1/2+x,-y,z
1/2+x,1/2+y,1/2+z
1/2-x,1/2-y,1/2+z
-x,1/2+y,1/2+z
x,1/2-y,1/2+z
loop_
_atom_site_type_symbol
_atom_site_label
_atom_site_fract_x
_atom_site_fract_y
_atom_site_fract_z
Si Si1 0.430283 0.456786 0.432840
Si Si2 0.427527 0.727971 0.919197
Si Si3 0.073996 0.458757 0.171554
Si Si4 0.429964 0.852195 0.292074
Si Si5 0.925852 0.813031 0.873493
Si Si6 0.415170 0.683182 0.143912
Si Si7 0.569983 0.378030 0.539753
Si Si8 0.917073 0.101165 0.506755
O O1 0.500000 0.500000 0.471265
O O2 0.250000 0.458618 0.446331
O O3 0.481014 0.446757 0.300754
O O4 0.495424 0.421445 0.513535
O O5 0.250000 0.736293 0.896534
O O6 0.488760 0.691848 0.835388
O O7 0.526187 0.767206 0.894740
O O8 0.457637 0.718559 0.053932
O O9 0.250000 0.465946 0.174543
O O10 0.000000 0.500000 0.129254
O O11 0.035001 0.425578 0.076631
O O12 0.250000 0.850619 0.296091
O O13 0.489681 0.862705 0.164480
O O14 0.482194 0.888444 0.378951
O O15 0.750000 0.819704 0.901305
O O16 0.955562 0.822118 0.739096
O O17 0.022744 0.844389 0.947791
O O18 0.250000 0.692873 0.201264
O O19 0.398490 0.643111 0.070896
O O20 0.750000 0.383191 0.537681
O O21 0.750000 0.080189 0.500616
#
# Coordination Sequence:
#
# PCOD8192351 Si02
#       8
#     8   8   8   8   8   8   8   8
#     4  10  21  38  59  86 119 152 188 236 289 342
#     4   9  19  38  60  80 104 142 191 236 281 335
#     4  10  20  33  53  82 113 144 178 221 275 331
#     4   8  18  37  60  82 106 142 189 236 280 332
#     4  12  25  36  51  81 118 148 182 232 286 340
#     4   9  19  36  58  79 101 137 183 226 273 330
#     4  11  22  38  60  85 112 151 197 238 283 342
#     4   9  17  34  58  81 105 134 175 227 275 324
#
# _framework density 19.013214000000001
#
# number of rings (size 3 to 8) (size 9 to 14) (size 15 to 20)
#    0.000    2.250    0.000    4.500    1.750    4.500 
#    0.000    4.375    0.000    0.000    0.000    0.000 
#    0.000    0.000    0.000    0.000    0.000    0.000 
#
# Total GULP energy -396719.355961 kJ/mol
# GULP energy per Si atom -12397.479874 kJ/mol
# Density = 1.896994 g / cm^3
# Si number density = 19.013214 Si / 1000 Ang^3
#
#
#
# Elastic Constant Matrix: (Units=GPa)
#
#
# Indices 1 2 3 4 5 6 
#
# 1 61.4629 25.7380 27.9850 0.0010 -0.0005 -0.0001
# 2 25.7380 89.0451 48.9826 0.0031 -0.0005 0.0002
# 3 27.9850 48.9826 108.6609 0.0049 -0.0009 0.0000
# 4 0.0010 0.0031 0.0049 12.2122 -0.0008 0.0004
# 5 -0.0005 -0.0005 -0.0009 -0.0008 22.2196 0.0004
# 6 -0.0001 0.0002 0.0000 0.0004 0.0004 24.6077
#
#
#
# Elastic Compliance Matrix: (Units=1/GPa)
#
#
# Indices 1 2 3 4 5 6 
#
# 1 0.019348 -0.003792 -0.003274 0.000001 0.000000 0.000000
# 2 -0.003792 0.015676 -0.006090 -0.000001 0.000000 0.000000
# 3 -0.003274 -0.006090 0.012791 -0.000003 0.000000 0.000000
# 4 0.000001 -0.000001 -0.000003 0.081886 0.000003 -0.000001
# 5 0.000000 0.000000 0.000000 0.000003 0.045005 -0.000001
# 6 0.000000 0.000000 0.000000 -0.000001 -0.000001 0.040638
#
#
# Mechanical properties :
#
#
# Convention : Reuss Voigt Hill
#
# Bulk Modulus (GPa) = 46.50101 51.62002 49.06051
# Shear Modulus (GPa) = 20.09450 22.23877 21.16663
#
# Velocity S-wave (km/s) = 3.25448 3.42372 3.34017
# Velocity P-wave (km/s) = 6.21550 6.54505 6.38240
#
# Compressibility (1/GPa) = 0.02150491
#
# Stress axis : x y z
#
# Youngs Moduli (GPa) = 51.68393 63.79054 78.17734
#
# Poissons Ratio (x) = 0.24187 0.25594
# Poissons Ratio (y) = 0.19597 0.47611
# Poissons Ratio (z) = 0.16921 0.38849
#
# Static dielectric constant tensor:
#      x y z
#    x 3.195120 -0.000020 0.000000 
#    y -0.000020 4.100720 -0.000010 
#    z 0.000000 -0.000010 3.865120 
# 
# 
# High freq. dielectric constant tensor:
#      x y z
#    x 1.724240 0.000000 0.000000 
#    y 0.000000 1.739790 0.000000 
#    z 0.000000 0.000000 1.739270 
# 
# From -- ./inp_files/9721.got.cif
#   From: 2010.03.12/outbox.cif.g09.slc.cpg/sg46_5_cif.got.tgz:9721.got - 2010.04.14 02:56:35.
