data_PCOD8192821
_publ_section_title
;
Structure prediction by ZEFSAII (Michael W. Deem and Ramdas Pophale) SiO2 
 PCOD8192821
Probable space group: I M A 2
;
_chemical_formula_sum "Si O2"
_cell_formula_units_Z 64
_cell_length_a 30.481008
_cell_length_b 9.249290
_cell_length_c 10.424145
_cell_angle_alpha 90.000000
_cell_angle_beta 90.000000
_cell_angle_gamma 90.000000
_cell_volume 2938.855042
_symmetry_space_group_name_H-M "I M A 2"
_symmetry_group_IT_number 46
_symmetry_cell_setting 'orthorhombic'
loop_
_space_group_symop_operation_xyz
x,y,z
-x,-y,z
1/2-x,y,z
1/2+x,-y,z
1/2+x,1/2+y,1/2+z
1/2-x,1/2-y,1/2+z
-x,1/2+y,1/2+z
x,1/2-y,1/2+z
loop_
_atom_site_type_symbol
_atom_site_label
_atom_site_fract_x
_atom_site_fract_y
_atom_site_fract_z
Si Si1 0.876884 0.944010 0.478730
Si Si2 0.798541 0.675201 0.098477
Si Si3 0.390552 0.623746 0.212307
Si Si4 0.611137 0.441172 0.706013
Si Si5 0.459493 0.397598 0.296683
Si Si6 0.702025 0.445647 0.302492
Si Si7 0.700728 0.000651 0.099982
Si Si8 0.564897 0.807882 0.069187
O O1 0.824796 0.921759 0.495064
O O2 0.891666 0.967631 0.335371
O O3 0.895255 0.794110 0.531567
O O4 0.892751 0.079923 0.562877
O O5 0.750000 0.678424 0.041191
O O6 0.802020 0.604458 0.239443
O O7 0.815662 0.836746 0.116200
O O8 0.415903 0.499562 0.292645
O O9 0.340271 0.644600 0.259334
O O10 0.411706 0.783789 0.223415
O O11 0.662071 0.409679 0.668570
O O12 0.583331 0.533581 0.604521
O O13 0.500000 0.500000 0.263529
O O14 0.460054 0.269478 0.188942
O O15 0.464495 0.329557 0.439999
O O16 0.750000 0.378364 0.260025
O O17 0.701599 0.456796 0.453257
O O18 0.750000 0.025644 0.158591
#
# Coordination Sequence:
#
# PCOD8192821 Si02
#       8
#     8   8   8   8   8   8   8   8
#     4  10  22  39  62  96 127 172 227 274 331 403
#     4   9  18  32  55  86 122 168 224 284 334 388
#     4  10  25  42  66  96 136 179 220 278 338 405
#     4  12  24  38  68  96 134 179 225 274 342 404
#     4  11  26  50  76 105 142 175 224 276 338 399
#     4   9  19  38  58  83 128 177 221 276 335 396
#     4  10  21  32  54  88 124 172 229 279 330 396
#     4  11  23  47  74 102 134 177 220 273 332 401
#
# _framework density 21.777187999999999
#
# number of rings (size 3 to 8) (size 9 to 14) (size 15 to 20)
#    0.000    1.750    2.500    0.750    5.250    2.000 
#    2.250    0.625    0.000    0.000    0.000    0.000 
#    0.000    0.000    0.000    0.000    0.000    0.000 
#
# Total GULP energy -396575.344681 kJ/mol
# GULP energy per Si atom -12392.979521 kJ/mol
# Density = 2.172762 g / cm^3
# Si number density = 21.777188 Si / 1000 Ang^3
#
#
#
# Elastic Constant Matrix: (Units=GPa)
#
#
# Indices 1 2 3 4 5 6 
#
# 1 68.1856 15.3207 20.3239 0.0000 0.0000 0.0000
# 2 15.3207 105.7435 25.5934 0.0000 0.0000 0.0000
# 3 20.3239 25.5934 106.8861 0.0000 0.0000 0.0000
# 4 0.0000 0.0000 0.0000 23.2031 0.0000 0.0000
# 5 0.0000 0.0000 0.0000 0.0000 20.5207 0.0000
# 6 0.0000 0.0000 0.0000 0.0000 0.0000 23.7590
#
#
#
# Elastic Compliance Matrix: (Units=1/GPa)
#
#
# Indices 1 2 3 4 5 6 
#
# 1 0.015817 -0.001660 -0.002610 0.000000 0.000000 0.000000
# 2 -0.001660 0.010213 -0.002130 0.000000 0.000000 0.000000
# 3 -0.002610 -0.002130 0.010362 0.000000 0.000000 0.000000
# 4 0.000000 0.000000 0.000000 0.043098 0.000000 0.000000
# 5 0.000000 0.000000 0.000000 0.000000 0.048731 0.000000
# 6 0.000000 0.000000 0.000000 0.000000 0.000000 0.042089
#
#
# Mechanical properties :
#
#
# Convention : Reuss Voigt Hill
#
# Bulk Modulus (GPa) = 42.38700 44.81015 43.59857
# Shear Modulus (GPa) = 26.18168 28.13506 27.15837
#
# Velocity S-wave (km/s) = 3.47111 3.59827 3.53526
# Velocity P-wave (km/s) = 5.96415 6.15506 6.06035
#
# Compressibility (1/GPa) = 0.02359214
#
# Stress axis : x y z
#
# Youngs Moduli (GPa) = 63.22401 97.91609 96.50635
#
# Poissons Ratio (x) = 0.16253 0.25188
# Poissons Ratio (y) = 0.10495 0.20554
# Poissons Ratio (z) = 0.16502 0.20854
#
# Static dielectric constant tensor:
#      x y z
#    x 3.884530 0.000000 0.000000 
#    y 0.000000 3.779170 0.000000 
#    z 0.000000 0.000000 3.832640 
# 
# 
# High freq. dielectric constant tensor:
#      x y z
#    x 1.840970 0.000000 0.000000 
#    y 0.000000 1.851060 0.000000 
#    z 0.000000 0.000000 1.850970 
# 
# From -- ./inp_files/13190.got.cif
#   From: 2010.03.12/outbox.cif.g09.slc.cpg/sg46_7_cif.got.tgz:13190.got - 2010.04.14 02:56:35.
