data_PCOD8192108
_publ_section_title
;
Structure prediction by ZEFSAII (Michael W. Deem and Ramdas Pophale) SiO2 
 PCOD8192108
Probable space group: I M A 2
;
_chemical_formula_sum "Si O2"
_cell_formula_units_Z 64
_cell_length_a 19.744474
_cell_length_b 9.090962
_cell_length_c 19.554777
_cell_angle_alpha 90.000000
_cell_angle_beta 90.000000
_cell_angle_gamma 90.000000
_cell_volume 3510.009392
_symmetry_space_group_name_H-M "I M A 2"
_symmetry_group_IT_number 46
_symmetry_cell_setting 'orthorhombic'
loop_
_space_group_symop_operation_xyz
x,y,z
-x,-y,z
1/2-x,y,z
1/2+x,-y,z
1/2+x,1/2+y,1/2+z
1/2-x,1/2-y,1/2+z
-x,1/2+y,1/2+z
x,1/2-y,1/2+z
loop_
_atom_site_type_symbol
_atom_site_label
_atom_site_fract_x
_atom_site_fract_y
_atom_site_fract_z
Si Si1 0.440553 0.121598 0.341230
Si Si2 0.454852 0.284885 0.479863
Si Si3 0.328335 0.646957 0.020598
Si Si4 0.173687 0.910898 0.361963
Si Si5 0.566184 0.598592 0.250224
Si Si6 0.426716 0.434477 0.094498
Si Si7 0.900752 0.097288 0.976074
Si Si8 0.828727 0.416555 0.334764
O O1 0.427883 0.211735 0.410700
O O2 0.450404 0.241247 0.281578
O O3 0.500000 0.000000 0.345540
O O4 0.372347 0.032027 0.325688
O O5 0.424022 0.199065 0.543043
O O6 0.427064 0.442958 0.502034
O O7 0.535744 0.290487 0.468776
O O8 0.250000 0.626194 0.037584
O O9 0.369093 0.551589 0.075284
O O10 0.346364 0.607511 0.941861
O O11 0.349287 0.819729 0.028054
O O12 0.250000 0.968037 0.356671
O O13 0.164929 0.758097 0.320353
O O14 0.500000 0.500000 0.262672
O O15 0.583796 0.622513 0.171121
O O16 0.631397 0.515840 0.280605
O O17 0.500000 0.500000 0.085230
O O18 0.862890 0.054986 0.906979
O O19 0.750000 0.464780 0.335567
#
# Coordination Sequence:
#
# PCOD8192108 Si02
#       8
#     8   8   8   8   8   8   8   8
#     4  12  21  35  59  85 117 153 194 251 301 351
#     4  11  20  34  61  88 117 152 198 250 301 351
#     4  10  19  36  59  86 119 154 195 244 302 364
#     4   9  19  34  57  87 114 143 189 244 296 354
#     4  11  24  40  57  84 121 158 206 248 300 360
#     4  11  22  40  58  84 116 160 202 248 293 367
#     4  10  19  34  58  90 118 145 194 250 303 351
#     4  10  20  38  61  87 119 153 194 246 304 363
#
# _framework density 18.233568999999999
#
# number of rings (size 3 to 8) (size 9 to 14) (size 15 to 20)
#    0.000    1.500    3.750    4.500    0.000    1.000 
#    2.250    2.500    0.000    0.000    0.000    0.000 
#    0.000    0.000    0.000    0.000    0.000    0.000 
#
# Total GULP energy -396616.952120 kJ/mol
# GULP energy per Si atom -12394.279754 kJ/mol
# Density = 1.819207 g / cm^3
# Si number density = 18.233569 Si / 1000 Ang^3
#
#
#
# Elastic Constant Matrix: (Units=GPa)
#
#
# Indices 1 2 3 4 5 6 
#
# 1 104.4599 40.1467 38.0487 0.0000 0.0000 0.0000
# 2 40.1467 96.8219 49.9071 0.0000 0.0000 0.0000
# 3 38.0487 49.9071 79.9512 0.0000 0.0000 0.0000
# 4 0.0000 0.0000 0.0000 25.0951 0.0000 0.0000
# 5 0.0000 0.0000 0.0000 0.0000 18.0598 0.0000
# 6 0.0000 0.0000 0.0000 0.0000 0.0000 34.6732
#
#
#
# Elastic Compliance Matrix: (Units=1/GPa)
#
#
# Indices 1 2 3 4 5 6 
#
# 1 0.012157 -0.003035 -0.003891 0.000000 0.000000 0.000000
# 2 -0.003035 0.015986 -0.008534 0.000000 0.000000 0.000000
# 3 -0.003891 -0.008534 0.019686 0.000000 0.000000 0.000000
# 4 0.000000 0.000000 0.000000 0.039848 0.000000 0.000000
# 5 0.000000 0.000000 0.000000 0.000000 0.055371 0.000000
# 6 0.000000 0.000000 0.000000 0.000000 0.000000 0.028841
#
#
# Mechanical properties :
#
#
# Convention : Reuss Voigt Hill
#
# Bulk Modulus (GPa) = 59.14129 59.71533 59.42831
# Shear Modulus (GPa) = 23.98705 25.77433 24.88069
#
# Velocity S-wave (km/s) = 3.63098 3.76382 3.69799
# Velocity P-wave (km/s) = 7.07704 7.19095 7.13422
#
# Compressibility (1/GPa) = 0.01690866
#
# Stress axis : x y z
#
# Youngs Moduli (GPa) = 82.25890 62.55578 50.79653
#
# Poissons Ratio (x) = 0.18987 0.19764
# Poissons Ratio (y) = 0.24968 0.43350
# Poissons Ratio (z) = 0.32005 0.53386
#
# Static dielectric constant tensor:
#      x y z
#    x 3.479290 0.000000 0.000000 
#    y 0.000000 3.501130 0.000000 
#    z 0.000000 0.000000 3.290220 
# 
# 
# High freq. dielectric constant tensor:
#      x y z
#    x 1.717940 0.000000 0.000000 
#    y 0.000000 1.715240 0.000000 
#    z 0.000000 0.000000 1.674310 
# 
# From -- ./inp_files/22467.got.cif
#   From: 2010.03.12/outbox.cif.g09.slc.cpg/sg46_12_cif.got.tgz:22467.got - 2010.04.14 02:56:35.
