data_PCOD8192646
_publ_section_title
;
Structure prediction by ZEFSAII (Michael W. Deem and Ramdas Pophale) SiO2 
 PCOD8192646
Probable space group: I M A 2
;
_chemical_formula_sum "Si O2"
_cell_formula_units_Z 48
_cell_length_a 8.700769
_cell_length_b 9.165858
_cell_length_c 30.427120
_cell_angle_alpha 90.000000
_cell_angle_beta 90.000000
_cell_angle_gamma 90.000000
_cell_volume 2426.563220
_symmetry_space_group_name_H-M "I M A 2"
_symmetry_group_IT_number 46
_symmetry_cell_setting 'orthorhombic'
loop_
_space_group_symop_operation_xyz
x,y,z
-x,-y,z
1/2-x,y,z
1/2+x,-y,z
1/2+x,1/2+y,1/2+z
1/2-x,1/2-y,1/2+z
-x,1/2+y,1/2+z
x,1/2-y,1/2+z
loop_
_atom_site_type_symbol
_atom_site_label
_atom_site_fract_x
_atom_site_fract_y
_atom_site_fract_z
Si Si1 0.432373 0.655718 0.781540
Si Si2 0.432275 0.841043 0.128367
Si Si3 0.068121 0.842222 0.961024
Si Si4 0.430707 0.841456 0.543328
Si Si5 0.430370 0.651703 0.881398
Si Si6 0.067446 0.341443 0.206947
O O1 0.500000 0.500000 0.766346
O O2 0.250000 0.653727 0.774777
O O3 0.481010 0.688964 0.831777
O O4 0.507705 0.785511 0.753928
O O5 0.250000 0.847975 0.135191
O O6 0.480744 0.748193 0.086088
O O7 0.509600 0.770991 0.170758
O O8 0.500000 0.000000 0.121272
O O9 0.250000 0.854004 0.963066
O O10 0.011542 0.777762 0.914264
O O11 0.005469 0.739763 0.000104
O O12 0.000000 0.000000 0.967758
O O13 0.250000 0.857303 0.540537
O O14 0.500000 0.000000 0.546762
O O15 0.500000 0.500000 0.897584
O O16 0.250000 0.633702 0.884476
O O17 0.250000 0.350073 0.206884
O O18 0.000000 0.500000 0.196803
#
# Coordination Sequence:
#
# PCOD8192646 Si02
#       6
#     8   8   8   8   8   8
#     4  10  20  37  59  85 115 150 190 235 283 337
#     4  11  23  40  61  87 116 150 189 232 280 335
#     4  10  21  37  55  82 115 149 188 231 277 331
#     4  10  22  38  59  85 115 148 187 231 279 332
#     4   9  19  35  57  83 113 147 188 232 278 331
#     4  12  25  41  60  84 114 150 189 235 285 338
#
# _framework density 19.781063
#
# number of rings (size 3 to 8) (size 9 to 14) (size 15 to 20)
#    0.000    1.667    0.000    4.500    0.000    5.333 
#    0.000    1.667    0.000    0.000    0.000    0.000 
#    0.000    0.000    0.000    0.000    0.000    0.000 
#
# Total GULP energy -297703.723246 kJ/mol
# GULP energy per Si atom -12404.321802 kJ/mol
# Density = 1.973604 g / cm^3
# Si number density = 19.781063 Si / 1000 Ang^3
#
#
#
# Elastic Constant Matrix: (Units=GPa)
#
#
# Indices 1 2 3 4 5 6 
#
# 1 72.9233 46.9972 42.4859 0.0000 0.0000 0.0000
# 2 46.9972 164.8034 74.4321 0.0000 0.0000 0.0000
# 3 42.4859 74.4321 126.5530 0.0000 0.0000 0.0000
# 4 0.0000 0.0000 0.0000 46.5948 0.0000 0.0000
# 5 0.0000 0.0000 0.0000 0.0000 12.8215 0.0000
# 6 0.0000 0.0000 0.0000 0.0000 0.0000 40.1981
#
#
#
# Elastic Compliance Matrix: (Units=1/GPa)
#
#
# Indices 1 2 3 4 5 6 
#
# 1 0.018296 -0.003327 -0.004185 0.000000 0.000000 0.000000
# 2 -0.003327 0.008868 -0.004099 0.000000 0.000000 0.000000
# 3 -0.004185 -0.004099 0.011717 0.000000 0.000000 0.000000
# 4 0.000000 0.000000 0.000000 0.021462 0.000000 0.000000
# 5 0.000000 0.000000 0.000000 0.000000 0.077994 0.000000
# 6 0.000000 0.000000 0.000000 0.000000 0.000000 0.024877
#
#
# Mechanical properties :
#
#
# Convention : Reuss Voigt Hill
#
# Bulk Modulus (GPa) = 63.86163 76.90113 70.38138
# Shear Modulus (GPa) = 26.08856 33.28052 29.68454
#
# Velocity S-wave (km/s) = 3.63556 4.10621 3.87803
# Velocity P-wave (km/s) = 7.06947 7.83848 7.46389
#
# Compressibility (1/GPa) = 0.01565885
#
# Stress axis : x y z
#
# Youngs Moduli (GPa) = 54.65764 112.76837 85.34264
#
# Poissons Ratio (x) = 0.37520 0.35718
# Poissons Ratio (y) = 0.18185 0.34978
# Poissons Ratio (z) = 0.22876 0.46219
#
# Static dielectric constant tensor:
#      x y z
#    x 3.580670 0.000000 0.000000 
#    y 0.000000 3.508400 0.000000 
#    z 0.000000 0.000000 3.973290 
# 
# 
# High freq. dielectric constant tensor:
#      x y z
#    x 1.771380 0.000000 0.000000 
#    y 0.000000 1.778540 0.000000 
#    z 0.000000 0.000000 1.789240 
# 
# From -- ./inp_files/24975.got.cif
#   From: 2010.03.12/outbox.cif.g09.slc.cpg/sg46_13_cif.got.tgz:24975.got - 2010.04.14 02:56:35.
