data_PCOD8192932
_publ_section_title
;
Structure prediction by ZEFSAII (Michael W. Deem and Ramdas Pophale) SiO2 
 PCOD8192932
Probable space group: I M A 2
;
_chemical_formula_sum "Si O2"
_cell_formula_units_Z 64
_cell_length_a 17.086214
_cell_length_b 9.365556
_cell_length_c 20.479268
_cell_angle_alpha 90.000000
_cell_angle_beta 90.000000
_cell_angle_gamma 90.000000
_cell_volume 3277.131254
_symmetry_space_group_name_H-M "I M A 2"
_symmetry_group_IT_number 46
_symmetry_cell_setting 'orthorhombic'
loop_
_space_group_symop_operation_xyz
x,y,z
-x,-y,z
1/2-x,y,z
1/2+x,-y,z
1/2+x,1/2+y,1/2+z
1/2-x,1/2-y,1/2+z
-x,1/2+y,1/2+z
x,1/2-y,1/2+z
loop_
_atom_site_type_symbol
_atom_site_label
_atom_site_fract_x
_atom_site_fract_y
_atom_site_fract_z
Si Si1 0.657442 0.404643 0.288660
Si Si2 0.342887 0.572370 0.641547
Si Si3 0.423783 0.417622 0.888375
Si Si4 0.159077 0.583741 0.784542
Si Si5 0.414991 0.440613 0.035027
Si Si6 0.842927 0.860616 0.030992
Si Si7 0.921238 0.917316 0.900896
Si Si8 0.840667 0.115302 0.644025
O O1 0.750000 0.424071 0.298518
O O2 0.628630 0.242285 0.304177
O O3 0.614310 0.513714 0.336199
O O4 0.629455 0.442826 0.214422
O O5 0.250000 0.567595 0.636696
O O6 0.373650 0.530650 0.714151
O O7 0.374428 0.465398 0.586980
O O8 0.376891 0.730291 0.626405
O O9 0.500000 0.500000 0.862996
O O10 0.356249 0.462964 0.838394
O O11 0.438532 0.249098 0.887190
O O12 0.399411 0.479365 0.959405
O O13 0.250000 0.602757 0.774854
O O14 0.500000 0.500000 0.056183
O O15 0.400886 0.272589 0.041478
O O16 0.353598 0.510340 0.083989
O O17 0.750000 0.822441 0.035571
O O18 0.859503 0.930932 0.960337
O O19 0.000000 0.000000 0.920764
O O20 0.750000 0.140294 0.654550
#
# Coordination Sequence:
#
# PCOD8192932 Si02
#       8
#     8   8   8   8   8   8   8   8
#     4   9  19  36  57  83 113 146 186 230 279 339
#     4   8  17  34  56  82 107 136 178 226 272 322
#     4  10  22  38  53  75 108 144 184 225 273 333
#     4   9  18  35  58  81 107 140 181 227 272 324
#     4  10  22  37  53  78 113 147 182 232 285 336
#     4  10  21  38  59  83 113 148 190 235 278 333
#     4  11  23  37  56  81 113 148 185 234 288 340
#     4   9  18  35  58  81 109 145 186 229 275 335
#
# _framework density 19.529277
#
# number of rings (size 3 to 8) (size 9 to 14) (size 15 to 20)
#    0.000    2.500    0.000    3.000    0.000    8.500 
#    0.000    8.125    0.000    0.000    0.000    0.000 
#    0.000    0.000    0.000    0.000    0.000    0.000 
#
# Total GULP energy -396560.469445 kJ/mol
# GULP energy per Si atom -12392.514670 kJ/mol
# Density = 1.948483 g / cm^3
# Si number density = 19.529277 Si / 1000 Ang^3
#
#
#
# Elastic Constant Matrix: (Units=GPa)
#
#
# Indices 1 2 3 4 5 6 
#
# 1 45.4679 31.6317 29.5586 0.0000 0.0000 0.0000
# 2 31.6317 106.8941 74.0917 0.0000 0.0000 0.0000
# 3 29.5586 74.0917 129.7291 0.0000 0.0000 0.0000
# 4 0.0000 0.0000 0.0000 40.6734 0.0000 0.0000
# 5 0.0000 0.0000 0.0000 0.0000 13.0047 0.0000
# 6 0.0000 0.0000 0.0000 0.0000 0.0000 31.5396
#
#
#
# Elastic Compliance Matrix: (Units=1/GPa)
#
#
# Indices 1 2 3 4 5 6 
#
# 1 0.028277 -0.006459 -0.002754 0.000000 0.000000 0.000000
# 2 -0.006459 0.016960 -0.008215 0.000000 0.000000 0.000000
# 3 -0.002754 -0.008215 0.013028 0.000000 0.000000 0.000000
# 4 0.000000 0.000000 0.000000 0.024586 0.000000 0.000000
# 5 0.000000 0.000000 0.000000 0.000000 0.076895 0.000000
# 6 0.000000 0.000000 0.000000 0.000000 0.000000 0.031706
#
#
# Mechanical properties :
#
#
# Convention : Reuss Voigt Hill
#
# Bulk Modulus (GPa) = 42.71738 61.40615 52.06177
# Shear Modulus (GPa) = 21.35734 26.83082 24.09408
#
# Velocity S-wave (km/s) = 3.31056 3.71061 3.51628
# Velocity P-wave (km/s) = 6.04434 7.06183 6.57281
#
# Compressibility (1/GPa) = 0.02340968
#
# Stress axis : x y z
#
# Youngs Moduli (GPa) = 35.36406 58.96143 76.75999
#
# Poissons Ratio (x) = 0.38081 0.21141
# Poissons Ratio (y) = 0.22840 0.63057
# Poissons Ratio (z) = 0.09740 0.48436
#
# Static dielectric constant tensor:
#      x y z
#    x 3.298990 0.000000 0.000000 
#    y 0.000000 3.648600 0.000000 
#    z 0.000000 0.000000 3.728440 
# 
# 
# High freq. dielectric constant tensor:
#      x y z
#    x 1.735760 0.000000 0.000000 
#    y 0.000000 1.759910 0.000000 
#    z 0.000000 0.000000 1.775240 
# 
# From -- ./inp_files/22221.got.cif
#   From: 2010.03.12/outbox.cif.g09.slc.cpg/sg46_12_cif.got.tgz:22221.got - 2010.04.14 02:56:35.
