data_PCOD8192070
_publ_section_title
;
Structure prediction by ZEFSAII (Michael W. Deem and Ramdas Pophale) SiO2 
 PCOD8192070
Probable space group: I M A 2
;
_chemical_formula_sum "Si O2"
_cell_formula_units_Z 48
_cell_length_a 17.494752
_cell_length_b 8.787203
_cell_length_c 16.594993
_cell_angle_alpha 90.000000
_cell_angle_beta 90.000000
_cell_angle_gamma 90.000000
_cell_volume 2551.147233
_symmetry_space_group_name_H-M "I M A 2"
_symmetry_group_IT_number 46
_symmetry_cell_setting 'orthorhombic'
loop_
_space_group_symop_operation_xyz
x,y,z
-x,-y,z
1/2-x,y,z
1/2+x,-y,z
1/2+x,1/2+y,1/2+z
1/2-x,1/2-y,1/2+z
-x,1/2+y,1/2+z
x,1/2-y,1/2+z
loop_
_atom_site_type_symbol
_atom_site_label
_atom_site_fract_x
_atom_site_fract_y
_atom_site_fract_z
Si Si1 0.834358 0.640138 0.123620
Si Si2 0.911971 0.951127 0.372214
Si Si3 0.416208 0.561789 0.552453
Si Si4 0.659437 0.565541 0.704837
Si Si5 0.419986 0.584311 0.030658
Si Si6 0.337148 0.184099 0.956018
O O1 0.750000 0.591397 0.150871
O O2 0.869582 0.759697 0.188272
O O3 0.881466 0.484227 0.111755
O O4 0.834101 0.725991 0.039042
O O5 0.870312 0.995446 0.289753
O O6 0.892617 0.772656 0.392504
O O7 0.875267 0.046365 0.446915
O O8 0.000000 0.000000 0.360568
O O9 0.500000 0.500000 0.566754
O O10 0.369126 0.545675 0.634769
O O11 0.426937 0.737798 0.535131
O O12 0.374187 0.480681 0.476549
O O13 0.750000 0.563740 0.702628
O O14 0.500000 0.500000 0.020425
O O15 0.250000 0.165634 0.921806
#
# Coordination Sequence:
#
# PCOD8192070 Si02
#       6
#     8   8   8   8   8   8
#     4   8  16  31  51  72  99 136 178 219 267 323
#     4  10  19  34  56  82 111 145 187 230 277 334
#     4  11  20  34  57  81 109 146 188 233 278 334
#     4  10  20  35  54  79 110 146 184 229 281 330
#     4  10  20  34  54  80 108 140 181 226 274 329
#     4   9  18  34  54  78 108 145 185 227 275 330
#
# _framework density 18.815065000000001
#
# number of rings (size 3 to 8) (size 9 to 14) (size 15 to 20)
#    0.000    2.333    0.000    6.500    0.000    2.000 
#    0.000    1.667    0.000    6.000    0.000    0.000 
#    0.000    0.000    0.000    0.000    0.000    0.000 
#
# Total GULP energy -297339.954845 kJ/mol
# GULP energy per Si atom -12389.164785 kJ/mol
# Density = 1.877224 g / cm^3
# Si number density = 18.815065 Si / 1000 Ang^3
#
#
#
# Elastic Constant Matrix: (Units=GPa)
#
#
# Indices 1 2 3 4 5 6 
#
# 1 94.1303 46.5479 35.4764 0.0000 0.0000 0.0000
# 2 46.5479 138.2743 40.8487 0.0000 0.0000 0.0000
# 3 35.4764 40.8487 89.2165 0.0000 0.0000 0.0000
# 4 0.0000 0.0000 0.0000 10.6169 0.0000 0.0000
# 5 0.0000 0.0000 0.0000 0.0000 17.9793 0.0000
# 6 0.0000 0.0000 0.0000 0.0000 0.0000 29.4281
#
#
#
# Elastic Compliance Matrix: (Units=1/GPa)
#
#
# Indices 1 2 3 4 5 6 
#
# 1 0.013823 -0.003503 -0.003893 0.000000 0.000000 0.000000
# 2 -0.003503 0.009251 -0.002843 0.000000 0.000000 0.000000
# 3 -0.003893 -0.002843 0.014058 0.000000 0.000000 0.000000
# 4 0.000000 0.000000 0.000000 0.094190 0.000000 0.000000
# 5 0.000000 0.000000 0.000000 0.000000 0.055620 0.000000
# 6 0.000000 0.000000 0.000000 0.000000 0.000000 0.033981
#
#
# Mechanical properties :
#
#
# Convention : Reuss Voigt Hill
#
# Bulk Modulus (GPa) = 60.04181 63.04081 61.54131
# Shear Modulus (GPa) = 20.24686 24.85472 22.55079
#
# Velocity S-wave (km/s) = 3.28395 3.63850 3.46576
# Velocity P-wave (km/s) = 6.80882 7.15750 6.98533
#
# Compressibility (1/GPa) = 0.01665506
#
# Stress axis : x y z
#
# Youngs Moduli (GPa) = 72.34280 108.09493 71.13343
#
# Poissons Ratio (x) = 0.37870 0.27689
# Poissons Ratio (y) = 0.25344 0.20221
# Poissons Ratio (z) = 0.28160 0.30727
#
# Static dielectric constant tensor:
#      x y z
#    x 3.608500 0.000000 0.000000 
#    y 0.000000 3.505220 0.000000 
#    z 0.000000 0.000000 3.530310 
# 
# 
# High freq. dielectric constant tensor:
#      x y z
#    x 1.733620 0.000000 0.000000 
#    y 0.000000 1.715190 0.000000 
#    z 0.000000 0.000000 1.712550 
# 
# From -- ./inp_files/16550.got.cif
#   From: 2010.03.12/outbox.cif.g09.slc.cpg/sg46_9_cif.got.tgz:16550.got - 2010.04.14 02:56:35.
