data_PCOD8192856
_publ_section_title
;
Structure prediction by ZEFSAII (Michael W. Deem and Ramdas Pophale) SiO2 
 PCOD8192856
Probable space group: I M A 2
;
_chemical_formula_sum "Si O2"
_cell_formula_units_Z 56
_cell_length_a 21.101865
_cell_length_b 14.743762
_cell_length_c 9.680628
_cell_angle_alpha 90.000000
_cell_angle_beta 90.000000
_cell_angle_gamma 90.000000
_cell_volume 3011.845457
_symmetry_space_group_name_H-M "I M A 2"
_symmetry_group_IT_number 46
_symmetry_cell_setting 'orthorhombic'
loop_
_space_group_symop_operation_xyz
x,y,z
-x,-y,z
1/2-x,y,z
1/2+x,-y,z
1/2+x,1/2+y,1/2+z
1/2-x,1/2-y,1/2+z
-x,1/2+y,1/2+z
x,1/2-y,1/2+z
loop_
_atom_site_type_symbol
_atom_site_label
_atom_site_fract_x
_atom_site_fract_y
_atom_site_fract_z
Si Si1 0.400113 0.009123 0.308930
Si Si2 0.750000 0.805502 0.650678
Si Si3 0.435393 0.050457 0.729672
Si Si4 0.180495 0.032805 0.559661
Si Si5 0.250000 0.353981 0.454702
Si Si6 0.490219 0.648251 0.844025
Si Si7 0.884058 0.589511 0.515580
Si Si8 0.461680 0.241517 0.599819
O O1 0.336275 0.021861 0.397805
O O2 0.450175 0.081949 0.364473
O O3 0.388288 0.023429 0.146886
O O4 0.425295 0.907863 0.336732
O O5 0.811999 0.860315 0.597445
O O6 0.750000 0.705312 0.592414
O O7 0.750000 0.794144 0.816067
O O8 0.376890 0.995989 0.656280
O O9 0.434401 0.153118 0.674849
O O10 0.500000 0.000000 0.687217
O O11 0.428807 0.049600 0.895357
O O12 0.250000 0.985478 0.587382
O O13 0.187375 0.415400 0.457580
O O14 0.493506 0.703695 0.702965
O O15 0.492413 0.716833 0.972441
O O16 0.903804 0.692957 0.552368
#
# Coordination Sequence:
#
# PCOD8192856 Si02
#       8
#     8   4   8   8   4   8   8   8
#     4  10  22  37  56  81 116 162 196 240 288 344
#     4  10  24  34  56  78 122 156 197 227 281 351
#     4  12  23  39  59  84 118 159 194 245 294 344
#     4  10  21  39  55  81 116 152 202 230 283 354
#     4  12  24  36  52  84 122 160 195 233 283 353
#     4  10  21  36  57  82 119 149 200 244 288 346
#     4  11  25  36  56  81 125 158 195 235 288 351
#     4  11  21  36  55  85 115 154 193 240 293 346
#
# _framework density 18.593250999999999
#
# number of rings (size 3 to 8) (size 9 to 14) (size 15 to 20)
#    0.429    0.857    4.286    1.714    7.000    0.000 
#    0.000    0.000    0.000    0.000    0.000    4.000 
#    0.000    0.000    0.000    0.000    0.000    0.000 
#
# Total GULP energy -347115.471613 kJ/mol
# GULP energy per Si atom -12396.981129 kJ/mol
# Density = 1.855093 g / cm^3
# Si number density = 18.593251 Si / 1000 Ang^3
#
#
#
# Elastic Constant Matrix: (Units=GPa)
#
#
# Indices 1 2 3 4 5 6 
#
# 1 117.5163 35.5676 45.3339 0.0000 0.0000 0.0000
# 2 35.5676 52.3414 31.4352 0.0000 0.0000 0.0000
# 3 45.3339 31.4352 129.5687 0.0000 0.0000 0.0000
# 4 0.0000 0.0000 0.0000 25.3760 0.0000 0.0000
# 5 0.0000 0.0000 0.0000 0.0000 30.2555 0.0000
# 6 0.0000 0.0000 0.0000 0.0000 0.0000 16.5460
#
#
#
# Elastic Compliance Matrix: (Units=1/GPa)
#
#
# Indices 1 2 3 4 5 6 
#
# 1 0.011344 -0.006233 -0.002457 0.000000 0.000000 0.000000
# 2 -0.006233 0.025789 -0.004076 0.000000 0.000000 0.000000
# 3 -0.002457 -0.004076 0.009566 0.000000 0.000000 0.000000
# 4 0.000000 0.000000 0.000000 0.039407 0.000000 0.000000
# 5 0.000000 0.000000 0.000000 0.000000 0.033052 0.000000
# 6 0.000000 0.000000 0.000000 0.000000 0.000000 0.060438
#
#
# Mechanical properties :
#
#
# Convention : Reuss Voigt Hill
#
# Bulk Modulus (GPa) = 47.24203 58.23328 52.73766
# Shear Modulus (GPa) = 23.56462 26.90815 25.23638
#
# Velocity S-wave (km/s) = 3.56388 3.80833 3.68813
# Velocity P-wave (km/s) = 6.51140 7.12218 6.82363
#
# Compressibility (1/GPa) = 0.02116759
#
# Stress axis : x y z
#
# Youngs Moduli (GPa) = 88.15510 38.77670 104.53284
#
# Poissons Ratio (x) = 0.24169 0.25681
# Poissons Ratio (y) = 0.54946 0.42607
# Poissons Ratio (z) = 0.21658 0.15805
#
# Static dielectric constant tensor:
#      x y z
#    x 3.357490 0.000000 0.000000 
#    y 0.000000 3.110670 0.000000 
#    z 0.000000 0.000000 3.585750 
# 
# 
# High freq. dielectric constant tensor:
#      x y z
#    x 1.709540 0.000000 0.000000 
#    y 0.000000 1.673710 0.000000 
#    z 0.000000 0.000000 1.746100 
# 
# From -- ./inp_files/7462.got.cif
#   From: 2010.03.12/outbox.cif.g09.slc.cpg/sg46_4_cif.got.tgz:7462.got - 2010.04.14 02:56:35.
