data_PCOD8192077
_publ_section_title
;
Structure prediction by ZEFSAII (Michael W. Deem and Ramdas Pophale) SiO2 
 PCOD8192077
Probable space group: I M A 2
;
_chemical_formula_sum "Si O2"
_cell_formula_units_Z 64
_cell_length_a 9.023959
_cell_length_b 24.699980
_cell_length_c 15.058562
_cell_angle_alpha 90.000000
_cell_angle_beta 90.000000
_cell_angle_gamma 90.000000
_cell_volume 3356.427081
_symmetry_space_group_name_H-M "I M A 2"
_symmetry_group_IT_number 46
_symmetry_cell_setting 'orthorhombic'
loop_
_space_group_symop_operation_xyz
x,y,z
-x,-y,z
1/2-x,y,z
1/2+x,-y,z
1/2+x,1/2+y,1/2+z
1/2-x,1/2-y,1/2+z
-x,1/2+y,1/2+z
x,1/2-y,1/2+z
loop_
_atom_site_type_symbol
_atom_site_label
_atom_site_fract_x
_atom_site_fract_y
_atom_site_fract_z
Si Si1 0.075613 0.445533 0.648170
Si Si2 0.077049 0.346564 0.521301
Si Si3 0.420304 0.862469 0.651697
Si Si4 0.577987 0.260822 0.037122
Si Si5 0.574915 0.391574 0.811611
Si Si6 0.920085 0.664467 0.321922
Si Si7 0.922978 0.786167 0.356637
Si Si8 0.575172 0.057614 0.500215
O O1 0.250000 0.453785 0.662608
O O2 0.041263 0.400485 0.574709
O O3 0.000000 0.500000 0.612029
O O4 0.000639 0.430970 0.741167
O O5 0.250000 0.330665 0.524557
O O6 0.025336 0.354401 0.419366
O O7 0.985173 0.297610 0.565482
O O8 0.250000 0.875743 0.665567
O O9 0.445050 0.801141 0.619083
O O10 0.495837 0.869672 0.747158
O O11 0.485580 0.904776 0.580084
O O12 0.750000 0.256565 0.010006
O O13 0.488045 0.285189 0.955169
O O14 0.750000 0.389625 0.795592
O O15 0.507612 0.331563 0.799492
O O16 0.531843 0.413900 0.908154
O O17 0.750000 0.650026 0.310046
O O18 0.949365 0.728479 0.309834
O O19 0.750000 0.800624 0.361460
O O20 0.750000 0.050049 0.505873
O O21 0.500000 0.000000 0.508219
#
# Coordination Sequence:
#
# PCOD8192077 Si02
#       8
#     8   8   8   8   8   8   8   8
#     4  11  24  42  62  86 116 152 198 249 298 353
#     4   9  21  41  60  82 116 152 193 245 295 348
#     4  10  21  37  55  83 119 152 189 239 289 338
#     4  10  19  34  56  84 117 152 190 235 290 347
#     4  11  22  38  59  85 120 157 193 240 290 349
#     4   9  20  37  57  83 115 152 192 237 287 344
#     4  10  20  35  55  84 120 156 193 233 285 347
#     4  10  22  40  58  81 115 152 192 235 283 338
#
# _framework density 19.067893999999999
#
# number of rings (size 3 to 8) (size 9 to 14) (size 15 to 20)
#    0.000    2.000    1.250    2.625    1.750    7.000 
#    0.000    0.625    0.000    3.000    0.000    0.000 
#    0.000    0.000    0.000    0.000    0.000    0.000 
#
# Total GULP energy -396883.259925 kJ/mol
# GULP energy per Si atom -12402.601873 kJ/mol
# Density = 1.902449 g / cm^3
# Si number density = 19.067894 Si / 1000 Ang^3
#
#
#
# Elastic Constant Matrix: (Units=GPa)
#
#
# Indices 1 2 3 4 5 6 
#
# 1 79.5156 54.7748 45.6453 0.0000 0.0000 0.0000
# 2 54.7748 116.1828 52.3676 -0.0001 0.0000 0.0000
# 3 45.6453 52.3676 100.0056 -0.0002 0.0000 0.0000
# 4 0.0000 -0.0001 -0.0002 27.3787 0.0000 0.0000
# 5 0.0000 0.0000 0.0000 0.0000 30.4944 0.0000
# 6 0.0000 0.0000 0.0000 0.0000 0.0000 35.0135
#
#
#
# Elastic Compliance Matrix: (Units=1/GPa)
#
#
# Indices 1 2 3 4 5 6 
#
# 1 0.020858 -0.007255 -0.005721 0.000000 0.000000 0.000000
# 2 -0.007255 0.013790 -0.003910 0.000000 0.000000 0.000000
# 3 -0.005721 -0.003910 0.014658 0.000000 0.000000 0.000000
# 4 0.000000 0.000000 0.000000 0.036525 0.000000 0.000000
# 5 0.000000 0.000000 0.000000 0.000000 0.032793 0.000000
# 6 0.000000 0.000000 0.000000 0.000000 0.000000 0.028560
#
#
# Mechanical properties :
#
#
# Convention : Reuss Voigt Hill
#
# Bulk Modulus (GPa) = 64.37342 66.80882 65.59112
# Shear Modulus (GPa) = 26.86256 28.10508 27.48382
#
# Velocity S-wave (km/s) = 3.75745 3.84337 3.80065
# Velocity P-wave (km/s) = 7.25658 7.40329 7.33030
#
# Compressibility (1/GPa) = 0.01553436
#
# Stress axis : x y z
#
# Youngs Moduli (GPa) = 47.94358 72.51835 68.22219
#
# Poissons Ratio (x) = 0.52611 0.39031
# Poissons Ratio (y) = 0.34782 0.26672
# Poissons Ratio (z) = 0.27429 0.28352
#
# Static dielectric constant tensor:
#      x y z
#    x 3.510340 0.000000 0.000000 
#    y 0.000000 3.550540 0.000000 
#    z 0.000000 0.000000 3.452160 
# 
# 
# High freq. dielectric constant tensor:
#      x y z
#    x 1.744120 0.000000 0.000000 
#    y 0.000000 1.736170 0.000000 
#    z 0.000000 0.000000 1.739030 
# 
# From -- ./inp_files/14430.got.cif
#   From: 2010.03.12/outbox.cif.g09.slc.cpg/sg46_8_cif.got.tgz:14430.got - 2010.04.14 02:56:35.
