data_PCOD8192528
_publ_section_title
;
Structure prediction by ZEFSAII (Michael W. Deem and Ramdas Pophale) SiO2 
 PCOD8192528
Probable space group: I M A 2
;
_chemical_formula_sum "Si O2"
_cell_formula_units_Z 64
_cell_length_a 14.615732
_cell_length_b 17.504960
_cell_length_c 12.845966
_cell_angle_alpha 90.000000
_cell_angle_beta 90.000000
_cell_angle_gamma 90.000000
_cell_volume 3286.612192
_symmetry_space_group_name_H-M "I M A 2"
_symmetry_group_IT_number 46
_symmetry_cell_setting 'orthorhombic'
loop_
_space_group_symop_operation_xyz
x,y,z
-x,-y,z
1/2-x,y,z
1/2+x,-y,z
1/2+x,1/2+y,1/2+z
1/2-x,1/2-y,1/2+z
-x,1/2+y,1/2+z
x,1/2-y,1/2+z
loop_
_atom_site_type_symbol
_atom_site_label
_atom_site_fract_x
_atom_site_fract_y
_atom_site_fract_z
Si Si1 0.352753 0.411243 0.177340
Si Si2 0.856922 0.071715 0.299075
Si Si3 0.047216 0.819659 0.977475
Si Si4 0.143125 0.949156 0.527327
Si Si5 0.475270 0.683531 0.121375
Si Si6 0.923828 0.939566 0.893334
Si Si7 0.144013 0.537236 0.576211
Si Si8 0.356940 0.743546 0.796910
O O1 0.250000 0.382505 0.151145
O O2 0.380244 0.480424 0.101485
O O3 0.426008 0.344834 0.160434
O O4 0.352545 0.438124 0.298075
O O5 0.750000 0.084820 0.296862
O O6 0.882787 0.029162 0.407115
O O7 0.885705 0.021664 0.197180
O O8 0.897789 0.157655 0.293947
O O9 0.002766 0.757635 0.053092
O O10 0.090987 0.887736 0.042469
O O11 0.126169 0.779553 0.910185
O O12 0.966035 0.855133 0.907297
O O13 0.250000 0.925669 0.537000
O O14 0.078990 0.878926 0.555569
O O15 0.411051 0.703784 0.217204
O O16 0.000000 0.000000 0.858421
O O17 0.879153 0.965258 0.003165
O O18 0.250000 0.555777 0.567973
O O19 0.250000 0.747571 0.769906
#
# Coordination Sequence:
#
# PCOD8192528 Si02
#       8
#     8   8   8   8   8   8   8   8
#     4  11  24  42  61  83 116 161 209 252 290 339
#     4   9  18  34  55  87 125 153 182 229 302 373
#     4  11  22  36  58  88 122 153 195 240 298 360
#     4  10  21  36  59  90 122 158 196 243 301 361
#     4  12  22  38  61  89 122 154 198 245 300 357
#     4  10  21  39  59  86 117 153 200 247 295 350
#     4  10  20  35  58  88 122 158 192 241 298 355
#     4  11  21  34  57  92 128 154 184 238 307 370
#
# _framework density 19.472939
#
# number of rings (size 3 to 8) (size 9 to 14) (size 15 to 20)
#    0.000    1.500    3.750    2.250    1.750    1.000 
#    0.000    6.250    0.000    0.000    0.000    0.000 
#    0.000    0.000    0.000    0.000    0.000    0.000 
#
# Total GULP energy -396700.302206 kJ/mol
# GULP energy per Si atom -12396.884444 kJ/mol
# Density = 1.942862 g / cm^3
# Si number density = 19.472939 Si / 1000 Ang^3
#
#
#
# Elastic Constant Matrix: (Units=GPa)
#
#
# Indices 1 2 3 4 5 6 
#
# 1 69.4037 36.8291 42.6738 0.0000 0.0000 0.0000
# 2 36.8291 74.9743 44.4496 0.0000 0.0000 0.0000
# 3 42.6738 44.4496 139.1973 0.0000 0.0000 0.0000
# 4 0.0000 0.0000 0.0000 32.1205 0.0000 0.0000
# 5 0.0000 0.0000 0.0000 0.0000 22.1807 0.0000
# 6 0.0000 0.0000 0.0000 0.0000 0.0000 22.4098
#
#
#
# Elastic Compliance Matrix: (Units=1/GPa)
#
#
# Indices 1 2 3 4 5 6 
#
# 1 0.021069 -0.008043 -0.003891 0.000000 0.000000 0.000000
# 2 -0.008043 0.019523 -0.003769 0.000000 0.000000 0.000000
# 3 -0.003891 -0.003769 0.009580 0.000000 0.000000 0.000000
# 4 0.000000 0.000000 0.000000 0.031133 0.000000 0.000000
# 5 0.000000 0.000000 0.000000 0.000000 0.045084 0.000000
# 6 0.000000 0.000000 0.000000 0.000000 0.000000 0.044623
#
#
# Mechanical properties :
#
#
# Convention : Reuss Voigt Hill
#
# Bulk Modulus (GPa) = 53.28291 59.05335 56.16813
# Shear Modulus (GPa) = 23.96104 25.98371 24.97237
#
# Velocity S-wave (km/s) = 3.51162 3.65684 3.58497
# Velocity P-wave (km/s) = 6.62299 6.94418 6.78548
#
# Compressibility (1/GPa) = 0.01876774
#
# Stress axis : x y z
#
# Youngs Moduli (GPa) = 47.46399 51.22184 104.38152
#
# Poissons Ratio (x) = 0.41196 0.40612
# Poissons Ratio (y) = 0.38174 0.39337
# Poissons Ratio (z) = 0.18467 0.19303
#
# Static dielectric constant tensor:
#      x y z
#    x 3.456820 0.000000 0.000000 
#    y 0.000000 3.432310 0.000000 
#    z 0.000000 0.000000 3.974450 
# 
# 
# High freq. dielectric constant tensor:
#      x y z
#    x 1.743320 0.000000 0.000000 
#    y 0.000000 1.737440 0.000000 
#    z 0.000000 0.000000 1.780400 
# 
# From -- ./inp_files/11311.got.cif
#   From: 2010.03.12/outbox.cif.g09.slc.cpg/sg46_6_cif.got.tgz:11311.got - 2010.04.14 02:56:35.
