data_PCOD8192397
_publ_section_title
;
Structure prediction by ZEFSAII (Michael W. Deem and Ramdas Pophale) SiO2 
 PCOD8192397
Probable space group: I M A 2
;
_chemical_formula_sum "Si O2"
_cell_formula_units_Z 48
_cell_length_a 11.047815
_cell_length_b 24.304184
_cell_length_c 8.830607
_cell_angle_alpha 90.000000
_cell_angle_beta 90.000000
_cell_angle_gamma 90.000000
_cell_volume 2371.089760
_symmetry_space_group_name_H-M "I M A 2"
_symmetry_group_IT_number 46
_symmetry_cell_setting 'orthorhombic'
loop_
_space_group_symop_operation_xyz
x,y,z
-x,-y,z
1/2-x,y,z
1/2+x,-y,z
1/2+x,1/2+y,1/2+z
1/2-x,1/2-y,1/2+z
-x,1/2+y,1/2+z
x,1/2-y,1/2+z
loop_
_atom_site_type_symbol
_atom_site_label
_atom_site_fract_x
_atom_site_fract_y
_atom_site_fract_z
Si Si1 0.250000 0.287025 0.883890
Si Si2 0.391953 0.955949 0.044877
Si Si3 0.017589 0.360056 0.393051
Si Si4 0.112851 0.873620 0.304939
Si Si5 0.891878 0.222094 0.078186
Si Si6 0.750000 0.826552 0.037039
Si Si7 0.972897 0.667024 0.064227
O O1 0.250000 0.300059 0.704557
O O2 0.250000 0.221415 0.908809
O O3 0.137861 0.313506 0.966128
O O4 0.250000 0.976264 0.020625
O O5 0.404259 0.929602 0.211225
O O6 0.500000 0.000000 0.027779
O O7 0.421869 0.909071 0.921476
O O8 0.132493 0.364523 0.507785
O O9 0.064348 0.362515 0.220347
O O10 0.949801 0.302104 0.423875
O O11 0.250000 0.864472 0.350370
O O12 0.040750 0.878115 0.461580
O O13 0.069237 0.819610 0.212306
O O14 0.750000 0.225231 0.055356
O O15 0.941888 0.282234 0.109383
#
# Coordination Sequence:
#
# PCOD8192397 Si02
#       7
#     4   8   8   8   8   4   8
#     4  12  24  36  54  86 130 172 212 250 296 361
#     4  10  23  45  69  93 118 158 214 263 320 382
#     4  11  23  38  61  88 122 162 207 256 309 369
#     4   9  20  38  59  87 122 158 206 255 301 371
#     4  10  20  34  54  83 121 166 206 240 294 369
#     4  12  24  40  58  86 128 174 214 252 300 365
#     4  12  22  35  56  90 125 166 202 250 307 362
#
# _framework density 20.243856000000001
#
# number of rings (size 3 to 8) (size 9 to 14) (size 15 to 20)
#    0.000    1.333    1.667    6.500    1.167    4.000 
#    1.500    0.833    0.000    0.000    0.000    0.000 
#    0.000    0.000    0.000    0.000    0.000    0.000 
#
# Total GULP energy -297478.243605 kJ/mol
# GULP energy per Si atom -12394.926817 kJ/mol
# Density = 2.019778 g / cm^3
# Si number density = 20.243856 Si / 1000 Ang^3
#
#
#
# Elastic Constant Matrix: (Units=GPa)
#
#
# Indices 1 2 3 4 5 6 
#
# 1 124.8558 26.1082 41.4319 0.0000 -0.0003 0.0001
# 2 26.1082 45.9041 8.7560 -0.0008 -0.0002 0.0003
# 3 41.4319 8.7560 110.0575 -0.0004 -0.0034 0.0018
# 4 0.0000 -0.0008 -0.0004 9.4398 -0.0007 0.0005
# 5 -0.0003 -0.0002 -0.0034 -0.0007 23.1402 -0.0004
# 6 0.0001 0.0003 0.0018 0.0005 -0.0004 29.1411
#
#
#
# Elastic Compliance Matrix: (Units=1/GPa)
#
#
# Indices 1 2 3 4 5 6 
#
# 1 0.010230 -0.005162 -0.003441 -0.000001 0.000000 0.000000
# 2 -0.005162 0.024725 -0.000024 0.000002 0.000000 0.000000
# 3 -0.003441 -0.000024 0.010383 0.000000 0.000001 -0.000001
# 4 -0.000001 0.000002 0.000000 0.105934 0.000003 -0.000002
# 5 0.000000 0.000000 0.000001 0.000003 0.043215 0.000001
# 6 0.000000 0.000000 -0.000001 -0.000002 0.000001 0.034316
#
#
# Mechanical properties :
#
#
# Convention : Reuss Voigt Hill
#
# Bulk Modulus (GPa) = 35.60540 48.15661 41.88100
# Shear Modulus (GPa) = 19.57570 25.97899 22.77734
#
# Velocity S-wave (km/s) = 3.11303 3.58621 3.35796
# Velocity P-wave (km/s) = 5.52700 6.40217 5.98061
#
# Compressibility (1/GPa) = 0.02808563
#
# Stress axis : x y z
#
# Youngs Moduli (GPa) = 97.74748 40.44458 96.30866
#
# Poissons Ratio (x) = 0.20879 0.33136
# Poissons Ratio (y) = 0.50461 0.00228
# Poissons Ratio (z) = 0.33631 0.00096
#
# Static dielectric constant tensor:
#      x y z
#    x 3.989420 0.000000 0.000000 
#    y 0.000000 3.387830 0.000000 
#    z 0.000000 0.000000 3.738990 
# 
# 
# High freq. dielectric constant tensor:
#      x y z
#    x 1.813360 0.000000 0.000000 
#    y 0.000000 1.745230 0.000000 
#    z 0.000000 0.000000 1.789510 
# 
# From -- ./inp_files/4820.got.cif
#   From: 2010.03.12/outbox.cif.g09.slc.cpg/sg46_3_cif.got.tgz:4820.got - 2010.04.14 02:56:35.
