data_PCOD8192114
_publ_section_title
;
Structure prediction by ZEFSAII (Michael W. Deem and Ramdas Pophale) SiO2 
 PCOD8192114
Probable space group: I M A 2
;
_chemical_formula_sum "Si O2"
_cell_formula_units_Z 44
_cell_length_a 15.450118
_cell_length_b 11.164257
_cell_length_c 13.625633
_cell_angle_alpha 90.000000
_cell_angle_beta 90.000000
_cell_angle_gamma 90.000000
_cell_volume 2350.273010
_symmetry_space_group_name_H-M "I M A 2"
_symmetry_group_IT_number 46
_symmetry_cell_setting 'orthorhombic'
loop_
_space_group_symop_operation_xyz
x,y,z
-x,-y,z
1/2-x,y,z
1/2+x,-y,z
1/2+x,1/2+y,1/2+z
1/2-x,1/2-y,1/2+z
-x,1/2+y,1/2+z
x,1/2-y,1/2+z
loop_
_atom_site_type_symbol
_atom_site_label
_atom_site_fract_x
_atom_site_fract_y
_atom_site_fract_z
Si Si1 0.153534 0.974698 0.247410
Si Si2 0.650124 0.303392 0.208474
Si Si3 0.850778 0.404645 0.416234
Si Si4 0.000000 0.500000 0.887972
Si Si5 0.418180 0.077729 0.062116
Si Si6 0.463532 0.715157 0.030152
O O1 0.250000 0.987510 0.291881
O O2 0.132285 0.835571 0.229971
O O3 0.084479 0.027278 0.323228
O O4 0.152031 0.052077 0.146813
O O5 0.750000 0.324215 0.177383
O O6 0.626202 0.385512 0.302310
O O7 0.584186 0.344472 0.123567
O O8 0.750000 0.387329 0.434136
O O9 0.882152 0.535175 0.455051
O O10 0.896665 0.307026 0.483078
O O11 0.986672 0.385341 0.953864
O O12 0.446825 0.216670 0.057918
O O13 0.500000 0.000000 0.095498
#
# Coordination Sequence:
#
# PCOD8192114 Si02
#       6
#     8   8   8   4   8   8
#     4  11  20  36  63  87 114 149 198 251 287 342
#     4  10  19  34  59  88 114 146 196 247 292 344
#     4  10  19  34  60  88 112 144 196 253 294 337
#     4  12  24  40  56  88 124 156 196 236 300 358
#     4  10  19  35  57  87 115 146 191 239 292 347
#     4  11  22  36  56  84 120 159 191 237 293 355
#
# _framework density 18.721229000000001
#
# number of rings (size 3 to 8) (size 9 to 14) (size 15 to 20)
#    0.000    1.455    6.364    1.091    0.000    0.727 
#    4.909    1.818    0.000    2.182    0.000    0.000 
#    0.000    0.000    0.000    0.000    0.000    0.000 
#
# Total GULP energy -272784.076543 kJ/mol
# GULP energy per Si atom -12399.276207 kJ/mol
# Density = 1.867862 g / cm^3
# Si number density = 18.721229 Si / 1000 Ang^3
#
#
#
# Elastic Constant Matrix: (Units=GPa)
#
#
# Indices 1 2 3 4 5 6 
#
# 1 93.1699 28.7328 58.7727 0.0000 0.0000 0.0000
# 2 28.7328 45.3356 48.8201 0.0000 0.0000 0.0000
# 3 58.7727 48.8201 134.2918 0.0000 0.0000 0.0000
# 4 0.0000 0.0000 0.0000 31.1996 0.0000 0.0000
# 5 0.0000 0.0000 0.0000 0.0000 31.9909 0.0000
# 6 0.0000 0.0000 0.0000 0.0000 0.0000 18.6115
#
#
#
# Elastic Compliance Matrix: (Units=1/GPa)
#
#
# Indices 1 2 3 4 5 6 
#
# 1 0.015272 -0.004078 -0.005201 0.000000 0.000000 0.000000
# 2 -0.004078 0.037337 -0.011789 0.000000 0.000000 0.000000
# 3 -0.005201 -0.011789 0.014008 0.000000 0.000000 0.000000
# 4 0.000000 0.000000 0.000000 0.032052 0.000000 0.000000
# 5 0.000000 0.000000 0.000000 0.000000 0.031259 0.000000
# 6 0.000000 0.000000 0.000000 0.000000 0.000000 0.053730
#
#
# Mechanical properties :
#
#
# Convention : Reuss Voigt Hill
#
# Bulk Modulus (GPa) = 40.84724 60.60539 50.72631
# Shear Modulus (GPa) = 21.37176 25.45853 23.41514
#
# Velocity S-wave (km/s) = 3.38239 3.69165 3.54040
# Velocity P-wave (km/s) = 6.09263 7.11434 6.62322
#
# Compressibility (1/GPa) = 0.02448146
#
# Stress axis : x y z
#
# Youngs Moduli (GPa) = 65.48092 26.78309 71.38598
#
# Poissons Ratio (x) = 0.10922 0.37129
# Poissons Ratio (y) = 0.26703 0.84155
# Poissons Ratio (z) = 0.34057 0.31574
#
# Static dielectric constant tensor:
#      x y z
#    x 3.558540 0.000000 0.000000 
#    y 0.000000 2.812010 0.000000 
#    z 0.000000 0.000000 3.638460 
# 
# 
# High freq. dielectric constant tensor:
#      x y z
#    x 1.730840 0.000000 0.000000 
#    y 0.000000 1.689230 0.000000 
#    z 0.000000 0.000000 1.732910 
# 
# From -- ./inp_files/11722.got.cif
#   From: 2010.03.12/outbox.cif.g09.slc.cpg/sg46_6_cif.got.tgz:11722.got - 2010.04.14 02:56:35.
