data_PCOD8192970
_publ_section_title
;
Structure prediction by ZEFSAII (Michael W. Deem and Ramdas Pophale) SiO2 
 PCOD8192970
Probable space group: I M A 2
;
_chemical_formula_sum "Si O2"
_cell_formula_units_Z 48
_cell_length_a 9.580100
_cell_length_b 8.640563
_cell_length_c 27.758850
_cell_angle_alpha 90.000000
_cell_angle_beta 90.000000
_cell_angle_gamma 90.000000
_cell_volume 2297.807029
_symmetry_space_group_name_H-M "I M A 2"
_symmetry_group_IT_number 46
_symmetry_cell_setting 'orthorhombic'
loop_
_space_group_symop_operation_xyz
x,y,z
-x,-y,z
1/2-x,y,z
1/2+x,-y,z
1/2+x,1/2+y,1/2+z
1/2-x,1/2-y,1/2+z
-x,1/2+y,1/2+z
x,1/2-y,1/2+z
loop_
_atom_site_type_symbol
_atom_site_label
_atom_site_fract_x
_atom_site_fract_y
_atom_site_fract_z
Si Si1 0.250000 0.340972 0.611750
Si Si2 0.414299 0.839965 0.467724
Si Si3 0.250000 0.199299 0.223166
Si Si4 0.750000 0.341267 0.746389
Si Si5 0.913120 0.656917 0.882184
Si Si6 0.017269 0.181554 0.786221
Si Si7 0.484589 0.682782 0.071365
Si Si8 0.250000 0.697190 0.634587
O O1 0.250000 0.282594 0.666133
O O2 0.377201 0.277282 0.581247
O O3 0.250000 0.524885 0.613804
O O4 0.250000 0.860717 0.454829
O O5 0.500310 0.752206 0.424948
O O6 0.425947 0.757056 0.519740
O O7 0.500000 0.000000 0.470545
O O8 0.386015 0.287677 0.240533
O O9 0.250000 0.026547 0.244943
O O10 0.621903 0.277230 0.776724
O O11 0.750000 0.283435 0.691715
O O12 0.750000 0.624686 0.896284
O O13 0.911434 0.762162 0.835127
O O14 0.000000 0.500000 0.871610
O O15 0.000000 0.000000 0.790798
O O16 0.500000 0.500000 0.069438
O O17 0.384591 0.716285 0.115642
#
# Coordination Sequence:
#
# PCOD8192970 Si02
#       8
#     4   8   4   4   8   8   8   4
#     4  11  25  39  68  89 134 173 210 269 316 381
#     4  10  21  38  65  98 130 165 218 266 310 377
#     4  11  23  47  62  95 122 173 230 253 312 387
#     4  11  25  41  72  87 126 179 216 265 304 389
#     4  11  23  41  69  97 128 169 219 259 314 390
#     4  12  26  42  64  97 134 163 207 272 331 376
#     4  11  23  39  66  97 130 167 214 267 315 377
#     4  11  23  45  60  97 130 169 220 259 324 377
#
# _framework density 20.889482000000001
#
# number of rings (size 3 to 8) (size 9 to 14) (size 15 to 20)
#    0.000    1.000    1.667    6.000    7.000    6.667 
#    0.000    1.667    0.000    0.000    0.000    0.000 
#    0.000    0.000    0.000    0.000    0.000    0.000 
#
# Total GULP energy -297464.558987 kJ/mol
# GULP energy per Si atom -12394.356624 kJ/mol
# Density = 2.084194 g / cm^3
# Si number density = 20.889482 Si / 1000 Ang^3
#
#
#
# Elastic Constant Matrix: (Units=GPa)
#
#
# Indices 1 2 3 4 5 6 
#
# 1 174.0020 18.6021 42.8563 0.0000 0.0000 0.0000
# 2 18.6021 61.7608 36.8980 0.0000 0.0000 0.0000
# 3 42.8563 36.8980 116.6587 0.0000 0.0000 0.0000
# 4 0.0000 0.0000 0.0000 27.7837 0.0000 0.0000
# 5 0.0000 0.0000 0.0000 0.0000 47.6809 0.0000
# 6 0.0000 0.0000 0.0000 0.0000 0.0000 22.3646
#
#
#
# Elastic Compliance Matrix: (Units=1/GPa)
#
#
# Indices 1 2 3 4 5 6 
#
# 1 0.006339 -0.000639 -0.002127 0.000000 0.000000 0.000000
# 2 -0.000639 0.020028 -0.006100 0.000000 0.000000 0.000000
# 3 -0.002127 -0.006100 0.011283 0.000000 0.000000 0.000000
# 4 0.000000 0.000000 0.000000 0.035992 0.000000 0.000000
# 5 0.000000 0.000000 0.000000 0.000000 0.020973 0.000000
# 6 0.000000 0.000000 0.000000 0.000000 0.000000 0.044714
#
#
# Mechanical properties :
#
#
# Convention : Reuss Voigt Hill
#
# Bulk Modulus (GPa) = 50.20338 61.01493 55.60915
# Shear Modulus (GPa) = 30.54374 36.50350 33.52362
#
# Velocity S-wave (km/s) = 3.82797 4.18480 4.01035
# Velocity P-wave (km/s) = 6.60476 7.25409 6.93703
#
# Compressibility (1/GPa) = 0.01991898
#
# Stress axis : x y z
#
# Youngs Moduli (GPa) = 157.74952 49.92939 88.63119
#
# Poissons Ratio (x) = 0.03189 0.18850
# Poissons Ratio (y) = 0.10076 0.54066
# Poissons Ratio (z) = 0.33550 0.30457
#
# Static dielectric constant tensor:
#      x y z
#    x 3.957740 0.000000 0.000000 
#    y 0.000000 3.562650 0.000000 
#    z 0.000000 0.000000 4.498560 
# 
# 
# High freq. dielectric constant tensor:
#      x y z
#    x 1.838860 0.000000 0.000000 
#    y 0.000000 1.790840 0.000000 
#    z 0.000000 0.000000 1.842970 
# 
# From -- ./inp_files/25094.got.cif
#   From: 2010.03.12/outbox.cif.g09.slc.cpg/sg46_13_cif.got.tgz:25094.got - 2010.04.14 02:56:35.
