data_PCOD8192612
_publ_section_title
;
Structure prediction by ZEFSAII (Michael W. Deem and Ramdas Pophale) SiO2 
 PCOD8192612
Probable space group: I M A 2
;
_chemical_formula_sum "Si O2"
_cell_formula_units_Z 48
_cell_length_a 8.677963
_cell_length_b 22.942116
_cell_length_c 11.631488
_cell_angle_alpha 90.000000
_cell_angle_beta 90.000000
_cell_angle_gamma 90.000000
_cell_volume 2315.722644
_symmetry_space_group_name_H-M "I M A 2"
_symmetry_group_IT_number 46
_symmetry_cell_setting 'orthorhombic'
loop_
_space_group_symop_operation_xyz
x,y,z
-x,-y,z
1/2-x,y,z
1/2+x,-y,z
1/2+x,1/2+y,1/2+z
1/2-x,1/2-y,1/2+z
-x,1/2+y,1/2+z
x,1/2-y,1/2+z
loop_
_atom_site_type_symbol
_atom_site_label
_atom_site_fract_x
_atom_site_fract_y
_atom_site_fract_z
Si Si1 0.576280 0.560867 0.619640
Si Si2 0.428462 0.843522 0.265276
Si Si3 0.430417 0.564053 0.196933
Si Si4 0.422259 0.369048 0.400843
Si Si5 0.570497 0.858035 0.509189
Si Si6 0.931408 0.771567 0.077431
O O1 0.500000 0.500000 0.641292
O O2 0.750000 0.563725 0.671257
O O3 0.458223 0.604300 0.678680
O O4 0.582457 0.575508 0.485093
O O5 0.250000 0.837238 0.297462
O O6 0.527020 0.857875 0.376717
O O7 0.486782 0.785956 0.198594
O O8 0.500000 0.500000 0.218533
O O9 0.250000 0.555672 0.197420
O O10 0.475115 0.612006 0.293012
O O11 0.482034 0.590243 0.074457
O O12 0.250000 0.355014 0.354797
O O13 0.488018 0.312178 0.469911
O O14 0.750000 0.870257 0.523625
O O15 0.524344 0.794888 0.557121
O O16 0.750000 0.783253 0.092186
#
# Coordination Sequence:
#
# PCOD8192612 Si02
#       6
#     8   8   8   8   8   8
#     4  10  20  36  60  89 121 159 205 251 304 362
#     4  11  23  39  60  90 125 157 200 254 308 367
#     4  12  26  43  63  92 128 170 215 263 317 377
#     4   9  19  38  63  93 124 161 206 255 306 369
#     4  11  24  43  66  90 122 166 210 256 311 377
#     4   9  21  41  66  92 122 163 208 253 310 376
#
# _framework density 20.727872000000001
#
# number of rings (size 3 to 8) (size 9 to 14) (size 15 to 20)
#    0.000    1.667    0.000    5.500    2.333    6.667 
#    0.000    3.333    0.000    0.000    0.000    0.000 
#    0.000    0.000    0.000    0.000    0.000    0.000 
#
# Total GULP energy -297578.870008 kJ/mol
# GULP energy per Si atom -12399.119584 kJ/mol
# Density = 2.068069 g / cm^3
# Si number density = 20.727872 Si / 1000 Ang^3
#
#
#
# Elastic Constant Matrix: (Units=GPa)
#
#
# Indices 1 2 3 4 5 6 
#
# 1 86.8328 33.3529 25.8887 -0.0003 0.0001 0.0000
# 2 33.3529 72.7494 16.4680 0.0000 0.0000 0.0000
# 3 25.8887 16.4680 94.6932 -0.0002 0.0003 0.0001
# 4 -0.0003 0.0000 -0.0002 13.6537 0.0001 0.0000
# 5 0.0001 0.0000 0.0003 0.0001 34.3420 0.0000
# 6 0.0000 0.0000 0.0001 0.0000 0.0000 31.4116
#
#
#
# Elastic Compliance Matrix: (Units=1/GPa)
#
#
# Indices 1 2 3 4 5 6 
#
# 1 0.014740 -0.006085 -0.002972 0.000000 0.000000 0.000000
# 2 -0.006085 0.016821 -0.001262 0.000000 0.000000 0.000000
# 3 -0.002972 -0.001262 0.011592 0.000000 0.000000 0.000000
# 4 0.000000 0.000000 0.000000 0.073240 0.000000 0.000000
# 5 0.000000 0.000000 0.000000 0.000000 0.029119 0.000000
# 6 0.000000 0.000000 0.000000 0.000000 0.000000 0.031835
#
#
# Mechanical properties :
#
#
# Convention : Reuss Voigt Hill
#
# Bulk Modulus (GPa) = 44.41165 45.07717 44.74441
# Shear Modulus (GPa) = 24.33215 27.78583 26.05899
#
# Velocity S-wave (km/s) = 3.42992 3.66526 3.54954
# Velocity P-wave (km/s) = 6.09577 6.30131 6.19939
#
# Compressibility (1/GPa) = 0.02251662
#
# Stress axis : x y z
#
# Youngs Moduli (GPa) = 67.84460 59.44899 86.26454
#
# Poissons Ratio (x) = 0.36174 0.25634
# Poissons Ratio (y) = 0.41283 0.10885
# Poissons Ratio (z) = 0.20160 0.07501
#
# Static dielectric constant tensor:
#      x y z
#    x 3.675060 0.000000 0.000000 
#    y 0.000000 4.068090 0.000000 
#    z 0.000000 0.000000 3.743600 
# 
# 
# High freq. dielectric constant tensor:
#      x y z
#    x 1.807780 0.000000 0.000000 
#    y 0.000000 1.815720 0.000000 
#    z 0.000000 0.000000 1.811450 
# 
# From -- ./inp_files/9301.got.cif
#   From: 2010.03.12/outbox.cif.g09.slc.cpg/sg46_5_cif.got.tgz:9301.got - 2010.04.14 02:56:35.
