data_PCOD8192220
_publ_section_title
;
Structure prediction by ZEFSAII (Michael W. Deem and Ramdas Pophale) SiO2 
 PCOD8192220
Probable space group: I M A 2
;
_chemical_formula_sum "Si O2"
_cell_formula_units_Z 64
_cell_length_a 18.499132
_cell_length_b 8.678256
_cell_length_c 19.854388
_cell_angle_alpha 90.000000
_cell_angle_beta 90.000000
_cell_angle_gamma 90.000000
_cell_volume 3187.427485
_symmetry_space_group_name_H-M "I M A 2"
_symmetry_group_IT_number 46
_symmetry_cell_setting 'orthorhombic'
loop_
_space_group_symop_operation_xyz
x,y,z
-x,-y,z
1/2-x,y,z
1/2+x,-y,z
1/2+x,1/2+y,1/2+z
1/2-x,1/2-y,1/2+z
-x,1/2+y,1/2+z
x,1/2-y,1/2+z
loop_
_atom_site_type_symbol
_atom_site_label
_atom_site_fract_x
_atom_site_fract_y
_atom_site_fract_z
Si Si1 0.432324 0.691777 0.247890
Si Si2 0.064009 0.701349 0.487990
Si Si3 0.422667 0.916770 0.605410
Si Si4 0.599403 0.856427 0.774144
Si Si5 0.074334 0.907172 0.362342
Si Si6 0.164990 0.210738 0.638058
Si Si7 0.334291 0.310038 0.897612
Si Si8 0.899303 0.867424 0.016684
O O1 0.423408 0.706458 0.167172
O O2 0.388305 0.539636 0.270057
O O3 0.515705 0.679918 0.267108
O O4 0.402862 0.840407 0.288716
O O5 0.097622 0.829060 0.537237
O O6 0.065854 0.761040 0.411703
O O7 0.110354 0.544768 0.494006
O O8 0.982387 0.678145 0.511457
O O9 0.500000 0.000000 0.601977
O O10 0.360617 0.042705 0.614143
O O11 0.642944 0.765851 0.715934
O O12 0.625911 0.802282 0.846119
O O13 0.137503 0.016184 0.389388
O O14 0.000000 0.000000 0.357998
O O15 0.250000 0.224892 0.629669
O O16 0.126795 0.343631 0.593425
O O17 0.250000 0.309933 0.883486
O O18 0.350700 0.246020 0.971666
#
# Coordination Sequence:
#
# PCOD8192220 Si02
#       8
#     8   8   8   8   8   8   8   8
#     4  10  19  36  63  95 114 151 202 254 297 337
#     4  11  22  38  63  92 114 151 202 258 299 334
#     4  11  19  39  63  91 124 151 200 251 293 355
#     4  10  19  38  62  87 119 152 201 248 290 359
#     4  12  22  38  62  90 122 153 201 253 298 353
#     4  11  22  38  61  89 122 164 196 236 301 366
#     4  12  25  40  58  86 122 163 197 241 304 366
#     4  11  22  39  60  90 118 150 202 252 294 356
#
# _framework density 20.078887999999999
#
# number of rings (size 3 to 8) (size 9 to 14) (size 15 to 20)
#    0.000    1.000    6.250    2.625    0.000    3.000 
#    2.250    6.875    0.000    0.000    0.000    0.000 
#    0.000    0.000    0.000    0.000    0.000    0.000 
#
# Total GULP energy -396871.165442 kJ/mol
# GULP energy per Si atom -12402.223920 kJ/mol
# Density = 2.003319 g / cm^3
# Si number density = 20.078888 Si / 1000 Ang^3
#
#
#
# Elastic Constant Matrix: (Units=GPa)
#
#
# Indices 1 2 3 4 5 6 
#
# 1 70.0411 14.1034 4.0377 0.0000 0.0000 0.0000
# 2 14.1034 91.4113 33.8475 0.0000 0.0000 0.0000
# 3 4.0377 33.8475 84.6106 0.0000 0.0000 0.0000
# 4 0.0000 0.0000 0.0000 49.9302 0.0000 0.0000
# 5 0.0000 0.0000 0.0000 0.0000 -2.3953 0.0000
# 6 0.0000 0.0000 0.0000 0.0000 0.0000 16.1534
#
#
#
# Elastic Compliance Matrix: (Units=1/GPa)
#
#
# Indices 1 2 3 4 5 6 
#
# 1 0.014739 -0.002364 0.000242 0.000000 0.000000 0.000000
# 2 -0.002364 0.013221 -0.005176 0.000000 0.000000 0.000000
# 3 0.000242 -0.005176 0.013878 0.000000 0.000000 0.000000
# 4 0.000000 0.000000 0.000000 0.020028 0.000000 0.000000
# 5 0.000000 0.000000 0.000000 0.000000 -0.417482 0.000000
# 6 0.000000 0.000000 0.000000 0.000000 0.000000 0.061906
#
#
# Mechanical properties :
#
#
# Convention : Reuss Voigt Hill
#
# Bulk Modulus (GPa) = 36.70676 38.89334 37.80005
# Shear Modulus (GPa) = -18.51619 25.67596 3.57989
#
# Velocity S-wave (km/s) = -3.04002 3.57985 1.33671
# Velocity P-wave (km/s) = 2.44921 6.04147 4.60967
#
# Compressibility (1/GPa) = 0.02724294
#
# Stress axis : x y z
#
# Youngs Moduli (GPa) = 67.84565 75.63829 72.05701
#
# Poissons Ratio (x) = 0.17879 -0.01745
# Poissons Ratio (y) = 0.16037 0.37297
# Poissons Ratio (z) = -0.01643 0.39151
#
# Static dielectric constant tensor:
#      x y z
#    x 3.386020 0.000000 0.000000 
#    y 0.000000 3.105480 0.000000 
#    z 0.000000 0.000000 3.901900 
# 
# 
# High freq. dielectric constant tensor:
#      x y z
#    x 1.755000 0.000000 0.000000 
#    y 0.000000 1.779800 0.000000 
#    z 0.000000 0.000000 1.801220 
# 
# From -- ./inp_files/22240.got.cif
#   From: 2010.03.12/outbox.cif.g09.slc.cpg/sg46_12_cif.got.tgz:22240.got - 2010.04.14 02:56:35.
