data_PCOD8192087
_publ_section_title
;
Structure prediction by ZEFSAII (Michael W. Deem and Ramdas Pophale) SiO2 
 PCOD8192087
Probable space group: I M A 2
;
_chemical_formula_sum "Si O2"
_cell_formula_units_Z 64
_cell_length_a 15.728675
_cell_length_b 21.029727
_cell_length_c 8.990291
_cell_angle_alpha 90.000000
_cell_angle_beta 90.000000
_cell_angle_gamma 90.000000
_cell_volume 2973.716228
_symmetry_space_group_name_H-M "I M A 2"
_symmetry_group_IT_number 46
_symmetry_cell_setting 'orthorhombic'
loop_
_space_group_symop_operation_xyz
x,y,z
-x,-y,z
1/2-x,y,z
1/2+x,-y,z
1/2+x,1/2+y,1/2+z
1/2-x,1/2-y,1/2+z
-x,1/2+y,1/2+z
x,1/2-y,1/2+z
loop_
_atom_site_type_symbol
_atom_site_label
_atom_site_fract_x
_atom_site_fract_y
_atom_site_fract_z
Si Si1 0.649208 0.568511 0.772510
Si Si2 0.650563 0.196140 0.774551
Si Si3 0.648698 0.690303 0.958202
Si Si4 0.653105 0.811708 0.788283
Si Si5 0.902735 0.936106 0.941225
Si Si6 0.650257 0.313631 0.948625
Si Si7 0.909346 0.062289 0.809500
Si Si8 0.349622 0.548151 0.980947
O O1 0.750000 0.568671 0.738939
O O2 0.618500 0.630793 0.860227
O O3 0.596632 0.566940 0.619686
O O4 0.622412 0.508486 0.873138
O O5 0.750000 0.206946 0.765228
O O6 0.609488 0.192023 0.611968
O O7 0.633071 0.129241 0.857093
O O8 0.607401 0.257874 0.851107
O O9 0.750000 0.690494 0.966518
O O10 0.611302 0.754894 0.885020
O O11 0.610068 0.683454 0.124964
O O12 0.750000 0.792120 0.763676
O O13 0.650578 0.877719 0.876478
O O14 0.994818 0.933121 0.866850
O O15 0.861705 0.003943 0.893310
O O16 0.750000 0.300480 0.957759
O O17 0.632933 0.385545 0.891535
O O18 0.903668 0.047789 0.633008
O O19 0.250000 0.543183 0.025031
#
# Coordination Sequence:
#
# PCOD8192087 Si02
#       8
#     8   8   8   8   8   8   8   8
#     4  10  20  35  58  88 116 144 187 238 286 339
#     4   9  17  32  55  78 104 138 177 224 274 326
#     4   9  18  33  56  85 111 139 182 239 290 328
#     4  10  19  34  57  82 111 148 190 234 282 337
#     4  11  23  37  52  77 115 152 184 231 288 343
#     4   8  15  28  50  82 111 134 169 224 280 321
#     4  10  22  39  54  76 111 148 189 230 280 340
#     4   9  18  36  62  86 109 143 190 238 280 332
#
# _framework density 21.521894
#
# number of rings (size 3 to 8) (size 9 to 14) (size 15 to 20)
#    0.000    2.500    0.000    3.000    0.000    6.000 
#    0.000   12.500    0.000    0.000    0.000    0.000 
#    0.000    0.000    0.000    0.000    0.000    0.000 
#
# Total GULP energy -396575.805651 kJ/mol
# GULP energy per Si atom -12392.993927 kJ/mol
# Density = 2.147291 g / cm^3
# Si number density = 21.521894 Si / 1000 Ang^3
#
#
#
# Elastic Constant Matrix: (Units=GPa)
#
#
# Indices 1 2 3 4 5 6 
#
# 1 29.1188 5.0124 23.3504 0.0000 0.0000 0.0000
# 2 5.0124 193.2836 74.8421 0.0000 0.0000 0.0000
# 3 23.3504 74.8421 145.0860 0.0000 0.0000 0.0000
# 4 0.0000 0.0000 0.0000 47.8941 0.0000 0.0000
# 5 0.0000 0.0000 0.0000 0.0000 21.6044 0.0000
# 6 0.0000 0.0000 0.0000 0.0000 0.0000 9.1852
#
#
#
# Elastic Compliance Matrix: (Units=1/GPa)
#
#
# Indices 1 2 3 4 5 6 
#
# 1 0.039935 0.001816 -0.007364 0.000000 0.000000 0.000000
# 2 0.001816 0.006548 -0.003670 0.000000 0.000000 0.000000
# 3 -0.007364 -0.003670 0.009971 0.000000 0.000000 0.000000
# 4 0.000000 0.000000 0.000000 0.020879 0.000000 0.000000
# 5 0.000000 0.000000 0.000000 0.000000 0.046287 0.000000
# 6 0.000000 0.000000 0.000000 0.000000 0.000000 0.108871
#
#
# Mechanical properties :
#
#
# Convention : Reuss Voigt Hill
#
# Bulk Modulus (GPa) = 26.30390 63.76649 45.03520
# Shear Modulus (GPa) = 18.96823 33.35562 26.16192
#
# Velocity S-wave (km/s) = 2.97197 3.94108 3.49032
# Velocity P-wave (km/s) = 4.90156 7.09947 6.10032
#
# Compressibility (1/GPa) = 0.03801717
#
# Stress axis : x y z
#
# Youngs Moduli (GPa) = 25.04095 152.72628 100.29420
#
# Poissons Ratio (x) = -0.27731 0.73855
# Poissons Ratio (y) = -0.04547 0.36806
# Poissons Ratio (z) = 0.18440 0.56048
#
# Static dielectric constant tensor:
#      x y z
#    x 3.296240 0.000000 0.000000 
#    y 0.000000 4.508480 0.000000 
#    z 0.000000 0.000000 4.067570 
# 
# 
# High freq. dielectric constant tensor:
#      x y z
#    x 1.798520 0.000000 0.000000 
#    y 0.000000 1.871280 0.000000 
#    z 0.000000 0.000000 1.840530 
# 
# From -- ./inp_files/6954.got.cif
#   From: 2010.03.12/outbox.cif.g09.slc.cpg/sg46_4_cif.got.tgz:6954.got - 2010.04.14 02:56:35.
