data_PCOD8192786
_publ_section_title
;
Structure prediction by ZEFSAII (Michael W. Deem and Ramdas Pophale) SiO2 
 PCOD8192786
Probable space group: I M A 2
;
_chemical_formula_sum "Si O2"
_cell_formula_units_Z 64
_cell_length_a 17.788070
_cell_length_b 15.233846
_cell_length_c 11.876548
_cell_angle_alpha 90.000000
_cell_angle_beta 90.000000
_cell_angle_gamma 90.000000
_cell_volume 3218.315516
_symmetry_space_group_name_H-M "I M A 2"
_symmetry_group_IT_number 46
_symmetry_cell_setting 'orthorhombic'
loop_
_space_group_symop_operation_xyz
x,y,z
-x,-y,z
1/2-x,y,z
1/2+x,-y,z
1/2+x,1/2+y,1/2+z
1/2-x,1/2-y,1/2+z
-x,1/2+y,1/2+z
x,1/2-y,1/2+z
loop_
_atom_site_type_symbol
_atom_site_label
_atom_site_fract_x
_atom_site_fract_y
_atom_site_fract_z
Si Si1 0.838560 0.575577 0.183030
Si Si2 0.970203 0.595327 0.766537
Si Si3 0.568413 0.835198 0.496621
Si Si4 0.164945 0.624887 0.519663
Si Si5 0.334748 0.440503 0.618478
Si Si6 0.663221 0.385514 0.259942
Si Si7 0.336609 0.322980 0.403546
Si Si8 0.941686 0.246758 0.143422
O O1 0.750000 0.583611 0.175370
O O2 0.872401 0.608728 0.066835
O O3 0.862290 0.474525 0.198180
O O4 0.866420 0.635548 0.286945
O O5 0.887894 0.604715 0.710602
O O6 0.000000 0.500000 0.732258
O O7 0.023760 0.671339 0.720915
O O8 0.966543 0.602373 0.901291
O O9 0.609935 0.757437 0.431620
O O10 0.504839 0.802336 0.581084
O O11 0.250000 0.657326 0.538371
O O12 0.147440 0.543162 0.601660
O O13 0.152415 0.596379 0.391630
O O14 0.110199 0.704662 0.547513
O O15 0.250000 0.426391 0.662468
O O16 0.346180 0.396107 0.498196
O O17 0.750000 0.361569 0.232456
O O18 0.609050 0.307718 0.222172
O O19 0.250000 0.292016 0.394549
#
# Coordination Sequence:
#
# PCOD8192786 Si02
#       8
#     8   8   8   8   8   8   8   8
#     4  10  22  42  67  93 124 165 212 263 318 376
#     4  12  26  44  61  91 135 170 206 262 312 380
#     4  12  26  40  60  91 133 172 208 250 319 385
#     4  10  20  40  67  92 119 156 212 267 314 375
#     4  10  20  40  68  93 118 162 211 260 317 374
#     4  10  22  42  66  93 124 161 216 272 313 373
#     4  10  20  39  67  96 121 154 211 271 317 373
#     4  12  24  41  64  92 124 172 211 260 322 375
#
# _framework density 19.886178000000001
#
# number of rings (size 3 to 8) (size 9 to 14) (size 15 to 20)
#    0.000    1.250    3.750    2.250    1.750    1.000 
#    0.000    1.250    0.000    0.000    0.000    0.000 
#    0.000    0.000    0.000    0.000    0.000    0.000 
#
# Total GULP energy -396929.718955 kJ/mol
# GULP energy per Si atom -12404.053717 kJ/mol
# Density = 1.984092 g / cm^3
# Si number density = 19.886178 Si / 1000 Ang^3
#
#
#
# Elastic Constant Matrix: (Units=GPa)
#
#
# Indices 1 2 3 4 5 6 
#
# 1 72.8565 53.7668 35.4942 0.0000 0.0000 0.0000
# 2 53.7668 101.1492 39.8806 0.0000 0.0000 0.0000
# 3 35.4942 39.8806 98.1326 0.0000 0.0000 0.0000
# 4 0.0000 0.0000 0.0000 32.0954 0.0000 0.0000
# 5 0.0000 0.0000 0.0000 0.0000 30.2907 0.0000
# 6 0.0000 0.0000 0.0000 0.0000 0.0000 36.4723
#
#
#
# Elastic Compliance Matrix: (Units=1/GPa)
#
#
# Indices 1 2 3 4 5 6 
#
# 1 0.023925 -0.011081 -0.004150 0.000000 0.000000 0.000000
# 2 -0.011081 0.016905 -0.002862 0.000000 0.000000 0.000000
# 3 -0.004150 -0.002862 0.012855 0.000000 0.000000 0.000000
# 4 0.000000 0.000000 0.000000 0.031157 0.000000 0.000000
# 5 0.000000 0.000000 0.000000 0.000000 0.033013 0.000000
# 6 0.000000 0.000000 0.000000 0.000000 0.000000 0.027418
#
#
# Mechanical properties :
#
#
# Convention : Reuss Voigt Hill
#
# Bulk Modulus (GPa) = 57.15064 58.93574 58.04319
# Shear Modulus (GPa) = 26.69597 29.30481 28.00039
#
# Velocity S-wave (km/s) = 3.66791 3.84295 3.75645
# Velocity P-wave (km/s) = 6.83662 7.02794 6.93294
#
# Compressibility (1/GPa) = 0.01749762
#
# Stress axis : x y z
#
# Youngs Moduli (GPa) = 41.79646 59.15306 77.79324
#
# Poissons Ratio (x) = 0.65550 0.32287
# Poissons Ratio (y) = 0.46317 0.22265
# Poissons Ratio (z) = 0.17347 0.16930
#
# Static dielectric constant tensor:
#      x y z
#    x 3.703410 0.000000 0.000000 
#    y 0.000000 3.688080 0.000000 
#    z 0.000000 0.000000 3.550300 
# 
# 
# High freq. dielectric constant tensor:
#      x y z
#    x 1.781030 0.000000 0.000000 
#    y 0.000000 1.781050 0.000000 
#    z 0.000000 0.000000 1.775990 
# 
# From -- ./inp_files/11956.got.cif
#   From: 2010.03.12/outbox.cif.g09.slc.cpg/sg46_6_cif.got.tgz:11956.got - 2010.04.14 02:56:35.
