data_PCOD8192494
_publ_section_title
;
Structure prediction by ZEFSAII (Michael W. Deem and Ramdas Pophale) SiO2 
 PCOD8192494
Probable space group: I M A 2
;
_chemical_formula_sum "Si O2"
_cell_formula_units_Z 56
_cell_length_a 8.956359
_cell_length_b 14.385259
_cell_length_c 21.887220
_cell_angle_alpha 90.000000
_cell_angle_beta 90.000000
_cell_angle_gamma 90.000000
_cell_volume 2819.939442
_symmetry_space_group_name_H-M "I M A 2"
_symmetry_group_IT_number 46
_symmetry_cell_setting 'orthorhombic'
loop_
_space_group_symop_operation_xyz
x,y,z
-x,-y,z
1/2-x,y,z
1/2+x,-y,z
1/2+x,1/2+y,1/2+z
1/2-x,1/2-y,1/2+z
-x,1/2+y,1/2+z
x,1/2-y,1/2+z
loop_
_atom_site_type_symbol
_atom_site_label
_atom_site_fract_x
_atom_site_fract_y
_atom_site_fract_z
Si Si1 0.074149 0.594368 0.513430
Si Si2 0.923047 0.407843 0.374798
Si Si3 0.424374 0.093733 0.439015
Si Si4 0.923127 0.725929 0.045035
Si Si5 0.073374 0.403801 0.799033
Si Si6 0.925551 0.599511 0.161159
Si Si7 0.574185 0.279487 0.265058
O O1 0.250000 0.585499 0.520127
O O2 0.021457 0.612715 0.443558
O O3 0.000000 0.500000 0.538347
O O4 0.016554 0.679867 0.554237
O O5 0.750000 0.430537 0.374637
O O6 0.960708 0.320085 0.332348
O O7 0.000000 0.500000 0.347899
O O8 0.250000 0.077355 0.445784
O O9 0.477438 0.177612 0.482167
O O10 0.470229 0.115199 0.369462
O O11 0.500000 0.000000 0.462722
O O12 0.750000 0.752685 0.041861
O O13 0.957661 0.657603 0.100426
O O14 0.250000 0.408306 0.788664
O O15 0.000000 0.500000 0.776663
O O16 0.003507 0.320905 0.759163
O O17 0.750000 0.588177 0.173999
O O18 0.000000 0.500000 0.152413
O O19 0.002552 0.651215 0.216995
O O20 0.750000 0.269657 0.252994
#
# Coordination Sequence:
#
# PCOD8192494 Si02
#       7
#     8   8   8   8   8   8   8
#     4  10  20  35  56  82 112 144 180 223 272 326
#     4   9  19  33  52  81 113 145 180 222 272 326
#     4   9  18  32  53  82 114 147 181 222 272 326
#     4  10  21  37  56  80 111 146 184 226 272 322
#     4  10  20  35  56  83 114 146 182 225 275 329
#     4  11  24  41  60  83 112 145 184 228 272 321
#     4  11  22  37  57  81 111 147 188 230 275 326
#
# _framework density 19.858581000000001
#
# number of rings (size 3 to 8) (size 9 to 14) (size 15 to 20)
#    0.000    2.000    0.000    3.429    0.000    5.143 
#    0.000    0.714    0.000    3.429    0.000    0.000 
#    0.000    0.000    0.000    0.000    0.000    0.000 
#
# Total GULP energy -347299.292578 kJ/mol
# GULP energy per Si atom -12403.546163 kJ/mol
# Density = 1.981338 g / cm^3
# Si number density = 19.858581 Si / 1000 Ang^3
#
#
#
# Elastic Constant Matrix: (Units=GPa)
#
#
# Indices 1 2 3 4 5 6 
#
# 1 93.3666 75.8778 35.5852 0.0000 0.0000 0.0000
# 2 75.8778 169.7674 41.9964 0.0000 0.0000 0.0000
# 3 35.5852 41.9964 47.1282 0.0000 0.0000 0.0000
# 4 0.0000 0.0000 0.0000 96.2409 0.0000 0.0000
# 5 0.0000 0.0000 0.0000 0.0000 23.5206 0.0000
# 6 0.0000 0.0000 0.0000 0.0000 0.0000 43.7370
#
#
#
# Elastic Compliance Matrix: (Units=1/GPa)
#
#
# Indices 1 2 3 4 5 6 
#
# 1 0.019321 -0.006448 -0.008843 0.000000 0.000000 0.000000
# 2 -0.006448 0.009708 -0.003782 0.000000 0.000000 0.000000
# 3 -0.008843 -0.003782 0.031266 0.000000 0.000000 0.000000
# 4 0.000000 0.000000 0.000000 0.010391 0.000000 0.000000
# 5 0.000000 0.000000 0.000000 0.000000 0.042516 0.000000
# 6 0.000000 0.000000 0.000000 0.000000 0.000000 0.022864
#
#
# Mechanical properties :
#
#
# Convention : Reuss Voigt Hill
#
# Bulk Modulus (GPa) = 45.14890 68.57567 56.86228
# Shear Modulus (GPa) = 27.53390 43.15323 35.34357
#
# Velocity S-wave (km/s) = 3.72761 4.66663 4.22330
# Velocity P-wave (km/s) = 6.42739 7.97769 7.24413
#
# Compressibility (1/GPa) = 0.02214893
#
# Stress axis : x y z
#
# Youngs Moduli (GPa) = 51.75716 103.00788 31.98369
#
# Poissons Ratio (x) = 0.66420 0.28283
# Poissons Ratio (y) = 0.33373 0.12097
# Poissons Ratio (z) = 0.45768 0.38959
#
# Static dielectric constant tensor:
#      x y z
#    x 3.575890 0.000000 0.000000 
#    y 0.000000 2.928680 0.000000 
#    z 0.000000 0.000000 3.580280 
# 
# 
# High freq. dielectric constant tensor:
#      x y z
#    x 1.778840 0.000000 0.000000 
#    y 0.000000 1.786570 0.000000 
#    z 0.000000 0.000000 1.755230 
# 
# From -- ./inp_files/21075.got.cif
#   From: 2010.03.12/outbox.cif.g09.slc.cpg/sg46_11_cif.got.tgz:21075.got - 2010.04.14 02:56:35.
