data_PCOD8192461
_publ_section_title
;
Structure prediction by ZEFSAII (Michael W. Deem and Ramdas Pophale) SiO2 
 PCOD8192461
Probable space group: I M A 2
;
_chemical_formula_sum "Si O2"
_cell_formula_units_Z 64
_cell_length_a 8.574670
_cell_length_b 23.044998
_cell_length_c 18.898168
_cell_angle_alpha 90.000000
_cell_angle_beta 90.000000
_cell_angle_gamma 90.000000
_cell_volume 3734.339473
_symmetry_space_group_name_H-M "I M A 2"
_symmetry_group_IT_number 46
_symmetry_cell_setting 'orthorhombic'
loop_
_space_group_symop_operation_xyz
x,y,z
-x,-y,z
1/2-x,y,z
1/2+x,-y,z
1/2+x,1/2+y,1/2+z
1/2-x,1/2-y,1/2+z
-x,1/2+y,1/2+z
x,1/2-y,1/2+z
loop_
_atom_site_type_symbol
_atom_site_label
_atom_site_fract_x
_atom_site_fract_y
_atom_site_fract_z
Si Si1 0.067499 0.936458 0.722830
Si Si2 0.432120 0.062140 0.440910
Si Si3 0.929914 0.342343 0.851990
Si Si4 0.568733 0.667512 0.299864
Si Si5 0.570077 0.276141 0.428884
Si Si6 0.430485 0.249760 0.072773
Si Si7 0.931229 0.375961 0.075741
Si Si8 0.068661 0.772464 0.216746
O O1 0.250000 0.936378 0.738854
O O2 0.030088 0.913375 0.644625
O O3 0.980336 0.897639 0.781172
O O4 0.000000 0.000000 0.730415
O O5 0.250000 0.058009 0.457639
O O6 0.461621 0.104093 0.373935
O O7 0.522162 0.085802 0.508888
O O8 0.500000 0.000000 0.420312
O O9 0.750000 0.361056 0.857349
O O10 0.965142 0.289661 0.905340
O O11 0.972729 0.323409 0.772107
O O12 0.750000 0.677793 0.284952
O O13 0.530933 0.679343 0.382131
O O14 0.469547 0.710301 0.250430
O O15 0.750000 0.291753 0.417318
O O16 0.524592 0.282241 0.510618
O O17 0.250000 0.243258 0.055708
O O18 0.471236 0.317254 0.078999
O O19 0.471215 0.216946 0.145632
O O20 0.750000 0.359237 0.070388
O O21 0.250000 0.772062 0.197431
#
# Coordination Sequence:
#
# PCOD8192461 Si02
#       8
#     8   8   8   8   8   8   8   8
#     4  11  23  37  54  74 103 142 184 222 265 312
#     4  12  24  36  53  74 104 140 182 222 262 309
#     4   9  19  35  54  74 100 135 176 217 262 310
#     4  11  21  34  53  77 105 135 177 223 263 310
#     4  10  20  35  55  75 105 140 173 214 266 319
#     4  12  22  32  52  81 109 139 177 217 261 313
#     4  11  22  36  52  72 106 143 181 219 258 308
#     4  10  20  35  54  75 104 140 174 213 266 318
#
# _framework density 17.138238999999999
#
# number of rings (size 3 to 8) (size 9 to 14) (size 15 to 20)
#    0.000    1.250    2.500    6.000    0.000    5.000 
#    0.000    0.000    0.000    0.000    0.000    0.875 
#    0.000    4.000    0.000    0.000    0.000    0.000 
#
# Total GULP energy -396979.907317 kJ/mol
# GULP energy per Si atom -12405.622104 kJ/mol
# Density = 1.709923 g / cm^3
# Si number density = 17.138239 Si / 1000 Ang^3
#
#
#
# Elastic Constant Matrix: (Units=GPa)
#
#
# Indices 1 2 3 4 5 6 
#
# 1 68.7397 25.6996 20.5568 0.0000 0.0000 0.0000
# 2 25.6996 74.1613 42.6057 0.0000 0.0000 0.0000
# 3 20.5568 42.6057 102.0321 0.0001 0.0000 0.0000
# 4 0.0000 0.0000 0.0001 28.8712 0.0000 0.0000
# 5 0.0000 0.0000 0.0000 0.0000 28.8924 0.0000
# 6 0.0000 0.0000 0.0000 0.0000 0.0000 27.0151
#
#
#
# Elastic Compliance Matrix: (Units=1/GPa)
#
#
# Indices 1 2 3 4 5 6 
#
# 1 0.016835 -0.005111 -0.001257 0.000000 0.000000 0.000000
# 2 -0.005111 0.019292 -0.007026 0.000000 0.000000 0.000000
# 3 -0.001257 -0.007026 0.012988 0.000000 0.000000 0.000000
# 4 0.000000 0.000000 0.000000 0.034637 0.000000 0.000000
# 5 0.000000 0.000000 0.000000 0.000000 0.034611 0.000000
# 6 0.000000 0.000000 0.000000 0.000000 0.000000 0.037016
#
#
# Mechanical properties :
#
#
# Convention : Reuss Voigt Hill
#
# Bulk Modulus (GPa) = 44.79273 46.96191 45.87732
# Shear Modulus (GPa) = 26.36997 27.36048 26.86522
#
# Velocity S-wave (km/s) = 3.92683 3.99990 3.96354
# Velocity P-wave (km/s) = 6.83761 6.98524 6.91182
#
# Compressibility (1/GPa) = 0.02232505
#
# Stress axis : x y z
#
# Youngs Moduli (GPa) = 59.40121 51.83542 76.99432
#
# Poissons Ratio (x) = 0.26496 0.09681
# Poissons Ratio (y) = 0.30363 0.54095
# Poissons Ratio (z) = 0.07469 0.36419
#
# Static dielectric constant tensor:
#      x y z
#    x 3.286780 0.000000 0.000000 
#    y 0.000000 3.017250 0.000000 
#    z 0.000000 0.000000 3.336820 
# 
# 
# High freq. dielectric constant tensor:
#      x y z
#    x 1.677240 0.000000 0.000000 
#    y 0.000000 1.630790 0.000000 
#    z 0.000000 0.000000 1.660560 
# 
# From -- ./inp_files/18582.got.cif
#   From: 2010.03.12/outbox.cif.g09.slc.cpg/sg46_10_cif.got.tgz:18582.got - 2010.04.14 02:56:35.
