data_PCOD8192253
_publ_section_title
;
Structure prediction by ZEFSAII (Michael W. Deem and Ramdas Pophale) SiO2 
 PCOD8192253
Probable space group: I M A 2
;
_chemical_formula_sum "Si O2"
_cell_formula_units_Z 64
_cell_length_a 15.900791
_cell_length_b 19.140778
_cell_length_c 9.364617
_cell_angle_alpha 90.000000
_cell_angle_beta 90.000000
_cell_angle_gamma 90.000000
_cell_volume 2850.154059
_symmetry_space_group_name_H-M "I M A 2"
_symmetry_group_IT_number 46
_symmetry_cell_setting 'orthorhombic'
loop_
_space_group_symop_operation_xyz
x,y,z
-x,-y,z
1/2-x,y,z
1/2+x,-y,z
1/2+x,1/2+y,1/2+z
1/2-x,1/2-y,1/2+z
-x,1/2+y,1/2+z
x,1/2-y,1/2+z
loop_
_atom_site_type_symbol
_atom_site_label
_atom_site_fract_x
_atom_site_fract_y
_atom_site_fract_z
Si Si1 0.652976 0.435861 0.388870
Si Si2 0.590909 0.281619 0.956750
Si Si3 0.349474 0.041890 0.663297
Si Si4 0.564628 0.698026 0.776575
Si Si5 0.341099 0.801815 0.727861
Si Si6 0.348756 0.192605 0.569233
Si Si7 0.457120 0.929451 0.153815
Si Si8 0.650116 0.436715 0.924637
O O1 0.750000 0.438944 0.441232
O O2 0.624463 0.510539 0.319357
O O3 0.642074 0.383303 0.255635
O O4 0.595009 0.405326 0.514850
O O5 0.505144 0.264275 0.875546
O O6 0.662942 0.238556 0.877493
O O7 0.616944 0.361831 0.972813
O O8 0.589846 0.262066 0.125754
O O9 0.250000 0.039511 0.650685
O O10 0.380674 0.121552 0.646722
O O11 0.385415 0.995113 0.533574
O O12 0.600618 0.745068 0.647827
O O13 0.525026 0.628064 0.706355
O O14 0.635925 0.684487 0.898006
O O15 0.250000 0.794512 0.653686
O O16 0.250000 0.205865 0.592209
O O17 0.390290 0.952185 0.272173
O O18 0.500000 0.000000 0.103069
O O19 0.750000 0.438506 0.910424
#
# Coordination Sequence:
#
# PCOD8192253 Si02
#       8
#     8   8   8   8   8   8   8   8
#     4  10  22  42  65  95 135 178 231 283 334 420
#     4  11  23  38  60  94 137 175 213 273 341 399
#     4   9  19  40  70  98 124 168 230 284 335 405
#     4  11  26  45  67 100 139 171 227 290 356 424
#     4  11  22  37  60  92 132 178 225 263 318 404
#     4  11  24  47  76 101 131 179 236 301 365 423
#     4  11  25  43  60  95 138 179 218 278 350 415
#     4  10  19  38  66  95 128 173 226 274 333 419
#
# _framework density 22.454926
#
# number of rings (size 3 to 8) (size 9 to 14) (size 15 to 20)
#    0.000    1.500    1.250    3.375    5.250    1.000 
#    2.250    3.750    0.000    0.000    0.000    0.000 
#    0.000    0.000    0.000    0.000    0.000    0.000 
#
# Total GULP energy -396497.399175 kJ/mol
# GULP energy per Si atom -12390.543724 kJ/mol
# Density = 2.240382 g / cm^3
# Si number density = 22.454926 Si / 1000 Ang^3
#
#
#
# Elastic Constant Matrix: (Units=GPa)
#
#
# Indices 1 2 3 4 5 6 
#
# 1 85.1093 34.7672 43.1944 0.0000 0.0000 0.0000
# 2 34.7672 102.1000 45.6613 0.0000 0.0000 0.0000
# 3 43.1944 45.6613 117.6937 0.0000 0.0000 0.0000
# 4 0.0000 0.0000 0.0000 33.2978 0.0000 0.0000
# 5 0.0000 0.0000 0.0000 0.0000 40.1786 0.0000
# 6 0.0000 0.0000 0.0000 0.0000 0.0000 27.4086
#
#
#
# Elastic Compliance Matrix: (Units=1/GPa)
#
#
# Indices 1 2 3 4 5 6 
#
# 1 0.015287 -0.003263 -0.004345 0.000000 0.000000 0.000000
# 2 -0.003263 0.012547 -0.003670 0.000000 0.000000 0.000000
# 3 -0.004345 -0.003670 0.011515 0.000000 0.000000 0.000000
# 4 0.000000 0.000000 0.000000 0.030032 0.000000 0.000000
# 5 0.000000 0.000000 0.000000 0.000000 0.024889 0.000000
# 6 0.000000 0.000000 0.000000 0.000000 0.000000 0.036485
#
#
# Mechanical properties :
#
#
# Convention : Reuss Voigt Hill
#
# Bulk Modulus (GPa) = 59.54552 61.34987 60.44770
# Shear Modulus (GPa) = 31.46463 32.26235 31.86349
#
# Velocity S-wave (km/s) = 3.74737 3.79457 3.77105
# Velocity P-wave (km/s) = 6.73046 6.82488 6.77784
#
# Compressibility (1/GPa) = 0.01679388
#
# Stress axis : x y z
#
# Youngs Moduli (GPa) = 65.41319 79.70192 86.84193
#
# Poissons Ratio (x) = 0.26004 0.37731
# Poissons Ratio (y) = 0.21342 0.31874
# Poissons Ratio (z) = 0.28421 0.29253
#
# Static dielectric constant tensor:
#      x y z
#    x 4.120910 0.000000 0.000000 
#    y 0.000000 4.102700 0.000000 
#    z 0.000000 0.000000 4.369230 
# 
# 
# High freq. dielectric constant tensor:
#      x y z
#    x 1.875870 0.000000 0.000000 
#    y 0.000000 1.880970 0.000000 
#    z 0.000000 0.000000 1.901050 
# 
# From -- ./inp_files/6916.got.cif
#   From: 2010.03.12/outbox.cif.g09.slc.cpg/sg46_4_cif.got.tgz:6916.got - 2010.04.14 02:56:35.
