data_PCOD8192420
_publ_section_title
;
Structure prediction by ZEFSAII (Michael W. Deem and Ramdas Pophale) SiO2 
 PCOD8192420
Probable space group: I M A 2
;
_chemical_formula_sum "Si O2"
_cell_formula_units_Z 36
_cell_length_a 20.061091
_cell_length_b 14.397780
_cell_length_c 5.153436
_cell_angle_alpha 90.000000
_cell_angle_beta 90.000000
_cell_angle_gamma 90.000000
_cell_volume 1488.493588
_symmetry_space_group_name_H-M "I M A 2"
_symmetry_group_IT_number 46
_symmetry_cell_setting 'orthorhombic'
loop_
_space_group_symop_operation_xyz
x,y,z
-x,-y,z
1/2-x,y,z
1/2+x,-y,z
1/2+x,1/2+y,1/2+z
1/2-x,1/2-y,1/2+z
-x,1/2+y,1/2+z
x,1/2-y,1/2+z
loop_
_atom_site_type_symbol
_atom_site_label
_atom_site_fract_x
_atom_site_fract_y
_atom_site_fract_z
Si Si1 0.000000 0.500000 0.789830
Si Si2 0.858335 0.001529 0.509091
Si Si3 0.538981 0.193580 0.085281
Si Si4 0.824328 0.111357 0.019018
Si Si5 0.673865 0.705424 0.086073
O O1 0.006315 0.591161 0.607403
O O2 0.062414 0.493734 0.981669
O O3 0.828357 0.904610 0.597999
O O4 0.826122 0.029509 0.233632
O O5 0.840957 0.074503 0.732397
O O6 0.515100 0.259528 0.319254
O O7 0.619951 0.187073 0.095771
O O8 0.750000 0.155630 0.017799
O O9 0.750000 0.739996 0.085520
O O10 0.637260 0.748333 0.833860
#
# Coordination Sequence:
#
# PCOD8192420 Si02
#       5
#     4   8   8   8   8
#     4  10  26  46  68  98 140 182 234 288 342 414
#     4  11  23  40  64  92 129 180 227 279 346 416
#     4  11  25  44  69 101 136 179 230 285 344 412
#     4  11  23  41  67  97 130 173 225 283 350 420
#     4  10  20  34  55  87 123 159 209 271 331 395
#
# _framework density 24.185527
#
# number of rings (size 3 to 8) (size 9 to 14) (size 15 to 20)
#    0.000    1.333    0.000    6.000    0.000   12.444 
#    0.000    0.000    0.000    0.000    0.000    0.000 
#    0.000    0.000    0.000    0.000    0.000    0.000 
#
# Total GULP energy -223234.794622 kJ/mol
# GULP energy per Si atom -12401.933035 kJ/mol
# Density = 2.413048 g / cm^3
# Si number density = 24.185527 Si / 1000 Ang^3
#
#
#
# Elastic Constant Matrix: (Units=GPa)
#
#
# Indices 1 2 3 4 5 6 
#
# 1 92.3355 -3.8161 17.9876 0.0000 0.0000 0.0000
# 2 -3.8161 105.0997 34.9023 0.0000 0.0000 0.0000
# 3 17.9876 34.9023 155.3962 0.0000 0.0000 0.0000
# 4 0.0000 0.0000 0.0000 38.2091 0.0000 0.0000
# 5 0.0000 0.0000 0.0000 0.0000 19.0101 0.0000
# 6 0.0000 0.0000 0.0000 0.0000 0.0000 29.8861
#
#
#
# Elastic Compliance Matrix: (Units=1/GPa)
#
#
# Indices 1 2 3 4 5 6 
#
# 1 0.011158 0.000901 -0.001494 0.000000 0.000000 0.000000
# 2 0.000901 0.010354 -0.002430 0.000000 0.000000 0.000000
# 3 -0.001494 -0.002430 0.007154 0.000000 0.000000 0.000000
# 4 0.000000 0.000000 0.000000 0.026172 0.000000 0.000000
# 5 0.000000 0.000000 0.000000 0.000000 0.052604 0.000000
# 6 0.000000 0.000000 0.000000 0.000000 0.000000 0.033460
#
#
# Mechanical properties :
#
#
# Convention : Reuss Voigt Hill
#
# Bulk Modulus (GPa) = 44.20611 50.10877 47.15744
# Shear Modulus (GPa) = 32.36489 37.67155 35.01822
#
# Velocity S-wave (km/s) = 3.66210 3.95094 3.80926
# Velocity P-wave (km/s) = 6.01655 6.44800 6.23601
#
# Compressibility (1/GPa) = 0.02262131
#
# Stress axis : x y z
#
# Youngs Moduli (GPa) = 89.61878 96.57668 139.78423
#
# Poissons Ratio (x) = -0.08705 0.20885
# Poissons Ratio (y) = -0.08077 0.33967
# Poissons Ratio (z) = 0.13390 0.23468
#
# Static dielectric constant tensor:
#      x y z
#    x 4.451580 0.000000 0.000000 
#    y 0.000000 4.102950 0.000000 
#    z 0.000000 0.000000 4.712130 
# 
# 
# High freq. dielectric constant tensor:
#      x y z
#    x 1.957420 0.000000 0.000000 
#    y 0.000000 1.948590 0.000000 
#    z 0.000000 0.000000 1.976530 
# 
# From -- ./inp_files/1953.got.cif
#   From: 2010.03.12/outbox.cif.g09.slc.cpg/sg46_1_cif.got.tgz:1953.got - 2010.04.14 02:56:35.
