data_PCOD8192803
_publ_section_title
;
Structure prediction by ZEFSAII (Michael W. Deem and Ramdas Pophale) SiO2 
 PCOD8192803
Probable space group: I M A 2
;
_chemical_formula_sum "Si O2"
_cell_formula_units_Z 40
_cell_length_a 10.019727
_cell_length_b 8.570705
_cell_length_c 23.125749
_cell_angle_alpha 90.000000
_cell_angle_beta 90.000000
_cell_angle_gamma 90.000000
_cell_volume 1985.949696
_symmetry_space_group_name_H-M "I M A 2"
_symmetry_group_IT_number 46
_symmetry_cell_setting 'orthorhombic'
loop_
_space_group_symop_operation_xyz
x,y,z
-x,-y,z
1/2-x,y,z
1/2+x,-y,z
1/2+x,1/2+y,1/2+z
1/2-x,1/2-y,1/2+z
-x,1/2+y,1/2+z
x,1/2-y,1/2+z
loop_
_atom_site_type_symbol
_atom_site_label
_atom_site_fract_x
_atom_site_fract_y
_atom_site_fract_z
Si Si1 0.250000 0.310810 0.528491
Si Si2 0.007965 0.683593 0.966625
Si Si3 0.250000 0.826148 0.161601
Si Si4 0.250000 0.305246 0.661692
Si Si5 0.587026 0.153367 0.851835
Si Si6 0.003166 0.685211 0.734755
Si Si7 0.750000 0.181076 0.034324
O O1 0.373024 0.256827 0.490134
O O2 0.250000 0.241895 0.594890
O O3 0.250000 0.495920 0.530591
O O4 0.047457 0.725772 0.901443
O O5 0.000000 0.500000 0.971370
O O6 0.119582 0.751011 0.007095
O O7 0.377677 0.763452 0.194095
O O8 0.250000 0.753075 0.098751
O O9 0.250000 0.010738 0.156972
O O10 0.375248 0.250707 0.700105
O O11 0.750000 0.126622 0.849567
O O12 0.525931 0.225822 0.794117
O O13 0.500000 0.000000 0.864857
O O14 0.000000 0.500000 0.746672
#
# Coordination Sequence:
#
# PCOD8192803 Si02
#       7
#     4   8   4   4   8   8   4
#     4  11  23  42  71 100 133 174 222 271 324 393
#     4  12  26  44  66  97 134 173 220 275 336 396
#     4   9  18  36  65  94 129 174 216 265 318 391
#     4   9  20  36  65 102 129 166 222 261 320 399
#     4  12  27  46  67  95 131 175 226 278 337 399
#     4  10  20  40  67  96 130 170 218 271 325 389
#     4  11  21  42  69  98 131 176 222 269 324 393
#
# _framework density 20.141497000000001
#
# number of rings (size 3 to 8) (size 9 to 14) (size 15 to 20)
#    0.000    1.200    2.000    4.200    2.800    3.200 
#    0.000    6.000    0.000    0.000    0.000    0.000 
#    0.000    0.000    0.000    0.000    0.000    0.000 
#
# Total GULP energy -247888.774589 kJ/mol
# GULP energy per Si atom -12394.438729 kJ/mol
# Density = 2.009565 g / cm^3
# Si number density = 20.141497 Si / 1000 Ang^3
#
#
#
# Elastic Constant Matrix: (Units=GPa)
#
#
# Indices 1 2 3 4 5 6 
#
# 1 187.9777 35.6893 70.7607 0.0000 0.0000 0.0000
# 2 35.6893 84.0395 29.6122 0.0000 0.0000 0.0000
# 3 70.7607 29.6122 157.7093 0.0000 0.0000 0.0000
# 4 0.0000 0.0000 0.0000 32.2342 0.0000 0.0000
# 5 0.0000 0.0000 0.0000 0.0000 44.0324 0.0000
# 6 0.0000 0.0000 0.0000 0.0000 0.0000 14.5657
#
#
#
# Elastic Compliance Matrix: (Units=1/GPa)
#
#
# Indices 1 2 3 4 5 6 
#
# 1 0.006674 -0.001905 -0.002637 0.000000 0.000000 0.000000
# 2 -0.001905 0.013286 -0.001640 0.000000 0.000000 0.000000
# 3 -0.002637 -0.001640 0.007832 0.000000 0.000000 0.000000
# 4 0.000000 0.000000 0.000000 0.031023 0.000000 0.000000
# 5 0.000000 0.000000 0.000000 0.000000 0.022711 0.000000
# 6 0.000000 0.000000 0.000000 0.000000 0.000000 0.068655
#
#
# Mechanical properties :
#
#
# Convention : Reuss Voigt Hill
#
# Bulk Modulus (GPa) = 64.81612 77.98344 71.39978
# Shear Modulus (GPa) = 29.81758 37.74408 33.78083
#
# Velocity S-wave (km/s) = 3.85178 4.33361 4.09978
# Velocity P-wave (km/s) = 7.21331 7.99012 7.61163
#
# Compressibility (1/GPa) = 0.01542826
#
# Stress axis : x y z
#
# Youngs Moduli (GPa) = 149.83366 75.26686 127.68547
#
# Poissons Ratio (x) = 0.14340 0.33668
# Poissons Ratio (y) = 0.28546 0.20938
# Poissons Ratio (z) = 0.39508 0.12342
#
# Static dielectric constant tensor:
#      x y z
#    x 4.012310 0.000000 0.000000 
#    y 0.000000 3.566170 0.000000 
#    z 0.000000 0.000000 4.060750 
# 
# 
# High freq. dielectric constant tensor:
#      x y z
#    x 1.809440 0.000000 0.000000 
#    y 0.000000 1.769890 0.000000 
#    z 0.000000 0.000000 1.811710 
# 
# From -- ./inp_files/22789.got.cif
#   From: 2010.03.12/outbox.cif.g09.slc.cpg/sg46_12_cif.got.tgz:22789.got - 2010.04.14 02:56:35.
