data_PCOD8192636
_publ_section_title
;
Structure prediction by ZEFSAII (Michael W. Deem and Ramdas Pophale) SiO2 
 PCOD8192636
Probable space group: I M A 2
;
_chemical_formula_sum "Si O2"
_cell_formula_units_Z 48
_cell_length_a 8.986597
_cell_length_b 27.702762
_cell_length_c 9.883725
_cell_angle_alpha 90.000000
_cell_angle_beta 90.000000
_cell_angle_gamma 90.000000
_cell_volume 2460.588504
_symmetry_space_group_name_H-M "I M A 2"
_symmetry_group_IT_number 46
_symmetry_cell_setting 'orthorhombic'
loop_
_space_group_symop_operation_xyz
x,y,z
-x,-y,z
1/2-x,y,z
1/2+x,-y,z
1/2+x,1/2+y,1/2+z
1/2-x,1/2-y,1/2+z
-x,1/2+y,1/2+z
x,1/2-y,1/2+z
loop_
_atom_site_type_symbol
_atom_site_label
_atom_site_fract_x
_atom_site_fract_y
_atom_site_fract_z
Si Si1 0.427490 0.202979 0.921930
Si Si2 0.422917 0.051353 0.290692
Si Si3 0.423044 0.108700 0.552901
Si Si4 0.923741 0.903145 0.008153
Si Si5 0.923119 0.715321 0.119077
Si Si6 0.074537 0.548598 0.271509
O O1 0.250000 0.205397 0.918106
O O2 0.479393 0.150647 0.974023
O O3 0.492199 0.213088 0.770887
O O4 0.494099 0.242174 0.027523
O O5 0.250000 0.040574 0.303740
O O6 0.480340 0.081186 0.419937
O O7 0.500000 0.000000 0.279067
O O8 0.457986 0.085421 0.163675
O O9 0.250000 0.097858 0.583595
O O10 0.449540 0.165750 0.537221
O O11 0.521956 0.092539 0.678833
O O12 0.750000 0.909619 0.972957
O O13 0.018221 0.941639 0.922994
O O14 0.750000 0.726161 0.136081
O O15 0.250000 0.542817 0.268762
O O16 0.000000 0.500000 0.214373
#
# Coordination Sequence:
#
# PCOD8192636 Si02
#       6
#     8   8   8   8   8   8
#     4   9  17  29  51  83 115 145 182 230 281 331
#     4  10  22  36  55  80 112 148 187 230 281 338
#     4  10  20  37  57  84 118 150 186 236 286 337
#     4  10  20  37  57  84 118 150 186 236 286 337
#     4   9  17  29  51  83 115 145 182 230 281 331
#     4  12  24  38  59  84 110 148 193 238 289 346
#
# _framework density 19.507529000000002
#
# number of rings (size 3 to 8) (size 9 to 14) (size 15 to 20)
#    0.000    2.000    1.667    2.500    2.333    4.000 
#    0.000    0.000    0.000    1.000    0.000    0.000 
#    0.000    0.000    0.000    0.000    0.000    0.000 
#
# Total GULP energy -297621.237049 kJ/mol
# GULP energy per Si atom -12400.884877 kJ/mol
# Density = 1.946313 g / cm^3
# Si number density = 19.507529 Si / 1000 Ang^3
#
#
#
# Elastic Constant Matrix: (Units=GPa)
#
#
# Indices 1 2 3 4 5 6 
#
# 1 55.4649 25.8768 24.8298 -0.0018 0.0018 -0.0005
# 2 25.8768 123.8523 54.9884 -0.0069 -0.0002 -0.0022
# 3 24.8298 54.9884 119.2823 -0.0240 -0.0006 -0.0124
# 4 -0.0018 -0.0069 -0.0240 42.4560 -0.0012 -0.0016
# 5 0.0018 -0.0002 -0.0006 -0.0012 16.6244 -0.0001
# 6 -0.0005 -0.0022 -0.0124 -0.0016 -0.0001 17.7931
#
#
#
# Elastic Compliance Matrix: (Units=1/GPa)
#
#
# Indices 1 2 3 4 5 6 
#
# 1 0.020754 -0.003040 -0.002919 -0.000001 -0.000002 -0.000002
# 2 -0.003040 0.010597 -0.004252 -0.000001 0.000000 -0.000002
# 3 -0.002919 -0.004252 0.010951 0.000005 0.000001 0.000007
# 4 -0.000001 -0.000001 0.000005 0.023554 0.000002 0.000002
# 5 -0.000002 0.000000 0.000001 0.000002 0.060152 0.000000
# 6 -0.000002 -0.000002 0.000007 0.000002 0.000000 0.056202
#
#
# Mechanical properties :
#
#
# Convention : Reuss Voigt Hill
#
# Bulk Modulus (GPa) = 45.70341 56.66551 51.18446
# Shear Modulus (GPa) = 23.81775 28.23502 26.02638
#
# Velocity S-wave (km/s) = 3.49800 3.80859 3.65659
# Velocity P-wave (km/s) = 6.30826 6.96071 6.64250
#
# Compressibility (1/GPa) = 0.02188021
#
# Stress axis : x y z
#
# Youngs Moduli (GPa) = 48.18237 94.36281 91.31294
#
# Poissons Ratio (x) = 0.28691 0.26651
# Poissons Ratio (y) = 0.14650 0.38830
# Poissons Ratio (z) = 0.14063 0.40127
#
# Static dielectric constant tensor:
#      x y z
#    x 3.108320 0.000000 0.000000 
#    y 0.000000 3.686530 0.000000 
#    z 0.000000 0.000000 3.802330 
# 
# 
# High freq. dielectric constant tensor:
#      x y z
#    x 1.705640 0.000000 0.000000 
#    y 0.000000 1.772990 0.000000 
#    z 0.000000 0.000000 1.773110 
# 
# From -- ./inp_files/3895.got.cif
#   From: 2010.03.12/outbox.cif.g09.slc.cpg/sg46_2_cif.got.tgz:3895.got - 2010.04.14 02:56:35.
