data_PCOD8192466
_publ_section_title
;
Structure prediction by ZEFSAII (Michael W. Deem and Ramdas Pophale) SiO2 
 PCOD8192466
Probable space group: I M A 2
;
_chemical_formula_sum "Si O2"
_cell_formula_units_Z 64
_cell_length_a 20.802649
_cell_length_b 17.969056
_cell_length_c 9.371688
_cell_angle_alpha 90.000000
_cell_angle_beta 90.000000
_cell_angle_gamma 90.000000
_cell_volume 3503.174132
_symmetry_space_group_name_H-M "I M A 2"
_symmetry_group_IT_number 46
_symmetry_cell_setting 'orthorhombic'
loop_
_space_group_symop_operation_xyz
x,y,z
-x,-y,z
1/2-x,y,z
1/2+x,-y,z
1/2+x,1/2+y,1/2+z
1/2-x,1/2-y,1/2+z
-x,1/2+y,1/2+z
x,1/2-y,1/2+z
loop_
_atom_site_type_symbol
_atom_site_label
_atom_site_fract_x
_atom_site_fract_y
_atom_site_fract_z
Si Si1 0.382021 0.839032 0.427640
Si Si2 0.530540 0.673170 0.652394
Si Si3 0.932125 0.540429 0.169797
Si Si4 0.676226 0.186497 0.901436
Si Si5 0.525774 0.823735 0.490184
Si Si6 0.108605 0.607701 0.630741
Si Si7 0.930941 0.536383 0.498001
Si Si8 0.322891 0.924714 0.659709
O O1 0.367390 0.757643 0.362879
O O2 0.450117 0.839799 0.509764
O O3 0.381218 0.899023 0.299828
O O4 0.326147 0.862435 0.536226
O O5 0.546550 0.749123 0.571121
O O6 0.459693 0.647562 0.605546
O O7 0.578686 0.609407 0.595409
O O8 0.540805 0.682441 0.821775
O O9 0.918774 0.560716 0.334793
O O10 0.872662 0.489556 0.119736
O O11 0.000000 0.500000 0.152827
O O12 0.932946 0.611724 0.066595
O O13 0.750000 0.207478 0.877925
O O14 0.655149 0.116836 0.803747
O O15 0.662697 0.161456 0.063354
O O16 0.117086 0.526814 0.557517
O O17 0.000000 0.500000 0.518427
O O18 0.250000 0.955445 0.671071
#
# Coordination Sequence:
#
# PCOD8192466 Si02
#       8
#     8   8   8   8   8   8   8   8
#     4  11  22  33  56  81 120 154 198 237 282 341
#     4  10  21  34  54  85 117 141 184 235 296 347
#     4  11  21  36  60  82 111 154 198 241 292 341
#     4  11  22  37  55  80 116 163 203 230 277 344
#     4  11  22  33  57  87 116 150 186 239 292 344
#     4  10  20  35  55  77 113 155 194 236 281 339
#     4   9  19  34  54  77 111 149 187 238 289 333
#     4  11  24  39  56  83 118 158 201 240 289 347
#
# _framework density 18.269145999999999
#
# number of rings (size 3 to 8) (size 9 to 14) (size 15 to 20)
#    0.000    1.500    3.750    1.875    3.500    2.500 
#    0.000    0.000    0.000    0.000    0.000    4.375 
#    0.000    0.000    0.000    0.000    0.000    0.000 
#
# Total GULP energy -396750.896092 kJ/mol
# GULP energy per Si atom -12398.465503 kJ/mol
# Density = 1.822756 g / cm^3
# Si number density = 18.269146 Si / 1000 Ang^3
#
#
#
# Elastic Constant Matrix: (Units=GPa)
#
#
# Indices 1 2 3 4 5 6 
#
# 1 61.5298 39.8982 22.6506 0.0000 0.0000 0.0000
# 2 39.8982 117.5331 66.4749 0.0000 0.0000 0.0000
# 3 22.6506 66.4749 105.8242 0.0000 0.0000 0.0000
# 4 0.0000 0.0000 0.0000 38.8209 0.0000 0.0000
# 5 0.0000 0.0000 0.0000 0.0000 17.2506 0.0000
# 6 0.0000 0.0000 0.0000 0.0000 0.0000 25.2634
#
#
#
# Elastic Compliance Matrix: (Units=1/GPa)
#
#
# Indices 1 2 3 4 5 6 
#
# 1 0.020840 -0.007060 -0.000026 0.000000 0.000000 0.000000
# 2 -0.007060 0.015588 -0.008281 0.000000 0.000000 0.000000
# 3 -0.000026 -0.008281 0.014657 0.000000 0.000000 0.000000
# 4 0.000000 0.000000 0.000000 0.025759 0.000000 0.000000
# 5 0.000000 0.000000 0.000000 0.000000 0.057969 0.000000
# 6 0.000000 0.000000 0.000000 0.000000 0.000000 0.039583
#
#
# Mechanical properties :
#
#
# Convention : Reuss Voigt Hill
#
# Bulk Modulus (GPa) = 49.13558 60.32606 54.73082
# Shear Modulus (GPa) = 23.59462 26.65790 25.12626
#
# Velocity S-wave (km/s) = 3.59764 3.82406 3.71258
# Velocity P-wave (km/s) = 6.64915 7.25192 6.95707
#
# Compressibility (1/GPa) = 0.02035185
#
# Stress axis : x y z
#
# Youngs Moduli (GPa) = 47.98578 64.15075 68.22692
#
# Poissons Ratio (x) = 0.45288 0.00177
# Poissons Ratio (y) = 0.33876 0.56498
# Poissons Ratio (z) = 0.00124 0.53123
#
# Static dielectric constant tensor:
#      x y z
#    x 2.971790 0.000000 0.000000 
#    y 0.000000 3.411970 0.000000 
#    z 0.000000 0.000000 3.447330 
# 
# 
# High freq. dielectric constant tensor:
#      x y z
#    x 1.660060 0.000000 0.000000 
#    y 0.000000 1.704870 0.000000 
#    z 0.000000 0.000000 1.724950 
# 
# From -- ./inp_files/7578.got.cif
#   From: 2010.03.12/outbox.cif.g09.slc.cpg/sg46_4_cif.got.tgz:7578.got - 2010.04.14 02:56:35.
