data_PCOD8192379
_publ_section_title
;
Structure prediction by ZEFSAII (Michael W. Deem and Ramdas Pophale) SiO2 
 PCOD8192379
Probable space group: I M A 2
;
_chemical_formula_sum "Si O2"
_cell_formula_units_Z 64
_cell_length_a 9.011994
_cell_length_b 16.365481
_cell_length_c 22.231098
_cell_angle_alpha 90.000000
_cell_angle_beta 90.000000
_cell_angle_gamma 90.000000
_cell_volume 3278.767196
_symmetry_space_group_name_H-M "I M A 2"
_symmetry_group_IT_number 46
_symmetry_cell_setting 'orthorhombic'
loop_
_space_group_symop_operation_xyz
x,y,z
-x,-y,z
1/2-x,y,z
1/2+x,-y,z
1/2+x,1/2+y,1/2+z
1/2-x,1/2-y,1/2+z
-x,1/2+y,1/2+z
x,1/2-y,1/2+z
loop_
_atom_site_type_symbol
_atom_site_label
_atom_site_fract_x
_atom_site_fract_y
_atom_site_fract_z
Si Si1 0.577181 0.577706 0.352930
Si Si2 0.573581 0.416134 0.942759
Si Si3 0.580352 0.240116 0.153637
Si Si4 0.920555 0.244245 0.518666
Si Si5 0.581291 0.923563 0.187001
Si Si6 0.576106 0.787439 0.764453
Si Si7 0.573756 0.915149 0.990240
Si Si8 0.917793 0.616266 0.819691
O O1 0.500000 0.500000 0.324542
O O2 0.750000 0.567007 0.346984
O O3 0.516460 0.649848 0.312742
O O4 0.528679 0.591784 0.420929
O O5 0.500000 0.500000 0.969527
O O6 0.750000 0.425013 0.947742
O O7 0.528148 0.411551 0.872446
O O8 0.520685 0.333101 0.978312
O O9 0.750000 0.221054 0.169164
O O10 0.564753 0.281996 0.088382
O O11 0.491201 0.156316 0.159328
O O12 0.512222 0.302143 0.202536
O O13 0.750000 0.262551 0.501225
O O14 0.011332 0.329347 0.515321
O O15 0.750000 0.921662 0.165340
O O16 0.570534 0.937115 0.259148
O O17 0.500000 0.000000 0.156134
O O18 0.750000 0.792426 0.749889
O O19 0.533433 0.704193 0.796762
O O20 0.750000 0.919406 0.001574
O O21 0.500000 0.000000 0.016069
O O22 0.750000 0.615186 0.845802
#
# Coordination Sequence:
#
# PCOD8192379 Si02
#       8
#     8   8   8   8   8   8   8   8
#     4   9  18  32  51  78 109 137 168 211 262 317
#     4  11  23  38  57  81 109 142 183 229 276 326
#     4  10  21  37  55  74 100 136 179 222 264 312
#     4  10  23  41  57  77 108 145 186 232 274 317
#     4  10  20  34  53  79 110 140 171 209 257 314
#     4   9  18  34  54  77 106 137 172 215 263 316
#     4  10  20  35  58  86 115 147 181 218 266 325
#     4   9  18  33  54  80 109 138 170 212 263 321
#
# _framework density 19.519532000000002
#
# number of rings (size 3 to 8) (size 9 to 14) (size 15 to 20)
#    0.000    2.250    0.000    3.375    0.000    8.000 
#    0.000    0.625    0.000    3.000    0.000    0.000 
#    0.000    0.000    0.000    0.000    0.000    0.000 
#
# Total GULP energy -396511.627497 kJ/mol
# GULP energy per Si atom -12390.988359 kJ/mol
# Density = 1.947511 g / cm^3
# Si number density = 19.519532 Si / 1000 Ang^3
#
#
#
# Elastic Constant Matrix: (Units=GPa)
#
#
# Indices 1 2 3 4 5 6 
#
# 1 77.4646 33.6028 30.3432 0.0000 0.0000 0.0000
# 2 33.6028 82.1898 27.3453 0.0000 0.0000 0.0000
# 3 30.3432 27.3453 70.8175 0.0000 0.0000 0.0000
# 4 0.0000 0.0000 0.0000 9.8035 0.0000 0.0000
# 5 0.0000 0.0000 0.0000 0.0000 30.7447 0.0000
# 6 0.0000 0.0000 0.0000 0.0000 0.0000 32.9745
#
#
#
# Elastic Compliance Matrix: (Units=1/GPa)
#
#
# Indices 1 2 3 4 5 6 
#
# 1 0.017308 -0.005288 -0.005374 0.000000 0.000000 0.000000
# 2 -0.005288 0.015576 -0.003749 0.000000 0.000000 0.000000
# 3 -0.005374 -0.003749 0.017871 0.000000 0.000000 0.000000
# 4 0.000000 0.000000 0.000000 0.102004 0.000000 0.000000
# 5 0.000000 0.000000 0.000000 0.000000 0.032526 0.000000
# 6 0.000000 0.000000 0.000000 0.000000 0.000000 0.030327
#
#
# Mechanical properties :
#
#
# Convention : Reuss Voigt Hill
#
# Bulk Modulus (GPa) = 45.59286 45.89497 45.74392
# Shear Modulus (GPa) = 19.86136 23.98323 21.92229
#
# Velocity S-wave (km/s) = 3.19331 3.50905 3.35490
# Velocity P-wave (km/s) = 6.08314 6.32308 6.20427
#
# Compressibility (1/GPa) = 0.02193326
#
# Stress axis : x y z
#
# Youngs Moduli (GPa) = 57.77632 64.20014 55.95685
#
# Poissons Ratio (x) = 0.33951 0.30071
# Poissons Ratio (y) = 0.30554 0.20977
# Poissons Ratio (z) = 0.31049 0.24067
#
# Static dielectric constant tensor:
#      x y z
#    x 3.555930 0.000000 0.000000 
#    y 0.000000 3.772080 0.000000 
#    z 0.000000 0.000000 3.702920 
# 
# 
# High freq. dielectric constant tensor:
#      x y z
#    x 1.761670 0.000000 0.000000 
#    y 0.000000 1.757810 0.000000 
#    z 0.000000 0.000000 1.754340 
# 
# From -- ./inp_files/23177.got.cif
#   From: 2010.03.12/outbox.cif.g09.slc.cpg/sg46_12_cif.got.tgz:23177.got - 2010.04.14 02:56:35.
