data_PCOD8192849
_publ_section_title
;
Structure prediction by ZEFSAII (Michael W. Deem and Ramdas Pophale) SiO2 
 PCOD8192849
Probable space group: I M A 2
;
_chemical_formula_sum "Si O2"
_cell_formula_units_Z 64
_cell_length_a 14.839990
_cell_length_b 12.195225
_cell_length_c 18.323341
_cell_angle_alpha 90.000000
_cell_angle_beta 90.000000
_cell_angle_gamma 90.000000
_cell_volume 3316.103597
_symmetry_space_group_name_H-M "I M A 2"
_symmetry_group_IT_number 46
_symmetry_cell_setting 'orthorhombic'
loop_
_space_group_symop_operation_xyz
x,y,z
-x,-y,z
1/2-x,y,z
1/2+x,-y,z
1/2+x,1/2+y,1/2+z
1/2-x,1/2-y,1/2+z
-x,1/2+y,1/2+z
x,1/2-y,1/2+z
loop_
_atom_site_type_symbol
_atom_site_label
_atom_site_fract_x
_atom_site_fract_y
_atom_site_fract_z
Si Si1 0.143323 0.024063 0.531870
Si Si2 0.643780 0.734474 0.279700
Si Si3 0.350415 0.717975 0.026196
Si Si4 0.356677 0.024063 0.693840
Si Si5 0.493431 0.124618 0.199326
Si Si6 0.143780 0.234474 0.446010
Si Si7 0.649585 0.282025 0.199514
Si Si8 0.506569 0.875382 0.026384
O O1 0.250000 0.023666 0.537879
O O2 0.110188 0.115722 0.474807
O O3 0.113149 0.903404 0.503992
O O4 0.103076 0.049436 0.612855
O O5 0.750000 0.748661 0.269969
O O6 0.610188 0.615722 0.250904
O O7 0.598506 0.828284 0.231603
O O8 0.613507 0.750000 0.362855
O O9 0.250000 0.740532 0.993730
O O10 0.344556 0.723889 0.112855
O O11 0.419969 0.808439 0.995781
O O12 0.250000 0.023665 0.687831
O O13 0.386852 0.903404 0.721718
O O14 0.580031 0.191561 0.229929
O O15 0.488004 0.133475 0.112855
O O16 0.500000 0.000000 0.225846
O O17 0.250000 0.248661 0.455741
O O18 0.098506 0.328284 0.494107
O O19 0.750000 0.259468 0.231980
O O20 0.500000 0.000000 0.999864
#
# Coordination Sequence:
#
# PCOD8192849 Si02
#       8
#     8   8   8   8   8   8   8   8
#     4   8  14  28  53  81 103 129 173 221 266 318
#     4  10  21  37  54  75 108 145 179 223 277 327
#     4   8  15  30  53  81 109 133 165 218 274 317
#     4   8  14  28  53  81 103 129 173 221 266 318
#     4  10  21  36  54  80 110 142 186 228 268 327
#     4  10  21  37  54  75 108 145 179 223 277 327
#     4   8  15  30  53  81 109 133 165 218 274 317
#     4  10  21  36  54  80 110 142 186 228 268 327
#
# _framework density 19.299759000000002
#
# number of rings (size 3 to 8) (size 9 to 14) (size 15 to 20)
#    0.000    3.000    0.000    2.250    0.000    3.500 
#    4.500    6.250    0.000    0.750    0.000    0.000 
#    0.000    0.000    0.000    0.000    0.000    0.000 
#
# Total GULP energy -396680.248974 kJ/mol
# GULP energy per Si atom -12396.257780 kJ/mol
# Density = 1.925583 g / cm^3
# Si number density = 19.299759 Si / 1000 Ang^3
#
#
#
# Elastic Constant Matrix: (Units=GPa)
#
#
# Indices 1 2 3 4 5 6 
#
# 1 63.5049 58.4496 28.9072 0.0000 0.0000 0.0000
# 2 58.4496 188.0411 59.1401 0.0000 0.0000 0.0000
# 3 28.9072 59.1401 47.5895 0.0000 0.0000 0.0000
# 4 0.0000 0.0000 0.0000 0.0865 0.0000 0.0000
# 5 0.0000 0.0000 0.0000 0.0000 16.5248 0.0000
# 6 0.0000 0.0000 0.0000 0.0000 0.0000 32.9767
#
#
#
# Elastic Compliance Matrix: (Units=1/GPa)
#
#
# Indices 1 2 3 4 5 6 
#
# 1 0.024087 -0.004737 -0.008745 0.000000 0.000000 0.000000
# 2 -0.004737 0.009662 -0.009129 0.000000 0.000000 0.000000
# 3 -0.008745 -0.009129 0.037670 0.000001 0.000000 0.000000
# 4 0.000000 0.000000 0.000001 11.554592 0.000000 0.000000
# 5 0.000000 0.000000 0.000000 0.000000 0.060515 0.000000
# 6 0.000000 0.000000 0.000000 0.000000 0.000000 0.030324
#
#
# Mechanical properties :
#
#
# Convention : Reuss Voigt Hill
#
# Bulk Modulus (GPa) = 38.17231 65.79213 51.98222
# Shear Modulus (GPa) = 0.42478 20.09352 10.25915
#
# Velocity S-wave (km/s) = 0.46965 3.23015 2.30808
# Velocity P-wave (km/s) = 4.48505 6.93365 5.83914
#
# Compressibility (1/GPa) = 0.02619700
#
# Stress axis : x y z
#
# Youngs Moduli (GPa) = 41.51591 103.50288 26.54644
#
# Poissons Ratio (x) = 0.49028 0.23214
# Poissons Ratio (y) = 0.19665 0.24235
# Poissons Ratio (z) = 0.36304 0.94490
#
# Static dielectric constant tensor:
#      x y z
#    x 3.537140 0.000000 0.000000 
#    y 0.000000 3.888750 0.000000 
#    z 0.000000 0.000000 3.253900 
# 
# 
# High freq. dielectric constant tensor:
#      x y z
#    x 1.748830 0.000000 0.000000 
#    y 0.000000 1.758470 0.000000 
#    z 0.000000 0.000000 1.708150 
# 
# From -- ./inp_files/19653.got.cif
#   From: 2010.03.12/outbox.cif.g09.slc.cpg/sg46_10_cif.got.tgz:19653.got - 2010.04.14 02:56:35.
