data_PCOD8192816
_publ_section_title
;
Structure prediction by ZEFSAII (Michael W. Deem and Ramdas Pophale) SiO2 
 PCOD8192816
Probable space group: I M A 2
;
_chemical_formula_sum "Si O2"
_cell_formula_units_Z 32
_cell_length_a 20.203962
_cell_length_b 10.933942
_cell_length_c 5.275443
_cell_angle_alpha 90.000000
_cell_angle_beta 90.000000
_cell_angle_gamma 90.000000
_cell_volume 1165.392567
_symmetry_space_group_name_H-M "I M A 2"
_symmetry_group_IT_number 46
_symmetry_cell_setting 'orthorhombic'
loop_
_space_group_symop_operation_xyz
x,y,z
-x,-y,z
1/2-x,y,z
1/2+x,-y,z
1/2+x,1/2+y,1/2+z
1/2-x,1/2-y,1/2+z
-x,1/2+y,1/2+z
x,1/2-y,1/2+z
loop_
_atom_site_type_symbol
_atom_site_label
_atom_site_fract_x
_atom_site_fract_y
_atom_site_fract_z
Si Si1 0.383488 0.115865 0.670660
Si Si2 0.827430 0.886121 0.168445
Si Si3 0.500000 0.000000 0.922708
Si Si4 0.250000 0.672479 0.646855
Si Si5 0.106006 0.831864 0.153420
O O1 0.364519 0.047600 0.406263
O O2 0.364308 0.256244 0.622975
O O3 0.460849 0.094942 0.740355
O O4 0.340405 0.051587 0.894036
O O5 0.750000 0.870552 0.228653
O O6 0.450835 0.930583 0.113602
O O7 0.250000 0.743888 0.905698
O O8 0.320009 0.598695 0.643466
O O9 0.100031 0.733937 0.924425
#
# Coordination Sequence:
#
# PCOD8192816 Si02
#       5
#     8   8   4   4   8
#     4  10  22  36  62  94 132 167 213 260 321 406
#     4  10  20  42  68  92 128 171 214 275 338 386
#     4  12  28  42  68 106 136 180 222 262 348 410
#     4   8  16  40  66  92 118 174 226 270 320 366
#     4  10  24  44  72  93 135 174 221 279 326 388
#
# _framework density 27.458561
#
# number of rings (size 3 to 8) (size 9 to 14) (size 15 to 20)
#    0.000    2.000    0.000    3.750    7.000    4.000 
#    6.750    0.000    5.500    0.000    0.000    0.000 
#    0.000    0.000    0.000    0.000    0.000    0.000 
#
# Total GULP energy -198213.267225 kJ/mol
# GULP energy per Si atom -12388.329202 kJ/mol
# Density = 2.739606 g / cm^3
# Si number density = 27.458561 Si / 1000 Ang^3
#
#
#
# Elastic Constant Matrix: (Units=GPa)
#
#
# Indices 1 2 3 4 5 6 
#
# 1 213.1144 44.9071 23.6993 0.0000 0.0000 0.0000
# 2 44.9071 57.7820 -9.4139 0.0000 0.0000 0.0000
# 3 23.6993 -9.4139 193.5679 0.0000 0.0000 0.0000
# 4 0.0000 0.0000 0.0000 28.4767 0.0000 0.0000
# 5 0.0000 0.0000 0.0000 0.0000 46.9758 0.0000
# 6 0.0000 0.0000 0.0000 0.0000 0.0000 71.1726
#
#
#
# Elastic Compliance Matrix: (Units=1/GPa)
#
#
# Indices 1 2 3 4 5 6 
#
# 1 0.005774 -0.004639 -0.000932 0.000000 0.000000 0.000000
# 2 -0.004639 0.021172 0.001598 0.000000 0.000000 0.000000
# 3 -0.000932 0.001598 0.005358 0.000000 0.000000 0.000000
# 4 0.000000 0.000000 0.000000 0.035116 0.000000 0.000000
# 5 0.000000 0.000000 0.000000 0.000000 0.021288 0.000000
# 6 0.000000 0.000000 0.000000 0.000000 0.000000 0.014050
#
#
# Mechanical properties :
#
#
# Convention : Reuss Voigt Hill
#
# Bulk Modulus (GPa) = 41.05777 64.76102 52.90939
# Shear Modulus (GPa) = 42.07893 56.34314 49.21103
#
# Velocity S-wave (km/s) = 3.91890 4.53474 4.23802
# Velocity P-wave (km/s) = 5.95501 7.14526 6.57711
#
# Compressibility (1/GPa) = 0.02435593
#
# Stress axis : x y z
#
# Youngs Moduli (GPa) = 173.20404 47.23202 186.63633
#
# Poissons Ratio (x) = 0.21911 0.17404
# Poissons Ratio (y) = 0.80350 -0.29818
# Poissons Ratio (z) = 0.16151 -0.07546
#
# Static dielectric constant tensor:
#      x y z
#    x 5.716910 0.000000 0.000000 
#    y 0.000000 -2.934030 0.000000 
#    z 0.000000 0.000000 6.131700 
# 
# 
# High freq. dielectric constant tensor:
#      x y z
#    x 2.114750 0.000000 0.000000 
#    y 0.000000 2.118490 0.000000 
#    z 0.000000 0.000000 2.148780 
# 
# From -- ./inp_files/1552.got.cif
#   From: 2010.03.12/outbox.cif.g09.slc.cpg/sg46_1_cif.got.tgz:1552.got - 2010.04.14 02:56:35.
