data_PCOD8192241
_publ_section_title
;
Structure prediction by ZEFSAII (Michael W. Deem and Ramdas Pophale) SiO2 
 PCOD8192241
Probable space group: I M A 2
;
_chemical_formula_sum "Si O2"
_cell_formula_units_Z 64
_cell_length_a 17.198401
_cell_length_b 13.012285
_cell_length_c 13.679107
_cell_angle_alpha 90.000000
_cell_angle_beta 90.000000
_cell_angle_gamma 90.000000
_cell_volume 3061.254132
_symmetry_space_group_name_H-M "I M A 2"
_symmetry_group_IT_number 46
_symmetry_cell_setting 'orthorhombic'
loop_
_space_group_symop_operation_xyz
x,y,z
-x,-y,z
1/2-x,y,z
1/2+x,-y,z
1/2+x,1/2+y,1/2+z
1/2-x,1/2-y,1/2+z
-x,1/2+y,1/2+z
x,1/2-y,1/2+z
loop_
_atom_site_type_symbol
_atom_site_label
_atom_site_fract_x
_atom_site_fract_y
_atom_site_fract_z
Si Si1 0.660486 0.391126 0.407930
Si Si2 0.659728 0.408706 0.624213
Si Si3 0.016102 0.119077 0.457868
Si Si4 0.164546 0.259263 0.920266
Si Si5 0.839037 0.922977 0.778516
Si Si6 0.454945 0.313223 0.167270
Si Si7 0.662820 0.648410 0.620893
Si Si8 0.081857 0.723224 0.793137
O O1 0.750000 0.414926 0.425537
O O2 0.624520 0.379014 0.517062
O O3 0.626906 0.489717 0.350142
O O4 0.649906 0.289538 0.342997
O O5 0.750000 0.377980 0.633193
O O6 0.646556 0.529191 0.638797
O O7 0.612877 0.349288 0.707496
O O8 0.103530 0.146954 0.422505
O O9 0.003949 0.174059 0.562426
O O10 0.954508 0.157143 0.379420
O O11 0.000000 0.000000 0.470950
O O12 0.250000 0.311134 0.922607
O O13 0.154459 0.189969 0.825094
O O14 0.155520 0.177764 0.007612
O O15 0.750000 0.947505 0.745434
O O16 0.897801 0.912167 0.686004
O O17 0.403410 0.210015 0.177493
O O18 0.520662 0.304729 0.249756
O O19 0.750000 0.676406 0.658953
#
# Coordination Sequence:
#
# PCOD8192241 Si02
#       8
#     8   8   8   8   8   8   8   8
#     4  10  22  42  66  93 125 160 213 272 315 378
#     4  10  21  40  68  94 120 162 215 269 317 375
#     4  11  26  44  59  90 138 171 206 261 317 383
#     4   9  17  38  67  95 121 157 207 265 321 370
#     4  10  19  37  68  98 122 158 211 268 319 371
#     4  11  24  39  62  91 129 171 205 256 316 378
#     4   9  18  36  63  93 121 153 204 263 313 364
#     4  12  25  40  62  89 128 174 211 252 320 389
#
# _framework density 20.906465000000001
#
# number of rings (size 3 to 8) (size 9 to 14) (size 15 to 20)
#    0.000    1.750    2.500    1.500    3.500    0.500 
#    0.000    2.500    0.000    0.000    0.000    0.000 
#    0.000    0.000    0.000    0.000    0.000    0.000 
#
# Total GULP energy -396672.369639 kJ/mol
# GULP energy per Si atom -12396.011551 kJ/mol
# Density = 2.085888 g / cm^3
# Si number density = 20.906465 Si / 1000 Ang^3
#
#
#
# Elastic Constant Matrix: (Units=GPa)
#
#
# Indices 1 2 3 4 5 6 
#
# 1 65.6825 41.7242 35.1507 0.0000 0.0000 0.0000
# 2 41.7242 105.9569 44.5826 0.0000 0.0000 0.0000
# 3 35.1507 44.5826 120.6037 0.0000 0.0000 0.0000
# 4 0.0000 0.0000 0.0000 31.7920 0.0000 0.0000
# 5 0.0000 0.0000 0.0000 0.0000 31.4023 0.0000
# 6 0.0000 0.0000 0.0000 0.0000 0.0000 22.0657
#
#
#
# Elastic Compliance Matrix: (Units=1/GPa)
#
#
# Indices 1 2 3 4 5 6 
#
# 1 0.021639 -0.006948 -0.003738 0.000000 0.000000 0.000000
# 2 -0.006948 0.013407 -0.002931 0.000000 0.000000 0.000000
# 3 -0.003738 -0.002931 0.010465 0.000000 0.000000 0.000000
# 4 0.000000 0.000000 0.000000 0.031454 0.000000 0.000000
# 5 0.000000 0.000000 0.000000 0.000000 0.031845 0.000000
# 6 0.000000 0.000000 0.000000 0.000000 0.000000 0.045319
#
#
# Mechanical properties :
#
#
# Convention : Reuss Voigt Hill
#
# Bulk Modulus (GPa) = 54.71718 59.46201 57.08960
# Shear Modulus (GPa) = 26.67282 28.43769 27.55526
#
# Velocity S-wave (km/s) = 3.57573 3.69214 3.63440
# Velocity P-wave (km/s) = 6.57853 6.83224 6.70658
#
# Compressibility (1/GPa) = 0.01827580
#
# Stress axis : x y z
#
# Youngs Moduli (GPa) = 46.21247 74.58693 95.55949
#
# Poissons Ratio (x) = 0.51825 0.35724
# Poissons Ratio (y) = 0.32109 0.28009
# Poissons Ratio (z) = 0.17276 0.21862
#
# Static dielectric constant tensor:
#      x y z
#    x 3.832470 0.000000 0.000000 
#    y 0.000000 3.540300 0.000000 
#    z 0.000000 0.000000 3.923680 
# 
# 
# High freq. dielectric constant tensor:
#      x y z
#    x 1.812350 0.000000 0.000000 
#    y 0.000000 1.803010 0.000000 
#    z 0.000000 0.000000 1.830360 
# 
# From -- ./inp_files/16746.got.cif
#   From: 2010.03.12/outbox.cif.g09.slc.cpg/sg46_9_cif.got.tgz:16746.got - 2010.04.14 02:56:35.
