data_PCOD8192718
_publ_section_title
;
Structure prediction by ZEFSAII (Michael W. Deem and Ramdas Pophale) SiO2 
 PCOD8192718
Probable space group: I M A 2
;
_chemical_formula_sum "Si O2"
_cell_formula_units_Z 48
_cell_length_a 10.027122
_cell_length_b 8.825008
_cell_length_c 28.409666
_cell_angle_alpha 90.000000
_cell_angle_beta 90.000000
_cell_angle_gamma 90.000000
_cell_volume 2513.955204
_symmetry_space_group_name_H-M "I M A 2"
_symmetry_group_IT_number 46
_symmetry_cell_setting 'orthorhombic'
loop_
_space_group_symop_operation_xyz
x,y,z
-x,-y,z
1/2-x,y,z
1/2+x,-y,z
1/2+x,1/2+y,1/2+z
1/2-x,1/2-y,1/2+z
-x,1/2+y,1/2+z
x,1/2-y,1/2+z
loop_
_atom_site_type_symbol
_atom_site_label
_atom_site_fract_x
_atom_site_fract_y
_atom_site_fract_z
Si Si1 0.096899 0.859296 0.759020
Si Si2 0.007735 0.681847 0.356532
Si Si3 0.502210 0.323977 0.568274
Si Si4 0.906353 0.354423 0.155898
Si Si5 0.750000 0.177500 0.007112
Si Si6 0.250000 0.179901 0.006925
Si Si7 0.750000 0.177917 0.409673
Si Si8 0.250000 0.319532 0.903260
O O1 0.250000 0.910211 0.769360
O O2 0.043151 0.760839 0.803306
O O3 0.089979 0.776257 0.708109
O O4 0.000000 0.000000 0.755425
O O5 0.120885 0.739871 0.390551
O O6 0.000000 0.500000 0.358576
O O7 0.873560 0.755468 0.374618
O O8 0.500000 0.500000 0.577638
O O9 0.519813 0.254258 0.619585
O O10 0.623681 0.273774 0.536627
O O11 0.373285 0.270572 0.539394
O O12 0.750000 0.389180 0.142984
O O13 0.000000 0.500000 0.155975
O O14 0.750000 0.292017 0.964482
O O15 0.750000 0.998872 0.994046
O O16 0.250000 0.268937 0.957718
O O17 0.750000 0.000036 0.399653
#
# Coordination Sequence:
#
# PCOD8192718 Si02
#       8
#     8   8   8   8   4   4   4   4
#     4   9  19  36  62  91 119 155 207 256 292 352
#     4  11  22  40  65  89 117 164 212 245 295 369
#     4  10  21  38  60  87 117 158 201 247 295 356
#     4  10  21  38  61  91 124 157 198 251 305 355
#     4  10  20  38  61  82 113 163 208 247 293 364
#     4  10  22  38  59  86 119 157 212 245 289 370
#     4  12  24  40  61  90 127 153 198 261 317 362
#     4  12  26  40  59  94 127 159 194 261 317 358
#
# _framework density 19.093420999999999
#
# number of rings (size 3 to 8) (size 9 to 14) (size 15 to 20)
#    0.000    1.667    1.667    3.000    4.667    2.667 
#    0.000    1.667    0.000    0.000    0.000    0.000 
#    0.000    0.000    0.000    0.000    0.000    0.000 
#
# Total GULP energy -297388.357792 kJ/mol
# GULP energy per Si atom -12391.181575 kJ/mol
# Density = 1.904996 g / cm^3
# Si number density = 19.093421 Si / 1000 Ang^3
#
#
#
# Elastic Constant Matrix: (Units=GPa)
#
#
# Indices 1 2 3 4 5 6 
#
# 1 171.6892 40.3250 81.5730 0.0000 0.0000 0.0000
# 2 40.3250 72.6938 53.8354 0.0000 0.0000 0.0000
# 3 81.5730 53.8354 175.8824 0.0000 0.0000 0.0000
# 4 0.0000 0.0000 0.0000 24.6248 0.0000 0.0000
# 5 0.0000 0.0000 0.0000 0.0000 55.3744 0.0000
# 6 0.0000 0.0000 0.0000 0.0000 0.0000 17.8672
#
#
#
# Elastic Compliance Matrix: (Units=1/GPa)
#
#
# Indices 1 2 3 4 5 6 
#
# 1 0.007712 -0.002107 -0.002932 0.000000 0.000000 0.000000
# 2 -0.002107 0.018364 -0.004644 0.000000 0.000000 0.000000
# 3 -0.002932 -0.004644 0.008467 0.000000 0.000000 0.000000
# 4 0.000000 0.000000 0.000000 0.040610 0.000000 0.000000
# 5 0.000000 0.000000 0.000000 0.000000 0.018059 0.000000
# 6 0.000000 0.000000 0.000000 0.000000 0.000000 0.055969
#
#
# Mechanical properties :
#
#
# Convention : Reuss Voigt Hill
#
# Bulk Modulus (GPa) = 65.88523 85.74802 75.81662
# Shear Modulus (GPa) = 28.80093 35.87540 32.33817
#
# Velocity S-wave (km/s) = 3.88805 4.33938 4.11990
# Velocity P-wave (km/s) = 7.39849 8.37342 7.90101
#
# Compressibility (1/GPa) = 0.01517791
#
# Stress axis : x y z
#
# Youngs Moduli (GPa) = 129.66128 54.45366 118.10634
#
# Poissons Ratio (x) = 0.11472 0.34630
# Poissons Ratio (y) = 0.27317 0.54848
# Poissons Ratio (z) = 0.38018 0.25288
#
# Static dielectric constant tensor:
#      x y z
#    x 3.536720 0.000000 0.000000 
#    y 0.000000 3.265130 0.000000 
#    z 0.000000 0.000000 4.143060 
# 
# 
# High freq. dielectric constant tensor:
#      x y z
#    x 1.768460 0.000000 0.000000 
#    y 0.000000 1.705470 0.000000 
#    z 0.000000 0.000000 1.768130 
# 
# From -- ./inp_files/25083.got.cif
#   From: 2010.03.12/outbox.cif.g09.slc.cpg/sg46_13_cif.got.tgz:25083.got - 2010.04.14 02:56:35.
