data_PCOD8192606
_publ_section_title
;
Structure prediction by ZEFSAII (Michael W. Deem and Ramdas Pophale) SiO2 
 PCOD8192606
Probable space group: I M A 2
;
_chemical_formula_sum "Si O2"
_cell_formula_units_Z 48
_cell_length_a 30.144594
_cell_length_b 14.518479
_cell_length_c 5.011798
_cell_angle_alpha 90.000000
_cell_angle_beta 90.000000
_cell_angle_gamma 90.000000
_cell_volume 2193.431713
_symmetry_space_group_name_H-M "I M A 2"
_symmetry_group_IT_number 46
_symmetry_cell_setting 'orthorhombic'
loop_
_space_group_symop_operation_xyz
x,y,z
-x,-y,z
1/2-x,y,z
1/2+x,-y,z
1/2+x,1/2+y,1/2+z
1/2-x,1/2-y,1/2+z
-x,1/2+y,1/2+z
x,1/2-y,1/2+z
loop_
_atom_site_type_symbol
_atom_site_label
_atom_site_fract_x
_atom_site_fract_y
_atom_site_fract_z
Si Si1 0.531254 0.809784 0.186590
Si Si2 0.092643 0.523241 0.172615
Si Si3 0.000000 0.000000 0.403719
Si Si4 0.700910 0.689425 0.627871
Si Si5 0.155356 0.811162 0.607178
Si Si6 0.116060 0.414328 0.678512
Si Si7 0.250000 0.809575 0.718414
O O1 0.516724 0.735545 0.408627
O O2 0.584514 0.824369 0.193757
O O3 0.508415 0.909691 0.221875
O O4 0.095031 0.487141 0.473907
O O5 0.113800 0.623973 0.165007
O O6 0.119965 0.458539 0.970799
O O7 0.041325 0.523379 0.091914
O O8 0.750000 0.646209 0.590963
O O9 0.694092 0.773569 0.425895
O O10 0.664903 0.610776 0.575806
O O11 0.152295 0.723693 0.804150
O O12 0.203481 0.862612 0.653542
O O13 0.250000 0.781478 0.028875
#
# Coordination Sequence:
#
# PCOD8192606 Si02
#       7
#     8   8   4   8   8   8   4
#     4  11  23  40  66  91 119 168 212 253 325 386
#     4  11  24  40  61  86 124 168 197 266 328 365
#     4  10  26  44  62  94 134 158 216 284 316 378
#     4  10  20  36  60  87 119 157 197 247 301 358
#     4  10  20  38  61  87 117 158 208 255 313 387
#     4  11  22  40  59  89 125 158 209 252 308 381
#     4   8  16  32  56  82 112 146 192 250 304 370
#
# _framework density 21.883517999999999
#
# number of rings (size 3 to 8) (size 9 to 14) (size 15 to 20)
#    0.000    1.667    0.000    5.000    0.000    7.333 
#    3.000    0.000    0.000    0.000    0.000    0.000 
#    0.000    0.000    0.000    0.000    0.000    0.000 
#
# Total GULP energy -297577.715375 kJ/mol
# GULP energy per Si atom -12399.071474 kJ/mol
# Density = 2.183371 g / cm^3
# Si number density = 21.883518 Si / 1000 Ang^3
#
#
#
# Elastic Constant Matrix: (Units=GPa)
#
#
# Indices 1 2 3 4 5 6 
#
# 1 152.2401 50.2601 11.3332 0.0001 -0.0003 0.0003
# 2 50.2601 79.2291 12.7843 0.0000 0.0001 0.0007
# 3 11.3332 12.7843 81.3537 -0.0014 -0.0006 -0.0013
# 4 0.0001 0.0000 -0.0014 30.3038 0.0001 -0.0001
# 5 -0.0003 0.0001 -0.0006 0.0001 24.4205 -0.0001
# 6 0.0003 0.0007 -0.0013 -0.0001 -0.0001 30.9603
#
#
#
# Elastic Compliance Matrix: (Units=1/GPa)
#
#
# Indices 1 2 3 4 5 6 
#
# 1 0.008318 -0.005222 -0.000338 0.000000 0.000000 0.000000
# 2 -0.005222 0.016228 -0.001823 0.000000 0.000000 0.000000
# 3 -0.000338 -0.001823 0.012626 0.000001 0.000000 0.000001
# 4 0.000000 0.000000 0.000001 0.032999 0.000000 0.000000
# 5 0.000000 0.000000 0.000000 0.000000 0.040949 0.000000
# 6 0.000000 0.000000 0.000001 0.000000 0.000000 0.032299
#
#
# Mechanical properties :
#
#
# Convention : Reuss Voigt Hill
#
# Bulk Modulus (GPa) = 44.63081 51.28643 47.95862
# Shear Modulus (GPa) = 30.18351 33.03329 31.60840
#
# Velocity S-wave (km/s) = 3.71790 3.88945 3.80464
# Velocity P-wave (km/s) = 6.23453 6.60738 6.42366
#
# Compressibility (1/GPa) = 0.02240604
#
# Stress axis : x y z
#
# Youngs Moduli (GPa) = 120.22593 61.62077 79.20448
#
# Poissons Ratio (x) = 0.32178 0.02678
# Poissons Ratio (y) = 0.62780 0.14437
# Poissons Ratio (z) = 0.04065 0.11232
#
# Static dielectric constant tensor:
#      x y z
#    x 4.204740 0.000000 0.000000 
#    y 0.000000 3.540400 0.000000 
#    z 0.000000 0.000000 3.987350 
# 
# 
# High freq. dielectric constant tensor:
#      x y z
#    x 1.872030 0.000000 0.000000 
#    y 0.000000 1.822100 0.000000 
#    z 0.000000 0.000000 1.878150 
# 
# From -- ./inp_files/2715.got.cif
#   From: 2010.03.12/outbox.cif.g09.slc.cpg/sg46_2_cif.got.tgz:2715.got - 2010.04.14 02:56:35.
