data_PCOD8192423
_publ_section_title
;
Structure prediction by ZEFSAII (Michael W. Deem and Ramdas Pophale) SiO2 
 PCOD8192423
Probable space group: I M A 2
;
_chemical_formula_sum "Si O2"
_cell_formula_units_Z 56
_cell_length_a 15.200816
_cell_length_b 10.497364
_cell_length_c 17.183846
_cell_angle_alpha 90.000000
_cell_angle_beta 90.000000
_cell_angle_gamma 90.000000
_cell_volume 2742.000507
_symmetry_space_group_name_H-M "I M A 2"
_symmetry_group_IT_number 46
_symmetry_cell_setting 'orthorhombic'
loop_
_space_group_symop_operation_xyz
x,y,z
-x,-y,z
1/2-x,y,z
1/2+x,-y,z
1/2+x,1/2+y,1/2+z
1/2-x,1/2-y,1/2+z
-x,1/2+y,1/2+z
x,1/2-y,1/2+z
loop_
_atom_site_type_symbol
_atom_site_label
_atom_site_fract_x
_atom_site_fract_y
_atom_site_fract_z
Si Si1 0.489994 0.648377 0.234660
Si Si2 0.654857 0.687316 0.036618
Si Si3 0.152273 0.813265 0.298277
Si Si4 0.154739 0.266537 0.697737
Si Si5 0.532565 0.259712 0.564251
Si Si6 0.095159 0.555428 0.951401
Si Si7 0.850576 0.458675 0.639034
O O1 0.500000 0.500000 0.247738
O O2 0.415615 0.695785 0.294668
O O3 0.581158 0.721470 0.259168
O O4 0.470478 0.681248 0.144982
O O5 0.750000 0.753644 0.013058
O O6 0.652180 0.553681 0.992310
O O7 0.660193 0.659573 0.129798
O O8 0.565272 0.771623 0.024256
O O9 0.250000 0.754816 0.299687
O O10 0.140063 0.905115 0.371298
O O11 0.136340 0.898012 0.222962
O O12 0.250000 0.285871 0.739289
O O13 0.124906 0.393415 0.650417
O O14 0.593387 0.178274 0.506844
O O15 0.580868 0.395474 0.577928
O O16 0.000000 0.500000 0.932841
O O17 0.750000 0.442252 0.609278
#
# Coordination Sequence:
#
# PCOD8192423 Si02
#       7
#     8   8   8   8   8   8   8
#     4  10  20  35  58  81 113 148 190 237 289 342
#     4   9  17  30  50  78 109 140 178 226 277 333
#     4  10  22  36  55  83 116 153 191 237 291 348
#     4   9  18  33  57  86 113 144 186 234 289 338
#     4   9  18  33  54  83 108 142 187 234 280 334
#     4  10  20  34  56  82 113 150 194 234 287 341
#     4   9  19  34  54  84 115 146 191 237 284 337
#
# _framework density 20.423045999999999
#
# number of rings (size 3 to 8) (size 9 to 14) (size 15 to 20)
#    0.000    2.571    0.000    2.571    2.000    6.286 
#    0.000    5.714    9.429    0.000    0.000    0.000 
#    0.000    0.000    0.000    0.000    0.000    0.000 
#
# Total GULP energy -346872.083706 kJ/mol
# GULP energy per Si atom -12388.288704 kJ/mol
# Density = 2.037656 g / cm^3
# Si number density = 20.423046 Si / 1000 Ang^3
#
#
#
# Elastic Constant Matrix: (Units=GPa)
#
#
# Indices 1 2 3 4 5 6 
#
# 1 165.9465 77.2992 38.5384 0.0000 0.0000 0.0000
# 2 77.2992 112.9409 34.3654 0.0000 0.0000 0.0000
# 3 38.5384 34.3654 43.1399 0.0000 0.0000 0.0000
# 4 0.0000 0.0000 0.0000 13.2969 0.0000 0.0000
# 5 0.0000 0.0000 0.0000 0.0000 19.8556 0.0000
# 6 0.0000 0.0000 0.0000 0.0000 0.0000 26.6775
#
#
#
# Elastic Compliance Matrix: (Units=1/GPa)
#
#
# Indices 1 2 3 4 5 6 
#
# 1 0.009421 -0.005131 -0.004329 0.000000 0.000000 0.000000
# 2 -0.005131 0.014481 -0.006952 0.000000 0.000000 0.000000
# 3 -0.004329 -0.006952 0.032586 0.000000 0.000000 0.000000
# 4 0.000000 0.000000 0.000000 0.075206 0.000000 0.000000
# 5 0.000000 0.000000 0.000000 0.000000 0.050364 0.000000
# 6 0.000000 0.000000 0.000000 0.000000 0.000000 0.037485
#
#
# Mechanical properties :
#
#
# Convention : Reuss Voigt Hill
#
# Bulk Modulus (GPa) = 42.25816 69.15925 55.70871
# Shear Modulus (GPa) = 19.21186 23.42092 21.31639
#
# Velocity S-wave (km/s) = 3.07040 3.39010 3.23420
# Velocity P-wave (km/s) = 5.77115 7.01859 6.42521
#
# Compressibility (1/GPa) = 0.02366407
#
# Stress axis : x y z
#
# Youngs Moduli (GPa) = 106.14039 69.05429 30.68802
#
# Poissons Ratio (x) = 0.35432 0.13285
# Poissons Ratio (y) = 0.54461 0.21335
# Poissons Ratio (z) = 0.45950 0.48008
#
# Static dielectric constant tensor:
#      x y z
#    x 4.279090 0.000000 0.000000 
#    y 0.000000 3.596660 0.000000 
#    z 0.000000 0.000000 3.346600 
# 
# 
# High freq. dielectric constant tensor:
#      x y z
#    x 1.824600 0.000000 0.000000 
#    y 0.000000 1.778470 0.000000 
#    z 0.000000 0.000000 1.753320 
# 
# From -- ./inp_files/15963.got.cif
#   From: 2010.03.12/outbox.cif.g09.slc.cpg/sg46_8_cif.got.tgz:15963.got - 2010.04.14 02:56:35.
