data_PCOD8192480
_publ_section_title
;
Structure prediction by ZEFSAII (Michael W. Deem and Ramdas Pophale) SiO2 
 PCOD8192480
Probable space group: I M A 2
;
_chemical_formula_sum "Si O2"
_cell_formula_units_Z 64
_cell_length_a 8.988374
_cell_length_b 19.137386
_cell_length_c 18.187131
_cell_angle_alpha 90.000000
_cell_angle_beta 90.000000
_cell_angle_gamma 90.000000
_cell_volume 3128.440838
_symmetry_space_group_name_H-M "I M A 2"
_symmetry_group_IT_number 46
_symmetry_cell_setting 'orthorhombic'
loop_
_space_group_symop_operation_xyz
x,y,z
-x,-y,z
1/2-x,y,z
1/2+x,-y,z
1/2+x,1/2+y,1/2+z
1/2-x,1/2-y,1/2+z
-x,1/2+y,1/2+z
x,1/2-y,1/2+z
loop_
_atom_site_type_symbol
_atom_site_label
_atom_site_fract_x
_atom_site_fract_y
_atom_site_fract_z
Si Si1 0.425004 0.927005 0.475350
Si Si2 0.426435 0.790220 0.899988
Si Si3 0.587530 0.064220 0.853114
Si Si4 0.576089 0.148614 0.329120
Si Si5 0.423512 0.805406 0.069195
Si Si6 0.424745 0.924415 0.181189
Si Si7 0.914227 0.064423 0.683050
Si Si8 0.925543 0.831219 0.595317
O O1 0.250000 0.930992 0.490243
O O2 0.458309 0.909525 0.390486
O O3 0.492814 0.865445 0.525164
O O4 0.500000 0.000000 0.495499
O O5 0.250000 0.785060 0.892627
O O6 0.490736 0.860596 0.862387
O O7 0.495555 0.722407 0.858159
O O8 0.472949 0.799855 0.984558
O O9 0.750000 0.066328 0.891307
O O10 0.605063 0.048618 0.767923
O O11 0.500000 0.000000 0.890900
O O12 0.750000 0.161380 0.319068
O O13 0.511732 0.119910 0.251467
O O14 0.250000 0.787118 0.079559
O O15 0.458401 0.880467 0.106627
O O16 0.524951 0.748111 0.108867
O O17 0.250000 0.937130 0.191544
O O18 0.500000 0.000000 0.175094
O O19 0.750000 0.072748 0.646980
O O20 0.016293 0.131579 0.669226
O O21 0.000000 0.000000 0.644308
O O22 0.750000 0.837778 0.586202
#
# Coordination Sequence:
#
# PCOD8192480 Si02
#       8
#     8   8   8   8   8   8   8   8
#     4  11  21  36  58  83 114 153 192 237 289 351
#     4   9  17  34  59  86 112 148 196 243 286 342
#     4   9  19  34  57  83 112 147 187 234 283 340
#     4   9  18  34  59  87 116 150 195 244 289 347
#     4  10  21  39  62  85 113 154 200 238 285 346
#     4  10  22  39  63  91 120 157 200 246 297 355
#     4  10  20  35  55  80 111 149 188 229 276 337
#     4  12  24  37  54  81 116 151 189 239 291 345
#
# _framework density 20.457474999999999
#
# number of rings (size 3 to 8) (size 9 to 14) (size 15 to 20)
#    0.000    2.000    1.250    2.625    1.750    1.500 
#    0.000    1.250    0.000    0.000    0.000    0.000 
#    0.000    0.000    0.000    0.000    0.000    0.000 
#
# Total GULP energy -396567.627112 kJ/mol
# GULP energy per Si atom -12392.738347 kJ/mol
# Density = 2.041091 g / cm^3
# Si number density = 20.457475 Si / 1000 Ang^3
#
#
#
# Elastic Constant Matrix: (Units=GPa)
#
#
# Indices 1 2 3 4 5 6 
#
# 1 92.8890 53.8698 20.2785 0.0000 0.0000 0.0000
# 2 53.8698 172.5341 50.8609 0.0000 0.0000 0.0000
# 3 20.2785 50.8609 63.5979 0.0000 0.0000 0.0000
# 4 0.0000 0.0000 0.0000 24.7876 0.0000 0.0000
# 5 0.0000 0.0000 0.0000 0.0000 12.6766 0.0000
# 6 0.0000 0.0000 0.0000 0.0000 0.0000 35.3393
#
#
#
# Elastic Compliance Matrix: (Units=1/GPa)
#
#
# Indices 1 2 3 4 5 6 
#
# 1 0.013215 -0.003774 -0.001196 0.000000 0.000000 0.000000
# 2 -0.003774 0.008661 -0.005724 0.000000 0.000000 0.000000
# 3 -0.001196 -0.005724 0.020682 0.000000 0.000000 0.000000
# 4 0.000000 0.000000 0.000000 0.040343 0.000000 0.000000
# 5 0.000000 0.000000 0.000000 0.000000 0.078885 0.000000
# 6 0.000000 0.000000 0.000000 0.000000 0.000000 0.028297
#
#
# Mechanical properties :
#
#
# Convention : Reuss Voigt Hill
#
# Bulk Modulus (GPa) = 47.23022 64.33771 55.78397
# Shear Modulus (GPa) = 22.88042 28.16149 25.52095
#
# Velocity S-wave (km/s) = 3.34793 3.71426 3.53585
# Velocity P-wave (km/s) = 6.17106 7.06485 6.63303
#
# Compressibility (1/GPa) = 0.02117288
#
# Stress axis : x y z
#
# Youngs Moduli (GPa) = 75.67139 115.45495 48.35038
#
# Poissons Ratio (x) = 0.43568 0.05782
# Poissons Ratio (y) = 0.28555 0.27673
# Poissons Ratio (z) = 0.09049 0.66081
#
# Static dielectric constant tensor:
#      x y z
#    x 3.601870 0.000000 0.000000 
#    y 0.000000 3.949800 0.000000 
#    z 0.000000 0.000000 3.688340 
# 
# 
# High freq. dielectric constant tensor:
#      x y z
#    x 1.765530 0.000000 0.000000 
#    y 0.000000 1.811980 0.000000 
#    z 0.000000 0.000000 1.796010 
# 
# From -- ./inp_files/21282.got.cif
#   From: 2010.03.12/outbox.cif.g09.slc.cpg/sg46_11_cif.got.tgz:21282.got - 2010.04.14 02:56:35.
