data_PCOD8192202
_publ_section_title
;
Structure prediction by ZEFSAII (Michael W. Deem and Ramdas Pophale) SiO2 
 PCOD8192202
Probable space group: I M A 2
;
_chemical_formula_sum "Si O2"
_cell_formula_units_Z 32
_cell_length_a 16.317581
_cell_length_b 4.984325
_cell_length_c 17.516025
_cell_angle_alpha 90.000000
_cell_angle_beta 90.000000
_cell_angle_gamma 90.000000
_cell_volume 1424.615568
_symmetry_space_group_name_H-M "I M A 2"
_symmetry_group_IT_number 46
_symmetry_cell_setting 'orthorhombic'
loop_
_space_group_symop_operation_xyz
x,y,z
-x,-y,z
1/2-x,y,z
1/2+x,-y,z
1/2+x,1/2+y,1/2+z
1/2-x,1/2-y,1/2+z
-x,1/2+y,1/2+z
x,1/2-y,1/2+z
loop_
_atom_site_type_symbol
_atom_site_label
_atom_site_fract_x
_atom_site_fract_y
_atom_site_fract_z
Si Si1 0.344367 0.375040 0.282730
Si Si2 0.345476 0.695270 0.540289
Si Si3 0.344871 0.318658 0.943494
Si Si4 0.090223 0.613089 0.703348
O O1 0.250000 0.466189 0.291600
O O2 0.383659 0.266605 0.362394
O O3 0.396092 0.635766 0.259306
O O4 0.348744 0.133663 0.221431
O O5 0.250000 0.756390 0.556998
O O6 0.360057 0.402593 0.507459
O O7 0.395487 0.720953 0.618215
O O8 0.381524 0.906773 0.478399
O O9 0.250000 0.365761 0.926230
O O10 0.000000 0.500000 0.714843
#
# Coordination Sequence:
#
# PCOD8192202 Si02
#       4
#     8   8   8   8
#     4  11  22  41  66  92 122 168 219 264 313 377
#     4  10  19  36  60  88 119 159 206 255 306 367
#     4   9  19  35  61  91 117 149 206 265 304 353
#     4  12  25  40  60  93 134 170 206 260 321 381
#
# _framework density 22.462199999999999
#
# number of rings (size 3 to 8) (size 9 to 14) (size 15 to 20)
#    0.000    1.500    0.000    6.000    0.000    6.000 
#    0.000    5.000    0.000    0.000    0.000    0.000 
#    0.000    0.000    0.000    0.000    0.000    0.000 
#
# Total GULP energy -198440.602705 kJ/mol
# GULP energy per Si atom -12402.537669 kJ/mol
# Density = 2.241108 g / cm^3
# Si number density = 22.462200 Si / 1000 Ang^3
#
#
#
# Elastic Constant Matrix: (Units=GPa)
#
#
# Indices 1 2 3 4 5 6 
#
# 1 50.1395 32.5925 41.4046 0.0000 0.0000 0.0000
# 2 32.5925 135.3741 39.9993 0.0000 0.0000 0.0000
# 3 41.4046 39.9993 123.8581 0.0000 0.0000 0.0000
# 4 0.0000 0.0000 0.0000 39.3103 0.0000 0.0000
# 5 0.0000 0.0000 0.0000 0.0000 9.8832 0.0000
# 6 0.0000 0.0000 0.0000 0.0000 0.0000 31.3321
#
#
#
# Elastic Compliance Matrix: (Units=1/GPa)
#
#
# Indices 1 2 3 4 5 6 
#
# 1 0.030047 -0.004716 -0.008521 0.000000 0.000000 0.000000
# 2 -0.004716 0.008906 -0.001300 0.000000 0.000000 0.000000
# 3 -0.008521 -0.001300 0.011342 0.000000 0.000000 0.000000
# 4 0.000000 0.000000 0.000000 0.025439 0.000000 0.000000
# 5 0.000000 0.000000 0.000000 0.000000 0.101182 0.000000
# 6 0.000000 0.000000 0.000000 0.000000 0.000000 0.031916
#
#
# Mechanical properties :
#
#
# Convention : Reuss Voigt Hill
#
# Bulk Modulus (GPa) = 47.12332 59.70718 53.41525
# Shear Modulus (GPa) = 20.40984 29.13014 24.76999
#
# Velocity S-wave (km/s) = 3.01762 3.60509 3.32436
# Velocity P-wave (km/s) = 5.75898 6.63082 6.21022
#
# Compressibility (1/GPa) = 0.02122092
#
# Stress axis : x y z
#
# Youngs Moduli (GPa) = 33.28130 112.27831 88.16730
#
# Poissons Ratio (x) = 0.52953 0.75130
# Poissons Ratio (y) = 0.15696 0.11459
# Poissons Ratio (z) = 0.28360 0.14593
#
# Static dielectric constant tensor:
#      x y z
#    x 3.633880 0.000000 0.000000 
#    y 0.000000 4.208300 0.000000 
#    z 0.000000 0.000000 4.198900 
# 
# 
# High freq. dielectric constant tensor:
#      x y z
#    x 1.842480 0.000000 0.000000 
#    y 0.000000 1.904370 0.000000 
#    z 0.000000 0.000000 1.897470 
# 
# From -- ./inp_files/16233.got.cif
#   From: 2010.03.12/outbox.cif.g09.slc.cpg/sg46_9_cif.got.tgz:16233.got - 2010.04.14 02:56:35.
