data_PCOD8192389
_publ_section_title
;
Structure prediction by ZEFSAII (Michael W. Deem and Ramdas Pophale) SiO2 
 PCOD8192389
Probable space group: I M A 2
;
_chemical_formula_sum "Si O2"
_cell_formula_units_Z 64
_cell_length_a 11.963147
_cell_length_b 23.157294
_cell_length_c 12.399045
_cell_angle_alpha 90.000000
_cell_angle_beta 90.000000
_cell_angle_gamma 90.000000
_cell_volume 3434.958424
_symmetry_space_group_name_H-M "I M A 2"
_symmetry_group_IT_number 46
_symmetry_cell_setting 'orthorhombic'
loop_
_space_group_symop_operation_xyz
x,y,z
-x,-y,z
1/2-x,y,z
1/2+x,-y,z
1/2+x,1/2+y,1/2+z
1/2-x,1/2-y,1/2+z
-x,1/2+y,1/2+z
x,1/2-y,1/2+z
loop_
_atom_site_type_symbol
_atom_site_label
_atom_site_fract_x
_atom_site_fract_y
_atom_site_fract_z
Si Si1 0.619059 0.345701 0.524600
Si Si2 0.879774 0.847772 0.525315
Si Si3 0.994313 0.250000 0.895930
Si Si4 0.380941 0.654299 0.767260
Si Si5 0.463077 0.435364 0.429906
Si Si6 0.879774 0.652228 0.266546
Si Si7 0.876991 0.533054 0.645930
Si Si8 0.036923 0.435364 0.861954
O O1 0.750000 0.350099 0.520486
O O2 0.582922 0.283740 0.479936
O O3 0.573232 0.352160 0.645930
O O4 0.573877 0.398435 0.453470
O O5 0.750000 0.835768 0.532778
O O6 0.930451 0.794371 0.461323
O O7 0.931163 0.851835 0.645930
O O8 0.900947 0.908313 0.464544
O O9 0.069549 0.205629 0.830537
O O10 0.917079 0.283740 0.811924
O O11 0.250000 0.649901 0.771374
O O12 0.426123 0.601565 0.838390
O O13 0.500000 0.500000 0.400897
O O14 0.400947 0.408313 0.327316
O O15 0.380730 0.431192 0.534474
O O16 0.750000 0.664232 0.259082
O O17 0.750000 0.502196 0.645930
O O18 0.880730 0.568808 0.757386
O O19 0.000000 0.500000 0.645930
O O20 0.000000 0.500000 0.890963
#
# Coordination Sequence:
#
# PCOD8192389 Si02
#       8
#     8   8   8   8   8   8   8   8
#     4  10  20  34  54  80 110 144 184 230 282 340
#     4  10  21  37  57  80 108 145 187 234 288 346
#     4  10  20  36  56  78 108 140 186 234 288 336
#     4  10  20  34  54  80 110 144 184 230 282 340
#     4  10  21  36  55  82 115 148 188 231 285 341
#     4  10  21  37  57  80 108 145 187 234 288 346
#     4  10  20  34  54  82 114 150 190 236 285 334
#     4  10  21  36  55  82 115 148 188 231 285 341
#
# _framework density 18.631958999999998
#
# number of rings (size 3 to 8) (size 9 to 14) (size 15 to 20)
#    0.000    2.000    1.250    2.250    0.000    5.500 
#    0.000    0.000    0.000    6.750    0.000    0.000 
#    0.000    0.000    0.000    0.000    0.000    0.000 
#
# Total GULP energy -396555.086907 kJ/mol
# GULP energy per Si atom -12392.346466 kJ/mol
# Density = 1.858955 g / cm^3
# Si number density = 18.631959 Si / 1000 Ang^3
#
#
#
# Elastic Constant Matrix: (Units=GPa)
#
#
# Indices 1 2 3 4 5 6 
#
# 1 72.3585 16.9298 23.4143 0.0000 0.0000 0.0000
# 2 16.9298 108.4628 33.1615 0.0004 0.0000 -0.0002
# 3 23.4143 33.1615 118.6474 -0.0008 0.0002 -0.0003
# 4 0.0000 0.0004 -0.0008 32.9357 0.0000 -0.0002
# 5 0.0000 0.0000 0.0002 0.0000 25.0342 0.0000
# 6 0.0000 -0.0002 -0.0003 -0.0002 0.0000 18.6283
#
#
#
# Elastic Compliance Matrix: (Units=1/GPa)
#
#
# Indices 1 2 3 4 5 6 
#
# 1 0.015004 -0.001571 -0.002522 0.000000 0.000000 0.000000
# 2 -0.001571 0.010246 -0.002554 0.000000 0.000000 0.000000
# 3 -0.002522 -0.002554 0.009640 0.000000 0.000000 0.000000
# 4 0.000000 0.000000 0.000000 0.030362 0.000000 0.000000
# 5 0.000000 0.000000 0.000000 0.000000 0.039945 0.000000
# 6 0.000000 0.000000 0.000000 0.000000 0.000000 0.053682
#
#
# Mechanical properties :
#
#
# Convention : Reuss Voigt Hill
#
# Bulk Modulus (GPa) = 46.30398 49.60889 47.95644
# Shear Modulus (GPa) = 27.87538 30.38386 29.12962
#
# Velocity S-wave (km/s) = 3.87215 4.04262 3.95830
# Velocity P-wave (km/s) = 6.70054 6.96232 6.83268
#
# Compressibility (1/GPa) = 0.02159641
#
# Stress axis : x y z
#
# Youngs Moduli (GPa) = 66.65049 97.60201 103.73736
#
# Poissons Ratio (x) = 0.15332 0.26161
# Poissons Ratio (y) = 0.10470 0.26491
# Poissons Ratio (z) = 0.16808 0.24924
#
# Static dielectric constant tensor:
#      x y z
#    x 3.422390 0.000000 0.000000 
#    y 0.000000 3.192710 0.000000 
#    z 0.000000 0.000000 3.872020 
# 
# 
# High freq. dielectric constant tensor:
#      x y z
#    x 1.724800 0.000000 0.000000 
#    y 0.000000 1.719240 0.000000 
#    z 0.000000 0.000000 1.730080 
# 
# From -- ./inp_files/10529.got.cif
#   From: 2010.03.12/outbox.cif.g09.slc.cpg/sg46_6_cif.got.tgz:10529.got - 2010.04.14 02:56:35.
