data_PCOD8192576
_publ_section_title
;
Structure prediction by ZEFSAII (Michael W. Deem and Ramdas Pophale) SiO2 
 PCOD8192576
Probable space group: I M A 2
;
_chemical_formula_sum "Si O2"
_cell_formula_units_Z 52
_cell_length_a 16.516352
_cell_length_b 20.807936
_cell_length_c 7.998195
_cell_angle_alpha 90.000000
_cell_angle_beta 90.000000
_cell_angle_gamma 90.000000
_cell_volume 2748.749236
_symmetry_space_group_name_H-M "I M A 2"
_symmetry_group_IT_number 46
_symmetry_cell_setting 'orthorhombic'
loop_
_space_group_symop_operation_xyz
x,y,z
-x,-y,z
1/2-x,y,z
1/2+x,-y,z
1/2+x,1/2+y,1/2+z
1/2-x,1/2-y,1/2+z
-x,1/2+y,1/2+z
x,1/2-y,1/2+z
loop_
_atom_site_type_symbol
_atom_site_label
_atom_site_fract_x
_atom_site_fract_y
_atom_site_fract_z
Si Si1 0.750000 0.143581 0.158481
Si Si2 0.531510 0.572635 0.286113
Si Si3 0.082253 0.817560 0.664526
Si Si4 0.250000 0.950536 0.466486
Si Si5 0.589766 0.533551 0.966486
Si Si6 0.250000 0.856419 0.774492
Si Si7 0.968490 0.572635 0.646859
Si Si8 0.082253 0.682440 0.768447
O O1 0.750000 0.086530 0.292457
O O2 0.671965 0.187153 0.192515
O O3 0.750000 0.117893 0.966486
O O4 0.500000 0.500000 0.292927
O O5 0.459214 0.621993 0.252767
O O6 0.571448 0.589314 0.466486
O O7 0.595764 0.577753 0.133557
O O8 0.171965 0.812847 0.740457
O O9 0.039508 0.750000 0.716486
O O10 0.082142 0.828454 0.466486
O O11 0.250000 0.913469 0.640514
O O12 0.165909 0.987777 0.466487
O O13 0.500000 0.500000 0.966485
O O14 0.595764 0.577753 0.799414
O O15 0.000000 0.500000 0.640044
O O16 0.040785 0.621993 0.680206
#
# Coordination Sequence:
#
# PCOD8192576 Si02
#       8
#     4   8   8   4   8   4   8   8
#     4  12  23  37  53  81 126 170 208 249 296 369
#     4  10  20  36  58  82 114 154 199 255 305 353
#     4  12  23  38  57  85 123 165 213 255 306 377
#     4  12  24  38  64  94 122 174 212 250 320 370
#     4  10  20  36  58  84 122 158 202 257 306 357
#     4  12  23  37  53  81 126 170 208 249 296 369
#     4  10  20  36  58  82 114 154 199 255 305 353
#     4  12  23  38  57  85 123 165 213 255 306 377
#
# _framework density 18.917695999999999
#
# number of rings (size 3 to 8) (size 9 to 14) (size 15 to 20)
#    0.000    0.923    3.077    6.923    0.000    3.692 
#    0.000    0.000    0.000    0.000    0.000    1.077 
#    0.000    0.000    0.000    0.000    0.000    0.000 
#
# Total GULP energy -322102.228011 kJ/mol
# GULP energy per Si atom -12388.547231 kJ/mol
# Density = 1.887464 g / cm^3
# Si number density = 18.917696 Si / 1000 Ang^3
#
#
#
# Elastic Constant Matrix: (Units=GPa)
#
#
# Indices 1 2 3 4 5 6 
#
# 1 59.8910 42.8074 29.5973 0.0000 0.0000 0.0000
# 2 42.8074 116.9444 41.1540 0.0000 0.0000 0.0000
# 3 29.5973 41.1540 232.4828 0.0000 0.0000 0.0000
# 4 0.0000 0.0000 0.0000 27.9306 0.0000 0.0000
# 5 0.0000 0.0000 0.0000 0.0000 11.6517 0.0000
# 6 0.0000 0.0000 0.0000 0.0000 0.0000 12.7412
#
#
#
# Elastic Compliance Matrix: (Units=1/GPa)
#
#
# Indices 1 2 3 4 5 6 
#
# 1 0.023120 -0.007921 -0.001541 0.000000 0.000000 0.000000
# 2 -0.007921 0.011833 -0.001086 0.000000 0.000000 0.000000
# 3 -0.001541 -0.001086 0.004690 0.000000 0.000000 0.000000
# 4 0.000000 0.000000 0.000000 0.035803 0.000000 0.000000
# 5 0.000000 0.000000 0.000000 0.000000 0.085824 0.000000
# 6 0.000000 0.000000 0.000000 0.000000 0.000000 0.078486
#
#
# Mechanical properties :
#
#
# Convention : Reuss Voigt Hill
#
# Bulk Modulus (GPa) = 53.91935 70.71506 62.31720
# Shear Modulus (GPa) = 18.72420 30.18200 24.45310
#
# Velocity S-wave (km/s) = 3.14948 3.99863 3.59918
# Velocity P-wave (km/s) = 6.46448 7.66683 7.09118
#
# Compressibility (1/GPa) = 0.01854622
#
# Stress axis : x y z
#
# Youngs Moduli (GPa) = 43.25248 84.51155 213.22422
#
# Poissons Ratio (x) = 0.66939 0.32864
# Poissons Ratio (y) = 0.34259 0.23161
# Poissons Ratio (z) = 0.06666 0.09180
#
# Static dielectric constant tensor:
#      x y z
#    x 3.135520 0.000000 0.000000 
#    y 0.000000 3.413700 0.000000 
#    z 0.000000 0.000000 4.937880 
# 
# 
# High freq. dielectric constant tensor:
#      x y z
#    x 1.678570 0.000000 0.000000 
#    y 0.000000 1.721390 0.000000 
#    z 0.000000 0.000000 1.781370 
# 
# From -- ./inp_files/6791.got.cif
#   From: 2010.03.12/outbox.cif.g09.slc.cpg/sg46_4_cif.got.tgz:6791.got - 2010.04.14 02:56:35.
