data_PCOD8192181
_publ_section_title
;
Structure prediction by ZEFSAII (Michael W. Deem and Ramdas Pophale) SiO2 
 PCOD8192181
Probable space group: I M A 2
;
_chemical_formula_sum "Si O2"
_cell_formula_units_Z 64
_cell_length_a 17.385168
_cell_length_b 21.497547
_cell_length_c 9.343499
_cell_angle_alpha 90.000000
_cell_angle_beta 90.000000
_cell_angle_gamma 90.000000
_cell_volume 3492.024985
_symmetry_space_group_name_H-M "I M A 2"
_symmetry_group_IT_number 46
_symmetry_cell_setting 'orthorhombic'
loop_
_space_group_symop_operation_xyz
x,y,z
-x,-y,z
1/2-x,y,z
1/2+x,-y,z
1/2+x,1/2+y,1/2+z
1/2-x,1/2-y,1/2+z
-x,1/2+y,1/2+z
x,1/2-y,1/2+z
loop_
_atom_site_type_symbol
_atom_site_label
_atom_site_fract_x
_atom_site_fract_y
_atom_site_fract_z
Si Si1 0.837872 0.620913 0.690470
Si Si2 0.341796 0.676162 0.208817
Si Si3 0.660169 0.505292 0.884418
Si Si4 0.939008 0.448780 0.670819
Si Si5 0.424689 0.743154 0.950639
Si Si6 0.336599 0.017581 0.970686
Si Si7 0.990650 0.817285 0.189575
Si Si8 0.161298 0.536019 0.179965
O O1 0.750000 0.645499 0.705581
O O2 0.859483 0.572430 0.816722
O O3 0.849604 0.585848 0.537804
O O4 0.897197 0.678599 0.700022
O O5 0.250000 0.682145 0.220192
O O6 0.377152 0.709498 0.349679
O O7 0.372439 0.604667 0.213737
O O8 0.367432 0.705243 0.055557
O O9 0.750000 0.495255 0.882338
O O10 0.625563 0.448228 0.793650
O O11 0.624136 0.497643 0.042224
O O12 0.897442 0.467228 0.524325
O O13 0.000000 0.500000 0.719066
O O14 0.978404 0.384037 0.645762
O O15 0.474088 0.700562 0.842986
O O16 0.486594 0.773794 0.057574
O O17 0.250000 0.995411 0.009988
O O18 0.350103 0.016298 0.801406
O O19 0.250000 0.548471 0.148909
#
# Coordination Sequence:
#
# PCOD8192181 Si02
#       8
#     8   8   8   8   8   8   8   8
#     4   9  18  35  59  77 101 140 179 221 266 326
#     4  10  19  36  54  77 107 146 187 216 253 304
#     4   9  17  31  50  80 109 138 170 208 269 325
#     4  11  18  30  54  78 102 134 173 212 262 315
#     4  10  23  36  55  76 104 150 182 228 261 302
#     4   9  17  31  50  80 109 138 170 208 269 325
#     4  11  21  39  55  76 112 137 184 223 274 315
#     4   9  17  29  49  74 110 137 164 212 260 314
#
# _framework density 18.327475
#
# number of rings (size 3 to 8) (size 9 to 14) (size 15 to 20)
#    0.000    2.250    2.500    3.000    0.000    0.000 
#    0.000   10.000    0.000    0.000    0.000    0.000 
#    0.000    0.000    0.000    0.000    0.000    0.000 
#
# Total GULP energy -396462.263980 kJ/mol
# GULP energy per Si atom -12389.445749 kJ/mol
# Density = 1.828576 g / cm^3
# Si number density = 18.327475 Si / 1000 Ang^3
#
#
#
# Elastic Constant Matrix: (Units=GPa)
#
#
# Indices 1 2 3 4 5 6 
#
# 1 86.3875 24.9415 23.8891 0.0000 0.0000 0.0000
# 2 24.9415 43.6883 18.8881 0.0000 0.0000 0.0000
# 3 23.8891 18.8881 105.8511 0.0000 0.0000 0.0000
# 4 0.0000 0.0000 0.0000 5.5904 0.0000 0.0000
# 5 0.0000 0.0000 0.0000 0.0000 -36.0424 0.0000
# 6 0.0000 0.0000 0.0000 0.0000 0.0000 29.1482
#
#
#
# Elastic Compliance Matrix: (Units=1/GPa)
#
#
# Indices 1 2 3 4 5 6 
#
# 1 0.014207 -0.007286 -0.001906 0.000000 0.000000 0.000000
# 2 -0.007286 0.028540 -0.003448 0.000000 0.000000 0.000000
# 3 -0.001906 -0.003448 0.010493 0.000000 0.000000 0.000000
# 4 0.000000 0.000000 0.000000 0.178878 0.000000 0.000000
# 5 0.000000 0.000000 0.000000 0.000000 -0.027745 0.000000
# 6 0.000000 0.000000 0.000000 0.000000 0.000000 0.034307
#
#
# Mechanical properties :
#
#
# Convention : Reuss Voigt Hill
#
# Bulk Modulus (GPa) = 35.76810 41.26270 38.51540
# Shear Modulus (GPa) = 18.29621 10.95311 14.62466
#
# Velocity S-wave (km/s) = 3.16301 2.44731 2.82789
# Velocity P-wave (km/s) = 5.73567 5.52709 5.63235
#
# Compressibility (1/GPa) = 0.02795787
#
# Stress axis : x y z
#
# Youngs Moduli (GPa) = 70.39012 35.03854 95.30433
#
# Poissons Ratio (x) = 0.25531 0.18165
# Poissons Ratio (y) = 0.51289 0.32863
# Poissons Ratio (z) = 0.13417 0.12082
#
# Static dielectric constant tensor:
#      x y z
#    x 3.497130 0.000000 0.000000 
#    y 0.000000 6.089380 0.000000 
#    z 0.000000 0.000000 3.693960 
# 
# 
# High freq. dielectric constant tensor:
#      x y z
#    x 1.710240 0.000000 0.000000 
#    y 0.000000 1.678580 0.000000 
#    z 0.000000 0.000000 1.721510 
# 
# From -- ./inp_files/6944.got.cif
#   From: 2010.03.12/outbox.cif.g09.slc.cpg/sg46_4_cif.got.tgz:6944.got - 2010.04.14 02:56:35.
