data_PCOD8192815
_publ_section_title
;
Structure prediction by ZEFSAII (Michael W. Deem and Ramdas Pophale) SiO2 
 PCOD8192815
Probable space group: I M A 2
;
_chemical_formula_sum "Si O2"
_cell_formula_units_Z 56
_cell_length_a 19.526874
_cell_length_b 11.784001
_cell_length_c 11.159368
_cell_angle_alpha 90.000000
_cell_angle_beta 90.000000
_cell_angle_gamma 90.000000
_cell_volume 2567.823056
_symmetry_space_group_name_H-M "I M A 2"
_symmetry_group_IT_number 46
_symmetry_cell_setting 'orthorhombic'
loop_
_space_group_symop_operation_xyz
x,y,z
-x,-y,z
1/2-x,y,z
1/2+x,-y,z
1/2+x,1/2+y,1/2+z
1/2-x,1/2-y,1/2+z
-x,1/2+y,1/2+z
x,1/2-y,1/2+z
loop_
_atom_site_type_symbol
_atom_site_label
_atom_site_fract_x
_atom_site_fract_y
_atom_site_fract_z
Si Si1 0.466791 0.722931 0.330370
Si Si2 0.750000 0.143649 0.380831
Si Si3 0.942968 0.904814 0.999951
Si Si4 0.250000 0.713602 0.141858
Si Si5 0.170093 0.366597 0.317291
Si Si6 0.880552 0.061730 0.674926
Si Si7 0.909978 0.654857 0.752672
Si Si8 0.606783 0.440950 0.910231
O O1 0.511932 0.699756 0.449855
O O2 0.434033 0.608235 0.275061
O O3 0.520645 0.773069 0.236272
O O4 0.411050 0.818375 0.355588
O O5 0.750000 0.186026 0.241833
O O6 0.750000 0.237141 0.494430
O O7 0.811660 0.055849 0.400208
O O8 0.879388 0.929793 0.912025
O O9 0.898147 0.886918 0.118789
O O10 0.000000 0.000000 0.018278
O O11 0.318676 0.648662 0.171878
O O12 0.250000 0.377470 0.352563
O O13 0.151543 0.437616 0.198556
O O14 0.152475 0.233654 0.298688
O O15 0.918720 0.052756 0.547391
O O16 0.924005 0.548423 0.840255
#
# Coordination Sequence:
#
# PCOD8192815 Si02
#       8
#     8   4   8   4   8   8   8   8
#     4  11  22  43  70 102 130 173 224 285 349 405
#     4  10  22  40  67 100 132 186 225 287 340 419
#     4  11  23  45  69 102 138 177 234 294 349 421
#     4  10  20  42  65  98 138 174 233 275 352 405
#     4  11  26  46  68  98 137 188 236 284 351 419
#     4  11  22  42  70  98 132 176 229 281 341 416
#     4  11  27  44  66  99 138 180 228 283 343 416
#     4  11  24  42  68  98 137 179 222 280 347 410
#
# _framework density 21.808356
#
# number of rings (size 3 to 8) (size 9 to 14) (size 15 to 20)
#    0.000    1.143    3.571    2.143    5.000    0.571 
#    7.714    0.000    0.000    0.000    0.000    0.000 
#    0.000    0.000    0.000    0.000    0.000    0.000 
#
# Total GULP energy -346882.313868 kJ/mol
# GULP energy per Si atom -12388.654067 kJ/mol
# Density = 2.175872 g / cm^3
# Si number density = 21.808356 Si / 1000 Ang^3
#
#
#
# Elastic Constant Matrix: (Units=GPa)
#
#
# Indices 1 2 3 4 5 6 
#
# 1 108.2232 26.1332 23.0427 0.0000 0.0000 0.0000
# 2 26.1332 96.0392 35.5601 0.0000 0.0000 0.0000
# 3 23.0427 35.5601 105.6793 0.0000 0.0000 0.0000
# 4 0.0000 0.0000 0.0000 26.1667 0.0000 0.0000
# 5 0.0000 0.0000 0.0000 0.0000 18.3771 0.0000
# 6 0.0000 0.0000 0.0000 0.0000 0.0000 19.4838
#
#
#
# Elastic Compliance Matrix: (Units=1/GPa)
#
#
# Indices 1 2 3 4 5 6 
#
# 1 0.010083 -0.002204 -0.001457 0.000000 0.000000 0.000000
# 2 -0.002204 0.012376 -0.003684 0.000000 0.000000 0.000000
# 3 -0.001457 -0.003684 0.011020 0.000000 0.000000 0.000000
# 4 0.000000 0.000000 0.000000 0.038216 0.000000 0.000000
# 5 0.000000 0.000000 0.000000 0.000000 0.054415 0.000000
# 6 0.000000 0.000000 0.000000 0.000000 0.000000 0.051325
#
#
# Mechanical properties :
#
#
# Convention : Reuss Voigt Hill
#
# Bulk Modulus (GPa) = 53.22267 53.26821 53.24544
# Shear Modulus (GPa) = 25.20316 27.81924 26.51120
#
# Velocity S-wave (km/s) = 3.40320 3.57546 3.49039
# Velocity P-wave (km/s) = 6.31665 6.44390 6.38059
#
# Compressibility (1/GPa) = 0.01878899
#
# Stress axis : x y z
#
# Youngs Moduli (GPa) = 99.18084 80.80019 90.74561
#
# Poissons Ratio (x) = 0.17810 0.13219
# Poissons Ratio (y) = 0.21861 0.33430
# Poissons Ratio (z) = 0.14448 0.29766
#
# Static dielectric constant tensor:
#      x y z
#    x 3.918430 0.000000 0.000000 
#    y 0.000000 3.897350 0.000000 
#    z 0.000000 0.000000 4.065200 
# 
# 
# High freq. dielectric constant tensor:
#      x y z
#    x 1.866180 0.000000 0.000000 
#    y 0.000000 1.843600 0.000000 
#    z 0.000000 0.000000 1.859530 
# 
# From -- ./inp_files/12425.got.cif
#   From: 2010.03.12/outbox.cif.g09.slc.cpg/sg46_7_cif.got.tgz:12425.got - 2010.04.14 02:56:35.
