data_PCOD8192677
_publ_section_title
;
Structure prediction by ZEFSAII (Michael W. Deem and Ramdas Pophale) SiO2 
 PCOD8192677
Probable space group: I M A 2
;
_chemical_formula_sum "Si O2"
_cell_formula_units_Z 48
_cell_length_a 17.772086
_cell_length_b 11.191665
_cell_length_c 12.152399
_cell_angle_alpha 90.000000
_cell_angle_beta 90.000000
_cell_angle_gamma 90.000000
_cell_volume 2417.102839
_symmetry_space_group_name_H-M "I M A 2"
_symmetry_group_IT_number 46
_symmetry_cell_setting 'orthorhombic'
loop_
_space_group_symop_operation_xyz
x,y,z
-x,-y,z
1/2-x,y,z
1/2+x,-y,z
1/2+x,1/2+y,1/2+z
1/2-x,1/2-y,1/2+z
-x,1/2+y,1/2+z
x,1/2-y,1/2+z
loop_
_atom_site_type_symbol
_atom_site_label
_atom_site_fract_x
_atom_site_fract_y
_atom_site_fract_z
Si Si1 0.562588 0.741429 0.567420
Si Si2 0.063359 0.673591 0.714311
Si Si3 0.335240 0.888029 0.794693
Si Si4 0.448501 0.894272 0.454192
Si Si5 0.413903 0.512401 0.507648
Si Si6 0.335269 0.470657 0.084689
O O1 0.521763 0.717376 0.685056
O O2 0.489422 0.769939 0.488297
O O3 0.610188 0.625389 0.529427
O O4 0.621492 0.847523 0.566879
O O5 0.116831 0.784750 0.737931
O O6 0.060607 0.594742 0.824036
O O7 0.096270 0.589355 0.618528
O O8 0.250000 0.842029 0.809201
O O9 0.338762 0.001560 0.714304
O O10 0.365288 0.926159 0.913374
O O11 0.500000 0.000000 0.500587
O O12 0.368848 0.917278 0.514736
O O13 0.500000 0.500000 0.470177
O O14 0.250000 0.453838 0.044232
#
# Coordination Sequence:
#
# PCOD8192677 Si02
#       6
#     8   8   8   8   8   8
#     4  10  21  38  65  93 121 162 200 266 309 370
#     4  11  21  39  63  94 121 159 204 257 312 362
#     4  11  25  40  60  88 126 166 205 253 305 375
#     4  10  20  37  61  89 121 155 202 256 303 363
#     4  10  23  40  63  97 123 159 209 259 311 364
#     4  10  23  41  60  89 123 166 209 249 313 370
#
# _framework density 19.858485000000002
#
# number of rings (size 3 to 8) (size 9 to 14) (size 15 to 20)
#    0.000    1.667    1.667    3.500    4.667    2.000 
#    0.000    0.000    0.000    0.000    0.000    0.000 
#    0.000    0.000    0.000    0.000    0.000    0.000 
#
# Total GULP energy -297489.383100 kJ/mol
# GULP energy per Si atom -12395.390963 kJ/mol
# Density = 1.981329 g / cm^3
# Si number density = 19.858485 Si / 1000 Ang^3
#
#
#
# Elastic Constant Matrix: (Units=GPa)
#
#
# Indices 1 2 3 4 5 6 
#
# 1 105.6507 49.2095 45.9806 0.0000 0.0000 0.0000
# 2 49.2095 119.2892 39.8781 0.0000 0.0000 0.0000
# 3 45.9806 39.8781 124.6356 0.0000 0.0000 0.0000
# 4 0.0000 0.0000 0.0000 32.0790 0.0000 0.0000
# 5 0.0000 0.0000 0.0000 0.0000 22.0445 0.0000
# 6 0.0000 0.0000 0.0000 0.0000 0.0000 18.0752
#
#
#
# Elastic Compliance Matrix: (Units=1/GPa)
#
#
# Indices 1 2 3 4 5 6 
#
# 1 0.012901 -0.004178 -0.003423 0.000000 0.000000 0.000000
# 2 -0.004178 0.010740 -0.001895 0.000000 0.000000 0.000000
# 3 -0.003423 -0.001895 0.009892 0.000000 0.000000 0.000000
# 4 0.000000 0.000000 0.000000 0.031173 0.000000 0.000000
# 5 0.000000 0.000000 0.000000 0.000000 0.045363 0.000000
# 6 0.000000 0.000000 0.000000 0.000000 0.000000 0.055324
#
#
# Mechanical properties :
#
#
# Convention : Reuss Voigt Hill
#
# Bulk Modulus (GPa) = 68.76542 68.85689 68.81116
# Shear Modulus (GPa) = 26.42272 28.74022 27.58147
#
# Velocity S-wave (km/s) = 3.65163 3.80840 3.73084
# Velocity P-wave (km/s) = 7.24445 7.35443 7.29965
#
# Compressibility (1/GPa) = 0.01454219
#
# Stress axis : x y z
#
# Youngs Moduli (GPa) = 77.51614 93.11102 101.08751
#
# Poissons Ratio (x) = 0.38898 0.34598
# Poissons Ratio (y) = 0.32383 0.19157
# Poissons Ratio (z) = 0.26531 0.17646
#
# Static dielectric constant tensor:
#      x y z
#    x 3.578160 0.000000 0.000000 
#    y 0.000000 3.814250 0.000000 
#    z 0.000000 0.000000 3.603060 
# 
# 
# High freq. dielectric constant tensor:
#      x y z
#    x 1.756930 0.000000 0.000000 
#    y 0.000000 1.787710 0.000000 
#    z 0.000000 0.000000 1.775850 
# 
# From -- ./inp_files/11789.got.cif
#   From: 2010.03.12/outbox.cif.g09.slc.cpg/sg46_6_cif.got.tgz:11789.got - 2010.04.14 02:56:35.
