data_PCOD8192198
_publ_section_title
;
Structure prediction by ZEFSAII (Michael W. Deem and Ramdas Pophale) SiO2 
 PCOD8192198
Probable space group: I M A 2
;
_chemical_formula_sum "Si O2"
_cell_formula_units_Z 48
_cell_length_a 8.658117
_cell_length_b 30.965625
_cell_length_c 9.065251
_cell_angle_alpha 90.000000
_cell_angle_beta 90.000000
_cell_angle_gamma 90.000000
_cell_volume 2430.430092
_symmetry_space_group_name_H-M "I M A 2"
_symmetry_group_IT_number 46
_symmetry_cell_setting 'orthorhombic'
loop_
_space_group_symop_operation_xyz
x,y,z
-x,-y,z
1/2-x,y,z
1/2+x,-y,z
1/2+x,1/2+y,1/2+z
1/2-x,1/2-y,1/2+z
-x,1/2+y,1/2+z
x,1/2-y,1/2+z
loop_
_atom_site_type_symbol
_atom_site_label
_atom_site_fract_x
_atom_site_fract_y
_atom_site_fract_z
Si Si1 0.932173 0.625339 0.764000
Si Si2 0.932034 0.791448 0.093138
Si Si3 0.931923 0.372906 0.082078
Si Si4 0.432304 0.545086 0.599307
Si Si5 0.433380 0.205717 0.754294
Si Si6 0.567900 0.044850 0.765889
O O1 0.750000 0.621049 0.744872
O O2 0.999319 0.665795 0.671278
O O3 0.011006 0.582135 0.707345
O O4 0.973099 0.633086 0.933294
O O5 0.750000 0.792033 0.110653
O O6 0.994451 0.748669 0.173389
O O7 0.982603 0.790313 0.923988
O O8 0.750000 0.373714 0.049445
O O9 0.988501 0.416915 0.160024
O O10 0.972934 0.334126 0.190173
O O11 0.500000 0.500000 0.657879
O O12 0.250000 0.542633 0.606452
O O13 0.491666 0.554004 0.432476
O O14 0.250000 0.198698 0.734538
O O15 0.750000 0.041138 0.765640
O O16 0.500000 0.000000 0.704948
#
# Coordination Sequence:
#
# PCOD8192198 Si02
#       6
#     8   8   8   8   8   8
#     4  11  22  37  57  83 113 150 190 231 278 331
#     4   9  19  35  59  86 112 142 184 232 279 331
#     4  11  23  38  54  80 115 149 184 230 281 331
#     4  10  20  37  59  84 112 145 184 231 281 335
#     4  10  19  36  60  84 109 143 184 228 275 333
#     4   9  20  37  58  81 109 143 183 228 278 331
#
# _framework density 19.749590000000001
#
# number of rings (size 3 to 8) (size 9 to 14) (size 15 to 20)
#    0.000    2.000    0.000    3.500    0.000    5.333 
#    0.000    6.667    0.000    0.000    0.000    0.000 
#    0.000    0.000    0.000    0.000    0.000    0.000 
#
# Total GULP energy -297693.387678 kJ/mol
# GULP energy per Si atom -12403.891153 kJ/mol
# Density = 1.970464 g / cm^3
# Si number density = 19.749590 Si / 1000 Ang^3
#
#
#
# Elastic Constant Matrix: (Units=GPa)
#
#
# Indices 1 2 3 4 5 6 
#
# 1 37.8106 25.3824 13.5393 -0.0003 0.0000 -0.0002
# 2 25.3824 165.8527 70.0091 -0.0039 0.0002 -0.0003
# 3 13.5393 70.0091 117.0955 -0.0040 0.0001 -0.0003
# 4 -0.0003 -0.0039 -0.0040 35.0330 0.0002 -0.0002
# 5 0.0000 0.0002 0.0001 0.0002 27.0206 0.0005
# 6 -0.0002 -0.0003 -0.0003 -0.0002 0.0005 29.8322
#
#
#
# Elastic Compliance Matrix: (Units=1/GPa)
#
#
# Indices 1 2 3 4 5 6 
#
# 1 0.029555 -0.004121 -0.000954 0.000000 0.000000 0.000000
# 2 -0.004121 0.008639 -0.004689 0.000000 0.000000 0.000000
# 3 -0.000954 -0.004689 0.011454 0.000001 0.000000 0.000000
# 4 0.000000 0.000000 0.000001 0.028544 0.000000 0.000000
# 5 0.000000 0.000000 0.000000 0.000000 0.037009 -0.000001
# 6 0.000000 0.000000 0.000000 0.000000 -0.000001 0.033521
#
#
# Mechanical properties :
#
#
# Convention : Reuss Voigt Hill
#
# Bulk Modulus (GPa) = 33.19842 59.84670 46.52256
# Shear Modulus (GPa) = 28.04431 32.49903 30.27167
#
# Velocity S-wave (km/s) = 3.77237 4.06094 3.91931
# Velocity P-wave (km/s) = 5.98503 7.23581 6.63993
#
# Compressibility (1/GPa) = 0.03012192
#
# Stress axis : x y z
#
# Youngs Moduli (GPa) = 33.83491 115.75024 87.30830
#
# Poissons Ratio (x) = 0.47696 0.08327
# Poissons Ratio (y) = 0.13942 0.40937
# Poissons Ratio (z) = 0.03227 0.54273
#
# Static dielectric constant tensor:
#      x y z
#    x 3.353900 0.000000 0.000000 
#    y 0.000000 3.868490 0.000000 
#    z 0.000000 0.000000 3.700620 
# 
# 
# High freq. dielectric constant tensor:
#      x y z
#    x 1.751830 0.000000 0.000000 
#    y 0.000000 1.787430 0.000000 
#    z 0.000000 0.000000 1.776810 
# 
# From -- ./inp_files/3881.got.cif
#   From: 2010.03.12/outbox.cif.g09.slc.cpg/sg46_2_cif.got.tgz:3881.got - 2010.04.14 02:56:35.
