data_PCOD8192554
_publ_section_title
;
Structure prediction by ZEFSAII (Michael W. Deem and Ramdas Pophale) SiO2 
 PCOD8192554
Probable space group: I M A 2
;
_chemical_formula_sum "Si O2"
_cell_formula_units_Z 64
_cell_length_a 8.777006
_cell_length_b 29.242217
_cell_length_c 12.688498
_cell_angle_alpha 90.000000
_cell_angle_beta 90.000000
_cell_angle_gamma 90.000000
_cell_volume 3256.618655
_symmetry_space_group_name_H-M "I M A 2"
_symmetry_group_IT_number 46
_symmetry_cell_setting 'orthorhombic'
loop_
_space_group_symop_operation_xyz
x,y,z
-x,-y,z
1/2-x,y,z
1/2+x,-y,z
1/2+x,1/2+y,1/2+z
1/2-x,1/2-y,1/2+z
-x,1/2+y,1/2+z
x,1/2-y,1/2+z
loop_
_atom_site_type_symbol
_atom_site_label
_atom_site_fract_x
_atom_site_fract_y
_atom_site_fract_z
Si Si1 0.931332 0.640547 0.617300
Si Si2 0.917189 0.214870 0.824517
Si Si3 0.568074 0.949903 0.730280
Si Si4 0.430702 0.616166 0.401643
Si Si5 0.916832 0.204924 0.472977
Si Si6 0.575036 0.756843 0.139975
Si Si7 0.429673 0.549147 0.012950
Si Si8 0.928788 0.122341 0.335178
O O1 0.750000 0.638311 0.608186
O O2 0.995155 0.692925 0.616254
O O3 0.005433 0.612900 0.520386
O O4 0.981898 0.615968 0.725765
O O5 0.750000 0.212786 0.768629
O O6 0.977064 0.164868 0.852630
O O7 0.902337 0.243757 0.930334
O O8 0.041042 0.242787 0.758838
O O9 0.750000 0.951196 0.727911
O O10 0.511558 0.921168 0.829649
O O11 0.505429 0.929650 0.619101
O O12 0.500000 0.000000 0.744508
O O13 0.250000 0.608550 0.403228
O O14 0.750000 0.185619 0.504576
O O15 0.989298 0.168845 0.391320
O O16 0.015466 0.212456 0.576758
O O17 0.750000 0.761490 0.116948
O O18 0.500000 0.500000 0.987348
O O19 0.250000 0.544706 0.032505
O O20 0.467265 0.580668 0.912936
O O21 0.750000 0.125772 0.309692
#
# Coordination Sequence:
#
# PCOD8192554 Si02
#       8
#     8   8   8   8   8   8   8   8
#     4  11  23  38  57  84 121 160 198 245 300 353
#     4  10  21  36  57  80 110 155 202 240 283 344
#     4  11  23  42  67  94 123 154 190 239 299 357
#     4  11  23  40  62  88 118 157 204 248 292 351
#     4  10  20  36  56  80 110 154 202 242 285 344
#     4  11  23  35  51  79 117 155 193 245 299 347
#     4  10  21  40  65  93 121 153 192 241 297 353
#     4  10  22  39  61  86 115 154 203 247 290 351
#
# _framework density 19.652284999999999
#
# number of rings (size 3 to 8) (size 9 to 14) (size 15 to 20)
#    0.000    1.500    2.500    3.375    1.750    4.000 
#    0.000    0.625    0.000    1.500    0.000    0.000 
#    0.000    0.000    0.000    0.000    0.000    0.000 
#
# Total GULP energy -396717.750021 kJ/mol
# GULP energy per Si atom -12397.429688 kJ/mol
# Density = 1.960756 g / cm^3
# Si number density = 19.652285 Si / 1000 Ang^3
#
#
#
# Elastic Constant Matrix: (Units=GPa)
#
#
# Indices 1 2 3 4 5 6 
#
# 1 101.7428 40.0347 56.7163 0.0004 0.0000 0.0000
# 2 40.0347 81.5186 56.0034 0.0009 -0.0001 0.0001
# 3 56.7163 56.0034 131.8912 0.0020 -0.0002 0.0000
# 4 0.0004 0.0009 0.0020 36.3305 -0.0001 0.0000
# 5 0.0000 -0.0001 -0.0002 -0.0001 31.9882 0.0002
# 6 0.0000 0.0001 0.0000 0.0000 0.0002 27.5443
#
#
#
# Elastic Compliance Matrix: (Units=1/GPa)
#
#
# Indices 1 2 3 4 5 6 
#
# 1 0.013709 -0.003787 -0.004287 0.000000 0.000000 0.000000
# 2 -0.003787 0.018366 -0.006170 0.000000 0.000000 0.000000
# 3 -0.004287 -0.006170 0.012045 0.000000 0.000000 0.000000
# 4 0.000000 0.000000 0.000000 0.027525 0.000000 0.000000
# 5 0.000000 0.000000 0.000000 0.000000 0.031262 0.000000
# 6 0.000000 0.000000 0.000000 0.000000 0.000000 0.036305
#
#
# Mechanical properties :
#
#
# Convention : Reuss Voigt Hill
#
# Bulk Modulus (GPa) = 63.97266 68.96235 66.46750
# Shear Modulus (GPa) = 28.91672 29.99913 29.45792
#
# Velocity S-wave (km/s) = 3.84007 3.91128 3.87584
# Velocity P-wave (km/s) = 7.23080 7.45419 7.34334
#
# Compressibility (1/GPa) = 0.01563168
#
# Stress axis : x y z
#
# Youngs Moduli (GPa) = 72.94628 54.44895 83.02018
#
# Poissons Ratio (x) = 0.20622 0.35590
# Poissons Ratio (y) = 0.27628 0.51222
# Poissons Ratio (z) = 0.31271 0.33594
#
# Static dielectric constant tensor:
#      x y z
#    x 3.561520 0.000000 0.000000 
#    y 0.000000 3.542330 0.000000 
#    z 0.000000 0.000000 3.593510 
# 
# 
# High freq. dielectric constant tensor:
#      x y z
#    x 1.766130 0.000000 0.000000 
#    y 0.000000 1.753100 0.000000 
#    z 0.000000 0.000000 1.771570 
# 
# From -- ./inp_files/9781.got.cif
#   From: 2010.03.12/outbox.cif.g09.slc.cpg/sg46_5_cif.got.tgz:9781.got - 2010.04.14 02:56:35.
