data_PCOD8192975
_publ_section_title
;
Structure prediction by ZEFSAII (Michael W. Deem and Ramdas Pophale) SiO2 
 PCOD8192975
Probable space group: I M A 2
;
_chemical_formula_sum "Si O2"
_cell_formula_units_Z 64
_cell_length_a 16.261355
_cell_length_b 9.196215
_cell_length_c 20.747365
_cell_angle_alpha 90.000000
_cell_angle_beta 90.000000
_cell_angle_gamma 90.000000
_cell_volume 3102.621477
_symmetry_space_group_name_H-M "I M A 2"
_symmetry_group_IT_number 46
_symmetry_cell_setting 'orthorhombic'
loop_
_space_group_symop_operation_xyz
x,y,z
-x,-y,z
1/2-x,y,z
1/2+x,-y,z
1/2+x,1/2+y,1/2+z
1/2-x,1/2-y,1/2+z
-x,1/2+y,1/2+z
x,1/2-y,1/2+z
loop_
_atom_site_type_symbol
_atom_site_label
_atom_site_fract_x
_atom_site_fract_y
_atom_site_fract_z
Si Si1 0.908740 0.435780 0.306860
Si Si2 0.413005 0.565901 0.682473
Si Si3 0.411183 0.440738 0.918071
Si Si4 0.158187 0.626211 0.811107
Si Si5 0.346241 0.429555 0.054426
Si Si6 0.844863 0.898919 0.062653
Si Si7 0.844861 0.872639 0.919443
Si Si8 0.846385 0.123069 0.674116
O O1 0.905899 0.261000 0.317448
O O2 0.858198 0.509846 0.364279
O O3 0.864564 0.470292 0.238661
O O4 0.000000 0.500000 0.306758
O O5 0.500000 0.500000 0.702638
O O6 0.356441 0.533807 0.745121
O O7 0.390649 0.495651 0.614493
O O8 0.407358 0.739277 0.672109
O O9 0.500000 0.500000 0.898072
O O10 0.346971 0.518685 0.871101
O O11 0.402857 0.267311 0.908559
O O12 0.392760 0.486950 0.991309
O O13 0.250000 0.692131 0.808418
O O14 0.250000 0.435000 0.039546
O O15 0.373256 0.266846 0.071956
O O16 0.372541 0.528543 0.113477
O O17 0.750000 0.919584 0.077880
O O18 0.865866 0.945962 0.988939
O O19 0.750000 0.819953 0.920703
O O20 0.750000 0.168124 0.671288
#
# Coordination Sequence:
#
# PCOD8192975 Si02
#       8
#     8   8   8   8   8   8   8   8
#     4  11  23  38  59  87 117 149 191 244 297 343
#     4  11  23  37  57  85 117 150 191 242 295 344
#     4  11  22  37  59  88 120 151 191 243 293 339
#     4  11  23  41  61  83 117 157 197 237 286 351
#     4   9  20  38  60  85 113 151 197 238 284 346
#     4   9  19  37  59  83 113 150 191 235 284 343
#     4  10  21  39  60  83 115 153 193 234 283 346
#     4  10  22  41  61  84 118 157 197 237 285 350
#
# _framework density 20.627718000000002
#
# number of rings (size 3 to 8) (size 9 to 14) (size 15 to 20)
#    0.000    1.750    0.000    6.000    0.000    8.000 
#    0.000    3.750    0.000    0.000    0.000    0.000 
#    0.000    0.000    0.000    0.000    0.000    0.000 
#
# Total GULP energy -396709.100021 kJ/mol
# GULP energy per Si atom -12397.159376 kJ/mol
# Density = 2.058077 g / cm^3
# Si number density = 20.627718 Si / 1000 Ang^3
#
#
#
# Elastic Constant Matrix: (Units=GPa)
#
#
# Indices 1 2 3 4 5 6 
#
# 1 81.9149 34.1520 32.4830 0.0000 0.0000 0.0000
# 2 34.1520 82.0388 74.1743 0.0000 0.0000 0.0000
# 3 32.4830 74.1743 162.1842 0.0000 0.0000 0.0000
# 4 0.0000 0.0000 0.0000 42.7798 0.0000 0.0000
# 5 0.0000 0.0000 0.0000 0.0000 27.5293 0.0000
# 6 0.0000 0.0000 0.0000 0.0000 0.0000 24.3917
#
#
#
# Elastic Compliance Matrix: (Units=1/GPa)
#
#
# Indices 1 2 3 4 5 6 
#
# 1 0.014777 -0.005926 -0.000249 0.000000 0.000000 0.000000
# 2 -0.005926 0.023160 -0.009405 0.000000 0.000000 0.000000
# 3 -0.000249 -0.009405 0.010517 0.000000 0.000000 0.000000
# 4 0.000000 0.000000 0.000000 0.023375 0.000000 0.000000
# 5 0.000000 0.000000 0.000000 0.000000 0.036325 0.000000
# 6 0.000000 0.000000 0.000000 0.000000 0.000000 0.040998
#
#
# Mechanical properties :
#
#
# Convention : Reuss Voigt Hill
#
# Bulk Modulus (GPa) = 57.82676 67.52848 62.67762
# Shear Modulus (GPa) = 26.87037 31.29541 29.08289
#
# Velocity S-wave (km/s) = 3.61312 3.89929 3.75893
# Velocity P-wave (km/s) = 6.74541 7.28563 7.02072
#
# Compressibility (1/GPa) = 0.01729303
#
# Stress axis : x y z
#
# Youngs Moduli (GPa) = 67.67069 43.17794 95.08248
#
# Poissons Ratio (x) = 0.25588 0.02371
# Poissons Ratio (y) = 0.40103 0.89427
# Poissons Ratio (z) = 0.01687 0.40610
#
# Static dielectric constant tensor:
#      x y z
#    x 3.608500 0.000000 0.000000 
#    y 0.000000 3.573540 0.000000 
#    z 0.000000 0.000000 4.025090 
# 
# 
# High freq. dielectric constant tensor:
#      x y z
#    x 1.799530 0.000000 0.000000 
#    y 0.000000 1.793290 0.000000 
#    z 0.000000 0.000000 1.830810 
# 
# From -- ./inp_files/23683.got.cif
#   From: 2010.03.12/outbox.cif.g09.slc.cpg/sg46_12_cif.got.tgz:23683.got - 2010.04.14 02:56:35.
