data_PCOD8192784
_publ_section_title
;
Structure prediction by ZEFSAII (Michael W. Deem and Ramdas Pophale) SiO2 
 PCOD8192784
Probable space group: I M A 2
;
_chemical_formula_sum "Si O2"
_cell_formula_units_Z 64
_cell_length_a 14.619560
_cell_length_b 12.297347
_cell_length_c 16.221679
_cell_angle_alpha 90.000000
_cell_angle_beta 90.000000
_cell_angle_gamma 90.000000
_cell_volume 2916.362687
_symmetry_space_group_name_H-M "I M A 2"
_symmetry_group_IT_number 46
_symmetry_cell_setting 'orthorhombic'
loop_
_space_group_symop_operation_xyz
x,y,z
-x,-y,z
1/2-x,y,z
1/2+x,-y,z
1/2+x,1/2+y,1/2+z
1/2-x,1/2-y,1/2+z
-x,1/2+y,1/2+z
x,1/2-y,1/2+z
loop_
_atom_site_type_symbol
_atom_site_label
_atom_site_fract_x
_atom_site_fract_y
_atom_site_fract_z
Si Si1 0.903702 0.451236 0.427020
Si Si2 0.857797 0.035347 0.578442
Si Si3 0.857641 0.215192 0.061936
Si Si4 0.143878 0.232339 0.285408
Si Si5 0.349685 0.373319 0.534287
Si Si6 0.854802 0.982357 0.758791
Si Si7 0.858583 0.651781 0.961177
Si Si8 0.512447 0.613684 0.667595
O O1 0.882853 0.337991 0.473690
O O2 0.833154 0.544483 0.457602
O O3 0.897070 0.435951 0.327720
O O4 0.000000 0.500000 0.453186
O O5 0.750000 0.016328 0.580466
O O6 0.882788 0.157853 0.553941
O O7 0.899582 0.003226 0.668479
O O8 0.898869 0.954979 0.507429
O O9 0.750000 0.198405 0.082540
O O10 0.916608 0.165112 0.137136
O O11 0.250000 0.205945 0.263044
O O12 0.130903 0.361302 0.293769
O O13 0.111174 0.165720 0.366221
O O14 0.072725 0.200939 0.215225
O O15 0.250000 0.355481 0.575998
O O16 0.393826 0.257890 0.509266
O O17 0.422690 0.428750 0.593763
O O18 0.750000 0.014090 0.750025
O O19 0.750000 0.652680 0.962444
O O20 0.500000 0.500000 0.718190
#
# Coordination Sequence:
#
# PCOD8192784 Si02
#       8
#     8   8   8   8   8   8   8   8
#     4  12  22  38  64  95 128 163 213 268 313 376
#     4   9  20  39  63  92 128 170 215 256 312 392
#     4  11  23  42  63  85 125 176 215 256 315 389
#     4  10  21  38  64  96 128 160 206 271 330 377
#     4  11  19  36  65  92 120 157 203 264 322 369
#     4  10  20  39  66  98 127 162 215 268 321 377
#     4   9  18  37  66  96 123 159 207 265 328 381
#     4  12  24  39  58  91 127 162 216 260 313 385
#
# _framework density 21.945143000000002
#
# number of rings (size 3 to 8) (size 9 to 14) (size 15 to 20)
#    0.000    1.500    3.750    2.250    0.000    3.500 
#    0.000    5.625    0.000    4.500    0.000    0.000 
#    0.000    0.000    0.000    0.000    0.000    0.000 
#
# Total GULP energy -396536.063728 kJ/mol
# GULP energy per Si atom -12391.751992 kJ/mol
# Density = 2.189520 g / cm^3
# Si number density = 21.945143 Si / 1000 Ang^3
#
#
#
# Elastic Constant Matrix: (Units=GPa)
#
#
# Indices 1 2 3 4 5 6 
#
# 1 76.7754 23.4617 31.0835 0.0000 0.0000 0.0000
# 2 23.4617 141.6686 65.6005 0.0000 0.0000 0.0000
# 3 31.0835 65.6005 136.1565 0.0000 0.0000 0.0000
# 4 0.0000 0.0000 0.0000 38.8689 0.0000 0.0000
# 5 0.0000 0.0000 0.0000 0.0000 21.8406 0.0000
# 6 0.0000 0.0000 0.0000 0.0000 0.0000 22.9757
#
#
#
# Elastic Compliance Matrix: (Units=1/GPa)
#
#
# Indices 1 2 3 4 5 6 
#
# 1 0.014487 -0.001117 -0.002769 0.000000 0.000000 0.000000
# 2 -0.001117 0.009172 -0.004164 0.000000 0.000000 0.000000
# 3 -0.002769 -0.004164 0.009983 0.000000 0.000000 0.000000
# 4 0.000000 0.000000 0.000000 0.025728 0.000000 0.000000
# 5 0.000000 0.000000 0.000000 0.000000 0.045786 0.000000
# 6 0.000000 0.000000 0.000000 0.000000 0.000000 0.043524
#
#
# Mechanical properties :
#
#
# Convention : Reuss Voigt Hill
#
# Bulk Modulus (GPa) = 57.00654 66.09910 61.55282
# Shear Modulus (GPa) = 29.30349 32.36736 30.83542
#
# Velocity S-wave (km/s) = 3.65815 3.84464 3.75255
# Velocity P-wave (km/s) = 6.62389 7.06356 6.84726
#
# Compressibility (1/GPa) = 0.01754185
#
# Stress axis : x y z
#
# Youngs Moduli (GPa) = 69.02503 109.02874 100.17097
#
# Poissons Ratio (x) = 0.12178 0.27740
# Poissons Ratio (y) = 0.07710 0.41712
# Poissons Ratio (z) = 0.19115 0.45400
#
# Static dielectric constant tensor:
#      x y z
#    x 3.827680 0.000000 0.000000 
#    y 0.000000 3.952050 0.000000 
#    z 0.000000 0.000000 4.020920 
# 
# 
# High freq. dielectric constant tensor:
#      x y z
#    x 1.860000 0.000000 0.000000 
#    y 0.000000 1.858300 0.000000 
#    z 0.000000 0.000000 1.851740 
# 
# From -- ./inp_files/19657.got.cif
#   From: 2010.03.12/outbox.cif.g09.slc.cpg/sg46_10_cif.got.tgz:19657.got - 2010.04.14 02:56:35.
