data_PCOD8192572
_publ_section_title
;
Structure prediction by ZEFSAII (Michael W. Deem and Ramdas Pophale) SiO2 
 PCOD8192572
Probable space group: I M A 2
;
_chemical_formula_sum "Si O2"
_cell_formula_units_Z 64
_cell_length_a 18.991694
_cell_length_b 11.980720
_cell_length_c 14.593493
_cell_angle_alpha 90.000000
_cell_angle_beta 90.000000
_cell_angle_gamma 90.000000
_cell_volume 3320.518290
_symmetry_space_group_name_H-M "I M A 2"
_symmetry_group_IT_number 46
_symmetry_cell_setting 'orthorhombic'
loop_
_space_group_symop_operation_xyz
x,y,z
-x,-y,z
1/2-x,y,z
1/2+x,-y,z
1/2+x,1/2+y,1/2+z
1/2-x,1/2-y,1/2+z
-x,1/2+y,1/2+z
x,1/2-y,1/2+z
loop_
_atom_site_type_symbol
_atom_site_label
_atom_site_fract_x
_atom_site_fract_y
_atom_site_fract_z
Si Si1 0.435490 0.082332 0.186240
Si Si2 0.828543 0.105817 0.221883
Si Si3 0.170839 0.720305 0.361069
Si Si4 0.165784 0.010338 0.779373
Si Si5 0.552678 0.805318 0.803324
Si Si6 0.122155 0.726247 0.554185
Si Si7 0.553057 0.413374 0.161919
Si Si8 0.489058 0.380136 0.491422
O O1 0.434928 0.186153 0.256168
O O2 0.500000 0.000000 0.206393
O O3 0.365999 0.011953 0.207774
O O4 0.436418 0.124443 0.079859
O O5 0.750000 0.074196 0.252683
O O6 0.868295 0.188536 0.295436
O O7 0.824803 0.178835 0.129256
O O8 0.250000 0.726278 0.325095
O O9 0.148248 0.590401 0.351040
O O10 0.165565 0.762340 0.464930
O O11 0.250000 0.031622 0.767509
O O12 0.128608 0.969211 0.685842
O O13 0.126012 0.124394 0.807063
O O14 0.488803 0.866791 0.750995
O O15 0.531212 0.792171 0.911120
O O16 0.070226 0.823040 0.586780
O O17 0.067539 0.631120 0.529301
O O18 0.500000 0.500000 0.113431
O O19 0.500000 0.500000 0.443873
#
# Coordination Sequence:
#
# PCOD8192572 Si02
#       8
#     8   8   8   8   8   8   8   8
#     4  11  23  42  60  89 126 158 206 250 298 367
#     4  11  23  41  63  88 124 166 201 254 311 363
#     4  10  22  37  58  92 122 154 203 254 310 363
#     4  10  21  37  62  88 118 155 198 249 303 354
#     4  11  22  40  61  87 121 162 199 249 304 357
#     4  12  20  35  61  88 120 152 204 250 305 363
#     4  10  20  36  57  89 123 154 199 250 303 366
#     4  11  21  36  62  89 117 152 198 257 303 348
#
# _framework density 19.274100000000001
#
# number of rings (size 3 to 8) (size 9 to 14) (size 15 to 20)
#    0.000    1.250    5.000    3.000    1.750    1.000 
#    2.250    0.000    0.000    0.000    0.000    0.000 
#    0.000    0.000    0.000    0.000    0.000    0.000 
#
# Total GULP energy -396422.539793 kJ/mol
# GULP energy per Si atom -12388.204369 kJ/mol
# Density = 1.923023 g / cm^3
# Si number density = 19.274100 Si / 1000 Ang^3
#
#
#
# Elastic Constant Matrix: (Units=GPa)
#
#
# Indices 1 2 3 4 5 6 
#
# 1 79.1276 31.5014 13.7732 0.0000 0.0000 0.0000
# 2 31.5014 98.9133 53.9250 0.0000 0.0000 0.0000
# 3 13.7732 53.9250 115.7915 0.0000 0.0000 0.0000
# 4 0.0000 0.0000 0.0000 9.7764 0.0000 0.0000
# 5 0.0000 0.0000 0.0000 0.0000 23.0145 0.0000
# 6 0.0000 0.0000 0.0000 0.0000 0.0000 25.7505
#
#
#
# Elastic Compliance Matrix: (Units=1/GPa)
#
#
# Indices 1 2 3 4 5 6 
#
# 1 0.014501 -0.004929 0.000571 0.000000 0.000000 0.000000
# 2 -0.004929 0.015226 -0.006504 0.000000 0.000000 0.000000
# 3 0.000571 -0.006504 0.011597 0.000000 0.000000 0.000000
# 4 0.000000 0.000000 0.000000 0.102287 0.000000 0.000000
# 5 0.000000 0.000000 0.000000 0.000000 0.043451 0.000000
# 6 0.000000 0.000000 0.000000 0.000000 0.000000 0.038834
#
#
# Mechanical properties :
#
#
# Convention : Reuss Voigt Hill
#
# Bulk Modulus (GPa) = 51.02519 54.69240 52.85879
# Shear Modulus (GPa) = 19.67301 24.68378 22.17840
#
# Velocity S-wave (km/s) = 3.19830 3.58253 3.39585
# Velocity P-wave (km/s) = 6.33796 6.74910 6.54676
#
# Compressibility (1/GPa) = 0.01959816
#
# Stress axis : x y z
#
# Youngs Moduli (GPa) = 68.96132 65.67808 86.22559
#
# Poissons Ratio (x) = 0.32375 -0.04922
# Poissons Ratio (y) = 0.33993 0.56085
# Poissons Ratio (z) = -0.03936 0.42720
#
# Static dielectric constant tensor:
#      x y z
#    x 3.584690 0.000000 0.000000 
#    y 0.000000 3.573130 0.000000 
#    z 0.000000 0.000000 3.574330 
# 
# 
# High freq. dielectric constant tensor:
#      x y z
#    x 1.747590 0.000000 0.000000 
#    y 0.000000 1.742240 0.000000 
#    z 0.000000 0.000000 1.741640 
# 
# From -- ./inp_files/16771.got.cif
#   From: 2010.03.12/outbox.cif.g09.slc.cpg/sg46_9_cif.got.tgz:16771.got - 2010.04.14 02:56:35.
