data_PCOD8192506
_publ_section_title
;
Structure prediction by ZEFSAII (Michael W. Deem and Ramdas Pophale) SiO2 
 PCOD8192506
Probable space group: I M A 2
;
_chemical_formula_sum "Si O2"
_cell_formula_units_Z 64
_cell_length_a 15.699998
_cell_length_b 8.863444
_cell_length_c 23.692027
_cell_angle_alpha 90.000000
_cell_angle_beta 90.000000
_cell_angle_gamma 90.000000
_cell_volume 3296.888967
_symmetry_space_group_name_H-M "I M A 2"
_symmetry_group_IT_number 46
_symmetry_cell_setting 'orthorhombic'
loop_
_space_group_symop_operation_xyz
x,y,z
-x,-y,z
1/2-x,y,z
1/2+x,-y,z
1/2+x,1/2+y,1/2+z
1/2-x,1/2-y,1/2+z
-x,1/2+y,1/2+z
x,1/2-y,1/2+z
loop_
_atom_site_type_symbol
_atom_site_label
_atom_site_fract_x
_atom_site_fract_y
_atom_site_fract_z
Si Si1 0.501290 0.174716 0.202330
Si Si2 0.652080 0.810847 0.510584
Si Si3 0.652388 0.321952 0.135470
Si Si4 0.850919 0.353419 0.011143
Si Si5 0.006881 0.824677 0.334122
Si Si6 0.344845 0.178124 0.639967
Si Si7 0.079965 0.108498 0.916525
Si Si8 0.654857 0.310873 0.399946
O O1 0.589202 0.241656 0.178757
O O2 0.496049 0.205805 0.268490
O O3 0.416719 0.248187 0.177716
O O4 0.500000 0.000000 0.187473
O O5 0.750000 0.803048 0.490901
O O6 0.642316 0.767331 0.575876
O O7 0.598639 0.691526 0.474917
O O8 0.613239 0.978029 0.500240
O O9 0.750000 0.265161 0.145101
O O10 0.619228 0.286934 0.071641
O O11 0.647134 0.499527 0.145049
O O12 0.750000 0.368745 0.015422
O O13 0.881184 0.244117 0.960971
O O14 0.934338 0.731712 0.367487
O O15 0.099630 0.763489 0.350886
O O16 0.000000 0.000000 0.349706
O O17 0.250000 0.227740 0.660410
O O18 0.155063 0.993609 0.898233
O O19 0.000000 0.000000 0.925427
O O20 0.750000 0.251341 0.390699
#
# Coordination Sequence:
#
# PCOD8192506 Si02
#       8
#     8   8   8   8   8   8   8   8
#     4  11  24  39  57  81 110 146 188 234 281 325
#     4   9  17  33  56  81 110 143 180 218 263 326
#     4   9  19  37  61  86 112 146 186 224 269 329
#     4   8  16  32  55  83 112 143 177 214 263 328
#     4  10  23  42  56  73 106 147 190 229 268 324
#     4   9  20  38  59  84 113 147 186 225 269 327
#     4  10  21  34  52  80 112 141 176 224 276 323
#     4  10  20  35  57  84 112 141 177 224 277 326
#
# _framework density 19.412241000000002
#
# number of rings (size 3 to 8) (size 9 to 14) (size 15 to 20)
#    0.000    2.500    0.000    3.000    0.000    7.500 
#    0.000   10.000    0.000    0.000    0.000    0.000 
#    0.000    0.000    0.000    0.000    0.000    0.000 
#
# Total GULP energy -396731.492418 kJ/mol
# GULP energy per Si atom -12397.859138 kJ/mol
# Density = 1.936806 g / cm^3
# Si number density = 19.412241 Si / 1000 Ang^3
#
#
#
# Elastic Constant Matrix: (Units=GPa)
#
#
# Indices 1 2 3 4 5 6 
#
# 1 93.7141 44.6698 54.9505 0.0000 0.0000 0.0000
# 2 44.6698 107.2004 68.2856 0.0000 0.0000 0.0000
# 3 54.9505 68.2856 104.7362 0.0000 0.0000 0.0000
# 4 0.0000 0.0000 0.0000 33.3540 0.0000 0.0000
# 5 0.0000 0.0000 0.0000 0.0000 27.9281 0.0000
# 6 0.0000 0.0000 0.0000 0.0000 0.0000 23.3194
#
#
#
# Elastic Compliance Matrix: (Units=1/GPa)
#
#
# Indices 1 2 3 4 5 6 
#
# 1 0.015714 -0.002217 -0.006799 0.000000 0.000000 0.000000
# 2 -0.002217 0.016267 -0.009442 0.000000 0.000000 0.000000
# 3 -0.006799 -0.009442 0.019271 0.000000 0.000000 0.000000
# 4 0.000000 0.000000 0.000000 0.029981 0.000000 0.000000
# 5 0.000000 0.000000 0.000000 0.000000 0.035806 0.000000
# 6 0.000000 0.000000 0.000000 0.000000 0.000000 0.042883
#
#
# Mechanical properties :
#
#
# Convention : Reuss Voigt Hill
#
# Bulk Modulus (GPa) = 69.75851 71.27362 70.51606
# Shear Modulus (GPa) = 24.79930 26.10328 25.45129
#
# Velocity S-wave (km/s) = 3.57810 3.67097 3.62483
# Velocity P-wave (km/s) = 7.28586 7.40024 7.34327
#
# Compressibility (1/GPa) = 0.01433517
#
# Stress axis : x y z
#
# Youngs Moduli (GPa) = 63.63626 61.47451 51.89079
#
# Poissons Ratio (x) = 0.13629 0.35281
# Poissons Ratio (y) = 0.14109 0.48998
# Poissons Ratio (z) = 0.43267 0.58047
#
# Static dielectric constant tensor:
#      x y z
#    x 3.598380 0.000000 0.000000 
#    y 0.000000 3.724920 0.000000 
#    z 0.000000 0.000000 3.504760 
# 
# 
# High freq. dielectric constant tensor:
#      x y z
#    x 1.755160 0.000000 0.000000 
#    y 0.000000 1.758400 0.000000 
#    z 0.000000 0.000000 1.749250 
# 
# From -- ./inp_files/23639.got.cif
#   From: 2010.03.12/outbox.cif.g09.slc.cpg/sg46_12_cif.got.tgz:23639.got - 2010.04.14 02:56:35.
