data_PCOD8192055
_publ_section_title
;
Structure prediction by ZEFSAII (Michael W. Deem and Ramdas Pophale) SiO2 
 PCOD8192055
Probable space group: I M A 2
;
_chemical_formula_sum "Si O2"
_cell_formula_units_Z 48
_cell_length_a 16.080102
_cell_length_b 18.082692
_cell_length_c 9.020583
_cell_angle_alpha 90.000000
_cell_angle_beta 90.000000
_cell_angle_gamma 90.000000
_cell_volume 2622.928737
_symmetry_space_group_name_H-M "I M A 2"
_symmetry_group_IT_number 46
_symmetry_cell_setting 'orthorhombic'
loop_
_space_group_symop_operation_xyz
x,y,z
-x,-y,z
1/2-x,y,z
1/2+x,-y,z
1/2+x,1/2+y,1/2+z
1/2-x,1/2-y,1/2+z
-x,1/2+y,1/2+z
x,1/2-y,1/2+z
loop_
_atom_site_type_symbol
_atom_site_label
_atom_site_fract_x
_atom_site_fract_y
_atom_site_fract_z
Si Si1 0.083901 0.458076 0.485930
Si Si2 0.153291 0.581130 0.295805
Si Si3 0.418428 0.956370 0.489237
Si Si4 0.477107 0.676003 0.464080
Si Si5 0.501713 0.170496 0.304951
Si Si6 0.843376 0.922825 0.289375
O O1 0.131776 0.498971 0.353977
O O2 0.144256 0.457023 0.626464
O O3 0.000000 0.500000 0.536928
O O4 0.056596 0.376668 0.429431
O O5 0.250000 0.598593 0.310105
O O6 0.126061 0.584129 0.125348
O O7 0.106121 0.642812 0.391826
O O8 0.441065 0.893273 0.372161
O O9 0.500000 0.000000 0.545823
O O10 0.356326 0.013712 0.411626
O O11 0.494222 0.755691 0.398803
O O12 0.464902 0.684167 0.639848
O O13 0.405690 0.145590 0.309735
O O14 0.750000 0.892342 0.305230
#
# Coordination Sequence:
#
# PCOD8192055 Si02
#       6
#     8   8   8   8   8   8
#     4   9  18  34  56  78 105 141 176 208 258 319
#     4  11  21  34  54  83 108 133 174 225 264 301
#     4  10  19  34  56  79 107 141 174 210 259 318
#     4  10  20  37  56  76 104 143 180 211 257 320
#     4  10  21  37  57  76 104 145 180 209 258 320
#     4  10  19  34  55  82 108 135 174 221 260 302
#
# _framework density 18.300155
#
# number of rings (size 3 to 8) (size 9 to 14) (size 15 to 20)
#    0.000    2.000    0.000    7.000    0.000    1.333 
#    0.000    9.167    0.000    0.000    0.000    0.000 
#    0.000    0.000    0.000    0.000    0.000    0.000 
#
# Total GULP energy -297653.553537 kJ/mol
# GULP energy per Si atom -12402.231397 kJ/mol
# Density = 1.825850 g / cm^3
# Si number density = 18.300155 Si / 1000 Ang^3
#
#
#
# Elastic Constant Matrix: (Units=GPa)
#
#
# Indices 1 2 3 4 5 6 
#
# 1 126.2681 37.3002 59.6882 0.0000 0.0000 0.0000
# 2 37.3002 97.2559 48.8062 0.0000 0.0000 0.0000
# 3 59.6882 48.8062 124.8863 0.0000 0.0000 0.0000
# 4 0.0000 0.0000 0.0000 34.8539 0.0000 0.0000
# 5 0.0000 0.0000 0.0000 0.0000 12.3190 0.0000
# 6 0.0000 0.0000 0.0000 0.0000 0.0000 13.9155
#
#
#
# Elastic Compliance Matrix: (Units=1/GPa)
#
#
# Indices 1 2 3 4 5 6 
#
# 1 0.010499 -0.001877 -0.004285 0.000000 0.000000 0.000000
# 2 -0.001877 0.013126 -0.004233 0.000000 0.000000 0.000000
# 3 -0.004285 -0.004233 0.011709 0.000000 0.000000 0.000000
# 4 0.000000 0.000000 0.000000 0.028691 0.000000 0.000000
# 5 0.000000 0.000000 0.000000 0.000000 0.081175 0.000000
# 6 0.000000 0.000000 0.000000 0.000000 0.000000 0.071862
#
#
# Mechanical properties :
#
#
# Convention : Reuss Voigt Hill
#
# Bulk Modulus (GPa) = 68.74490 71.11106 69.92798
# Shear Modulus (GPa) = 20.60151 25.72540 23.16346
#
# Velocity S-wave (km/s) = 3.35887 3.75340 3.56160
# Velocity P-wave (km/s) = 7.25875 7.59780 7.43021
#
# Compressibility (1/GPa) = 0.01454653
#
# Stress axis : x y z
#
# Youngs Moduli (GPa) = 95.24316 76.18440 85.40193
#
# Poissons Ratio (x) = 0.14297 0.36592
# Poissons Ratio (y) = 0.17873 0.36149
# Poissons Ratio (z) = 0.40809 0.32248
#
# Static dielectric constant tensor:
#      x y z
#    x 3.250810 0.000000 0.000000 
#    y 0.000000 3.402610 0.000000 
#    z 0.000000 0.000000 3.422400 
# 
# 
# High freq. dielectric constant tensor:
#      x y z
#    x 1.696480 0.000000 0.000000 
#    y 0.000000 1.703380 0.000000 
#    z 0.000000 0.000000 1.722100 
# 
# From -- ./inp_files/5680.got.cif
#   From: 2010.03.12/outbox.cif.g09.slc.cpg/sg46_3_cif.got.tgz:5680.got - 2010.04.14 02:56:35.
