data_PCOD8192340
_publ_section_title
;
Structure prediction by ZEFSAII (Michael W. Deem and Ramdas Pophale) SiO2 
 PCOD8192340
Probable space group: I M A 2
;
_chemical_formula_sum "Si O2"
_cell_formula_units_Z 56
_cell_length_a 9.254300
_cell_length_b 14.356758
_cell_length_c 21.944629
_cell_angle_alpha 90.000000
_cell_angle_beta 90.000000
_cell_angle_gamma 90.000000
_cell_volume 2915.601715
_symmetry_space_group_name_H-M "I M A 2"
_symmetry_group_IT_number 46
_symmetry_cell_setting 'orthorhombic'
loop_
_space_group_symop_operation_xyz
x,y,z
-x,-y,z
1/2-x,y,z
1/2+x,-y,z
1/2+x,1/2+y,1/2+z
1/2-x,1/2-y,1/2+z
-x,1/2+y,1/2+z
x,1/2-y,1/2+z
loop_
_atom_site_type_symbol
_atom_site_label
_atom_site_fract_x
_atom_site_fract_y
_atom_site_fract_z
Si Si1 0.080940 0.097134 0.411150
Si Si2 0.918688 0.728883 0.800110
Si Si3 0.918345 0.406738 0.267805
Si Si4 0.083952 0.411557 0.557685
Si Si5 0.582419 0.910623 0.196652
Si Si6 0.081987 0.907252 0.625581
Si Si7 0.418174 0.291687 0.031356
O O1 0.250000 0.075953 0.410199
O O2 0.035277 0.160587 0.354420
O O3 0.034955 0.151438 0.472040
O O4 0.000000 0.000000 0.407737
O O5 0.750000 0.755583 0.804164
O O6 0.957115 0.679587 0.736268
O O7 0.013153 0.821961 0.805543
O O8 0.750000 0.416579 0.283718
O O9 0.943738 0.387984 0.196493
O O10 0.000000 0.500000 0.288422
O O11 0.250000 0.439483 0.555075
O O12 0.035113 0.391506 0.627237
O O13 0.052054 0.318077 0.519217
O O14 0.000000 0.500000 0.529706
O O15 0.750000 0.933767 0.202719
O O16 0.500000 0.000000 0.223421
O O17 0.250000 0.918859 0.609745
O O18 0.014748 0.821942 0.588473
O O19 0.000000 0.000000 0.604072
O O20 0.250000 0.306686 0.048046
#
# Coordination Sequence:
#
# PCOD8192340 Si02
#       7
#     8   8   8   8   8   8   8
#     4  10  22  38  56  79 107 140 178 220 262 309
#     4  10  20  35  54  76 105 140 176 216 264 314
#     4  10  21  36  55  80 108 138 174 218 266 317
#     4   9  18  32  50  73 101 132 168 211 259 311
#     4   9  17  29  48  74 102 133 167 208 260 313
#     4  10  20  33  52  80 110 139 174 217 266 319
#     4  10  20  35  54  76 106 144 182 220 265 313
#
# _framework density 19.207013
#
# number of rings (size 3 to 8) (size 9 to 14) (size 15 to 20)
#    0.000    2.286    0.000    2.571    0.000    6.286 
#    0.000    3.571    0.000    1.714    0.000    0.000 
#    0.000    0.000    0.000    0.000    0.000    0.000 
#
# Total GULP energy -347275.977084 kJ/mol
# GULP energy per Si atom -12402.713467 kJ/mol
# Density = 1.916330 g / cm^3
# Si number density = 19.207013 Si / 1000 Ang^3
#
#
#
# Elastic Constant Matrix: (Units=GPa)
#
#
# Indices 1 2 3 4 5 6 
#
# 1 81.4199 75.9659 34.6304 0.0000 0.0000 0.0000
# 2 75.9659 166.6732 52.2890 0.0000 0.0000 0.0000
# 3 34.6304 52.2890 56.5235 0.0000 0.0000 0.0000
# 4 0.0000 0.0000 0.0000 28.5866 0.0000 0.0000
# 5 0.0000 0.0000 0.0000 0.0000 19.8548 0.0000
# 6 0.0000 0.0000 0.0000 0.0000 0.0000 41.9760
#
#
#
# Elastic Compliance Matrix: (Units=1/GPa)
#
#
# Indices 1 2 3 4 5 6 
#
# 1 0.022784 -0.008461 -0.006132 0.000000 0.000000 0.000000
# 2 -0.008461 0.011595 -0.005543 0.000000 0.000000 0.000000
# 3 -0.006132 -0.005543 0.026576 0.000000 0.000000 0.000000
# 4 0.000000 0.000000 0.000000 0.034981 0.000000 0.000000
# 5 0.000000 0.000000 0.000000 0.000000 0.050366 0.000000
# 6 0.000000 0.000000 0.000000 0.000000 0.000000 0.023823
#
#
# Mechanical properties :
#
#
# Convention : Reuss Voigt Hill
#
# Bulk Modulus (GPa) = 48.34659 70.04301 59.19480
# Shear Modulus (GPa) = 23.01058 27.53223 25.27140
#
# Velocity S-wave (km/s) = 3.46501 3.79020 3.63125
# Velocity P-wave (km/s) = 6.42140 7.46329 6.96186
#
# Compressibility (1/GPa) = 0.02068398
#
# Stress axis : x y z
#
# Youngs Moduli (GPa) = 43.89000 86.24602 37.62757
#
# Poissons Ratio (x) = 0.72970 0.23075
# Poissons Ratio (y) = 0.37134 0.20855
# Poissons Ratio (z) = 0.26915 0.47802
#
# Static dielectric constant tensor:
#      x y z
#    x 3.444540 0.000000 0.000000 
#    y 0.000000 3.547970 0.000000 
#    z 0.000000 0.000000 3.369050 
# 
# 
# High freq. dielectric constant tensor:
#      x y z
#    x 1.742830 0.000000 0.000000 
#    y 0.000000 1.757030 0.000000 
#    z 0.000000 0.000000 1.726150 
# 
# From -- ./inp_files/21037.got.cif
#   From: 2010.03.12/outbox.cif.g09.slc.cpg/sg46_11_cif.got.tgz:21037.got - 2010.04.14 02:56:35.
