data_PCOD8192598
_publ_section_title
;
Structure prediction by ZEFSAII (Michael W. Deem and Ramdas Pophale) SiO2 
 PCOD8192598
Probable space group: I M A 2
;
_chemical_formula_sum "Si O2"
_cell_formula_units_Z 60
_cell_length_a 11.444337
_cell_length_b 28.347320
_cell_length_c 8.954816
_cell_angle_alpha 90.000000
_cell_angle_beta 90.000000
_cell_angle_gamma 90.000000
_cell_volume 2905.088123
_symmetry_space_group_name_H-M "I M A 2"
_symmetry_group_IT_number 46
_symmetry_cell_setting 'orthorhombic'
loop_
_space_group_symop_operation_xyz
x,y,z
-x,-y,z
1/2-x,y,z
1/2+x,-y,z
1/2+x,1/2+y,1/2+z
1/2-x,1/2-y,1/2+z
-x,1/2+y,1/2+z
x,1/2-y,1/2+z
loop_
_atom_site_type_symbol
_atom_site_label
_atom_site_fract_x
_atom_site_fract_y
_atom_site_fract_z
Si Si1 0.033998 0.398544 0.604320
Si Si2 0.113920 0.929547 0.838441
Si Si3 0.505328 0.250869 0.784548
Si Si4 0.883833 0.526303 0.817519
Si Si5 0.384777 0.838446 0.651097
Si Si6 0.879248 0.800423 0.040944
Si Si7 0.380706 0.655907 0.829881
Si Si8 0.000000 0.000000 0.605515
O O1 0.117896 0.425747 0.721187
O O2 0.108165 0.357107 0.525483
O O3 0.971043 0.432947 0.482810
O O4 0.935097 0.372884 0.696915
O O5 0.250000 0.939956 0.879171
O O6 0.098473 0.876410 0.780504
O O7 0.074593 0.965544 0.710030
O O8 0.543069 0.208495 0.679036
O O9 0.401548 0.281777 0.709388
O O10 0.610496 0.287491 0.811540
O O11 0.468800 0.228071 0.939761
O O12 0.750000 0.504722 0.799595
O O13 0.000000 0.500000 0.748341
O O14 0.911052 0.529811 0.996669
O O15 0.250000 0.823994 0.634704
O O16 0.431311 0.859076 0.492631
O O17 0.750000 0.787156 0.989814
O O18 0.250000 0.639176 0.821317
#
# Coordination Sequence:
#
# PCOD8192598 Si02
#       8
#     8   8   8   8   8   8   8   4
#     4  11  23  41  65  94 132 165 216 264 322 388
#     4  11  23  41  66  99 131 166 210 271 335 397
#     4  11  20  38  57  83 124 157 212 255 317 370
#     4  10  24  46  72  98 131 174 221 268 329 401
#     4  10  20  36  59  87 124 162 203 255 314 378
#     4  11  23  39  60  83 121 168 216 265 313 373
#     4  10  21  36  60  91 124 169 209 254 313 380
#     4  10  24  44  70  96 132 168 214 266 332 404
#
# _framework density 20.653417999999999
#
# number of rings (size 3 to 8) (size 9 to 14) (size 15 to 20)
#    0.400    1.067    2.667    2.800    0.933    1.067 
#    0.000    2.000    0.000    0.000    0.000    0.000 
#    0.000    0.000    0.000    0.000    0.000    0.000 
#
# Total GULP energy -371647.818630 kJ/mol
# GULP energy per Si atom -12388.260621 kJ/mol
# Density = 2.060641 g / cm^3
# Si number density = 20.653418 Si / 1000 Ang^3
#
#
#
# Elastic Constant Matrix: (Units=GPa)
#
#
# Indices 1 2 3 4 5 6 
#
# 1 83.6125 30.3841 28.0848 -0.0001 -0.0012 -0.0004
# 2 30.3841 67.3654 29.7989 0.0001 -0.0003 -0.0001
# 3 28.0848 29.7989 101.0803 -0.0021 -0.0014 -0.0026
# 4 -0.0001 0.0001 -0.0021 44.2540 -0.0006 0.0001
# 5 -0.0012 -0.0003 -0.0014 -0.0006 19.2513 -0.0003
# 6 -0.0004 -0.0001 -0.0026 0.0001 -0.0003 19.3238
#
#
#
# Elastic Compliance Matrix: (Units=1/GPa)
#
#
# Indices 1 2 3 4 5 6 
#
# 1 0.014822 -0.005593 -0.002469 0.000000 0.000001 0.000000
# 2 -0.005593 0.019181 -0.004101 0.000000 0.000000 -0.000001
# 3 -0.002469 -0.004101 0.011788 0.000001 0.000001 0.000002
# 4 0.000000 0.000000 0.000001 0.022597 0.000001 0.000000
# 5 0.000001 0.000000 0.000001 0.000001 0.051945 0.000001
# 6 0.000000 -0.000001 0.000002 0.000000 0.000001 0.051750
#
#
# Mechanical properties :
#
#
# Convention : Reuss Voigt Hill
#
# Bulk Modulus (GPa) = 46.58733 47.62153 47.10443
# Shear Modulus (GPa) = 24.56248 27.48518 26.02383
#
# Velocity S-wave (km/s) = 3.45232 3.65194 3.55353
# Velocity P-wave (km/s) = 6.20460 6.39451 6.30027
#
# Compressibility (1/GPa) = 0.02146506
#
# Stress axis : x y z
#
# Youngs Moduli (GPa) = 67.46843 52.13528 84.83112
#
# Poissons Ratio (x) = 0.29158 0.20948
# Poissons Ratio (y) = 0.37734 0.34786
# Poissons Ratio (z) = 0.16661 0.21379
#
# Static dielectric constant tensor:
#      x y z
#    x 3.749420 0.000000 0.000000 
#    y 0.000000 3.669900 0.000000 
#    z 0.000000 0.000000 3.875650 
# 
# 
# High freq. dielectric constant tensor:
#      x y z
#    x 1.795650 0.000000 0.000000 
#    y 0.000000 1.798540 0.000000 
#    z 0.000000 0.000000 1.818450 
# 
# From -- ./inp_files/4997.got.cif
#   From: 2010.03.12/outbox.cif.g09.slc.cpg/sg46_3_cif.got.tgz:4997.got - 2010.04.14 02:56:35.
