data_PCOD8192544
_publ_section_title
;
Structure prediction by ZEFSAII (Michael W. Deem and Ramdas Pophale) SiO2 
 PCOD8192544
Probable space group: I M A 2
;
_chemical_formula_sum "Si O2"
_cell_formula_units_Z 48
_cell_length_a 8.693147
_cell_length_b 30.524325
_cell_length_c 9.794876
_cell_angle_alpha 90.000000
_cell_angle_beta 90.000000
_cell_angle_gamma 90.000000
_cell_volume 2599.094288
_symmetry_space_group_name_H-M "I M A 2"
_symmetry_group_IT_number 46
_symmetry_cell_setting 'orthorhombic'
loop_
_space_group_symop_operation_xyz
x,y,z
-x,-y,z
1/2-x,y,z
1/2+x,-y,z
1/2+x,1/2+y,1/2+z
1/2-x,1/2-y,1/2+z
-x,1/2+y,1/2+z
x,1/2-y,1/2+z
loop_
_atom_site_type_symbol
_atom_site_label
_atom_site_fract_x
_atom_site_fract_y
_atom_site_fract_z
Si Si1 0.929931 0.787480 0.974940
Si Si2 0.568449 0.708856 0.787378
Si Si3 0.931543 0.953776 0.476559
Si Si4 0.932913 0.046586 0.767712
Si Si5 0.930410 0.117250 0.283139
Si Si6 0.430345 0.621492 0.470527
O O1 0.750000 0.791178 0.954545
O O2 0.993517 0.747636 0.883810
O O3 0.999569 0.832757 0.920161
O O4 0.974524 0.778726 0.132064
O O5 0.750000 0.700656 0.804461
O O6 0.478134 0.665468 0.833376
O O7 0.750000 0.958332 0.493985
O O8 0.004922 0.939521 0.620065
O O9 0.971454 0.917883 0.364827
O O10 0.000000 0.000000 0.427272
O O11 0.750000 0.043595 0.762971
O O12 0.992391 0.082481 0.875547
O O13 0.000000 0.000000 0.814261
O O14 0.750000 0.109810 0.307762
O O15 0.978402 0.111219 0.125570
O O16 0.250000 0.626147 0.456847
#
# Coordination Sequence:
#
# PCOD8192544 Si02
#       6
#     8   8   8   8   8   8
#     4   9  18  32  51  73 102 136 174 215 257 305
#     4   9  18  33  50  73 102 135 173 215 258 305
#     4  11  22  37  56  79 106 138 174 215 259 309
#     4  10  20  36  55  78 106 137 173 216 261 311
#     4  10  20  36  55  78 107 140 175 215 259 308
#     4   9  20  36  54  77 107 138 174 216 261 310
#
# _framework density 18.467973000000001
#
# number of rings (size 3 to 8) (size 9 to 14) (size 15 to 20)
#    0.000    2.333    0.000    3.500    0.000    4.667 
#    0.000    3.333    0.000    0.000    0.000    0.000 
#    0.000    0.000    0.000    0.000    0.000    0.000 
#
# Total GULP energy -297665.232630 kJ/mol
# GULP energy per Si atom -12402.718026 kJ/mol
# Density = 1.842594 g / cm^3
# Si number density = 18.467973 Si / 1000 Ang^3
#
#
#
# Elastic Constant Matrix: (Units=GPa)
#
#
# Indices 1 2 3 4 5 6 
#
# 1 57.6640 40.1970 29.3725 -0.0012 0.0007 0.0001
# 2 40.1970 155.4753 91.0032 -0.0029 0.0013 0.0004
# 3 29.3725 91.0032 90.6107 -0.0012 0.0008 0.0003
# 4 -0.0012 -0.0029 -0.0012 43.5375 0.0014 0.0003
# 5 0.0007 0.0013 0.0008 0.0014 12.4452 -0.0008
# 6 0.0001 0.0004 0.0003 0.0003 -0.0008 35.9227
#
#
#
# Elastic Compliance Matrix: (Units=1/GPa)
#
#
# Indices 1 2 3 4 5 6 
#
# 1 0.021572 -0.003601 -0.003376 0.000000 -0.000001 0.000000
# 2 -0.003601 0.016207 -0.015110 0.000001 -0.000001 0.000000
# 3 -0.003376 -0.015110 0.027306 0.000000 0.000000 0.000000
# 4 0.000000 0.000001 0.000000 0.022969 -0.000003 0.000000
# 5 -0.000001 -0.000001 0.000000 -0.000003 0.080352 0.000002
# 6 0.000000 0.000000 0.000000 0.000000 0.000002 0.027838
#
#
# Mechanical properties :
#
#
# Convention : Reuss Voigt Hill
#
# Bulk Modulus (GPa) = 47.82243 69.43284 58.62763
# Shear Modulus (GPa) = 20.21117 27.92624 24.06871
#
# Velocity S-wave (km/s) = 3.31175 3.89285 3.61400
# Velocity P-wave (km/s) = 6.36982 7.60813 7.01635
#
# Compressibility (1/GPa) = 0.02091069
#
# Stress axis : x y z
#
# Youngs Moduli (GPa) = 46.35679 61.70104 36.62194
#
# Poissons Ratio (x) = 0.22220 0.12363
# Poissons Ratio (y) = 0.16694 0.55336
# Poissons Ratio (z) = 0.15650 0.93230
#
# Static dielectric constant tensor:
#      x y z
#    x 3.350190 0.000000 0.000000 
#    y 0.000000 3.555560 0.000000 
#    z 0.000000 0.000000 3.499440 
# 
# 
# High freq. dielectric constant tensor:
#      x y z
#    x 1.718320 0.000000 0.000000 
#    y 0.000000 1.724300 0.000000 
#    z 0.000000 0.000000 1.713910 
# 
# From -- ./inp_files/3915.got.cif
#   From: 2010.03.12/outbox.cif.g09.slc.cpg/sg46_2_cif.got.tgz:3915.got - 2010.04.14 02:56:35.
