data_PCOD8192154
_publ_section_title
;
Structure prediction by ZEFSAII (Michael W. Deem and Ramdas Pophale) SiO2 
 PCOD8192154
Probable space group: I M A 2
;
_chemical_formula_sum "Si O2"
_cell_formula_units_Z 64
_cell_length_a 8.862425
_cell_length_b 18.248508
_cell_length_c 20.887647
_cell_angle_alpha 90.000000
_cell_angle_beta 90.000000
_cell_angle_gamma 90.000000
_cell_volume 3378.076299
_symmetry_space_group_name_H-M "I M A 2"
_symmetry_group_IT_number 46
_symmetry_cell_setting 'orthorhombic'
loop_
_space_group_symop_operation_xyz
x,y,z
-x,-y,z
1/2-x,y,z
1/2+x,-y,z
1/2+x,1/2+y,1/2+z
1/2-x,1/2-y,1/2+z
-x,1/2+y,1/2+z
x,1/2-y,1/2+z
loop_
_atom_site_type_symbol
_atom_site_label
_atom_site_fract_x
_atom_site_fract_y
_atom_site_fract_z
Si Si1 0.922908 0.836104 0.020670
Si Si2 0.425865 0.173914 0.157340
Si Si3 0.927211 0.078986 0.408656
Si Si4 0.574037 0.078203 0.909503
Si Si5 0.572188 0.329347 0.287598
Si Si6 0.921462 0.838302 0.520910
Si Si7 0.926687 0.663682 0.162729
Si Si8 0.427480 0.329827 0.796448
O O1 0.750000 0.858937 0.006825
O O2 0.979556 0.865444 0.091463
O O3 0.941420 0.748724 0.019142
O O4 0.030616 0.871125 0.968907
O O5 0.250000 0.187349 0.146744
O O6 0.495907 0.254584 0.161784
O O7 0.458781 0.134287 0.225381
O O8 0.750000 0.070126 0.402120
O O9 0.963846 0.125135 0.471911
O O10 0.987343 0.119870 0.346328
O O11 0.000000 0.000000 0.414284
O O12 0.750000 0.066019 0.910654
O O13 0.522193 0.117112 0.844469
O O14 0.500000 0.000000 0.916196
O O15 0.750000 0.314470 0.287098
O O16 0.519077 0.371347 0.222197
O O17 0.486024 0.253066 0.299465
O O18 0.750000 0.858964 0.501878
O O19 0.957364 0.870331 0.592323
O O20 0.750000 0.660292 0.179377
O O21 0.250000 0.329245 0.811929
#
# Coordination Sequence:
#
# PCOD8192154 Si02
#       8
#     8   8   8   8   8   8   8   8
#     4   9  17  33  58  83 107 136 171 212 260 313
#     4   7  13  28  52  81 107 132 166 208 253 307
#     4  12  25  39  54  76 108 144 183 225 269 319
#     4  11  24  38  51  72 104 141 181 221 262 311
#     4  10  20  34  54  82 111 138 176 223 267 315
#     4   9  18  35  59  85 110 140 177 215 261 320
#     4   8  15  30  54  82 109 137 172 213 260 315
#     4  10  19  35  59  83 108 140 177 217 265 320
#
# _framework density 18.945695000000001
#
# number of rings (size 3 to 8) (size 9 to 14) (size 15 to 20)
#    0.000    2.500    0.000    5.250    0.000    5.000 
#    0.000    6.875    0.000    1.500    0.000    0.000 
#    0.000    0.000    0.000    0.000    0.000    0.000 
#
# Total GULP energy -396512.220730 kJ/mol
# GULP energy per Si atom -12391.006898 kJ/mol
# Density = 1.890257 g / cm^3
# Si number density = 18.945695 Si / 1000 Ang^3
#
#
#
# Elastic Constant Matrix: (Units=GPa)
#
#
# Indices 1 2 3 4 5 6 
#
# 1 78.1964 24.6662 50.3726 0.0000 0.0000 0.0000
# 2 24.6662 48.3623 40.5139 0.0000 0.0000 0.0000
# 3 50.3726 40.5139 168.2479 0.0000 0.0000 0.0000
# 4 0.0000 0.0000 0.0000 -26.2284 0.0000 0.0000
# 5 0.0000 0.0000 0.0000 0.0000 24.4686 0.0000
# 6 0.0000 0.0000 0.0000 0.0000 0.0000 21.2377
#
#
#
# Elastic Compliance Matrix: (Units=1/GPa)
#
#
# Indices 1 2 3 4 5 6 
#
# 1 0.016936 -0.005500 -0.003746 0.000000 0.000000 0.000000
# 2 -0.005500 0.027688 -0.005021 0.000000 0.000000 0.000000
# 3 -0.003746 -0.005021 0.008274 0.000000 0.000000 0.000000
# 4 0.000000 0.000000 0.000000 -0.038127 0.000000 0.000000
# 5 0.000000 0.000000 0.000000 0.000000 0.040869 0.000000
# 6 0.000000 0.000000 0.000000 0.000000 0.000000 0.047086
#
#
# Mechanical properties :
#
#
# Convention : Reuss Voigt Hill
#
# Bulk Modulus (GPa) = 41.04191 58.43469 49.73830
# Shear Modulus (GPa) = 35.87248 15.84582 25.85915
#
# Velocity S-wave (km/s) = 4.35608 2.89516 3.69848
# Velocity P-wave (km/s) = 6.85643 6.48739 6.67446
#
# Compressibility (1/GPa) = 0.02436534
#
# Stress axis : x y z
#
# Youngs Moduli (GPa) = 59.04412 36.11647 120.85704
#
# Poissons Ratio (x) = 0.19863 0.45278
# Poissons Ratio (y) = 0.32473 0.60679
# Poissons Ratio (z) = 0.22120 0.18133
#
# Static dielectric constant tensor:
#      x y z
#    x 3.396710 0.000000 0.000000 
#    y 0.000000 3.289400 0.000000 
#    z 0.000000 0.000000 4.075120 
# 
# 
# High freq. dielectric constant tensor:
#      x y z
#    x 1.726740 0.000000 0.000000 
#    y 0.000000 1.694020 0.000000 
#    z 0.000000 0.000000 1.767070 
# 
# From -- ./inp_files/21314.got.cif
#   From: 2010.03.12/outbox.cif.g09.slc.cpg/sg46_11_cif.got.tgz:21314.got - 2010.04.14 02:56:35.
