data_PCOD8192632
_publ_section_title
;
Structure prediction by ZEFSAII (Michael W. Deem and Ramdas Pophale) SiO2 
 PCOD8192632
Probable space group: I M A 2
;
_chemical_formula_sum "Si O2"
_cell_formula_units_Z 40
_cell_length_a 9.816563
_cell_length_b 8.871028
_cell_length_c 22.224105
_cell_angle_alpha 90.000000
_cell_angle_beta 90.000000
_cell_angle_gamma 90.000000
_cell_volume 1935.341852
_symmetry_space_group_name_H-M "I M A 2"
_symmetry_group_IT_number 46
_symmetry_cell_setting 'orthorhombic'
loop_
_space_group_symop_operation_xyz
x,y,z
-x,-y,z
1/2-x,y,z
1/2+x,-y,z
1/2+x,1/2+y,1/2+z
1/2-x,1/2-y,1/2+z
-x,1/2+y,1/2+z
x,1/2-y,1/2+z
loop_
_atom_site_type_symbol
_atom_site_label
_atom_site_fract_x
_atom_site_fract_y
_atom_site_fract_z
Si Si1 0.500000 0.000000 0.705010
Si Si2 0.091720 0.861447 0.000972
Si Si3 0.101265 0.239918 0.793618
Si Si4 0.000000 0.000000 0.216183
Si Si5 0.090565 0.650281 0.889917
Si Si6 0.101203 0.734838 0.626469
O O1 0.596457 0.900902 0.747839
O O2 0.424013 0.891535 0.659095
O O3 0.250000 0.914266 0.004808
O O4 0.078038 0.723482 0.955002
O O5 0.022059 0.804358 0.064343
O O6 0.000000 0.000000 0.977735
O O7 0.250000 0.233191 0.825457
O O8 0.096089 0.396222 0.756883
O O9 0.976230 0.235166 0.840933
O O10 0.905147 0.101748 0.174608
O O11 0.250000 0.619356 0.873446
O O12 0.000000 0.500000 0.888577
O O13 0.250000 0.746841 0.599635
#
# Coordination Sequence:
#
# PCOD8192632 Si02
#       6
#     4   8   8   4   8   8
#     4  10  24  38  60  94 130 166 208 250 312 366
#     4  10  23  43  66  94 123 162 209 257 311 368
#     4  11  23  40  63  93 126 165 210 256 312 371
#     4  10  20  36  64  90 122 156 210 248 316 370
#     4  11  25  43  66  93 124 163 210 259 312 373
#     4  10  20  39  62  88 126 162 201 255 309 368
#
# _framework density 20.668184
#
# number of rings (size 3 to 8) (size 9 to 14) (size 15 to 20)
#    0.000    1.600    2.000    1.800    2.800    5.600 
#    0.000    1.000    0.000    0.000    0.000    0.000 
#    0.000    0.000    0.000    0.000    0.000    0.000 
#
# Total GULP energy -247817.352089 kJ/mol
# GULP energy per Si atom -12390.867604 kJ/mol
# Density = 2.062114 g / cm^3
# Si number density = 20.668184 Si / 1000 Ang^3
#
#
#
# Elastic Constant Matrix: (Units=GPa)
#
#
# Indices 1 2 3 4 5 6 
#
# 1 130.8643 40.9196 40.6688 0.0000 0.0000 0.0000
# 2 40.9196 107.9648 31.0906 0.0000 0.0000 0.0000
# 3 40.6688 31.0906 105.8147 0.0000 0.0000 0.0000
# 4 0.0000 0.0000 0.0000 7.7562 0.0000 0.0000
# 5 0.0000 0.0000 0.0000 0.0000 29.5692 0.0000
# 6 0.0000 0.0000 0.0000 0.0000 0.0000 15.2984
#
#
#
# Elastic Compliance Matrix: (Units=1/GPa)
#
#
# Indices 1 2 3 4 5 6 
#
# 1 0.009368 -0.002746 -0.002794 0.000000 0.000000 0.000000
# 2 -0.002746 0.010923 -0.002154 0.000000 0.000000 0.000000
# 3 -0.002794 -0.002154 0.011157 0.000000 0.000000 0.000000
# 4 0.000000 0.000000 0.000000 0.128929 0.000000 0.000000
# 5 0.000000 0.000000 0.000000 0.000000 0.033819 0.000000
# 6 0.000000 0.000000 0.000000 0.000000 0.000000 0.065366
#
#
# Mechanical properties :
#
#
# Convention : Reuss Voigt Hill
#
# Bulk Modulus (GPa) = 62.26283 63.33353 62.79818
# Shear Modulus (GPa) = 17.83773 25.98909 21.91341
#
# Velocity S-wave (km/s) = 2.94096 3.54989 3.25968
# Velocity P-wave (km/s) = 6.45931 6.89288 6.67962
#
# Compressibility (1/GPa) = 0.01606095
#
# Stress axis : x y z
#
# Youngs Moduli (GPa) = 106.74156 91.54645 89.62860
#
# Poissons Ratio (x) = 0.25140 0.25040
# Poissons Ratio (y) = 0.29313 0.19307
# Poissons Ratio (z) = 0.29821 0.19720
#
# Static dielectric constant tensor:
#      x y z
#    x 3.592860 0.000000 0.000000 
#    y 0.000000 2.252690 0.000000 
#    z 0.000000 0.000000 3.883960 
# 
# 
# High freq. dielectric constant tensor:
#      x y z
#    x 1.796580 0.000000 0.000000 
#    y 0.000000 1.812140 0.000000 
#    z 0.000000 0.000000 1.821600 
# 
# From -- ./inp_files/22758.got.cif
#   From: 2010.03.12/outbox.cif.g09.slc.cpg/sg46_12_cif.got.tgz:22758.got - 2010.04.14 02:56:35.
