data_PCOD8192595
_publ_section_title
;
Structure prediction by ZEFSAII (Michael W. Deem and Ramdas Pophale) SiO2 
 PCOD8192595
Probable space group: I M A 2
;
_chemical_formula_sum "Si O2"
_cell_formula_units_Z 48
_cell_length_a 8.910722
_cell_length_b 9.122944
_cell_length_c 30.153855
_cell_angle_alpha 90.000000
_cell_angle_beta 90.000000
_cell_angle_gamma 90.000000
_cell_volume 2451.267718
_symmetry_space_group_name_H-M "I M A 2"
_symmetry_group_IT_number 46
_symmetry_cell_setting 'orthorhombic'
loop_
_space_group_symop_operation_xyz
x,y,z
-x,-y,z
1/2-x,y,z
1/2+x,-y,z
1/2+x,1/2+y,1/2+z
1/2-x,1/2-y,1/2+z
-x,1/2+y,1/2+z
x,1/2-y,1/2+z
loop_
_atom_site_type_symbol
_atom_site_label
_atom_site_fract_x
_atom_site_fract_y
_atom_site_fract_z
Si Si1 0.926972 0.341891 0.638240
Si Si2 0.574606 0.345864 0.053398
Si Si3 0.576050 0.843918 0.715032
Si Si4 0.076575 0.348267 0.801526
Si Si5 0.574534 0.349390 0.474199
Si Si6 0.573086 0.153565 0.872957
O O1 0.750000 0.357486 0.644851
O O2 0.969728 0.266961 0.591888
O O3 0.000000 0.500000 0.639667
O O4 0.992342 0.245145 0.677391
O O5 0.500000 0.500000 0.063185
O O6 0.750000 0.374235 0.052379
O O7 0.517356 0.279869 0.006521
O O8 0.750000 0.861993 0.702183
O O9 0.555799 0.762845 0.761411
O O10 0.500000 0.000000 0.720206
O O11 0.250000 0.375508 0.812819
O O12 0.000000 0.500000 0.787838
O O13 0.995174 0.284914 0.844736
O O14 0.500000 0.500000 0.489400
O O15 0.750000 0.372951 0.480113
O O16 0.532188 0.309288 0.423831
O O17 0.750000 0.142093 0.864999
O O18 0.500000 0.000000 0.858408
#
# Coordination Sequence:
#
# PCOD8192595 Si02
#       6
#     8   8   8   8   8   8
#     4  11  23  39  61  87 116 150 189 234 283 336
#     4  10  22  38  56  82 115 150 189 232 280 334
#     4  11  24  41  62  87 116 150 188 232 282 336
#     4  11  24  40  59  84 115 151 190 234 284 337
#     4   9  19  36  57  83 113 147 188 232 280 334
#     4  10  20  36  59  85 115 150 190 236 284 337
#
# _framework density 19.581703000000001
#
# number of rings (size 3 to 8) (size 9 to 14) (size 15 to 20)
#    0.000    1.667    0.000    4.000    0.000   10.000 
#    0.000    1.667    0.000    0.000    0.000    0.000 
#    0.000    0.000    0.000    0.000    0.000    0.000 
#
# Total GULP energy -297721.817349 kJ/mol
# GULP energy per Si atom -12405.075723 kJ/mol
# Density = 1.953713 g / cm^3
# Si number density = 19.581703 Si / 1000 Ang^3
#
#
#
# Elastic Constant Matrix: (Units=GPa)
#
#
# Indices 1 2 3 4 5 6 
#
# 1 95.4215 69.7027 55.8999 0.0000 0.0000 0.0000
# 2 69.7027 147.3296 54.8328 0.0000 0.0000 0.0000
# 3 55.8999 54.8328 99.6599 0.0000 0.0000 0.0000
# 4 0.0000 0.0000 0.0000 34.0991 0.0000 0.0000
# 5 0.0000 0.0000 0.0000 0.0000 29.5683 0.0000
# 6 0.0000 0.0000 0.0000 0.0000 0.0000 40.8693
#
#
#
# Elastic Compliance Matrix: (Units=1/GPa)
#
#
# Indices 1 2 3 4 5 6 
#
# 1 0.019562 -0.006503 -0.007395 0.000000 0.000000 0.000000
# 2 -0.006503 0.010697 -0.002238 0.000000 0.000000 0.000000
# 3 -0.007395 -0.002238 0.015413 0.000000 0.000000 0.000000
# 4 0.000000 0.000000 0.000000 0.029326 0.000000 0.000000
# 5 0.000000 0.000000 0.000000 0.000000 0.033820 0.000000
# 6 0.000000 0.000000 0.000000 0.000000 0.000000 0.024468
#
#
# Mechanical properties :
#
#
# Convention : Reuss Voigt Hill
#
# Bulk Modulus (GPa) = 74.61982 78.14241 76.38112
# Shear Modulus (GPa) = 29.40761 31.70569 30.55665
#
# Velocity S-wave (km/s) = 3.87950 4.02823 3.95456
# Velocity P-wave (km/s) = 7.63263 7.85035 7.74225
#
# Compressibility (1/GPa) = 0.01340126
#
# Stress axis : x y z
#
# Youngs Moduli (GPa) = 51.12014 93.48469 64.87980
#
# Poissons Ratio (x) = 0.60791 0.47975
# Poissons Ratio (y) = 0.33242 0.14520
# Poissons Ratio (z) = 0.37801 0.20922
#
# Static dielectric constant tensor:
#      x y z
#    x 3.668980 0.000000 0.000000 
#    y 0.000000 3.573300 0.000000 
#    z 0.000000 0.000000 3.808270 
# 
# 
# High freq. dielectric constant tensor:
#      x y z
#    x 1.771860 0.000000 0.000000 
#    y 0.000000 1.770610 0.000000 
#    z 0.000000 0.000000 1.777240 
# 
# From -- ./inp_files/24974.got.cif
#   From: 2010.03.12/outbox.cif.g09.slc.cpg/sg46_13_cif.got.tgz:24974.got - 2010.04.14 02:56:35.
