data_PCOD8192812
_publ_section_title
;
Structure prediction by ZEFSAII (Michael W. Deem and Ramdas Pophale) SiO2 
 PCOD8192812
Probable space group: I M A 2
;
_chemical_formula_sum "Si O2"
_cell_formula_units_Z 40
_cell_length_a 15.470450
_cell_length_b 15.034512
_cell_length_c 6.879018
_cell_angle_alpha 90.000000
_cell_angle_beta 90.000000
_cell_angle_gamma 90.000000
_cell_volume 1599.995379
_symmetry_space_group_name_H-M "I M A 2"
_symmetry_group_IT_number 46
_symmetry_cell_setting 'orthorhombic'
loop_
_space_group_symop_operation_xyz
x,y,z
-x,-y,z
1/2-x,y,z
1/2+x,-y,z
1/2+x,1/2+y,1/2+z
1/2-x,1/2-y,1/2+z
-x,1/2+y,1/2+z
x,1/2-y,1/2+z
loop_
_atom_site_type_symbol
_atom_site_label
_atom_site_fract_x
_atom_site_fract_y
_atom_site_fract_z
Si Si1 0.655605 0.049007 0.612260
Si Si2 0.344267 0.331992 0.728936
Si Si3 0.934547 0.336975 0.402702
Si Si4 0.531152 0.360831 0.840225
Si Si5 0.380299 0.364376 0.291524
O O1 0.750000 0.070502 0.521851
O O2 0.644979 0.114929 0.797595
O O3 0.579424 0.060364 0.453718
O O4 0.657316 0.947648 0.679254
O O5 0.250000 0.363236 0.812199
O O6 0.425664 0.359833 0.868497
O O7 0.356247 0.374249 0.517615
O O8 0.341577 0.225439 0.699626
O O9 0.947033 0.376960 0.615688
O O10 0.925715 0.230530 0.418003
O O11 0.016241 0.360931 0.265891
#
# Coordination Sequence:
#
# PCOD8192812 Si02
#       5
#     8   8   8   8   8
#     4  12  25  43  69 106 148 192 247 299 348 423
#     4  10  20  41  74 107 143 186 230 291 374 444
#     4  10  21  45  69  98 140 191 242 292 359 425
#     4  10  22  42  72 100 143 190 238 294 360 427
#     4  10  23  43  71 105 144 183 235 304 365 429
#
# _framework density 25.000070999999998
#
# number of rings (size 3 to 8) (size 9 to 14) (size 15 to 20)
#    0.000    1.600    2.000    2.400    2.800    1.600 
#    3.600    2.000    0.000    0.000    0.000    0.000 
#    0.000    0.000    0.000    0.000    0.000    0.000 
#
# Total GULP energy -248020.647308 kJ/mol
# GULP energy per Si atom -12401.032365 kJ/mol
# Density = 2.494317 g / cm^3
# Si number density = 25.000071 Si / 1000 Ang^3
#
#
#
# Elastic Constant Matrix: (Units=GPa)
#
#
# Indices 1 2 3 4 5 6 
#
# 1 185.3260 60.1016 53.1691 0.0000 0.0000 0.0000
# 2 60.1016 94.3903 36.1235 0.0000 0.0000 0.0000
# 3 53.1691 36.1235 67.8940 0.0000 0.0000 0.0000
# 4 0.0000 0.0000 0.0000 40.5363 0.0000 0.0000
# 5 0.0000 0.0000 0.0000 0.0000 28.6205 0.0000
# 6 0.0000 0.0000 0.0000 0.0000 0.0000 -44.2376
#
#
#
# Elastic Compliance Matrix: (Units=1/GPa)
#
#
# Indices 1 2 3 4 5 6 
#
# 1 0.007679 -0.003250 -0.004285 0.000000 0.000000 0.000000
# 2 -0.003250 0.014678 -0.005265 0.000000 0.000000 0.000000
# 3 -0.004285 -0.005265 0.020885 0.000000 0.000000 0.000000
# 4 0.000000 0.000000 0.000000 0.024669 0.000000 0.000000
# 5 0.000000 0.000000 0.000000 0.000000 0.034940 0.000000
# 6 0.000000 0.000000 0.000000 0.000000 0.000000 -0.022605
#
#
# Mechanical properties :
#
#
# Convention : Reuss Voigt Hill
#
# Bulk Modulus (GPa) = 56.67471 71.82208 64.24839
# Shear Modulus (GPa) = 44.75216 18.19825 31.47521
#
# Velocity S-wave (km/s) = 4.23553 2.70094 3.55209
# Velocity P-wave (km/s) = 6.82925 6.20628 6.52520
#
# Compressibility (1/GPa) = 0.01764456
#
# Stress axis : x y z
#
# Youngs Moduli (GPa) = 130.22496 68.12722 47.88055
#
# Poissons Ratio (x) = 0.22140 0.20514
# Poissons Ratio (y) = 0.42321 0.25208
# Poissons Ratio (z) = 0.55795 0.35867
#
# Static dielectric constant tensor:
#      x y z
#    x 4.575550 0.000000 0.000000 
#    y 0.000000 4.214790 0.000000 
#    z 0.000000 0.000000 4.428910 
# 
# 
# High freq. dielectric constant tensor:
#      x y z
#    x 1.990340 0.000000 0.000000 
#    y 0.000000 1.981610 0.000000 
#    z 0.000000 0.000000 2.007390 
# 
# From -- ./inp_files/5405.got.cif
#   From: 2010.03.12/outbox.cif.g09.slc.cpg/sg46_3_cif.got.tgz:5405.got - 2010.04.14 02:56:35.
