data_PCOD8192048
_publ_section_title
;
Structure prediction by ZEFSAII (Michael W. Deem and Ramdas Pophale) SiO2 
 PCOD8192048
Probable space group: I M A 2
;
_chemical_formula_sum "Si O2"
_cell_formula_units_Z 48
_cell_length_a 14.095871
_cell_length_b 10.803344
_cell_length_c 13.552458
_cell_angle_alpha 90.000000
_cell_angle_beta 90.000000
_cell_angle_gamma 90.000000
_cell_volume 2063.802773
_symmetry_space_group_name_H-M "I M A 2"
_symmetry_group_IT_number 46
_symmetry_cell_setting 'orthorhombic'
loop_
_space_group_symop_operation_xyz
x,y,z
-x,-y,z
1/2-x,y,z
1/2+x,-y,z
1/2+x,1/2+y,1/2+z
1/2-x,1/2-y,1/2+z
-x,1/2+y,1/2+z
x,1/2-y,1/2+z
loop_
_atom_site_type_symbol
_atom_site_label
_atom_site_fract_x
_atom_site_fract_y
_atom_site_fract_z
Si Si1 0.953654 0.697956 0.930800
Si Si2 0.360811 0.423526 0.329299
Si Si3 0.096375 0.055775 0.246212
Si Si4 0.452142 0.200614 0.657786
Si Si5 0.351175 0.819833 0.156865
Si Si6 0.643197 0.320828 0.430828
O O1 0.899777 0.825750 0.909283
O O2 0.911136 0.587996 0.863205
O O3 0.066274 0.714075 0.905969
O O4 0.940008 0.660810 0.044640
O O5 0.250000 0.398869 0.314530
O O6 0.415655 0.411943 0.224828
O O7 0.382501 0.560143 0.366679
O O8 0.115535 0.181884 0.184982
O O9 0.167625 0.944079 0.222691
O O10 0.000000 0.000000 0.202869
O O11 0.561154 0.233037 0.689442
O O12 0.250000 0.746309 0.166727
O O13 0.367419 0.861166 0.044221
O O14 0.750000 0.272582 0.406926
#
# Coordination Sequence:
#
# PCOD8192048 Si02
#       6
#     8   8   8   8   8   8
#     4  10  19  34  55  79 108 143 183 229 276 324
#     4  10  20  33  52  80 111 145 185 228 275 324
#     4   9  18  32  49  76 108 141 179 217 265 321
#     4   9  19  34  53  80 111 143 183 228 274 326
#     4   9  17  33  59  86 110 141 184 232 278 326
#     4   9  18  34  59  87 111 139 181 232 280 327
#
# _framework density 23.258035
#
# number of rings (size 3 to 8) (size 9 to 14) (size 15 to 20)
#    0.000    2.667    0.000    1.500    0.000    6.000 
#    0.000   10.833    0.000    2.000    0.000    4.667 
#    0.000    0.000    0.000    0.000    0.000    0.000 
#
# Total GULP energy -297410.467126 kJ/mol
# GULP energy per Si atom -12392.102797 kJ/mol
# Density = 2.320510 g / cm^3
# Si number density = 23.258035 Si / 1000 Ang^3
#
#
#
# Elastic Constant Matrix: (Units=GPa)
#
#
# Indices 1 2 3 4 5 6 
#
# 1 111.2872 21.4649 39.1591 0.0000 0.0000 0.0000
# 2 21.4649 36.8514 37.8204 0.0000 0.0000 0.0000
# 3 39.1591 37.8204 147.5712 0.0000 0.0000 0.0000
# 4 0.0000 0.0000 0.0000 30.5543 0.0000 0.0000
# 5 0.0000 0.0000 0.0000 0.0000 23.5041 0.0000
# 6 0.0000 0.0000 0.0000 0.0000 0.0000 19.1951
#
#
#
# Elastic Compliance Matrix: (Units=1/GPa)
#
#
# Indices 1 2 3 4 5 6 
#
# 1 0.010407 -0.004380 -0.001639 0.000000 0.000000 0.000000
# 2 -0.004380 0.038664 -0.008747 0.000000 0.000000 0.000000
# 3 -0.001639 -0.008747 0.009453 0.000000 0.000000 0.000000
# 4 0.000000 0.000000 0.000000 0.032729 0.000000 0.000000
# 5 0.000000 0.000000 0.000000 0.000000 0.042546 0.000000
# 6 0.000000 0.000000 0.000000 0.000000 0.000000 0.052097
#
#
# Mechanical properties :
#
#
# Convention : Reuss Voigt Hill
#
# Bulk Modulus (GPa) = 34.49127 54.73318 44.61222
# Shear Modulus (GPa) = 22.21324 27.80171 25.00748
#
# Velocity S-wave (km/s) = 3.09379 3.46115 3.28261
# Velocity P-wave (km/s) = 5.25586 6.28942 5.79573
#
# Compressibility (1/GPa) = 0.02899284
#
# Stress axis : x y z
#
# Youngs Moduli (GPa) = 96.08638 25.86393 105.78585
#
# Poissons Ratio (x) = 0.11328 0.17341
# Poissons Ratio (y) = 0.42083 0.92529
# Poissons Ratio (z) = 0.15751 0.22623
#
# Static dielectric constant tensor:
#      x y z
#    x 4.399140 0.000000 0.000000 
#    y 0.000000 3.885010 0.000000 
#    z 0.000000 0.000000 4.169110 
# 
# 
# High freq. dielectric constant tensor:
#      x y z
#    x 1.919810 0.000000 0.000000 
#    y 0.000000 1.892230 0.000000 
#    z 0.000000 0.000000 1.925870 
# 
# From -- ./inp_files/11080.got.cif
#   From: 2010.03.12/outbox.cif.g09.slc.cpg/sg46_6_cif.got.tgz:11080.got - 2010.04.14 02:56:35.
