data_PCOD8192474
_publ_section_title
;
Structure prediction by ZEFSAII (Michael W. Deem and Ramdas Pophale) SiO2 
 PCOD8192474
Probable space group: I M A 2
;
_chemical_formula_sum "Si O2"
_cell_formula_units_Z 64
_cell_length_a 8.860042
_cell_length_b 14.019193
_cell_length_c 28.157503
_cell_angle_alpha 90.000000
_cell_angle_beta 90.000000
_cell_angle_gamma 90.000000
_cell_volume 3497.461434
_symmetry_space_group_name_H-M "I M A 2"
_symmetry_group_IT_number 46
_symmetry_cell_setting 'orthorhombic'
loop_
_space_group_symop_operation_xyz
x,y,z
-x,-y,z
1/2-x,y,z
1/2+x,-y,z
1/2+x,1/2+y,1/2+z
1/2-x,1/2-y,1/2+z
-x,1/2+y,1/2+z
x,1/2-y,1/2+z
loop_
_atom_site_type_symbol
_atom_site_label
_atom_site_fract_x
_atom_site_fract_y
_atom_site_fract_z
Si Si1 0.429120 0.897011 0.601130
Si Si2 0.925345 0.736238 0.421698
Si Si3 0.926688 0.237709 0.276138
Si Si4 0.070913 0.240233 0.529475
Si Si5 0.426067 0.258414 0.174846
Si Si6 0.075102 0.600239 0.351802
Si Si7 0.422922 0.100810 0.100927
Si Si8 0.427292 0.101015 0.347728
O O1 0.250000 0.903546 0.600161
O O2 0.487910 0.850046 0.552414
O O3 0.481290 0.838229 0.647000
O O4 0.500000 0.000000 0.605631
O O5 0.750000 0.711007 0.420099
O O6 0.981419 0.751917 0.475215
O O7 0.961724 0.832022 0.392723
O O8 0.011277 0.645624 0.400128
O O9 0.750000 0.222105 0.266935
O O10 0.959302 0.330125 0.308012
O O11 0.014025 0.253444 0.227737
O O12 0.993717 0.143897 0.301093
O O13 0.250000 0.224852 0.534997
O O14 0.017334 0.335492 0.556984
O O15 0.250000 0.286215 0.174205
O O16 0.452271 0.156088 0.150168
O O17 0.250000 0.582892 0.359426
O O18 0.000000 0.500000 0.339979
O O19 0.250000 0.079210 0.092621
O O20 0.500000 0.000000 0.102800
O O21 0.250000 0.090549 0.338054
O O22 0.500000 0.000000 0.359884
#
# Coordination Sequence:
#
# PCOD8192474 Si02
#       8
#     8   8   8   8   8   8   8   8
#     4  11  22  37  57  81 109 143 181 223 269 321
#     4   9  19  36  57  79 108 143 179 222 272 320
#     4  10  21  37  56  80 108 140 179 224 270 322
#     4   9  19  37  56  79 110 142 178 223 271 320
#     4  10  21  38  57  79 108 142 179 223 271 321
#     4  10  21  36  55  79 109 142 179 221 267 319
#     4   9  19  34  53  76 105 138 173 214 261 311
#     4  10  20  35  55  79 107 142 180 222 271 322
#
# _framework density 18.298985999999999
#
# number of rings (size 3 to 8) (size 9 to 14) (size 15 to 20)
#    0.000    2.250    0.000    3.375    0.000    7.000 
#    0.000    5.000    0.000    0.000    0.000    0.000 
#    0.000    0.000    0.000    0.000    0.000    0.000 
#
# Total GULP energy -396889.935682 kJ/mol
# GULP energy per Si atom -12402.810490 kJ/mol
# Density = 1.825734 g / cm^3
# Si number density = 18.298986 Si / 1000 Ang^3
#
#
#
# Elastic Constant Matrix: (Units=GPa)
#
#
# Indices 1 2 3 4 5 6 
#
# 1 81.6061 40.9986 35.6464 0.0000 0.0000 0.0000
# 2 40.9986 103.5434 25.0359 0.0000 0.0000 0.0000
# 3 35.6464 25.0359 120.0928 0.0000 0.0000 0.0000
# 4 0.0000 0.0000 0.0000 11.9322 0.0000 0.0000
# 5 0.0000 0.0000 0.0000 0.0000 30.3758 0.0000
# 6 0.0000 0.0000 0.0000 0.0000 0.0000 36.7463
#
#
#
# Elastic Compliance Matrix: (Units=1/GPa)
#
#
# Indices 1 2 3 4 5 6 
#
# 1 0.016788 -0.005731 -0.003788 0.000000 0.000000 0.000000
# 2 -0.005731 0.012127 -0.000827 0.000000 0.000000 0.000000
# 3 -0.003788 -0.000827 0.009624 0.000000 0.000000 0.000000
# 4 0.000000 0.000000 0.000000 0.083807 0.000000 0.000000
# 5 0.000000 0.000000 0.000000 0.000000 0.032921 0.000000
# 6 0.000000 0.000000 0.000000 0.000000 0.000000 0.027214
#
#
# Mechanical properties :
#
#
# Convention : Reuss Voigt Hill
#
# Bulk Modulus (GPa) = 56.03570 56.51157 56.27364
# Shear Modulus (GPa) = 23.90942 29.38162 26.64552
#
# Velocity S-wave (km/s) = 3.61861 4.01139 3.82005
# Velocity P-wave (km/s) = 6.93887 7.23909 7.09057
#
# Compressibility (1/GPa) = 0.01784577
#
# Stress axis : x y z
#
# Youngs Moduli (GPa) = 59.56565 82.45984 103.90962
#
# Poissons Ratio (x) = 0.47261 0.39364
# Poissons Ratio (y) = 0.34139 0.08593
# Poissons Ratio (z) = 0.22565 0.06819
#
# Static dielectric constant tensor:
#      x y z
#    x 3.752950 0.000000 0.000000 
#    y 0.000000 3.208990 0.000000 
#    z 0.000000 0.000000 3.455740 
# 
# 
# High freq. dielectric constant tensor:
#      x y z
#    x 1.717920 0.000000 0.000000 
#    y 0.000000 1.712460 0.000000 
#    z 0.000000 0.000000 1.712590 
# 
# From -- ./inp_files/25218.got.cif
#   From: 2010.03.12/outbox.cif.g09.slc.cpg/sg46_13_cif.got.tgz:25218.got - 2010.04.14 02:56:35.
