data_PCOD8192459
_publ_section_title
;
Structure prediction by ZEFSAII (Michael W. Deem and Ramdas Pophale) SiO2 
 PCOD8192459
Probable space group: I M A 2
;
_chemical_formula_sum "Si O2"
_cell_formula_units_Z 40
_cell_length_a 9.133407
_cell_length_b 21.143555
_cell_length_c 12.396215
_cell_angle_alpha 90.000000
_cell_angle_beta 90.000000
_cell_angle_gamma 90.000000
_cell_volume 2393.866465
_symmetry_space_group_name_H-M "I M A 2"
_symmetry_group_IT_number 46
_symmetry_cell_setting 'orthorhombic'
loop_
_space_group_symop_operation_xyz
x,y,z
-x,-y,z
1/2-x,y,z
1/2+x,-y,z
1/2+x,1/2+y,1/2+z
1/2-x,1/2-y,1/2+z
-x,1/2+y,1/2+z
x,1/2-y,1/2+z
loop_
_atom_site_type_symbol
_atom_site_label
_atom_site_fract_x
_atom_site_fract_y
_atom_site_fract_z
Si Si1 0.421026 0.566156 0.388260
Si Si2 0.416559 0.798842 0.485309
Si Si3 0.919703 0.169887 0.720530
Si Si4 0.576781 0.797737 0.275780
Si Si5 0.419992 0.839186 0.072912
O O1 0.500000 0.500000 0.383381
O O2 0.250000 0.553154 0.389527
O O3 0.465540 0.606369 0.282574
O O4 0.468614 0.603516 0.495938
O O5 0.250000 0.806230 0.445640
O O6 0.444827 0.840396 0.592853
O O7 0.523189 0.824050 0.391558
O O8 0.451936 0.725798 0.510441
O O9 0.750000 0.187597 0.744268
O O10 0.017744 0.226886 0.763273
O O11 0.750000 0.798174 0.270686
O O12 0.514849 0.843018 0.181809
O O13 0.250000 0.843115 0.104842
#
# Coordination Sequence:
#
# PCOD8192459 Si02
#       5
#     8   8   8   8   8
#     4  10  20  35  54  75 100 133 170 208 246 294
#     4   9  16  30  52  71  95 131 168 203 241 302
#     4   9  18  34  51  69  97 135 173 199 239 305
#     4  11  20  28  46  76 107 128 156 210 261 293
#     4   9  18  33  51  69  97 136 173 199 237 304
#
# _framework density 16.70937
#
# number of rings (size 3 to 8) (size 9 to 14) (size 15 to 20)
#    0.000    2.400    2.000    3.000    0.000    4.800 
#    0.000    0.000    0.000    1.200    0.000    2.800 
#    0.000    0.000    0.000    0.000    0.000    0.000 
#
# Total GULP energy -247990.897286 kJ/mol
# GULP energy per Si atom -12399.544864 kJ/mol
# Density = 1.667134 g / cm^3
# Si number density = 16.709370 Si / 1000 Ang^3
#
#
#
# Elastic Constant Matrix: (Units=GPa)
#
#
# Indices 1 2 3 4 5 6 
#
# 1 85.2518 36.7154 69.9929 0.0000 0.0000 0.0000
# 2 36.7154 95.8168 62.8468 0.0000 0.0000 0.0000
# 3 69.9929 62.8468 148.6357 0.0002 0.0001 0.0000
# 4 0.0000 0.0000 0.0002 23.2313 0.0000 0.0000
# 5 0.0000 0.0000 0.0001 0.0000 17.0056 0.0000
# 6 0.0000 0.0000 0.0000 0.0000 0.0000 25.0307
#
#
#
# Elastic Compliance Matrix: (Units=1/GPa)
#
#
# Indices 1 2 3 4 5 6 
#
# 1 0.019395 -0.001994 -0.008290 0.000000 0.000000 0.000000
# 2 -0.001994 0.014647 -0.005254 0.000000 0.000000 0.000000
# 3 -0.008290 -0.005254 0.012853 0.000000 0.000000 0.000000
# 4 0.000000 0.000000 0.000000 0.043045 0.000000 0.000000
# 5 0.000000 0.000000 0.000000 0.000000 0.058804 0.000000
# 6 0.000000 0.000000 0.000000 0.000000 0.000000 0.039951
#
#
# Mechanical properties :
#
#
# Convention : Reuss Voigt Hill
#
# Bulk Modulus (GPa) = 63.21694 74.31272 68.76483
# Shear Modulus (GPa) = 22.21783 23.73014 22.97398
#
# Velocity S-wave (km/s) = 3.65041 3.77260 3.71201
# Velocity P-wave (km/s) = 7.46208 7.97163 7.72106
#
# Compressibility (1/GPa) = 0.01581854
#
# Stress axis : x y z
#
# Youngs Moduli (GPa) = 51.55971 68.27405 77.80283
#
# Poissons Ratio (x) = 0.13617 0.64497
# Poissons Ratio (y) = 0.10284 0.40876
# Poissons Ratio (z) = 0.42742 0.35870
#
# Static dielectric constant tensor:
#      x y z
#    x 3.011360 0.000000 0.000000 
#    y 0.000000 2.789900 0.000000 
#    z 0.000000 0.000000 3.461620 
# 
# 
# High freq. dielectric constant tensor:
#      x y z
#    x 1.636100 0.000000 0.000000 
#    y 0.000000 1.596860 0.000000 
#    z 0.000000 0.000000 1.661680 
# 
# From -- ./inp_files/9045.got.cif
#   From: 2010.03.12/outbox.cif.g09.slc.cpg/sg46_5_cif.got.tgz:9045.got - 2010.04.14 02:56:35.
