data_PCOD8192465
_publ_section_title
;
Structure prediction by ZEFSAII (Michael W. Deem and Ramdas Pophale) SiO2 
 PCOD8192465
Probable space group: I M A 2
;
_chemical_formula_sum "Si O2"
_cell_formula_units_Z 60
_cell_length_a 9.130244
_cell_length_b 19.114478
_cell_length_c 17.943601
_cell_angle_alpha 90.000000
_cell_angle_beta 90.000000
_cell_angle_gamma 90.000000
_cell_volume 3131.514520
_symmetry_space_group_name_H-M "I M A 2"
_symmetry_group_IT_number 46
_symmetry_cell_setting 'orthorhombic'
loop_
_space_group_symop_operation_xyz
x,y,z
-x,-y,z
1/2-x,y,z
1/2+x,-y,z
1/2+x,1/2+y,1/2+z
1/2-x,1/2-y,1/2+z
-x,1/2+y,1/2+z
x,1/2-y,1/2+z
loop_
_atom_site_type_symbol
_atom_site_label
_atom_site_fract_x
_atom_site_fract_y
_atom_site_fract_z
Si Si1 0.587771 0.876766 0.182020
Si Si2 0.912950 0.318095 0.809637
Si Si3 0.581795 0.755462 0.939949
Si Si4 0.577867 0.935935 0.813415
Si Si5 0.413034 0.265458 0.105449
Si Si6 0.589606 0.174667 0.726213
Si Si7 0.000000 0.500000 0.583127
Si Si8 0.583243 0.400766 0.454507
O O1 0.750000 0.862552 0.212510
O O2 0.485139 0.877417 0.256163
O O3 0.542468 0.815167 0.123839
O O4 0.593073 0.950605 0.138147
O O5 0.750000 0.342853 0.835210
O O6 0.896887 0.251375 0.757963
O O7 0.012283 0.298344 0.880787
O O8 0.750000 0.776020 0.916669
O O9 0.482830 0.823051 0.956685
O O10 0.583279 0.716077 0.018571
O O11 0.750000 0.943391 0.809787
O O12 0.525088 0.863660 0.779209
O O13 0.521388 0.941917 0.897967
O O14 0.500000 0.000000 0.769049
O O15 0.250000 0.279188 0.136926
O O16 0.523912 0.320274 0.143471
O O17 0.750000 0.138347 0.723885
O O18 0.089037 0.555336 0.531773
O O19 0.750000 0.394626 0.424524
#
# Coordination Sequence:
#
# PCOD8192465 Si02
#       8
#     8   8   8   8   8   8   4   8
#     4  10  21  38  56  80 114 157 200 237 286 350
#     4  10  21  36  56  82 112 148 195 246 293 341
#     4  11  21  36  58  83 113 147 188 238 288 341
#     4  12  24  37  55  78 111 150 190 229 276 338
#     4   9  19  35  55  81 110 144 189 234 287 345
#     4  10  20  35  54  79 111 146 185 234 287 339
#     4  12  24  38  58  84 124 162 202 240 290 354
#     4  12  24  35  52  80 117 156 192 230 278 335
#
# _framework density 19.160059
#
# number of rings (size 3 to 8) (size 9 to 14) (size 15 to 20)
#    0.000    1.333    3.333    3.200    0.000    4.267 
#    0.000    0.000    0.000    0.000    1.733    0.000 
#    0.000    0.000    0.000    0.000    0.000    0.000 
#
# Total GULP energy -371705.969079 kJ/mol
# GULP energy per Si atom -12390.198969 kJ/mol
# Density = 1.911645 g / cm^3
# Si number density = 19.160059 Si / 1000 Ang^3
#
#
#
# Elastic Constant Matrix: (Units=GPa)
#
#
# Indices 1 2 3 4 5 6 
#
# 1 156.6745 33.1413 49.5096 0.0000 0.0000 0.0000
# 2 33.1413 53.9324 33.7589 0.0000 0.0000 0.0000
# 3 49.5096 33.7589 99.8565 0.0000 0.0000 0.0000
# 4 0.0000 0.0000 0.0000 33.1261 0.0000 0.0000
# 5 0.0000 0.0000 0.0000 0.0000 25.9166 0.0000
# 6 0.0000 0.0000 0.0000 0.0000 0.0000 17.5453
#
#
#
# Elastic Compliance Matrix: (Units=1/GPa)
#
#
# Indices 1 2 3 4 5 6 
#
# 1 0.007949 -0.003067 -0.002905 0.000000 0.000000 0.000000
# 2 -0.003067 0.024702 -0.006831 0.000000 0.000000 0.000000
# 3 -0.002905 -0.006831 0.013764 0.000000 0.000000 0.000000
# 4 0.000000 0.000000 0.000000 0.030188 0.000000 0.000000
# 5 0.000000 0.000000 0.000000 0.000000 0.038585 0.000000
# 6 0.000000 0.000000 0.000000 0.000000 0.000000 0.056995
#
#
# Mechanical properties :
#
#
# Convention : Reuss Voigt Hill
#
# Bulk Modulus (GPa) = 48.05111 60.36477 54.20794
# Shear Modulus (GPa) = 24.42320 28.25451 26.33885
#
# Velocity S-wave (km/s) = 3.57416 3.84429 3.71168
# Velocity P-wave (km/s) = 6.49354 7.16091 6.83538
#
# Compressibility (1/GPa) = 0.02081117
#
# Stress axis : x y z
#
# Youngs Moduli (GPa) = 125.79912 40.48295 72.65499
#
# Poissons Ratio (x) = 0.12415 0.21103
# Poissons Ratio (y) = 0.38579 0.49627
# Poissons Ratio (z) = 0.36538 0.27652
#
# Static dielectric constant tensor:
#      x y z
#    x 3.783930 0.000000 0.000000 
#    y 0.000000 3.274560 0.000000 
#    z 0.000000 0.000000 3.453830 
# 
# 
# High freq. dielectric constant tensor:
#      x y z
#    x 1.759020 0.000000 0.000000 
#    y 0.000000 1.709880 0.000000 
#    z 0.000000 0.000000 1.731680 
# 
# From -- ./inp_files/18372.got.cif
#   From: 2010.03.12/outbox.cif.g09.slc.cpg/sg46_10_cif.got.tgz:18372.got - 2010.04.14 02:56:35.
