data_PCOD8192156
_publ_section_title
;
Structure prediction by ZEFSAII (Michael W. Deem and Ramdas Pophale) SiO2 
 PCOD8192156
Probable space group: I M A 2
;
_chemical_formula_sum "Si O2"
_cell_formula_units_Z 64
_cell_length_a 15.487990
_cell_length_b 21.134426
_cell_length_c 8.966866
_cell_angle_alpha 90.000000
_cell_angle_beta 90.000000
_cell_angle_gamma 90.000000
_cell_volume 2935.122262
_symmetry_space_group_name_H-M "I M A 2"
_symmetry_group_IT_number 46
_symmetry_cell_setting 'orthorhombic'
loop_
_space_group_symop_operation_xyz
x,y,z
-x,-y,z
1/2-x,y,z
1/2+x,-y,z
1/2+x,1/2+y,1/2+z
1/2-x,1/2-y,1/2+z
-x,1/2+y,1/2+z
x,1/2-y,1/2+z
loop_
_atom_site_type_symbol
_atom_site_label
_atom_site_fract_x
_atom_site_fract_y
_atom_site_fract_z
Si Si1 0.895017 0.810972 0.549010
Si Si2 0.095324 0.559004 0.023448
Si Si3 0.402371 0.816389 0.890060
Si Si4 0.600101 0.305610 0.054180
Si Si5 0.348064 0.437402 0.565513
Si Si6 0.606758 0.814643 0.891544
Si Si7 0.903926 0.565245 0.892866
Si Si8 0.349882 0.549538 0.354575
O O1 0.864357 0.813536 0.719543
O O2 0.856976 0.748663 0.469850
O O3 0.858073 0.872657 0.462138
O O4 0.997647 0.808213 0.535538
O O5 0.144573 0.500061 0.944325
O O6 0.998605 0.561160 0.961928
O O7 0.138210 0.627946 0.987164
O O8 0.093886 0.549144 0.202905
O O9 0.372460 0.801798 0.724085
O O10 0.504545 0.820252 0.909499
O O11 0.362491 0.883538 0.940700
O O12 0.361927 0.757644 0.980732
O O13 0.250000 0.451592 0.615220
O O14 0.349409 0.373781 0.470307
O O15 0.406139 0.430486 0.713702
O O16 0.384294 0.494626 0.464028
O O17 0.250000 0.538260 0.313678
#
# Coordination Sequence:
#
# PCOD8192156 Si02
#       8
#     8   8   8   8   8   8   8   8
#     4   9  17  32  56  86 117 150 192 246 296 338
#     4   9  19  36  60  87 113 152 199 238 285 349
#     4   9  18  32  55  82 111 148 189 233 281 340
#     4   8  16  30  51  83 115 141 180 235 287 332
#     4  11  25  41  57  84 122 158 193 244 307 358
#     4  10  19  35  59  84 115 155 198 243 291 353
#     4  10  20  36  59  89 119 149 196 245 291 356
#     4  10  22  40  59  83 120 159 195 240 296 354
#
# _framework density 21.804884999999999
#
# number of rings (size 3 to 8) (size 9 to 14) (size 15 to 20)
#    0.000    2.500    0.000    2.250    0.000    9.000 
#    0.000    5.625    0.000    0.000    0.000    0.000 
#    0.000    0.000    0.000    0.000    0.000    0.000 
#
# Total GULP energy -396606.308947 kJ/mol
# GULP energy per Si atom -12393.947155 kJ/mol
# Density = 2.175526 g / cm^3
# Si number density = 21.804885 Si / 1000 Ang^3
#
#
#
# Elastic Constant Matrix: (Units=GPa)
#
#
# Indices 1 2 3 4 5 6 
#
# 1 36.8552 6.9349 24.0016 0.0000 0.0000 0.0000
# 2 6.9349 237.9362 98.2494 0.0000 0.0000 0.0000
# 3 24.0016 98.2494 151.8650 0.0000 0.0000 0.0000
# 4 0.0000 0.0000 0.0000 49.6379 0.0000 0.0000
# 5 0.0000 0.0000 0.0000 0.0000 10.7468 0.0000
# 6 0.0000 0.0000 0.0000 0.0000 0.0000 8.4529
#
#
#
# Elastic Compliance Matrix: (Units=1/GPa)
#
#
# Indices 1 2 3 4 5 6 
#
# 1 0.030639 0.001510 -0.005819 0.000000 0.000000 0.000000
# 2 0.001510 0.005809 -0.003997 0.000000 0.000000 0.000000
# 3 -0.005819 -0.003997 0.010090 0.000000 0.000000 0.000000
# 4 0.000000 0.000000 0.000000 0.020146 0.000000 0.000000
# 5 0.000000 0.000000 0.000000 0.000000 0.093051 0.000000
# 6 0.000000 0.000000 0.000000 0.000000 0.000000 0.118303
#
#
# Mechanical properties :
#
#
# Convention : Reuss Voigt Hill
#
# Bulk Modulus (GPa) = 33.41588 76.11423 54.76505
# Shear Modulus (GPa) = 16.41360 33.59889 25.00624
#
# Velocity S-wave (km/s) = 2.74660 3.92967 3.39014
# Velocity P-wave (km/s) = 5.04149 7.45470 6.36354
#
# Compressibility (1/GPa) = 0.02992589
#
# Stress axis : x y z
#
# Youngs Moduli (GPa) = 32.63842 172.14020 99.10516
#
# Poissons Ratio (x) = -0.25991 0.57671
# Poissons Ratio (y) = -0.04928 0.39611
# Poissons Ratio (z) = 0.18993 0.68803
#
# Static dielectric constant tensor:
#      x y z
#    x 3.357950 0.000000 0.000000 
#    y 0.000000 4.938660 0.000000 
#    z 0.000000 0.000000 3.847720 
# 
# 
# High freq. dielectric constant tensor:
#      x y z
#    x 1.809950 0.000000 0.000000 
#    y 0.000000 1.889550 0.000000 
#    z 0.000000 0.000000 1.848640 
# 
# From -- ./inp_files/6941.got.cif
#   From: 2010.03.12/outbox.cif.g09.slc.cpg/sg46_4_cif.got.tgz:6941.got - 2010.04.14 02:56:35.
