data_PCOD8192587
_publ_section_title
;
Structure prediction by ZEFSAII (Michael W. Deem and Ramdas Pophale) SiO2 
 PCOD8192587
Probable space group: I M A 2
;
_chemical_formula_sum "Si O2"
_cell_formula_units_Z 64
_cell_length_a 8.667243
_cell_length_b 24.765714
_cell_length_c 15.118116
_cell_angle_alpha 90.000000
_cell_angle_beta 90.000000
_cell_angle_gamma 90.000000
_cell_volume 3245.110573
_symmetry_space_group_name_H-M "I M A 2"
_symmetry_group_IT_number 46
_symmetry_cell_setting 'orthorhombic'
loop_
_space_group_symop_operation_xyz
x,y,z
-x,-y,z
1/2-x,y,z
1/2+x,-y,z
1/2+x,1/2+y,1/2+z
1/2-x,1/2-y,1/2+z
-x,1/2+y,1/2+z
x,1/2-y,1/2+z
loop_
_atom_site_type_symbol
_atom_site_label
_atom_site_fract_x
_atom_site_fract_y
_atom_site_fract_z
Si Si1 0.567976 0.559115 0.794460
Si Si2 0.932542 0.664201 0.471763
Si Si3 0.932478 0.348941 0.285110
Si Si4 0.424059 0.285605 0.948742
Si Si5 0.931323 0.360548 0.651484
Si Si6 0.430109 0.894619 0.471287
Si Si7 0.074475 0.263586 0.745550
Si Si8 0.568394 0.442932 0.155861
O O1 0.500000 0.500000 0.783747
O O2 0.750000 0.556888 0.785000
O O3 0.501692 0.595859 0.717076
O O4 0.527135 0.583288 0.889593
O O5 0.750000 0.658234 0.460586
O O6 0.978771 0.727207 0.483366
O O7 0.012892 0.640265 0.384840
O O8 0.994205 0.630466 0.554973
O O9 0.750000 0.340474 0.282518
O O10 0.988720 0.399371 0.227047
O O11 0.012687 0.296947 0.242486
O O12 0.250000 0.297613 0.980241
O O13 0.536886 0.331166 0.987454
O O14 0.433821 0.287815 0.843182
O O15 0.750000 0.368930 0.645773
O O16 0.969497 0.300144 0.682913
O O17 0.250000 0.903029 0.452043
O O18 0.486649 0.926604 0.557723
O O19 0.250000 0.264589 0.710105
O O20 0.500000 0.500000 0.183670
O O21 0.750000 0.446835 0.157786
#
# Coordination Sequence:
#
# PCOD8192587 Si02
#       8
#     8   8   8   8   8   8   8   8
#     4  12  25  43  64  89 124 164 208 257 309 369
#     4  10  22  40  61  89 125 163 205 253 311 372
#     4  10  21  40  62  89 122 158 205 259 311 367
#     4   9  19  35  56  85 122 162 201 243 297 360
#     4  12  24  39  62  92 124 163 207 255 310 365
#     4  11  22  37  59  90 125 164 205 249 305 367
#     4  10  20  36  58  88 123 161 202 245 301 367
#     4  10  24  42  61  88 120 157 206 257 305 361
#
# _framework density 19.721979000000001
#
# number of rings (size 3 to 8) (size 9 to 14) (size 15 to 20)
#    0.000    1.500    1.250    4.875    1.750    5.500 
#    0.000    0.625    0.000    1.500    0.000    0.000 
#    0.000    0.000    0.000    0.000    0.000    0.000 
#
# Total GULP energy -396947.344276 kJ/mol
# GULP energy per Si atom -12404.604509 kJ/mol
# Density = 1.967709 g / cm^3
# Si number density = 19.721979 Si / 1000 Ang^3
#
#
#
# Elastic Constant Matrix: (Units=GPa)
#
#
# Indices 1 2 3 4 5 6 
#
# 1 57.1993 24.1705 3.2846 -0.0004 -0.0001 -0.0001
# 2 24.1705 117.2625 51.1494 -0.0003 0.0000 0.0000
# 3 3.2846 51.1494 78.4708 -0.0024 0.0005 -0.0001
# 4 -0.0004 -0.0003 -0.0024 34.9782 0.0004 0.0000
# 5 -0.0001 0.0000 0.0005 0.0004 23.4429 -0.0001
# 6 -0.0001 0.0000 -0.0001 0.0000 -0.0001 36.1383
#
#
#
# Elastic Compliance Matrix: (Units=1/GPa)
#
#
# Indices 1 2 3 4 5 6 
#
# 1 0.019501 -0.005119 0.002520 0.000000 0.000000 0.000000
# 2 -0.005119 0.013260 -0.008429 -0.000001 0.000000 0.000000
# 3 0.002520 -0.008429 0.018132 0.000001 0.000000 0.000000
# 4 0.000000 -0.000001 0.000001 0.028589 0.000000 0.000000
# 5 0.000000 0.000000 0.000000 0.000000 0.042657 0.000000
# 6 0.000000 0.000000 0.000000 0.000000 0.000000 0.027671
#
#
# Mechanical properties :
#
#
# Convention : Reuss Voigt Hill
#
# Bulk Modulus (GPa) = 34.67611 45.57130 40.12370
# Shear Modulus (GPa) = 27.55161 30.53376 29.04269
#
# Velocity S-wave (km/s) = 3.74170 3.93900 3.84162
# Velocity P-wave (km/s) = 6.02393 6.62153 6.32979
#
# Compressibility (1/GPa) = 0.02883830
#
# Stress axis : x y z
#
# Youngs Moduli (GPa) = 51.27911 75.41723 55.15071
#
# Poissons Ratio (x) = 0.38606 -0.13900
# Poissons Ratio (y) = 0.26250 0.46485
# Poissons Ratio (z) = -0.12925 0.63567
#
# Static dielectric constant tensor:
#      x y z
#    x 3.628280 0.000000 0.000000 
#    y 0.000000 -0.432460 0.000000 
#    z 0.000000 0.000000 3.693900 
# 
# 
# High freq. dielectric constant tensor:
#      x y z
#    x 1.776740 0.000000 0.000000 
#    y 0.000000 1.763320 0.000000 
#    z 0.000000 0.000000 1.773010 
# 
# From -- ./inp_files/14523.got.cif
#   From: 2010.03.12/outbox.cif.g09.slc.cpg/sg46_8_cif.got.tgz:14523.got - 2010.04.14 02:56:35.
