data_PCOD8192834
_publ_section_title
;
Structure prediction by ZEFSAII (Michael W. Deem and Ramdas Pophale) SiO2 
 PCOD8192834
Probable space group: I M A 2
;
_chemical_formula_sum "Si O2"
_cell_formula_units_Z 64
_cell_length_a 8.634825
_cell_length_b 29.989788
_cell_length_c 14.414518
_cell_angle_alpha 90.000000
_cell_angle_beta 90.000000
_cell_angle_gamma 90.000000
_cell_volume 3732.734156
_symmetry_space_group_name_H-M "I M A 2"
_symmetry_group_IT_number 46
_symmetry_cell_setting 'orthorhombic'
loop_
_space_group_symop_operation_xyz
x,y,z
-x,-y,z
1/2-x,y,z
1/2+x,-y,z
1/2+x,1/2+y,1/2+z
1/2-x,1/2-y,1/2+z
-x,1/2+y,1/2+z
x,1/2-y,1/2+z
loop_
_atom_site_type_symbol
_atom_site_label
_atom_site_fract_x
_atom_site_fract_y
_atom_site_fract_z
Si Si1 0.925839 0.683399 0.862160
Si Si2 0.432033 0.866088 0.524438
Si Si3 0.573114 0.627868 0.681696
Si Si4 0.932254 0.283107 0.147356
Si Si5 0.568206 0.800794 0.038699
Si Si6 0.933776 0.547067 0.979038
Si Si7 0.067655 0.953830 0.276288
Si Si8 0.929912 0.275344 0.354975
O O1 0.750000 0.698789 0.882240
O O2 0.944073 0.665969 0.758673
O O3 0.042116 0.723942 0.880385
O O4 0.975900 0.644484 0.930657
O O5 0.250000 0.866340 0.505655
O O6 0.477530 0.830756 0.603597
O O7 0.493385 0.915697 0.548355
O O8 0.750000 0.611074 0.675048
O O9 0.517215 0.652956 0.588240
O O10 0.465922 0.585340 0.702449
O O11 0.750000 0.275774 0.150611
O O12 0.998954 0.284242 0.252271
O O13 0.998597 0.242856 0.087301
O O14 0.750000 0.795216 0.045535
O O15 0.515068 0.805385 0.931986
O O16 0.750000 0.547269 0.985478
O O17 0.000000 0.500000 0.013535
O O18 0.985165 0.556869 0.873484
O O19 0.250000 0.958283 0.293101
O O20 0.000000 0.000000 0.235379
O O21 0.750000 0.286677 0.359930
#
# Coordination Sequence:
#
# PCOD8192834 Si02
#       8
#     8   8   8   8   8   8   8   8
#     4  11  20  31  49  73 103 139 175 214 255 300
#     4  11  21  34  51  75 102 137 176 214 257 305
#     4  10  21  35  50  73 104 137 175 214 254 307
#     4  10  22  36  52  73 102 138 176 215 256 306
#     4  11  22  35  53  75 102 136 176 219 260 304
#     4  11  21  34  51  74 104 137 170 211 255 308
#     4  11  21  33  52  75 103 137 170 210 255 308
#     4  11  22  36  51  72 104 139 177 219 259 306
#
# _framework density 17.145609
#
# number of rings (size 3 to 8) (size 9 to 14) (size 15 to 20)
#    0.000    1.250    3.750    4.500    0.000    2.500 
#    0.000    0.000    0.000    0.000    0.000    0.875 
#    0.000    6.000    0.000    0.000    0.000    0.000 
#
# Total GULP energy -396822.674804 kJ/mol
# GULP energy per Si atom -12400.708588 kJ/mol
# Density = 1.710658 g / cm^3
# Si number density = 17.145609 Si / 1000 Ang^3
#
#
#
# Elastic Constant Matrix: (Units=GPa)
#
#
# Indices 1 2 3 4 5 6 
#
# 1 68.0541 31.7491 28.9086 -0.0001 0.0000 0.0000
# 2 31.7491 101.8675 32.1654 -0.0001 0.0000 0.0000
# 3 28.9086 32.1654 71.0017 -0.0003 0.0001 -0.0001
# 4 -0.0001 -0.0001 -0.0003 24.0233 0.0000 -0.0001
# 5 0.0000 0.0000 0.0001 0.0000 20.9911 0.0000
# 6 0.0000 0.0000 -0.0001 -0.0001 0.0000 28.1907
#
#
#
# Elastic Compliance Matrix: (Units=1/GPa)
#
#
# Indices 1 2 3 4 5 6 
#
# 1 0.019121 -0.004086 -0.005934 0.000000 0.000000 0.000000
# 2 -0.004086 0.012328 -0.003922 0.000000 0.000000 0.000000
# 3 -0.005934 -0.003922 0.018277 0.000000 0.000000 0.000000
# 4 0.000000 0.000000 0.000000 0.041626 0.000000 0.000000
# 5 0.000000 0.000000 0.000000 0.000000 0.047639 0.000000
# 6 0.000000 0.000000 0.000000 0.000000 0.000000 0.035473
#
#
# Mechanical properties :
#
#
# Convention : Reuss Voigt Hill
#
# Bulk Modulus (GPa) = 45.78067 47.39660 46.58863
# Shear Modulus (GPa) = 23.85170 24.51436 24.18303
#
# Velocity S-wave (km/s) = 3.73383 3.78534 3.75967
# Velocity P-wave (km/s) = 6.73407 6.84168 6.78809
#
# Compressibility (1/GPa) = 0.02184328
#
# Stress axis : x y z
#
# Youngs Moduli (GPa) = 52.29829 81.11418 54.71391
#
# Poissons Ratio (x) = 0.33141 0.32469
# Poissons Ratio (y) = 0.21367 0.21456
# Poissons Ratio (z) = 0.31035 0.31809
#
# Static dielectric constant tensor:
#      x y z
#    x 3.230120 0.000000 0.000000 
#    y 0.000000 3.282940 0.000000 
#    z 0.000000 0.000000 3.212030 
# 
# 
# High freq. dielectric constant tensor:
#      x y z
#    x 1.673240 0.000000 0.000000 
#    y 0.000000 1.656890 0.000000 
#    z 0.000000 0.000000 1.632280 
# 
# From -- ./inp_files/14722.got.cif
#   From: 2010.03.12/outbox.cif.g09.slc.cpg/sg46_8_cif.got.tgz:14722.got - 2010.04.14 02:56:35.
