data_PCOD8192868
_publ_section_title
;
Structure prediction by ZEFSAII (Michael W. Deem and Ramdas Pophale) SiO2 
 PCOD8192868
Probable space group: I M A 2
;
_chemical_formula_sum "Si O2"
_cell_formula_units_Z 64
_cell_length_a 8.680270
_cell_length_b 24.922962
_cell_length_c 15.176274
_cell_angle_alpha 90.000000
_cell_angle_beta 90.000000
_cell_angle_gamma 90.000000
_cell_volume 3283.205362
_symmetry_space_group_name_H-M "I M A 2"
_symmetry_group_IT_number 46
_symmetry_cell_setting 'orthorhombic'
loop_
_space_group_symop_operation_xyz
x,y,z
-x,-y,z
1/2-x,y,z
1/2+x,-y,z
1/2+x,1/2+y,1/2+z
1/2-x,1/2-y,1/2+z
-x,1/2+y,1/2+z
x,1/2-y,1/2+z
loop_
_atom_site_type_symbol
_atom_site_label
_atom_site_fract_x
_atom_site_fract_y
_atom_site_fract_z
Si Si1 0.433443 0.164267 0.531480
Si Si2 0.575255 0.236727 0.238659
Si Si3 0.066946 0.057819 0.211416
Si Si4 0.931403 0.943814 0.843856
Si Si5 0.428316 0.861954 0.353193
Si Si6 0.429193 0.857430 0.717055
Si Si7 0.429282 0.281673 0.560823
Si Si8 0.433759 0.103075 0.025251
O O1 0.250000 0.161772 0.540536
O O2 0.489043 0.130764 0.447148
O O3 0.509255 0.138413 0.617615
O O4 0.496141 0.225866 0.522247
O O5 0.750000 0.231364 0.202880
O O6 0.550329 0.200222 0.324610
O O7 0.539079 0.298854 0.259601
O O8 0.459972 0.215019 0.164897
O O9 0.250000 0.056105 0.214643
O O10 0.007316 0.099458 0.283238
O O11 0.005649 0.075346 0.114756
O O12 0.000000 0.000000 0.234973
O O13 0.750000 0.948551 0.847087
O O14 0.997131 0.929161 0.940955
O O15 0.976785 0.899053 0.774463
O O16 0.000000 0.000000 0.812650
O O17 0.250000 0.877577 0.362005
O O18 0.250000 0.872330 0.718204
O O19 0.250000 0.281547 0.543798
O O20 0.499263 0.335731 0.517495
O O21 0.250000 0.104370 0.026723
#
# Coordination Sequence:
#
# PCOD8192868 Si02
#       8
#     8   8   8   8   8   8   8   8
#     4  10  21  36  59  88 119 156 196 242 297 351
#     4   9  19  34  54  83 118 153 190 234 287 345
#     4  11  22  39  61  85 118 158 201 246 294 347
#     4  11  23  40  61  86 117 154 201 249 296 350
#     4  11  22  37  57  86 122 159 198 241 292 350
#     4  10  21  40  61  85 118 155 196 245 299 351
#     4   9  17  33  55  83 117 153 193 234 282 342
#     4   9  19  35  57  86 119 155 194 239 288 345
#
# _framework density 19.493147
#
# number of rings (size 3 to 8) (size 9 to 14) (size 15 to 20)
#    0.000    2.000    1.250    2.250    1.750    1.500 
#    0.000    3.750    0.000    0.000    0.000    0.000 
#    0.000    0.000    0.000    0.000    0.000    0.000 
#
# Total GULP energy -396777.187157 kJ/mol
# GULP energy per Si atom -12399.287099 kJ/mol
# Density = 1.944878 g / cm^3
# Si number density = 19.493147 Si / 1000 Ang^3
#
#
#
# Elastic Constant Matrix: (Units=GPa)
#
#
# Indices 1 2 3 4 5 6 
#
# 1 52.3701 27.7300 25.3117 0.0001 0.0000 0.0000
# 2 27.7300 116.5349 56.9630 0.0002 0.0000 0.0000
# 3 25.3117 56.9630 113.9537 0.0001 -0.0001 -0.0001
# 4 0.0001 0.0002 0.0001 34.4163 0.0000 0.0000
# 5 0.0000 0.0000 -0.0001 0.0000 28.0736 0.0000
# 6 0.0000 0.0000 -0.0001 0.0000 0.0000 24.6701
#
#
#
# Elastic Compliance Matrix: (Units=1/GPa)
#
#
# Indices 1 2 3 4 5 6 
#
# 1 0.022642 -0.003877 -0.003091 0.000000 0.000000 0.000000
# 2 -0.003877 0.012020 -0.005147 0.000000 0.000000 0.000000
# 3 -0.003091 -0.005147 0.012035 0.000000 0.000000 0.000000
# 4 0.000000 0.000000 0.000000 0.029056 0.000000 0.000000
# 5 0.000000 0.000000 0.000000 0.000000 0.035621 0.000000
# 6 0.000000 0.000000 0.000000 0.000000 0.000000 0.040535
#
#
# Mechanical properties :
#
#
# Convention : Reuss Voigt Hill
#
# Bulk Modulus (GPa) = 44.51187 55.87422 50.19304
# Shear Modulus (GPa) = 27.22911 28.95561 28.09236
#
# Velocity S-wave (km/s) = 3.74151 3.85830 3.80035
# Velocity P-wave (km/s) = 6.44588 6.96953 6.71282
#
# Compressibility (1/GPa) = 0.02246592
#
# Stress axis : x y z
#
# Youngs Moduli (GPa) = 44.16642 83.19762 83.08986
#
# Poissons Ratio (x) = 0.32252 0.25686
# Poissons Ratio (y) = 0.17121 0.42768
# Poissons Ratio (z) = 0.13654 0.42824
#
# Static dielectric constant tensor:
#      x y z
#    x 3.446760 0.000000 0.000000 
#    y 0.000000 3.679980 0.000000 
#    z 0.000000 0.000000 3.484260 
# 
# 
# High freq. dielectric constant tensor:
#      x y z
#    x 1.752770 0.000000 0.000000 
#    y 0.000000 1.759400 0.000000 
#    z 0.000000 0.000000 1.753250 
# 
# From -- ./inp_files/14489.got.cif
#   From: 2010.03.12/outbox.cif.g09.slc.cpg/sg46_8_cif.got.tgz:14489.got - 2010.04.14 02:56:35.
