data_PCOD8192489
_publ_section_title
;
Structure prediction by ZEFSAII (Michael W. Deem and Ramdas Pophale) SiO2 
 PCOD8192489
Probable space group: I M A 2
;
_chemical_formula_sum "Si O2"
_cell_formula_units_Z 64
_cell_length_a 9.035910
_cell_length_b 32.701566
_cell_length_c 11.510178
_cell_angle_alpha 90.000000
_cell_angle_beta 90.000000
_cell_angle_gamma 90.000000
_cell_volume 3401.124164
_symmetry_space_group_name_H-M "I M A 2"
_symmetry_group_IT_number 46
_symmetry_cell_setting 'orthorhombic'
loop_
_space_group_symop_operation_xyz
x,y,z
-x,-y,z
1/2-x,y,z
1/2+x,-y,z
1/2+x,1/2+y,1/2+z
1/2-x,1/2-y,1/2+z
-x,1/2+y,1/2+z
x,1/2-y,1/2+z
loop_
_atom_site_type_symbol
_atom_site_label
_atom_site_fract_x
_atom_site_fract_y
_atom_site_fract_z
Si Si1 0.413854 0.894205 0.476350
Si Si2 0.925765 0.126690 0.916848
Si Si3 0.580055 0.724536 0.031360
Si Si4 0.075177 0.958755 0.291243
Si Si5 0.923162 0.644490 0.174821
Si Si6 0.586701 0.187232 0.334807
Si Si7 0.577285 0.815790 0.103179
Si Si8 0.576103 0.041798 0.027417
O O1 0.250000 0.908831 0.517832
O O2 0.482109 0.924487 0.380258
O O3 0.524233 0.890862 0.585591
O O4 0.397373 0.850523 0.419382
O O5 0.750000 0.131096 0.918997
O O6 0.973138 0.080199 0.948600
O O7 0.987022 0.138632 0.792137
O O8 0.992239 0.158156 0.008255
O O9 0.750000 0.719893 0.994554
O O10 0.538855 0.689418 0.124474
O O11 0.545638 0.767843 0.088362
O O12 0.488348 0.722796 0.911339
O O13 0.250000 0.963232 0.297529
O O14 0.026071 0.948085 0.159630
O O15 0.000000 0.000000 0.334132
O O16 0.750000 0.639232 0.199507
O O17 0.750000 0.201390 0.292032
O O18 0.485448 0.172951 0.228696
O O19 0.750000 0.826313 0.096056
O O20 0.750000 0.034496 0.020278
O O21 0.500000 0.000000 0.982532
#
# Coordination Sequence:
#
# PCOD8192489 Si02
#       8
#     8   8   8   8   8   8   8   8
#     4   9  18  35  56  77 107 144 178 221 275 329
#     4  11  23  39  58  84 115 149 191 240 287 339
#     4   9  21  39  56  76 108 147 184 227 281 334
#     4   9  17  31  53  81 111 141 174 220 278 332
#     4  10  21  38  58  80 108 147 191 234 281 337
#     4  10  20  35  56  81 106 136 180 228 275 326
#     4  11  23  37  56  81 112 149 186 229 280 337
#     4   9  19  36  58  84 116 149 184 231 287 340
#
# _framework density 18.817307
#
# number of rings (size 3 to 8) (size 9 to 14) (size 15 to 20)
#    0.000    2.250    0.000    2.250    1.750    5.500 
#    0.000    3.125    0.000    0.000    0.000    0.000 
#    0.000    0.000    0.000    0.000    0.000    0.000 
#
# Total GULP energy -396784.765503 kJ/mol
# GULP energy per Si atom -12399.523922 kJ/mol
# Density = 1.877448 g / cm^3
# Si number density = 18.817307 Si / 1000 Ang^3
#
#
#
# Elastic Constant Matrix: (Units=GPa)
#
#
# Indices 1 2 3 4 5 6 
#
# 1 86.3349 46.7363 55.0935 -0.0021 0.0004 0.0002
# 2 46.7363 88.2760 42.5693 -0.0076 0.0004 0.0000
# 3 55.0935 42.5693 109.8714 -0.0120 0.0017 0.0004
# 4 -0.0021 -0.0076 -0.0120 12.4832 0.0005 -0.0001
# 5 0.0004 0.0004 0.0017 0.0005 31.3347 -0.0009
# 6 0.0002 0.0000 0.0004 -0.0001 -0.0009 30.0989
#
#
#
# Elastic Compliance Matrix: (Units=1/GPa)
#
#
# Indices 1 2 3 4 5 6 
#
# 1 0.020109 -0.007113 -0.007328 -0.000008 0.000000 0.000000
# 2 -0.007113 0.016447 -0.002806 0.000006 0.000000 0.000000
# 3 -0.007328 -0.002806 0.013863 0.000010 -0.000001 0.000000
# 4 -0.000008 0.000006 0.000010 0.080107 -0.000001 0.000000
# 5 0.000000 0.000000 -0.000001 -0.000001 0.031914 0.000001
# 6 0.000000 0.000000 0.000000 0.000000 0.000001 0.033224
#
#
# Mechanical properties :
#
#
# Convention : Reuss Voigt Hill
#
# Bulk Modulus (GPa) = 62.78754 63.69784 63.24269
# Shear Modulus (GPa) = 21.23455 24.12225 22.67840
#
# Velocity S-wave (km/s) = 3.36290 3.58427 3.47535
# Velocity P-wave (km/s) = 6.96550 7.14517 7.05591
#
# Compressibility (1/GPa) = 0.01592673
#
# Stress axis : x y z
#
# Youngs Moduli (GPa) = 49.72808 60.80179 72.13486
#
# Poissons Ratio (x) = 0.43248 0.52858
# Poissons Ratio (y) = 0.35371 0.20238
# Poissons Ratio (z) = 0.36439 0.17059
#
# Static dielectric constant tensor:
#      x y z
#    x 3.673910 0.000000 0.000000 
#    y 0.000000 3.490890 0.000000 
#    z 0.000000 0.000000 3.493840 
# 
# 
# High freq. dielectric constant tensor:
#      x y z
#    x 1.736080 0.000000 0.000000 
#    y 0.000000 1.724790 0.000000 
#    z 0.000000 0.000000 1.728920 
# 
# From -- ./inp_files/9736.got.cif
#   From: 2010.03.12/outbox.cif.g09.slc.cpg/sg46_5_cif.got.tgz:9736.got - 2010.04.14 02:56:35.
