data_PCOD8192310
_publ_section_title
;
Structure prediction by ZEFSAII (Michael W. Deem and Ramdas Pophale) SiO2 
 PCOD8192310
Probable space group: I M A 2
;
_chemical_formula_sum "Si O2"
_cell_formula_units_Z 48
_cell_length_a 8.755114
_cell_length_b 13.745662
_cell_length_c 23.412985
_cell_angle_alpha 90.000000
_cell_angle_beta 90.000000
_cell_angle_gamma 90.000000
_cell_volume 2817.631883
_symmetry_space_group_name_H-M "I M A 2"
_symmetry_group_IT_number 46
_symmetry_cell_setting 'orthorhombic'
loop_
_space_group_symop_operation_xyz
x,y,z
-x,-y,z
1/2-x,y,z
1/2+x,-y,z
1/2+x,1/2+y,1/2+z
1/2-x,1/2-y,1/2+z
-x,1/2+y,1/2+z
x,1/2-y,1/2+z
loop_
_atom_site_type_symbol
_atom_site_label
_atom_site_fract_x
_atom_site_fract_y
_atom_site_fract_z
Si Si1 0.571889 0.397197 0.813810
Si Si2 0.927202 0.601644 0.151065
Si Si3 0.928403 0.396902 0.945568
Si Si4 0.070183 0.206357 0.213247
Si Si5 0.931390 0.103767 0.106552
Si Si6 0.931225 0.720714 0.042863
O O1 0.500000 0.500000 0.796659
O O2 0.750000 0.400945 0.799964
O O3 0.539862 0.372404 0.879639
O O4 0.491208 0.313689 0.776689
O O5 0.750000 0.582691 0.148842
O O6 0.970030 0.681891 0.198672
O O7 0.982999 0.639892 0.089286
O O8 0.000000 0.500000 0.168270
O O9 0.750000 0.400360 0.959848
O O10 0.000000 0.500000 0.962625
O O11 0.010241 0.312369 0.981140
O O12 0.250000 0.187380 0.208778
O O13 0.988140 0.134353 0.169200
O O14 0.750000 0.099665 0.106093
O O15 0.990250 0.177650 0.058243
O O16 0.000000 0.000000 0.090318
O O17 0.750000 0.735368 0.043168
#
# Coordination Sequence:
#
# PCOD8192310 Si02
#       6
#     8   8   8   8   8   8
#     4  10  20  33  50  73 100 131 166 204 247 295
#     4   9  19  32  48  71  98 127 159 197 239 287
#     4  10  20  33  50  74 102 132 166 204 248 297
#     4  10  20  34  50  72 101 131 165 204 248 295
#     4  11  21  34  52  74 101 132 165 202 247 296
#     4  10  20  34  51  74 102 131 165 203 245 294
#
# _framework density 17.035582999999999
#
# number of rings (size 3 to 8) (size 9 to 14) (size 15 to 20)
#    0.000    2.000    0.000    5.500    0.000    7.333 
#    0.000    0.000    0.000    1.000    0.000    2.333 
#    0.000    0.000    0.000    0.000    0.000    0.000 
#
# Total GULP energy -297677.255685 kJ/mol
# GULP energy per Si atom -12403.218987 kJ/mol
# Density = 1.699681 g / cm^3
# Si number density = 17.035583 Si / 1000 Ang^3
#
#
#
# Elastic Constant Matrix: (Units=GPa)
#
#
# Indices 1 2 3 4 5 6 
#
# 1 114.9042 63.7268 51.1083 0.0000 0.0000 0.0000
# 2 63.7268 134.4365 64.1279 0.0000 0.0000 0.0000
# 3 51.1083 64.1279 93.6078 0.0000 0.0000 0.0000
# 4 0.0000 0.0000 0.0000 207.6327 0.0000 0.0000
# 5 0.0000 0.0000 0.0000 0.0000 30.1462 0.0000
# 6 0.0000 0.0000 0.0000 0.0000 0.0000 33.6875
#
#
#
# Elastic Compliance Matrix: (Units=1/GPa)
#
#
# Indices 1 2 3 4 5 6 
#
# 1 0.012839 -0.004073 -0.004219 0.000000 0.000000 0.000000
# 2 -0.004073 0.012342 -0.006231 0.000000 0.000000 0.000000
# 3 -0.004219 -0.006231 0.017255 0.000000 0.000000 0.000000
# 4 0.000000 0.000000 0.000000 0.004816 0.000000 0.000000
# 5 0.000000 0.000000 0.000000 0.000000 0.033172 0.000000
# 6 0.000000 0.000000 0.000000 0.000000 0.000000 0.029685
#
#
# Mechanical properties :
#
#
# Convention : Reuss Voigt Hill
#
# Bulk Modulus (GPa) = 74.69079 77.87495 76.28287
# Shear Modulus (GPa) = 34.81477 65.22565 50.02021
#
# Velocity S-wave (km/s) = 4.52558 6.19443 5.42457
# Velocity P-wave (km/s) = 8.44079 9.84752 9.17117
#
# Compressibility (1/GPa) = 0.01338853
#
# Stress axis : x y z
#
# Youngs Moduli (GPa) = 77.88988 81.02736 57.95399
#
# Poissons Ratio (x) = 0.33005 0.24452
# Poissons Ratio (y) = 0.31727 0.36110
# Poissons Ratio (z) = 0.32863 0.50487
#
# Static dielectric constant tensor:
#      x y z
#    x 3.284730 0.000000 0.000000 
#    y 0.000000 2.865300 0.000000 
#    z 0.000000 0.000000 3.133520 
# 
# 
# High freq. dielectric constant tensor:
#      x y z
#    x 1.675200 0.000000 0.000000 
#    y 0.000000 1.648860 0.000000 
#    z 0.000000 0.000000 1.646520 
# 
# From -- ./inp_files/20915.got.cif
#   From: 2010.03.12/outbox.cif.g09.slc.cpg/sg46_11_cif.got.tgz:20915.got - 2010.04.14 02:56:35.
