data_PCOD8192402
_publ_section_title
;
Structure prediction by ZEFSAII (Michael W. Deem and Ramdas Pophale) SiO2 
 PCOD8192402
Probable space group: I M A 2
;
_chemical_formula_sum "Si O2"
_cell_formula_units_Z 64
_cell_length_a 8.775571
_cell_length_b 24.706666
_cell_length_c 15.127150
_cell_angle_alpha 90.000000
_cell_angle_beta 90.000000
_cell_angle_gamma 90.000000
_cell_volume 3279.794565
_symmetry_space_group_name_H-M "I M A 2"
_symmetry_group_IT_number 46
_symmetry_cell_setting 'orthorhombic'
loop_
_space_group_symop_operation_xyz
x,y,z
-x,-y,z
1/2-x,y,z
1/2+x,-y,z
1/2+x,1/2+y,1/2+z
1/2-x,1/2-y,1/2+z
-x,1/2+y,1/2+z
x,1/2-y,1/2+z
loop_
_atom_site_type_symbol
_atom_site_label
_atom_site_fract_x
_atom_site_fract_y
_atom_site_fract_z
Si Si1 0.928838 0.607528 0.198870
Si Si2 0.070835 0.837109 0.201332
Si Si3 0.427328 0.146246 0.016787
Si Si4 0.069880 0.559094 0.023724
Si Si5 0.926882 0.284824 0.173729
Si Si6 0.926137 0.866348 0.377532
Si Si7 0.570247 0.943364 0.881068
Si Si8 0.576613 0.767635 0.495123
O O1 0.750000 0.603694 0.180412
O O2 0.979385 0.570667 0.281275
O O3 0.018079 0.588475 0.112854
O O4 0.974497 0.669253 0.222790
O O5 0.250000 0.844742 0.210498
O O6 0.023875 0.774004 0.209317
O O7 0.018417 0.860837 0.107684
O O8 0.988383 0.870705 0.278180
O O9 0.250000 0.137590 0.037568
O O10 0.491118 0.102292 0.948017
O O11 0.456409 0.205008 0.972450
O O12 0.250000 0.554342 0.024139
O O13 0.000000 0.500000 0.018873
O O14 0.017651 0.592533 0.938726
O O15 0.750000 0.296276 0.189808
O O16 0.960979 0.288308 0.069448
O O17 0.750000 0.883182 0.379571
O O18 0.950816 0.804389 0.409175
O O19 0.750000 0.946729 0.887664
O O20 0.500000 0.000000 0.910216
O O21 0.750000 0.774748 0.530287
#
# Coordination Sequence:
#
# PCOD8192402 Si02
#       8
#     8   8   8   8   8   8   8   8
#     4  11  22  37  59  88 121 160 202 245 295 357
#     4  10  22  38  57  87 124 160 197 246 304 359
#     4   9  19  39  61  85 114 153 200 250 299 354
#     4  12  25  42  63  87 122 161 201 250 298 357
#     4  10  20  34  54  84 122 160 195 237 295 353
#     4  11  22  37  61  91 120 159 203 246 299 357
#     4  10  23  40  61  86 116 152 199 250 297 349
#     4   9  18  33  57  84 115 151 194 240 290 353
#
# _framework density 19.513418000000001
#
# number of rings (size 3 to 8) (size 9 to 14) (size 15 to 20)
#    0.000    1.750    1.250    3.000    1.750    4.500 
#    0.000    0.625    0.000    1.500    0.000    0.000 
#    0.000    0.000    0.000    0.000    0.000    0.000 
#
# Total GULP energy -396893.800970 kJ/mol
# GULP energy per Si atom -12402.931280 kJ/mol
# Density = 1.946900 g / cm^3
# Si number density = 19.513418 Si / 1000 Ang^3
#
#
#
# Elastic Constant Matrix: (Units=GPa)
#
#
# Indices 1 2 3 4 5 6 
#
# 1 87.5351 37.3530 40.5087 -0.0001 0.0000 0.0000
# 2 37.3530 107.7594 42.3279 0.0000 -0.0001 0.0000
# 3 40.5087 42.3279 90.9994 -0.0015 -0.0003 -0.0002
# 4 -0.0001 0.0000 -0.0015 28.5664 -0.0001 -0.0001
# 5 0.0000 -0.0001 -0.0003 -0.0001 21.8172 -0.0001
# 6 0.0000 0.0000 -0.0002 -0.0001 -0.0001 33.6462
#
#
#
# Elastic Compliance Matrix: (Units=1/GPa)
#
#
# Indices 1 2 3 4 5 6 
#
# 1 0.015241 -0.003203 -0.005295 0.000000 0.000000 0.000000
# 2 -0.003203 0.012028 -0.004169 0.000000 0.000000 0.000000
# 3 -0.005295 -0.004169 0.015285 0.000001 0.000000 0.000000
# 4 0.000000 0.000000 0.000001 0.035006 0.000000 0.000000
# 5 0.000000 0.000000 0.000000 0.000000 0.045835 0.000000
# 6 0.000000 0.000000 0.000000 0.000000 0.000000 0.029721
#
#
# Mechanical properties :
#
#
# Convention : Reuss Voigt Hill
#
# Bulk Modulus (GPa) = 58.06983 58.51924 58.29453
# Shear Modulus (GPa) = 27.14587 27.87958 27.51272
#
# Velocity S-wave (km/s) = 3.73384 3.78397 3.75899
# Velocity P-wave (km/s) = 6.95790 7.01039 6.98419
#
# Compressibility (1/GPa) = 0.01722065
#
# Stress axis : x y z
#
# Youngs Moduli (GPa) = 65.61199 83.14092 65.42348
#
# Poissons Ratio (x) = 0.26633 0.34639
# Poissons Ratio (y) = 0.21018 0.27273
# Poissons Ratio (z) = 0.34739 0.34659
#
# Static dielectric constant tensor:
#      x y z
#    x 3.528460 0.000000 0.000000 
#    y 0.000000 3.812460 0.000000 
#    z 0.000000 0.000000 3.445670 
# 
# 
# High freq. dielectric constant tensor:
#      x y z
#    x 1.763050 0.000000 0.000000 
#    y 0.000000 1.758370 0.000000 
#    z 0.000000 0.000000 1.753370 
# 
# From -- ./inp_files/14462.got.cif
#   From: 2010.03.12/outbox.cif.g09.slc.cpg/sg46_8_cif.got.tgz:14462.got - 2010.04.14 02:56:35.
