data_PCOD8192992
_publ_section_title
;
Structure prediction by ZEFSAII (Michael W. Deem and Ramdas Pophale) SiO2 
 PCOD8192992
Probable space group: I M A 2
;
_chemical_formula_sum "Si O2"
_cell_formula_units_Z 40
_cell_length_a 8.853633
_cell_length_b 19.757282
_cell_length_c 10.684548
_cell_angle_alpha 90.000000
_cell_angle_beta 90.000000
_cell_angle_gamma 90.000000
_cell_volume 1868.980924
_symmetry_space_group_name_H-M "I M A 2"
_symmetry_group_IT_number 46
_symmetry_cell_setting 'orthorhombic'
loop_
_space_group_symop_operation_xyz
x,y,z
-x,-y,z
1/2-x,y,z
1/2+x,-y,z
1/2+x,1/2+y,1/2+z
1/2-x,1/2-y,1/2+z
-x,1/2+y,1/2+z
x,1/2-y,1/2+z
loop_
_atom_site_type_symbol
_atom_site_label
_atom_site_fract_x
_atom_site_fract_y
_atom_site_fract_z
Si Si1 0.422866 0.571765 0.952840
Si Si2 0.928664 0.574215 0.473923
Si Si3 0.428097 0.801314 0.075414
Si Si4 0.575873 0.428345 0.229466
Si Si5 0.927777 0.291431 0.852405
O O1 0.500000 0.500000 0.929130
O O2 0.250000 0.556692 0.922707
O O3 0.489889 0.631336 0.865516
O O4 0.440044 0.604569 0.092658
O O5 0.750000 0.567935 0.477962
O O6 0.000000 0.500000 0.493779
O O7 0.988526 0.625918 0.578570
O O8 0.985240 0.607946 0.341760
O O9 0.250000 0.813757 0.060462
O O10 0.462894 0.765998 0.210793
O O11 0.496277 0.756764 0.960905
O O12 0.500000 0.500000 0.212344
O O13 0.750000 0.434457 0.271006
O O14 0.750000 0.293559 0.877529
#
# Coordination Sequence:
#
# PCOD8192992 Si02
#       5
#     8   8   8   8   8
#     4   9  18  33  55  86 118 152 194 242 291 345
#     4  11  22  37  58  86 119 154 195 244 297 350
#     4  10  21  39  62  87 116 156 199 242 291 348
#     4   9  16  28  51  81 116 150 188 232 283 340
#     4   9  20  37  61  88 116 154 199 240 287 349
#
# _framework density 21.402038000000001
#
# number of rings (size 3 to 8) (size 9 to 14) (size 15 to 20)
#    0.000    2.400    0.000    3.600    2.800    1.600 
#    0.000    5.000    0.000    0.000    0.000    0.000 
#    0.000    0.000    0.000    0.000    0.000    0.000 
#
# Total GULP energy -247762.008105 kJ/mol
# GULP energy per Si atom -12388.100405 kJ/mol
# Density = 2.135333 g / cm^3
# Si number density = 21.402038 Si / 1000 Ang^3
#
#
#
# Elastic Constant Matrix: (Units=GPa)
#
#
# Indices 1 2 3 4 5 6 
#
# 1 91.7932 30.2832 35.8509 0.0001 -0.0001 0.0000
# 2 30.2832 104.9388 62.6220 -0.0002 0.0001 0.0000
# 3 35.8509 62.6220 129.4195 -0.0013 0.0004 0.0001
# 4 0.0001 -0.0002 -0.0013 37.0734 0.0002 0.0001
# 5 -0.0001 0.0001 0.0004 0.0002 14.7994 0.0000
# 6 0.0000 0.0000 0.0001 0.0001 0.0000 24.6302
#
#
#
# Elastic Compliance Matrix: (Units=1/GPa)
#
#
# Indices 1 2 3 4 5 6 
#
# 1 0.012560 -0.002177 -0.002426 0.000000 0.000000 0.000000
# 2 -0.002177 0.013775 -0.006062 0.000000 0.000000 0.000000
# 3 -0.002426 -0.006062 0.011332 0.000000 0.000000 0.000000
# 4 0.000000 0.000000 0.000000 0.026974 0.000000 0.000000
# 5 0.000000 0.000000 0.000000 0.000000 0.067570 0.000000
# 6 0.000000 0.000000 0.000000 0.000000 0.000000 0.040601
#
#
# Mechanical properties :
#
#
# Convention : Reuss Voigt Hill
#
# Bulk Modulus (GPa) = 61.21106 64.85150 63.03128
# Shear Modulus (GPa) = 25.05166 28.46029 26.75598
#
# Velocity S-wave (km/s) = 3.42501 3.65059 3.53960
# Velocity P-wave (km/s) = 6.65609 6.93804 6.79853
#
# Compressibility (1/GPa) = 0.01633692
#
# Stress axis : x y z
#
# Youngs Moduli (GPa) = 79.62004 72.59376 88.24391
#
# Poissons Ratio (x) = 0.15802 0.21407
# Poissons Ratio (y) = 0.17332 0.53497
# Poissons Ratio (z) = 0.19315 0.44009
#
# Static dielectric constant tensor:
#      x y z
#    x 3.512980 0.000000 0.000000 
#    y 0.000000 3.749190 0.000000 
#    z 0.000000 0.000000 4.677170 
# 
# 
# High freq. dielectric constant tensor:
#      x y z
#    x 1.802220 0.000000 0.000000 
#    y 0.000000 1.832770 0.000000 
#    z 0.000000 0.000000 1.848910 
# 
# From -- ./inp_files/9047.got.cif
#   From: 2010.03.12/outbox.cif.g09.slc.cpg/sg46_5_cif.got.tgz:9047.got - 2010.04.14 02:56:35.
