data_PCOD8192795
_publ_section_title
;
Structure prediction by ZEFSAII (Michael W. Deem and Ramdas Pophale) SiO2 
 PCOD8192795
Probable space group: I M A 2
;
_chemical_formula_sum "Si O2"
_cell_formula_units_Z 64
_cell_length_a 21.637033
_cell_length_b 14.797899
_cell_length_c 9.555336
_cell_angle_alpha 90.000000
_cell_angle_beta 90.000000
_cell_angle_gamma 90.000000
_cell_volume 3059.452601
_symmetry_space_group_name_H-M "I M A 2"
_symmetry_group_IT_number 46
_symmetry_cell_setting 'orthorhombic'
loop_
_space_group_symop_operation_xyz
x,y,z
-x,-y,z
1/2-x,y,z
1/2+x,-y,z
1/2+x,1/2+y,1/2+z
1/2-x,1/2-y,1/2+z
-x,1/2+y,1/2+z
x,1/2-y,1/2+z
loop_
_atom_site_type_symbol
_atom_site_label
_atom_site_fract_x
_atom_site_fract_y
_atom_site_fract_z
Si Si1 0.966337 0.871791 0.909800
Si Si2 0.493668 0.107515 0.609600
Si Si3 0.622249 0.174029 0.659455
Si Si4 0.822722 0.817257 0.234339
Si Si5 0.609666 0.787708 0.511216
Si Si6 0.679052 0.321616 0.859689
Si Si7 0.401971 0.943754 0.917046
Si Si8 0.321067 0.517371 0.666764
O O1 0.973229 0.841914 0.750457
O O2 0.035139 0.893876 0.965123
O O3 0.916737 0.951522 0.909205
O O4 0.938861 0.793006 0.000557
O O5 0.557159 0.160933 0.574918
O O6 0.435564 0.124571 0.507134
O O7 0.500000 0.000000 0.630441
O O8 0.633380 0.258295 0.766107
O O9 0.669150 0.179988 0.528482
O O10 0.625583 0.088204 0.766323
O O11 0.750000 0.813876 0.217115
O O12 0.839361 0.799239 0.393888
O O13 0.852030 0.733641 0.150646
O O14 0.848047 0.916229 0.188078
O O15 0.750000 0.290662 0.833247
O O16 0.669037 0.424677 0.808265
O O17 0.352505 0.928429 0.039182
O O18 0.250000 0.510366 0.625748
#
# Coordination Sequence:
#
# PCOD8192795 Si02
#       8
#     8   8   8   8   8   8   8   8
#     4  10  20  40  63  95 131 167 215 267 324 392
#     4  11  24  43  64  99 136 169 216 276 332 396
#     4  11  24  40  69  94 131 173 220 266 328 391
#     4  11  25  44  67  96 131 172 223 272 325 393
#     4  12  24  42  70  96 131 174 218 271 336 389
#     4  11  25  43  63  93 135 177 224 271 323 392
#     4  10  20  40  66  91 128 169 208 270 328 388
#     4  10  23  42  63  93 132 171 219 278 327 389
#
# _framework density 20.918773999999999
#
# number of rings (size 3 to 8) (size 9 to 14) (size 15 to 20)
#    0.000    1.250    5.000    1.500    7.000    2.000 
#    0.000    0.000    0.000    0.000    0.000    0.000 
#    0.000    0.000    0.000    0.000    0.000    0.000 
#
# Total GULP energy -396425.229162 kJ/mol
# GULP energy per Si atom -12388.288411 kJ/mol
# Density = 2.087116 g / cm^3
# Si number density = 20.918774 Si / 1000 Ang^3
#
#
#
# Elastic Constant Matrix: (Units=GPa)
#
#
# Indices 1 2 3 4 5 6 
#
# 1 81.6590 43.0273 34.2527 0.0000 0.0000 0.0000
# 2 43.0273 71.9946 33.3982 0.0000 0.0000 0.0000
# 3 34.2527 33.3982 94.6427 0.0000 0.0000 0.0000
# 4 0.0000 0.0000 0.0000 28.1859 0.0000 0.0000
# 5 0.0000 0.0000 0.0000 0.0000 36.0182 0.0000
# 6 0.0000 0.0000 0.0000 0.0000 0.0000 27.7627
#
#
#
# Elastic Compliance Matrix: (Units=1/GPa)
#
#
# Indices 1 2 3 4 5 6 
#
# 1 0.018740 -0.009630 -0.003384 0.000000 0.000000 0.000000
# 2 -0.009630 0.021557 -0.004122 0.000000 0.000000 0.000000
# 3 -0.003384 -0.004122 0.013245 0.000000 0.000000 0.000000
# 4 0.000000 0.000000 0.000000 0.035479 0.000000 0.000000
# 5 0.000000 0.000000 0.000000 0.000000 0.027764 0.000000
# 6 0.000000 0.000000 0.000000 0.000000 0.000000 0.036020
#
#
# Mechanical properties :
#
#
# Convention : Reuss Voigt Hill
#
# Bulk Modulus (GPa) = 51.89249 52.18363 52.03806
# Shear Modulus (GPa) = 25.83983 27.56790 26.70386
#
# Velocity S-wave (km/s) = 3.51842 3.63416 3.57676
# Velocity P-wave (km/s) = 6.43166 6.52760 6.47980
#
# Compressibility (1/GPa) = 0.01927061
#
# Stress axis : x y z
#
# Youngs Moduli (GPa) = 53.36302 46.38767 75.49799
#
# Poissons Ratio (x) = 0.44671 0.25548
# Poissons Ratio (y) = 0.51388 0.31121
# Poissons Ratio (z) = 0.18057 0.19122
#
# Static dielectric constant tensor:
#      x y z
#    x 4.032620 0.000000 0.000000 
#    y 0.000000 3.941550 0.000000 
#    z 0.000000 0.000000 3.740070 
# 
# 
# High freq. dielectric constant tensor:
#      x y z
#    x 1.824530 0.000000 0.000000 
#    y 0.000000 1.816830 0.000000 
#    z 0.000000 0.000000 1.815270 
# 
# From -- ./inp_files/7972.got.cif
#   From: 2010.03.12/outbox.cif.g09.slc.cpg/sg46_4_cif.got.tgz:7972.got - 2010.04.14 02:56:35.
