data_PCOD8192242
_publ_section_title
;
Structure prediction by ZEFSAII (Michael W. Deem and Ramdas Pophale) SiO2 
 PCOD8192242
Probable space group: I M A 2
;
_chemical_formula_sum "Si O2"
_cell_formula_units_Z 24
_cell_length_a 15.391666
_cell_length_b 8.578269
_cell_length_c 9.880273
_cell_angle_alpha 90.000000
_cell_angle_beta 90.000000
_cell_angle_gamma 90.000000
_cell_volume 1304.530496
_symmetry_space_group_name_H-M "I M A 2"
_symmetry_group_IT_number 46
_symmetry_cell_setting 'orthorhombic'
loop_
_space_group_symop_operation_xyz
x,y,z
-x,-y,z
1/2-x,y,z
1/2+x,-y,z
1/2+x,1/2+y,1/2+z
1/2-x,1/2-y,1/2+z
-x,1/2+y,1/2+z
x,1/2-y,1/2+z
loop_
_atom_site_type_symbol
_atom_site_label
_atom_site_fract_x
_atom_site_fract_y
_atom_site_fract_z
Si Si1 0.750000 0.148283 0.430030
Si Si2 0.653019 0.708764 0.697243
Si Si3 0.250000 0.576747 0.631252
Si Si4 0.592430 0.921031 0.467794
O O1 0.750000 0.315809 0.500393
O O2 0.750000 0.178856 0.269025
O O3 0.665641 0.052768 0.474630
O O4 0.750000 0.780806 0.719120
O O5 0.664423 0.535197 0.631566
O O6 0.594932 0.818190 0.603436
O O7 0.606243 0.694814 0.841672
O O8 0.500000 0.000000 0.456083
#
# Coordination Sequence:
#
# PCOD8192242 Si02
#       4
#     4   8   4   8
#     4  10  19  38  52  90 116 156 197 254 286 352
#     4   9  19  41  60  83 119 168 191 245 311 359
#     4   8  19  32  62  76 116 158 191 238 304 348
#     4  11  22  37  64  88 119 159 209 248 298 367
#
# _framework density 18.397423
#
# number of rings (size 3 to 8) (size 9 to 14) (size 15 to 20)
#    1.000    1.333    3.333    0.000    0.000    8.000 
#    0.000    1.667    0.000    0.000    0.000    0.000 
#    0.000    0.000    0.000    0.000    0.000    0.000 
#
# Total GULP energy -148735.832077 kJ/mol
# GULP energy per Si atom -12394.652673 kJ/mol
# Density = 1.835555 g / cm^3
# Si number density = 18.397423 Si / 1000 Ang^3
#
#
#
# Elastic Constant Matrix: (Units=GPa)
#
#
# Indices 1 2 3 4 5 6 
#
# 1 111.2827 17.6866 39.4984 0.0000 0.0000 0.0000
# 2 17.6866 30.7545 23.3609 0.0000 0.0000 0.0000
# 3 39.4984 23.3609 77.4050 0.0000 0.0000 0.0000
# 4 0.0000 0.0000 0.0000 46.4174 0.0000 0.0000
# 5 0.0000 0.0000 0.0000 0.0000 25.6070 0.0000
# 6 0.0000 0.0000 0.0000 0.0000 0.0000 20.9215
#
#
#
# Elastic Compliance Matrix: (Units=1/GPa)
#
#
# Indices 1 2 3 4 5 6 
#
# 1 0.011145 -0.002711 -0.004869 0.000000 0.000000 0.000000
# 2 -0.002711 0.042846 -0.011548 0.000000 0.000000 0.000000
# 3 -0.004869 -0.011548 0.018889 0.000000 0.000000 0.000000
# 4 0.000000 0.000000 0.000000 0.021544 0.000000 0.000000
# 5 0.000000 0.000000 0.000000 0.000000 0.039052 0.000000
# 6 0.000000 0.000000 0.000000 0.000000 0.000000 0.047798
#
#
# Mechanical properties :
#
#
# Convention : Reuss Voigt Hill
#
# Bulk Modulus (GPa) = 28.88109 42.28156 35.58132
# Shear Modulus (GPa) = 21.63846 27.84893 24.74369
#
# Velocity S-wave (km/s) = 3.43325 3.89490 3.67134
# Velocity P-wave (km/s) = 5.60792 6.57718 6.11179
#
# Compressibility (1/GPa) = 0.03462474
#
# Stress axis : x y z
#
# Youngs Moduli (GPa) = 89.72478 23.33934 52.94167
#
# Poissons Ratio (x) = 0.06327 0.25777
# Poissons Ratio (y) = 0.24325 0.61135
# Poissons Ratio (z) = 0.43687 0.26951
#
# Static dielectric constant tensor:
#      x y z
#    x 3.126790 0.000000 0.000000 
#    y 0.000000 3.152730 0.000000 
#    z 0.000000 0.000000 3.332760 
# 
# 
# High freq. dielectric constant tensor:
#      x y z
#    x 1.695060 0.000000 0.000000 
#    y 0.000000 1.698850 0.000000 
#    z 0.000000 0.000000 1.718210 
# 
# From -- ./inp_files/5120.got.cif
#   From: 2010.03.12/outbox.cif.g09.slc.cpg/sg46_3_cif.got.tgz:5120.got - 2010.04.14 02:56:35.
