data_PCOD8192939
_publ_section_title
;
Structure prediction by ZEFSAII (Michael W. Deem and Ramdas Pophale) SiO2 
 PCOD8192939
Probable space group: I M A 2
;
_chemical_formula_sum "Si O2"
_cell_formula_units_Z 40
_cell_length_a 8.517042
_cell_length_b 9.570685
_cell_length_c 25.266465
_cell_angle_alpha 90.000000
_cell_angle_beta 90.000000
_cell_angle_gamma 90.000000
_cell_volume 2059.568761
_symmetry_space_group_name_H-M "I M A 2"
_symmetry_group_IT_number 46
_symmetry_cell_setting 'orthorhombic'
loop_
_space_group_symop_operation_xyz
x,y,z
-x,-y,z
1/2-x,y,z
1/2+x,-y,z
1/2+x,1/2+y,1/2+z
1/2-x,1/2-y,1/2+z
-x,1/2+y,1/2+z
x,1/2-y,1/2+z
loop_
_atom_site_type_symbol
_atom_site_label
_atom_site_fract_x
_atom_site_fract_y
_atom_site_fract_z
Si Si1 0.064588 0.654444 0.056490
Si Si2 0.934884 0.651440 0.167381
Si Si3 0.434550 0.650562 0.354313
Si Si4 0.065667 0.352043 0.468121
Si Si5 0.933999 0.845806 0.265568
O O1 0.250000 0.661615 0.047680
O O2 0.000000 0.500000 0.050621
O O3 0.019773 0.709874 0.114805
O O4 0.976162 0.742024 0.012554
O O5 0.750000 0.638821 0.156740
O O6 0.976781 0.759513 0.213254
O O7 0.000000 0.500000 0.183916
O O8 0.500000 0.500000 0.336344
O O9 0.250000 0.638707 0.353724
O O10 0.490469 0.693299 0.412630
O O11 0.488052 0.772332 0.315571
O O12 0.250000 0.362799 0.459996
O O13 0.000000 0.500000 0.487321
O O14 0.750000 0.852080 0.275398
O O15 0.000000 0.000000 0.258620
#
# Coordination Sequence:
#
# PCOD8192939 Si02
#       5
#     8   8   8   8   8
#     4  11  22  38  60  87 118 153 194 238 287 340
#     4  10  21  38  60  85 114 151 195 238 285 343
#     4  11  22  39  62  87 116 152 194 236 284 342
#     4  11  22  39  61  87 118 152 193 237 286 341
#     4  11  24  40  59  86 118 152 192 239 291 342
#
# _framework density 19.421541000000001
#
# number of rings (size 3 to 8) (size 9 to 14) (size 15 to 20)
#    0.000    1.200    0.000    9.600    0.000    6.400 
#    0.000    6.000    0.000    0.000    0.000    0.000 
#    0.000    0.000    0.000    0.000    0.000    0.000 
#
# Total GULP energy -248100.878468 kJ/mol
# GULP energy per Si atom -12405.043923 kJ/mol
# Density = 1.937734 g / cm^3
# Si number density = 19.421541 Si / 1000 Ang^3
#
#
#
# Elastic Constant Matrix: (Units=GPa)
#
#
# Indices 1 2 3 4 5 6 
#
# 1 114.2332 46.1475 42.5453 0.0000 0.0000 0.0000
# 2 46.1475 101.0462 75.9537 0.0000 0.0000 0.0000
# 3 42.5453 75.9537 117.2861 0.0000 0.0000 0.0000
# 4 0.0000 0.0000 0.0000 39.3026 0.0000 0.0000
# 5 0.0000 0.0000 0.0000 0.0000 36.7078 0.0000
# 6 0.0000 0.0000 0.0000 0.0000 0.0000 36.6158
#
#
#
# Elastic Compliance Matrix: (Units=1/GPa)
#
#
# Indices 1 2 3 4 5 6 
#
# 1 0.010854 -0.003892 -0.001417 0.000000 0.000000 0.000000
# 2 -0.003892 0.020679 -0.011980 0.000000 0.000000 0.000000
# 3 -0.001417 -0.011980 0.016798 0.000000 0.000000 0.000000
# 4 0.000000 0.000000 0.000000 0.025444 0.000000 0.000000
# 5 0.000000 0.000000 0.000000 0.000000 0.027242 0.000000
# 6 0.000000 0.000000 0.000000 0.000000 0.000000 0.027311
#
#
# Mechanical properties :
#
#
# Convention : Reuss Voigt Hill
#
# Bulk Modulus (GPa) = 72.70676 73.53984 73.12330
# Shear Modulus (GPa) = 29.85282 33.71983 31.78633
#
# Velocity S-wave (km/s) = 3.92484 4.17130 4.04995
# Velocity P-wave (km/s) = 7.61949 7.81965 7.72022
#
# Compressibility (1/GPa) = 0.01375388
#
# Stress axis : x y z
#
# Youngs Moduli (GPa) = 92.13207 48.35912 59.53094
#
# Poissons Ratio (x) = 0.18821 0.08435
# Poissons Ratio (y) = 0.35858 0.71315
# Poissons Ratio (z) = 0.13054 0.57932
#
# Static dielectric constant tensor:
#      x y z
#    x 3.766440 0.000000 0.000000 
#    y 0.000000 3.512000 0.000000 
#    z 0.000000 0.000000 3.738670 
# 
# 
# High freq. dielectric constant tensor:
#      x y z
#    x 1.781070 0.000000 0.000000 
#    y 0.000000 1.754690 0.000000 
#    z 0.000000 0.000000 1.769650 
# 
# From -- ./inp_files/22742.got.cif
#   From: 2010.03.12/outbox.cif.g09.slc.cpg/sg46_12_cif.got.tgz:22742.got - 2010.04.14 02:56:35.
