data_PCOD8192616
_publ_section_title
;
Structure prediction by ZEFSAII (Michael W. Deem and Ramdas Pophale) SiO2 
 PCOD8192616
Probable space group: I M A 2
;
_chemical_formula_sum "Si O2"
_cell_formula_units_Z 40
_cell_length_a 14.629244
_cell_length_b 9.557290
_cell_length_c 13.808645
_cell_angle_alpha 90.000000
_cell_angle_beta 90.000000
_cell_angle_gamma 90.000000
_cell_volume 1930.668507
_symmetry_space_group_name_H-M "I M A 2"
_symmetry_group_IT_number 46
_symmetry_cell_setting 'orthorhombic'
loop_
_space_group_symop_operation_xyz
x,y,z
-x,-y,z
1/2-x,y,z
1/2+x,-y,z
1/2+x,1/2+y,1/2+z
1/2-x,1/2-y,1/2+z
-x,1/2+y,1/2+z
x,1/2-y,1/2+z
loop_
_atom_site_type_symbol
_atom_site_label
_atom_site_fract_x
_atom_site_fract_y
_atom_site_fract_z
Si Si1 0.400671 0.034483 0.993710
Si Si2 0.453814 0.256558 0.657905
Si Si3 0.645697 0.547337 0.031110
Si Si4 0.148226 0.231125 0.354351
Si Si5 0.149798 0.759686 0.087082
O O1 0.348909 0.121849 0.911709
O O2 0.500000 0.000000 0.951383
O O3 0.409127 0.120756 0.093938
O O4 0.347356 0.890803 0.014022
O O5 0.420428 0.108133 0.614629
O O6 0.423244 0.269649 0.767908
O O7 0.564437 0.271273 0.660518
O O8 0.750000 0.592290 0.055173
O O9 0.616389 0.608989 0.927300
O O10 0.634996 0.380714 0.024489
O O11 0.250000 0.203268 0.313664
O O12 0.250000 0.752995 0.139932
#
# Coordination Sequence:
#
# PCOD8192616 Si02
#       5
#     8   8   8   8   8
#     4   9  20  38  58  82 114 151 189 234 287 339
#     4  10  20  37  59  84 116 154 193 231 278 342
#     4   9  19  36  59  86 116 150 188 235 287 338
#     4  10  20  36  61  87 111 148 195 236 279 338
#     4  10  20  37  60  85 117 153 187 234 291 335
#
# _framework density 20.718212000000001
#
# number of rings (size 3 to 8) (size 9 to 14) (size 15 to 20)
#    0.000    2.400    0.000    1.800    0.000    4.000 
#    0.000   20.000    0.000   22.800    0.000    0.000 
#    0.000    0.000    0.000    0.000    0.000    0.000 
#
# Total GULP energy -247943.663347 kJ/mol
# GULP energy per Si atom -12397.183167 kJ/mol
# Density = 2.067106 g / cm^3
# Si number density = 20.718212 Si / 1000 Ang^3
#
#
#
# Elastic Constant Matrix: (Units=GPa)
#
#
# Indices 1 2 3 4 5 6 
#
# 1 129.9927 28.2933 59.6893 0.0000 0.0000 0.0000
# 2 28.2933 126.0614 32.4447 0.0000 0.0000 0.0000
# 3 59.6893 32.4447 109.2757 0.0000 0.0000 0.0000
# 4 0.0000 0.0000 0.0000 7.1897 0.0000 0.0000
# 5 0.0000 0.0000 0.0000 0.0000 10.6834 0.0000
# 6 0.0000 0.0000 0.0000 0.0000 0.0000 28.9334
#
#
#
# Elastic Compliance Matrix: (Units=1/GPa)
#
#
# Indices 1 2 3 4 5 6 
#
# 1 0.010370 -0.000942 -0.005385 0.000000 0.000000 0.000000
# 2 -0.000942 0.008674 -0.002061 0.000000 0.000000 0.000000
# 3 -0.005385 -0.002061 0.012705 0.000000 0.000000 0.000000
# 4 0.000000 0.000000 0.000000 0.139087 0.000000 0.000000
# 5 0.000000 0.000000 0.000000 0.000000 0.093603 0.000000
# 6 0.000000 0.000000 0.000000 0.000000 0.000000 0.034562
#
#
# Mechanical properties :
#
#
# Convention : Reuss Voigt Hill
#
# Bulk Modulus (GPa) = 66.78311 67.35382 67.06846
# Shear Modulus (GPa) = 15.58756 25.68815 20.63785
#
# Velocity S-wave (km/s) = 2.74589 3.52502 3.15956
# Velocity P-wave (km/s) = 6.50824 7.01054 6.76406
#
# Compressibility (1/GPa) = 0.01497385
#
# Stress axis : x y z
#
# Youngs Moduli (GPa) = 96.42897 115.28096 78.71179
#
# Poissons Ratio (x) = 0.10855 0.42386
# Poissons Ratio (y) = 0.09080 0.16224
# Poissons Ratio (z) = 0.51927 0.23762
#
# Static dielectric constant tensor:
#      x y z
#    x 4.002960 0.000000 0.000000 
#    y 0.000000 3.983130 0.000000 
#    z 0.000000 0.000000 3.240170 
# 
# 
# High freq. dielectric constant tensor:
#      x y z
#    x 1.827040 0.000000 0.000000 
#    y 0.000000 1.824580 0.000000 
#    z 0.000000 0.000000 1.763500 
# 
# From -- ./inp_files/11586.got.cif
#   From: 2010.03.12/outbox.cif.g09.slc.cpg/sg46_6_cif.got.tgz:11586.got - 2010.04.14 02:56:35.
