data_PCOD8192178
_publ_section_title
;
Structure prediction by ZEFSAII (Michael W. Deem and Ramdas Pophale) SiO2 
 PCOD8192178
Probable space group: I M A 2
;
_chemical_formula_sum "Si O2"
_cell_formula_units_Z 48
_cell_length_a 15.605500
_cell_length_b 9.976335
_cell_length_c 14.085821
_cell_angle_alpha 90.000000
_cell_angle_beta 90.000000
_cell_angle_gamma 90.000000
_cell_volume 2192.960844
_symmetry_space_group_name_H-M "I M A 2"
_symmetry_group_IT_number 46
_symmetry_cell_setting 'orthorhombic'
loop_
_space_group_symop_operation_xyz
x,y,z
-x,-y,z
1/2-x,y,z
1/2+x,-y,z
1/2+x,1/2+y,1/2+z
1/2-x,1/2-y,1/2+z
-x,1/2+y,1/2+z
x,1/2-y,1/2+z
loop_
_atom_site_type_symbol
_atom_site_label
_atom_site_fract_x
_atom_site_fract_y
_atom_site_fract_z
Si Si1 0.351988 0.522271 0.251260
Si Si2 0.148093 0.897605 0.954545
Si Si3 0.912601 0.581036 0.944618
Si Si4 0.348500 0.280429 0.763772
Si Si5 0.345961 0.642686 0.058932
Si Si6 0.349193 0.330265 0.549425
O O1 0.250000 0.513159 0.239662
O O2 0.380900 0.605919 0.344080
O O3 0.386815 0.370216 0.261636
O O4 0.391445 0.594097 0.157304
O O5 0.250000 0.889402 0.958510
O O6 0.107027 0.771822 0.011482
O O7 0.115960 0.034283 0.002135
O O8 0.899477 0.624470 0.836101
O O9 0.000000 0.500000 0.958454
O O10 0.841170 0.477320 0.982232
O O11 0.908979 0.711476 0.011423
O O12 0.250000 0.275484 0.797377
O O13 0.358411 0.347715 0.661595
O O14 0.250000 0.686327 0.084842
O O15 0.250000 0.301767 0.521196
#
# Coordination Sequence:
#
# PCOD8192178 Si02
#       6
#     8   8   8   8   8   8
#     4   9  16  30  58  90 118 154 198 252 316 370
#     4   9  18  32  57  91 121 148 194 261 323 373
#     4  12  24  38  57  90 129 164 206 257 326 393
#     4  10  19  35  65  92 115 160 217 264 304 370
#     4  10  20  36  59  89 122 157 206 270 323 375
#     4  10  19  37  66  92 115 160 217 263 306 375
#
# _framework density 21.888216
#
# number of rings (size 3 to 8) (size 9 to 14) (size 15 to 20)
#    0.000    2.000    3.333    1.500    0.000    1.333 
#    0.000    9.167    0.000    0.000    0.000    0.000 
#    0.000    0.000    0.000    0.000    0.000    0.000 
#
# Total GULP energy -297518.395081 kJ/mol
# GULP energy per Si atom -12396.599795 kJ/mol
# Density = 2.183840 g / cm^3
# Si number density = 21.888216 Si / 1000 Ang^3
#
#
#
# Elastic Constant Matrix: (Units=GPa)
#
#
# Indices 1 2 3 4 5 6 
#
# 1 27.2401 20.1409 26.2250 0.0000 0.0000 0.0000
# 2 20.1409 184.9062 99.1898 0.0000 0.0000 0.0000
# 3 26.2250 99.1898 181.0077 0.0000 0.0000 0.0000
# 4 0.0000 0.0000 0.0000 50.4656 0.0000 0.0000
# 5 0.0000 0.0000 0.0000 0.0000 10.8342 0.0000
# 6 0.0000 0.0000 0.0000 0.0000 0.0000 21.8067
#
#
#
# Elastic Compliance Matrix: (Units=1/GPa)
#
#
# Indices 1 2 3 4 5 6 
#
# 1 0.043130 -0.001906 -0.005204 0.000000 0.000000 0.000000
# 2 -0.001906 0.007744 -0.003967 0.000000 0.000000 0.000000
# 3 -0.005204 -0.003967 0.008453 0.000000 0.000000 0.000000
# 4 0.000000 0.000000 0.000000 0.019815 0.000000 0.000000
# 5 0.000000 0.000000 0.000000 0.000000 0.092300 0.000000
# 6 0.000000 0.000000 0.000000 0.000000 0.000000 0.045857
#
#
# Mechanical properties :
#
#
# Convention : Reuss Voigt Hill
#
# Bulk Modulus (GPa) = 26.90255 76.02949 51.46602
# Shear Modulus (GPa) = 19.85334 33.12786 26.49060
#
# Velocity S-wave (km/s) = 3.01497 3.89460 3.48266
# Velocity P-wave (km/s) = 4.94344 7.41853 6.30366
#
# Compressibility (1/GPa) = 0.03717119
#
# Stress axis : x y z
#
# Youngs Moduli (GPa) = 23.18556 129.13121 118.30461
#
# Poissons Ratio (x) = 0.24615 0.61569
# Poissons Ratio (y) = 0.04420 0.46937
# Poissons Ratio (z) = 0.12066 0.51232
#
# Static dielectric constant tensor:
#      x y z
#    x 3.325720 0.000000 0.000000 
#    y 0.000000 4.128100 0.000000 
#    z 0.000000 0.000000 4.133270 
# 
# 
# High freq. dielectric constant tensor:
#      x y z
#    x 1.809380 0.000000 0.000000 
#    y 0.000000 1.863790 0.000000 
#    z 0.000000 0.000000 1.874690 
# 
# From -- ./inp_files/16521.got.cif
#   From: 2010.03.12/outbox.cif.g09.slc.cpg/sg46_9_cif.got.tgz:16521.got - 2010.04.14 02:56:35.
