data_PCOD8192010
_publ_section_title
;
Structure prediction by ZEFSAII (Michael W. Deem and Ramdas Pophale) SiO2 
 PCOD8192010
Probable space group: I M A 2
;
_chemical_formula_sum "Si O2"
_cell_formula_units_Z 48
_cell_length_a 9.041065
_cell_length_b 22.696356
_cell_length_c 11.694861
_cell_angle_alpha 90.000000
_cell_angle_beta 90.000000
_cell_angle_gamma 90.000000
_cell_volume 2399.776471
_symmetry_space_group_name_H-M "I M A 2"
_symmetry_group_IT_number 46
_symmetry_cell_setting 'orthorhombic'
loop_
_space_group_symop_operation_xyz
x,y,z
-x,-y,z
1/2-x,y,z
1/2+x,-y,z
1/2+x,1/2+y,1/2+z
1/2-x,1/2-y,1/2+z
-x,1/2+y,1/2+z
x,1/2-y,1/2+z
loop_
_atom_site_type_symbol
_atom_site_label
_atom_site_fract_x
_atom_site_fract_y
_atom_site_fract_z
Si Si1 0.585313 0.163836 0.500000
Si Si2 0.424825 0.850938 0.240755
Si Si3 0.911873 0.054117 0.655160
Si Si4 0.420230 0.123967 0.838907
Si Si5 0.075909 0.436952 0.573769
Si Si6 0.422722 0.267653 0.187469
O O1 0.750000 0.193331 0.502198
O O2 0.528308 0.153569 0.372480
O O3 0.595994 0.100323 0.554803
O O4 0.464235 0.201323 0.568213
O O5 0.250000 0.857766 0.223122
O O6 0.504947 0.907632 0.186134
O O7 0.480500 0.790725 0.185233
O O8 0.750000 0.033051 0.692409
O O9 0.986913 0.076760 0.770018
O O10 0.000000 0.000000 0.602484
O O11 0.250000 0.113980 0.807970
O O12 0.463840 0.190418 0.796941
O O13 0.452178 0.110672 0.971871
O O14 0.250000 0.447463 0.592179
O O15 0.000000 0.500000 0.548173
O O16 0.250000 0.251575 0.186493
#
# Coordination Sequence:
#
# PCOD8192010 Si02
#       6
#     8   8   8   8   8   8
#     4   9  21  40  58  83 116 153 197 244 295 357
#     4  11  24  41  61  87 120 160 203 249 303 364
#     4  10  19  33  56  84 115 150 192 239 293 347
#     4   9  20  38  60  88 120 154 196 245 298 355
#     4  11  24  42  62  89 124 165 209 253 305 365
#     4  10  21  38  62  91 121 154 197 250 307 364
#
# _framework density 20.001864000000001
#
# number of rings (size 3 to 8) (size 9 to 14) (size 15 to 20)
#    0.000    2.000    0.000    2.500    2.333    6.000 
#    0.000    1.667    0.000    0.000    0.000    0.000 
#    0.000    0.000    0.000    0.000    0.000    0.000 
#
# Total GULP energy -297566.226753 kJ/mol
# GULP energy per Si atom -12398.592781 kJ/mol
# Density = 1.995634 g / cm^3
# Si number density = 20.001864 Si / 1000 Ang^3
#
#
#
# Elastic Constant Matrix: (Units=GPa)
#
#
# Indices 1 2 3 4 5 6 
#
# 1 95.3979 40.3940 36.6306 -0.0002 0.0000 0.0000
# 2 40.3940 79.8399 26.3171 0.0000 0.0000 0.0000
# 3 36.6306 26.3171 100.6200 0.0005 -0.0003 0.0000
# 4 -0.0002 0.0000 0.0005 11.0890 -0.0001 0.0000
# 5 0.0000 0.0000 -0.0003 -0.0001 29.2052 0.0000
# 6 0.0000 0.0000 0.0000 0.0000 0.0000 37.2943
#
#
#
# Elastic Compliance Matrix: (Units=1/GPa)
#
#
# Indices 1 2 3 4 5 6 
#
# 1 0.014483 -0.006117 -0.003673 0.000000 0.000000 0.000000
# 2 -0.006117 0.016290 -0.002034 0.000000 0.000000 0.000000
# 3 -0.003673 -0.002034 0.011807 -0.000001 0.000000 0.000000
# 4 0.000000 0.000000 -0.000001 0.090180 0.000000 0.000000
# 5 0.000000 0.000000 0.000000 0.000000 0.034240 0.000000
# 6 0.000000 0.000000 0.000000 0.000000 0.000000 0.026814
#
#
# Mechanical properties :
#
#
# Convention : Reuss Voigt Hill
#
# Bulk Modulus (GPa) = 52.81574 53.61569 53.21571
# Shear Modulus (GPa) = 22.34421 27.01877 24.68149
#
# Velocity S-wave (km/s) = 3.34594 3.67933 3.51659
# Velocity P-wave (km/s) = 6.43349 6.70175 6.56899
#
# Compressibility (1/GPa) = 0.01893375
#
# Stress axis : x y z
#
# Youngs Moduli (GPa) = 69.04858 61.38677 84.69320
#
# Poissons Ratio (x) = 0.37549 0.31104
# Poissons Ratio (y) = 0.42235 0.17226
# Poissons Ratio (z) = 0.25358 0.12485
#
# Static dielectric constant tensor:
#      x y z
#    x 3.846210 0.000000 0.000000 
#    y 0.000000 3.672240 0.000000 
#    z 0.000000 0.000000 3.592850 
# 
# 
# High freq. dielectric constant tensor:
#      x y z
#    x 1.790970 0.000000 0.000000 
#    y 0.000000 1.780080 0.000000 
#    z 0.000000 0.000000 1.776630 
# 
# From -- ./inp_files/9291.got.cif
#   From: 2010.03.12/outbox.cif.g09.slc.cpg/sg46_5_cif.got.tgz:9291.got - 2010.04.14 02:56:35.
