data_PCOD8192265
_publ_section_title
;
Structure prediction by ZEFSAII (Michael W. Deem and Ramdas Pophale) SiO2 
 PCOD8192265
Probable space group: I M A 2
;
_chemical_formula_sum "Si O2"
_cell_formula_units_Z 60
_cell_length_a 9.199395
_cell_length_b 14.561037
_cell_length_c 23.742891
_cell_angle_alpha 90.000000
_cell_angle_beta 90.000000
_cell_angle_gamma 90.000000
_cell_volume 3180.425091
_symmetry_space_group_name_H-M "I M A 2"
_symmetry_group_IT_number 46
_symmetry_cell_setting 'orthorhombic'
loop_
_space_group_symop_operation_xyz
x,y,z
-x,-y,z
1/2-x,y,z
1/2+x,-y,z
1/2+x,1/2+y,1/2+z
1/2-x,1/2-y,1/2+z
-x,1/2+y,1/2+z
x,1/2-y,1/2+z
loop_
_atom_site_type_symbol
_atom_site_label
_atom_site_fract_x
_atom_site_fract_y
_atom_site_fract_z
Si Si1 0.418335 0.293018 0.063740
Si Si2 0.000000 0.500000 0.337295
Si Si3 0.411972 0.164545 0.762669
Si Si4 0.086936 0.090693 0.456397
Si Si5 0.579337 0.586062 0.540655
Si Si6 0.583956 0.768583 0.369569
Si Si7 0.090592 0.878926 0.931142
Si Si8 0.423254 0.598529 0.159416
O O1 0.250000 0.310086 0.080355
O O2 0.455812 0.184579 0.068752
O O3 0.525013 0.348575 0.104215
O O4 0.451072 0.327896 0.000514
O O5 0.911740 0.571427 0.299090
O O6 0.889061 0.447393 0.378303
O O7 0.250000 0.175755 0.736802
O O8 0.448785 0.252370 0.803091
O O9 0.530389 0.159666 0.713280
O O10 0.250000 0.059112 0.466183
O O11 0.064676 0.126734 0.391857
O O12 0.000000 0.000000 0.469447
O O13 0.500000 0.500000 0.572814
O O14 0.750000 0.566930 0.539492
O O15 0.520969 0.583493 0.477105
O O16 0.750000 0.735727 0.381822
O O17 0.470803 0.715312 0.407587
O O18 0.250000 0.862589 0.958047
O O19 0.500000 0.500000 0.162928
O O20 0.250000 0.585774 0.158789
#
# Coordination Sequence:
#
# PCOD8192265 Si02
#       8
#     8   4   8   8   8   8   8   8
#     4  10  22  41  61  81 114 155 195 241 290 339
#     4  10  20  30  50  80 118 152 182 226 272 332
#     4  10  20  35  57  81 113 151 189 228 282 345
#     4  10  20  36  57  84 116 153 194 238 285 339
#     4  11  22  37  57  83 116 152 189 233 284 344
#     4   9  19  36  54  77 113 150 184 229 285 340
#     4  11  20  29  48  78 113 149 185 222 269 330
#     4  12  25  40  60  85 116 150 195 243 289 346
#
# _framework density 18.865404000000002
#
# number of rings (size 3 to 8) (size 9 to 14) (size 15 to 20)
#    0.000    1.600    2.667    2.800    0.000    6.400 
#    0.000    0.000    0.000    0.800    0.000    1.867 
#    0.000    0.000    0.000    0.000    0.000    0.000 
#
# Total GULP energy -371774.450537 kJ/mol
# GULP energy per Si atom -12392.481685 kJ/mol
# Density = 1.882247 g / cm^3
# Si number density = 18.865404 Si / 1000 Ang^3
#
#
#
# Elastic Constant Matrix: (Units=GPa)
#
#
# Indices 1 2 3 4 5 6 
#
# 1 115.7737 48.9111 41.4847 0.0000 0.0000 0.0000
# 2 48.9111 91.3601 31.4934 0.0000 0.0000 0.0000
# 3 41.4847 31.4934 79.6391 0.0000 0.0000 0.0000
# 4 0.0000 0.0000 0.0000 23.8993 0.0000 0.0000
# 5 0.0000 0.0000 0.0000 0.0000 27.5898 0.0000
# 6 0.0000 0.0000 0.0000 0.0000 0.0000 27.0061
#
#
#
# Elastic Compliance Matrix: (Units=1/GPa)
#
#
# Indices 1 2 3 4 5 6 
#
# 1 0.012380 -0.005100 -0.004432 0.000000 0.000000 0.000000
# 2 -0.005100 0.014774 -0.003186 0.000000 0.000000 0.000000
# 3 -0.004432 -0.003186 0.016125 0.000000 0.000000 0.000000
# 4 0.000000 0.000000 0.000000 0.041842 0.000000 0.000000
# 5 0.000000 0.000000 0.000000 0.000000 0.036245 0.000000
# 6 0.000000 0.000000 0.000000 0.000000 0.000000 0.037029
#
#
# Mechanical properties :
#
#
# Convention : Reuss Voigt Hill
#
# Bulk Modulus (GPa) = 56.04239 58.95016 57.49627
# Shear Modulus (GPa) = 26.34623 26.69127 26.51875
#
# Velocity S-wave (km/s) = 3.74108 3.76550 3.75331
# Velocity P-wave (km/s) = 6.95930 7.08667 7.02327
#
# Compressibility (1/GPa) = 0.01784364
#
# Stress axis : x y z
#
# Youngs Moduli (GPa) = 80.77287 67.68475 62.01460
#
# Poissons Ratio (x) = 0.34521 0.27486
# Poissons Ratio (y) = 0.41196 0.19757
# Poissons Ratio (z) = 0.35800 0.21563
#
# Static dielectric constant tensor:
#      x y z
#    x 3.461880 0.000000 0.000000 
#    y 0.000000 3.492650 0.000000 
#    z 0.000000 0.000000 3.369520 
# 
# 
# High freq. dielectric constant tensor:
#      x y z
#    x 1.735610 0.000000 0.000000 
#    y 0.000000 1.720620 0.000000 
#    z 0.000000 0.000000 1.709660 
# 
# From -- ./inp_files/23059.got.cif
#   From: 2010.03.12/outbox.cif.g09.slc.cpg/sg46_12_cif.got.tgz:23059.got - 2010.04.14 02:56:35.
