data_PCOD8192357
_publ_section_title
;
Structure prediction by ZEFSAII (Michael W. Deem and Ramdas Pophale) SiO2 
 PCOD8192357
Probable space group: I M A 2
;
_chemical_formula_sum "Si O2"
_cell_formula_units_Z 56
_cell_length_a 15.307448
_cell_length_b 4.998623
_cell_length_c 34.408155
_cell_angle_alpha 90.000000
_cell_angle_beta 90.000000
_cell_angle_gamma 90.000000
_cell_volume 2632.779950
_symmetry_space_group_name_H-M "I M A 2"
_symmetry_group_IT_number 46
_symmetry_cell_setting 'orthorhombic'
loop_
_space_group_symop_operation_xyz
x,y,z
-x,-y,z
1/2-x,y,z
1/2+x,-y,z
1/2+x,1/2+y,1/2+z
1/2-x,1/2-y,1/2+z
-x,1/2+y,1/2+z
x,1/2-y,1/2+z
loop_
_atom_site_type_symbol
_atom_site_label
_atom_site_fract_x
_atom_site_fract_y
_atom_site_fract_z
Si Si1 0.847926 0.664659 0.768820
Si Si2 0.941979 0.752261 0.846766
Si Si3 0.152777 0.950989 0.053069
Si Si4 0.000000 0.500000 0.610503
Si Si5 0.396982 0.458725 0.007590
Si Si6 0.500000 0.000000 0.661166
Si Si7 0.440310 0.252015 0.430951
Si Si8 0.648312 0.319780 0.219616
O O1 0.750000 0.561041 0.769723
O O2 0.876094 0.666730 0.813355
O O3 0.892340 0.447775 0.739823
O O4 0.859343 0.958939 0.752689
O O5 0.896021 0.823389 0.888801
O O6 0.000000 0.500000 0.855061
O O7 0.000000 0.000000 0.832181
O O8 0.250000 0.933851 0.071128
O O9 0.146971 0.744065 0.016782
O O10 0.080596 0.883598 0.085415
O O11 0.136155 0.252204 0.039529
O O12 0.033537 0.250723 0.635957
O O13 0.500000 0.500000 0.010053
O O14 0.372027 0.335147 0.964975
O O15 0.584680 0.099612 0.684772
O O16 0.500000 0.500000 0.445678
O O17 0.500000 0.000000 0.423519
O O18 0.750000 0.291605 0.205086
#
# Coordination Sequence:
#
# PCOD8192357 Si02
#       8
#     8   8   8   4   8   4   8   8
#     4  10  21  38  58  85 123 163 201 250 310 357
#     4  10  20  33  55  89 121 159 212 254 296 356
#     4  12  25  42  66  97 128 163 208 259 316 379
#     4  12  26  46  64  96 125 160 201 252 322 392
#     4  11  19  39  66  89 125 171 215 259 309 371
#     4  12  26  42  70  92 119 160 207 244 318 392
#     4   9  18  32  55  89 123 163 208 256 307 350
#     4  10  23  41  62  91 123 158 204 254 304 367
#
# _framework density 21.270292999999999
#
# number of rings (size 3 to 8) (size 9 to 14) (size 15 to 20)
#    0.000    1.429    1.429    4.714    3.000    1.143 
#    0.000    1.429    0.000    1.714    0.000    0.000 
#    0.000    0.000    0.000    0.000    0.000    0.000 
#
# Total GULP energy -346970.733682 kJ/mol
# GULP energy per Si atom -12391.811917 kJ/mol
# Density = 2.122188 g / cm^3
# Si number density = 21.270293 Si / 1000 Ang^3
#
#
#
# Elastic Constant Matrix: (Units=GPa)
#
#
# Indices 1 2 3 4 5 6 
#
# 1 86.8236 19.4779 45.4703 0.0000 0.0000 0.0000
# 2 19.4779 112.2612 24.4314 0.0000 0.0000 0.0000
# 3 45.4703 24.4314 120.0529 0.0000 0.0000 0.0000
# 4 0.0000 0.0000 0.0000 38.0354 0.0000 0.0000
# 5 0.0000 0.0000 0.0000 0.0000 7.5069 0.0000
# 6 0.0000 0.0000 0.0000 0.0000 0.0000 21.6111
#
#
#
# Elastic Compliance Matrix: (Units=1/GPa)
#
#
# Indices 1 2 3 4 5 6 
#
# 1 0.014571 -0.001389 -0.005236 0.000000 0.000000 0.000000
# 2 -0.001389 0.009453 -0.001398 0.000000 0.000000 0.000000
# 3 -0.005236 -0.001398 0.010597 0.000000 0.000000 0.000000
# 4 0.000000 0.000000 0.000000 0.026291 0.000000 0.000000
# 5 0.000000 0.000000 0.000000 0.000000 0.133211 0.000000
# 6 0.000000 0.000000 0.000000 0.000000 0.000000 0.046273
#
#
# Mechanical properties :
#
#
# Convention : Reuss Voigt Hill
#
# Bulk Modulus (GPa) = 53.83224 55.32189 54.57706
# Shear Modulus (GPa) = 19.03788 28.74789 23.89288
#
# Velocity S-wave (km/s) = 2.99498 3.68033 3.35520
# Velocity P-wave (km/s) = 6.10929 6.64268 6.38156
#
# Compressibility (1/GPa) = 0.01857623
#
# Stress axis : x y z
#
# Youngs Moduli (GPa) = 68.62730 105.78731 94.36269
#
# Poissons Ratio (x) = 0.14690 0.49412
# Poissons Ratio (y) = 0.09530 0.13190
# Poissons Ratio (z) = 0.35936 0.14787
#
# Static dielectric constant tensor:
#      x y z
#    x 3.609390 0.000000 0.000000 
#    y 0.000000 4.041710 0.000000 
#    z 0.000000 0.000000 4.250870 
# 
# 
# High freq. dielectric constant tensor:
#      x y z
#    x 1.795800 0.000000 0.000000 
#    y 0.000000 1.859560 0.000000 
#    z 0.000000 0.000000 1.841320 
# 
# From -- ./inp_files/25453.got.cif
#   From: 2010.03.12/outbox.cif.g09.slc.cpg/sg46_13_cif.got.tgz:25453.got - 2010.04.14 02:56:35.
