data_PCOD8192829
_publ_section_title
;
Structure prediction by ZEFSAII (Michael W. Deem and Ramdas Pophale) SiO2 
 PCOD8192829
Probable space group: I M A 2
;
_chemical_formula_sum "Si O2"
_cell_formula_units_Z 48
_cell_length_a 9.552163
_cell_length_b 9.485987
_cell_length_c 31.023834
_cell_angle_alpha 90.000000
_cell_angle_beta 90.000000
_cell_angle_gamma 90.000000
_cell_volume 2811.122154
_symmetry_space_group_name_H-M "I M A 2"
_symmetry_group_IT_number 46
_symmetry_cell_setting 'orthorhombic'
loop_
_space_group_symop_operation_xyz
x,y,z
-x,-y,z
1/2-x,y,z
1/2+x,-y,z
1/2+x,1/2+y,1/2+z
1/2-x,1/2-y,1/2+z
-x,1/2+y,1/2+z
x,1/2-y,1/2+z
loop_
_atom_site_type_symbol
_atom_site_label
_atom_site_fract_x
_atom_site_fract_y
_atom_site_fract_z
Si Si1 0.086842 0.356129 0.583810
Si Si2 0.588547 0.636060 0.729732
Si Si3 0.912530 0.635133 0.828109
Si Si4 0.592070 0.635440 0.490093
Si Si5 0.587919 0.641200 0.397168
Si Si6 0.085885 0.143494 0.657760
O O1 0.250000 0.392797 0.591506
O O2 0.060954 0.287179 0.535803
O O3 0.037069 0.238011 0.617302
O O4 0.000000 0.500000 0.590339
O O5 0.500000 0.500000 0.715472
O O6 0.750000 0.594468 0.723031
O O7 0.556521 0.679725 0.778923
O O8 0.548247 0.770225 0.700923
O O9 0.750000 0.601058 0.835429
O O10 0.965908 0.757350 0.859593
O O11 0.000000 0.500000 0.841313
O O12 0.500000 0.500000 0.488169
O O13 0.750000 0.580533 0.491213
O O14 0.566474 0.717503 0.444595
O O15 0.500000 0.500000 0.393775
O O16 0.750000 0.602973 0.389874
O O17 0.250000 0.107229 0.655328
O O18 0.000000 0.000000 0.657794
#
# Coordination Sequence:
#
# PCOD8192829 Si02
#       6
#     8   8   8   8   8   8
#     4   9  17  30  49  70  90 116 152 189 223 263
#     4   9  18  33  51  69  89 116 152 189 223 264
#     4   9  18  32  48  67  92 120 150 185 224 266
#     4   8  14  26  44  65  89 116 147 184 222 259
#     4   9  17  29  46  68  93 120 150 185 224 265
#     4  10  21  34  47  67  95 122 148 182 225 271
#
# _framework density 17.075032
#
# number of rings (size 3 to 8) (size 9 to 14) (size 15 to 20)
#    0.000    3.000    0.000    0.500    0.000    2.667 
#    0.000    0.833    0.000    0.000    0.000    0.000 
#    0.000    0.000    0.000    0.000    0.000    0.000 
#
# Total GULP energy -297351.749035 kJ/mol
# GULP energy per Si atom -12389.656210 kJ/mol
# Density = 1.703617 g / cm^3
# Si number density = 17.075032 Si / 1000 Ang^3
#
#
#
# Elastic Constant Matrix: (Units=GPa)
#
#
# Indices 1 2 3 4 5 6 
#
# 1 49.2550 50.6261 46.2095 0.0000 0.0000 0.0000
# 2 50.6261 115.0480 86.7166 0.0000 0.0001 0.0000
# 3 46.2095 86.7166 146.6389 0.0000 0.0000 0.0000
# 4 0.0000 0.0000 0.0000 26.4674 0.0000 0.0000
# 5 0.0000 0.0001 0.0000 0.0000 5.5170 0.0000
# 6 0.0000 0.0000 0.0000 0.0000 0.0000 31.1087
#
#
#
# Elastic Compliance Matrix: (Units=1/GPa)
#
#
# Indices 1 2 3 4 5 6 
#
# 1 0.038197 -0.013957 -0.003783 0.000000 0.000000 0.000000
# 2 -0.013957 0.020782 -0.007891 0.000000 0.000000 0.000000
# 3 -0.003783 -0.007891 0.012678 0.000000 0.000000 0.000000
# 4 0.000000 0.000000 0.000000 0.037782 0.000000 0.000000
# 5 0.000000 0.000000 0.000000 0.000000 0.181259 0.000000
# 6 0.000000 0.000000 0.000000 0.000000 0.000000 0.032145
#
#
# Mechanical properties :
#
#
# Convention : Reuss Voigt Hill
#
# Bulk Modulus (GPa) = 49.03341 75.33848 62.18594
# Shear Modulus (GPa) = 13.12665 21.11127 17.11896
#
# Velocity S-wave (km/s) = 2.77567 3.52004 3.16978
# Velocity P-wave (km/s) = 6.24910 7.79350 7.06364
#
# Compressibility (1/GPa) = 0.02039426
#
# Stress axis : x y z
#
# Youngs Moduli (GPa) = 26.17994 48.11946 78.87455
#
# Poissons Ratio (x) = 0.67159 0.29841
# Poissons Ratio (y) = 0.36539 0.62243
# Poissons Ratio (z) = 0.09905 0.37973
#
# Static dielectric constant tensor:
#      x y z
#    x 3.200180 0.000000 0.000000 
#    y 0.000000 1.652280 0.000000 
#    z 0.000000 0.000000 3.940720 
# 
# 
# High freq. dielectric constant tensor:
#      x y z
#    x 1.659720 0.000000 0.000000 
#    y 0.000000 1.618130 0.000000 
#    z 0.000000 0.000000 1.687100 
# 
# From -- ./inp_files/24477.got.cif
#   From: 2010.03.12/outbox.cif.g09.slc.cpg/sg46_13_cif.got.tgz:24477.got - 2010.04.14 02:56:35.
