data_PCOD8192920
_publ_section_title
;
Structure prediction by ZEFSAII (Michael W. Deem and Ramdas Pophale) SiO2 
 PCOD8192920
Probable space group: I M A 2
;
_chemical_formula_sum "Si O2"
_cell_formula_units_Z 44
_cell_length_a 14.962891
_cell_length_b 10.768443
_cell_length_c 13.444788
_cell_angle_alpha 90.000000
_cell_angle_beta 90.000000
_cell_angle_gamma 90.000000
_cell_volume 2166.318878
_symmetry_space_group_name_H-M "I M A 2"
_symmetry_group_IT_number 46
_symmetry_cell_setting 'orthorhombic'
loop_
_space_group_symop_operation_xyz
x,y,z
-x,-y,z
1/2-x,y,z
1/2+x,-y,z
1/2+x,1/2+y,1/2+z
1/2-x,1/2-y,1/2+z
-x,1/2+y,1/2+z
x,1/2-y,1/2+z
loop_
_atom_site_type_symbol
_atom_site_label
_atom_site_fract_x
_atom_site_fract_y
_atom_site_fract_z
Si Si1 0.500000 0.500000 0.876330
Si Si2 0.408095 0.443080 0.380564
Si Si3 0.026773 0.275232 0.014233
Si Si4 0.149634 0.496982 0.732355
Si Si5 0.150451 0.864038 0.030870
Si Si6 0.150031 0.212483 0.697386
O O1 0.420379 0.557344 0.808873
O O2 0.461069 0.390297 0.941881
O O3 0.500000 0.500000 0.339547
O O4 0.425058 0.343511 0.467471
O O5 0.351822 0.554501 0.430065
O O6 0.356465 0.384213 0.288084
O O7 0.075404 0.315987 0.115434
O O8 0.921716 0.246827 0.032159
O O9 0.250000 0.533637 0.764658
O O10 0.128228 0.545152 0.622404
O O11 0.134347 0.349998 0.738439
O O12 0.250000 0.806053 0.040466
O O13 0.250000 0.201069 0.651668
#
# Coordination Sequence:
#
# PCOD8192920 Si02
#       6
#     4   8   8   8   8   8
#     4  12  24  40  60  86 128 160 192 252 310 360
#     4  10  21  38  63  91 121 160 203 253 304 359
#     4  11  24  38  62  89 124 163 200 248 303 367
#     4  10  21  37  64  91 115 152 203 251 295 355
#     4  10  21  41  66  90 119 159 205 250 298 363
#     4  11  22  38  61  91 124 157 202 251 301 362
#
# _framework density 20.310953000000001
#
# number of rings (size 3 to 8) (size 9 to 14) (size 15 to 20)
#    0.000    1.455    3.636    1.636    2.545    2.182 
#    0.000    0.000    0.000    0.000    0.000    0.000 
#    0.000    0.000    0.000    0.000    0.000    0.000 
#
# Total GULP energy -272848.097403 kJ/mol
# GULP energy per Si atom -12402.186246 kJ/mol
# Density = 2.026472 g / cm^3
# Si number density = 20.310953 Si / 1000 Ang^3
#
#
#
# Elastic Constant Matrix: (Units=GPa)
#
#
# Indices 1 2 3 4 5 6 
#
# 1 119.1662 13.3572 54.0608 0.0000 0.0000 0.0000
# 2 13.3572 29.4360 16.8437 0.0000 0.0000 0.0000
# 3 54.0608 16.8437 99.1530 0.0000 0.0000 0.0000
# 4 0.0000 0.0000 0.0000 18.3180 0.0000 0.0000
# 5 0.0000 0.0000 0.0000 0.0000 16.7627 0.0000
# 6 0.0000 0.0000 0.0000 0.0000 0.0000 26.3083
#
#
#
# Elastic Compliance Matrix: (Units=1/GPa)
#
#
# Indices 1 2 3 4 5 6 
#
# 1 0.011231 -0.001764 -0.005824 0.000000 0.000000 0.000000
# 2 -0.001764 0.037907 -0.005478 0.000000 0.000000 0.000000
# 3 -0.005824 -0.005478 0.014191 0.000000 0.000000 0.000000
# 4 0.000000 0.000000 0.000000 0.054591 0.000000 0.000000
# 5 0.000000 0.000000 0.000000 0.000000 0.059656 0.000000
# 6 0.000000 0.000000 0.000000 0.000000 0.000000 0.038011
#
#
# Mechanical properties :
#
#
# Convention : Reuss Voigt Hill
#
# Bulk Modulus (GPa) = 26.88289 46.25318 36.56803
# Shear Modulus (GPa) = 19.67583 23.17736 21.42659
#
# Velocity S-wave (km/s) = 3.11582 3.38172 3.25149
# Velocity P-wave (km/s) = 5.11946 6.17009 5.66916
#
# Compressibility (1/GPa) = 0.03719838
#
# Stress axis : x y z
#
# Youngs Moduli (GPa) = 89.03536 26.38042 70.46534
#
# Poissons Ratio (x) = 0.04653 0.41039
# Poissons Ratio (y) = 0.15705 0.38599
# Poissons Ratio (z) = 0.51855 0.14450
#
# Static dielectric constant tensor:
#      x y z
#    x 3.782130 0.000000 0.000000 
#    y 0.000000 3.521000 0.000000 
#    z 0.000000 0.000000 3.574630 
# 
# 
# High freq. dielectric constant tensor:
#      x y z
#    x 1.804460 0.000000 0.000000 
#    y 0.000000 1.770040 0.000000 
#    z 0.000000 0.000000 1.791200 
# 
# From -- ./inp_files/15814.got.cif
#   From: 2010.03.12/outbox.cif.g09.slc.cpg/sg46_8_cif.got.tgz:15814.got - 2010.04.14 02:56:35.
