data_PCOD8192488
_publ_section_title
;
Structure prediction by ZEFSAII (Michael W. Deem and Ramdas Pophale) SiO2 
 PCOD8192488
Probable space group: I M A 2
;
_chemical_formula_sum "Si O2"
_cell_formula_units_Z 64
_cell_length_a 8.753634
_cell_length_b 32.964418
_cell_length_c 11.718648
_cell_angle_alpha 90.000000
_cell_angle_beta 90.000000
_cell_angle_gamma 90.000000
_cell_volume 3381.514905
_symmetry_space_group_name_H-M "I M A 2"
_symmetry_group_IT_number 46
_symmetry_cell_setting 'orthorhombic'
loop_
_space_group_symop_operation_xyz
x,y,z
-x,-y,z
1/2-x,y,z
1/2+x,-y,z
1/2+x,1/2+y,1/2+z
1/2-x,1/2-y,1/2+z
-x,1/2+y,1/2+z
x,1/2-y,1/2+z
loop_
_atom_site_type_symbol
_atom_site_label
_atom_site_fract_x
_atom_site_fract_y
_atom_site_fract_z
Si Si1 0.568722 0.121939 0.178160
Si Si2 0.568555 0.956534 0.068703
Si Si3 0.066886 0.351830 0.917236
Si Si4 0.417097 0.187044 0.755647
Si Si5 0.928874 0.221936 0.548574
Si Si6 0.931939 0.542496 0.310037
Si Si7 0.083626 0.103470 0.629582
Si Si8 0.429063 0.686844 0.491201
O O1 0.750000 0.117729 0.181741
O O2 0.496922 0.078232 0.150543
O O3 0.509010 0.138025 0.298135
O O4 0.513975 0.155197 0.086304
O O5 0.750000 0.958465 0.081290
O O6 0.500000 0.000000 0.105834
O O7 0.516816 0.946226 0.938734
O O8 0.250000 0.352402 0.908923
O O9 0.006342 0.386632 0.006893
O O10 0.016125 0.307380 0.960383
O O11 0.250000 0.207455 0.772839
O O12 0.525398 0.216021 0.680895
O O13 0.394624 0.146026 0.688921
O O14 0.490464 0.175144 0.874740
O O15 0.750000 0.214236 0.533988
O O16 0.977279 0.267693 0.522216
O O17 0.750000 0.541965 0.305394
O O18 0.004885 0.573579 0.216767
O O19 0.000000 0.500000 0.272875
O O20 0.250000 0.083973 0.606410
O O21 0.250000 0.683045 0.474125
#
# Coordination Sequence:
#
# PCOD8192488 Si02
#       8
#     8   8   8   8   8   8   8   8
#     4  11  23  39  58  84 115 154 199 242 290 354
#     4  10  20  36  59  87 118 152 189 237 294 350
#     4  10  21  38  58  81 110 149 195 242 290 341
#     4  10  20  35  56  81 105 135 182 233 278 330
#     4  10  21  38  57  78 110 150 187 229 289 351
#     4   9  17  31  53  81 111 141 173 219 278 335
#     4   8  16  33  54  75 105 140 174 218 274 329
#     4  10  23  38  55  79 111 149 186 230 286 348
#
# _framework density 18.926428999999999
#
# number of rings (size 3 to 8) (size 9 to 14) (size 15 to 20)
#    0.000    2.250    0.000    3.375    1.750    3.500 
#    0.000    4.375    0.000    1.500    0.000    0.000 
#    0.000    0.000    0.000    0.000    0.000    0.000 
#
# Total GULP energy -396638.071307 kJ/mol
# GULP energy per Si atom -12394.939728 kJ/mol
# Density = 1.888335 g / cm^3
# Si number density = 18.926429 Si / 1000 Ang^3
#
#
#
# Elastic Constant Matrix: (Units=GPa)
#
#
# Indices 1 2 3 4 5 6 
#
# 1 39.9406 33.1593 33.1895 -0.0018 0.0000 -0.0001
# 2 33.1593 88.6766 45.9242 0.0005 0.0042 0.0000
# 3 33.1895 45.9242 131.0935 0.0040 0.0217 -0.0009
# 4 -0.0018 0.0005 0.0040 9.4378 0.0119 0.0000
# 5 0.0000 0.0042 0.0217 0.0119 68.5778 0.0001
# 6 -0.0001 0.0000 -0.0009 0.0000 0.0001 25.8351
#
#
#
# Elastic Compliance Matrix: (Units=1/GPa)
#
#
# Indices 1 2 3 4 5 6 
#
# 1 0.039761 -0.011794 -0.005935 0.000011 0.000003 0.000000
# 2 -0.011794 0.017275 -0.003066 -0.000002 0.000000 0.000000
# 3 -0.005935 -0.003066 0.010205 -0.000005 -0.000003 0.000000
# 4 0.000011 -0.000002 -0.000005 0.105957 -0.000018 0.000000
# 5 0.000003 0.000000 -0.000003 -0.000018 0.014582 0.000000
# 6 0.000000 0.000000 0.000000 0.000000 0.000000 0.038707
#
#
# Mechanical properties :
#
#
# Convention : Reuss Voigt Hill
#
# Bulk Modulus (GPa) = 38.98521 53.80632 46.39577
# Shear Modulus (GPa) = 18.07494 30.59932 24.33713
#
# Velocity S-wave (km/s) = 3.09368 4.02525 3.58981
# Velocity P-wave (km/s) = 5.77963 7.07774 6.46137
#
# Compressibility (1/GPa) = 0.02565075
#
# Stress axis : x y z
#
# Youngs Moduli (GPa) = 25.15050 57.88730 97.99529
#
# Poissons Ratio (x) = 0.68275 0.58156
# Poissons Ratio (y) = 0.29664 0.30042
# Poissons Ratio (z) = 0.14926 0.17746
#
# Static dielectric constant tensor:
#      x y z
#    x 3.399560 0.000000 -0.000020 
#    y 0.000000 3.548850 0.000000 
#    z -0.000020 0.000000 3.711540 
# 
# 
# High freq. dielectric constant tensor:
#      x y z
#    x 1.730580 0.000000 0.000000 
#    y 0.000000 1.732110 0.000000 
#    z 0.000000 0.000000 1.740450 
# 
# From -- ./inp_files/9755.got.cif
#   From: 2010.03.12/outbox.cif.g09.slc.cpg/sg46_5_cif.got.tgz:9755.got - 2010.04.14 02:56:35.
