data_PCOD8192356
_publ_section_title
;
Structure prediction by ZEFSAII (Michael W. Deem and Ramdas Pophale) SiO2 
 PCOD8192356
Probable space group: I M A 2
;
_chemical_formula_sum "Si O2"
_cell_formula_units_Z 56
_cell_length_a 9.287656
_cell_length_b 18.157707
_cell_length_c 16.932128
_cell_angle_alpha 90.000000
_cell_angle_beta 90.000000
_cell_angle_gamma 90.000000
_cell_volume 2855.477012
_symmetry_space_group_name_H-M "I M A 2"
_symmetry_group_IT_number 46
_symmetry_cell_setting 'orthorhombic'
loop_
_space_group_symop_operation_xyz
x,y,z
-x,-y,z
1/2-x,y,z
1/2+x,-y,z
1/2+x,1/2+y,1/2+z
1/2-x,1/2-y,1/2+z
-x,1/2+y,1/2+z
x,1/2-y,1/2+z
loop_
_atom_site_type_symbol
_atom_site_label
_atom_site_fract_x
_atom_site_fract_y
_atom_site_fract_z
Si Si1 0.414983 0.924268 0.911230
Si Si2 0.585746 0.571525 0.702706
Si Si3 0.584488 0.692358 0.122876
Si Si4 0.416671 0.075997 0.490584
Si Si5 0.917058 0.675960 0.846789
Si Si6 0.414561 0.692489 0.284550
Si Si7 0.581962 0.654294 0.545803
O O1 0.250000 0.939694 0.935675
O O2 0.423455 0.887761 0.824753
O O3 0.500000 0.000000 0.910167
O O4 0.484263 0.867587 0.972637
O O5 0.500000 0.500000 0.728517
O O6 0.750000 0.547496 0.704422
O O7 0.555978 0.636529 0.763744
O O8 0.539979 0.599728 0.616889
O O9 0.750000 0.699826 0.150640
O O10 0.558594 0.619081 0.072152
O O11 0.487009 0.687837 0.199573
O O12 0.543250 0.762321 0.069381
O O13 0.250000 0.057826 0.476599
O O14 0.474728 0.125094 0.417868
O O15 0.500000 0.000000 0.494536
O O16 0.750000 0.695775 0.860827
O O17 0.006652 0.750949 0.843558
O O18 0.250000 0.717773 0.273664
O O19 0.750000 0.647454 0.523702
#
# Coordination Sequence:
#
# PCOD8192356 Si02
#       7
#     8   8   8   8   8   8   8
#     4  11  25  42  60  87 120 156 199 245 299 354
#     4  10  20  33  54  85 119 154 191 233 283 345
#     4  10  21  40  63  88 118 158 202 240 292 359
#     4  10  22  38  61  89 120 159 199 243 295 349
#     4  10  20  39  62  85 117 158 199 237 289 358
#     4  11  24  40  61  90 119 152 198 251 300 345
#     4  10  20  38  62  88 117 153 199 243 291 354
#
# _framework density 19.611433000000002
#
# number of rings (size 3 to 8) (size 9 to 14) (size 15 to 20)
#    0.000    1.714    1.429    2.571    0.000    8.000 
#    0.000    2.857    0.000    0.000    0.000    0.000 
#    0.000    0.000    0.000    0.000    0.000    0.000 
#
# Total GULP energy -347325.256433 kJ/mol
# GULP energy per Si atom -12404.473444 kJ/mol
# Density = 1.956680 g / cm^3
# Si number density = 19.611433 Si / 1000 Ang^3
#
#
#
# Elastic Constant Matrix: (Units=GPa)
#
#
# Indices 1 2 3 4 5 6 
#
# 1 102.5777 60.0229 63.7687 0.0000 0.0000 0.0000
# 2 60.0229 94.8929 65.3467 0.0000 0.0000 0.0000
# 3 63.7687 65.3467 78.8032 0.0000 0.0000 0.0000
# 4 0.0000 0.0000 0.0000 8.9951 0.0000 0.0000
# 5 0.0000 0.0000 0.0000 0.0000 27.8142 0.0000
# 6 0.0000 0.0000 0.0000 0.0000 0.0000 35.2018
#
#
#
# Elastic Compliance Matrix: (Units=1/GPa)
#
#
# Indices 1 2 3 4 5 6 
#
# 1 0.020112 -0.003530 -0.013348 0.000000 0.000000 0.000000
# 2 -0.003530 0.025186 -0.018029 0.000000 0.000000 0.000000
# 3 -0.013348 -0.018029 0.038442 0.000000 0.000000 0.000000
# 4 0.000000 0.000000 0.000000 0.111172 0.000000 0.000000
# 5 0.000000 0.000000 0.000000 0.000000 0.035953 0.000000
# 6 0.000000 0.000000 0.000000 0.000000 0.000000 0.028408
#
#
# Mechanical properties :
#
#
# Convention : Reuss Voigt Hill
#
# Bulk Modulus (GPa) = 71.80637 72.72784 72.26710
# Shear Modulus (GPa) = 14.98222 20.21126 17.59674
#
# Velocity S-wave (km/s) = 2.76697 3.21376 2.99870
# Velocity P-wave (km/s) = 6.84852 7.13694 6.99421
#
# Compressibility (1/GPa) = 0.01392634
#
# Stress axis : x y z
#
# Youngs Moduli (GPa) = 49.72149 39.70390 26.01316
#
# Poissons Ratio (x) = 0.14014 0.34723
# Poissons Ratio (y) = 0.17549 0.46900
# Poissons Ratio (z) = 0.66369 0.71584
#
# Static dielectric constant tensor:
#      x y z
#    x 3.535290 0.000000 0.000000 
#    y 0.000000 3.532040 0.000000 
#    z 0.000000 0.000000 3.612640 
# 
# 
# High freq. dielectric constant tensor:
#      x y z
#    x 1.758350 0.000000 0.000000 
#    y 0.000000 1.771010 0.000000 
#    z 0.000000 0.000000 1.772970 
# 
# From -- ./inp_files/14224.got.cif
#   From: 2010.03.12/outbox.cif.g09.slc.cpg/sg46_8_cif.got.tgz:14224.got - 2010.04.14 02:56:35.
