data_PCOD8192007
_publ_section_title
;
Structure prediction by ZEFSAII (Michael W. Deem and Ramdas Pophale) SiO2 
 PCOD8192007
Probable space group: I M A 2
;
_chemical_formula_sum "Si O2"
_cell_formula_units_Z 64
_cell_length_a 8.652575
_cell_length_b 19.596240
_cell_length_c 20.360111
_cell_angle_alpha 90.000000
_cell_angle_beta 90.000000
_cell_angle_gamma 90.000000
_cell_volume 3452.218404
_symmetry_space_group_name_H-M "I M A 2"
_symmetry_group_IT_number 46
_symmetry_cell_setting 'orthorhombic'
loop_
_space_group_symop_operation_xyz
x,y,z
-x,-y,z
1/2-x,y,z
1/2+x,-y,z
1/2+x,1/2+y,1/2+z
1/2-x,1/2-y,1/2+z
-x,1/2+y,1/2+z
x,1/2-y,1/2+z
loop_
_atom_site_type_symbol
_atom_site_label
_atom_site_fract_x
_atom_site_fract_y
_atom_site_fract_z
Si Si1 0.430980 0.297111 0.912810
Si Si2 0.428333 0.706034 0.674563
Si Si3 0.568517 0.707815 0.289244
Si Si4 0.432788 0.570640 0.863152
Si Si5 0.427856 0.713268 0.525794
Si Si6 0.568857 0.430936 0.476582
Si Si7 0.066316 0.428242 0.719993
Si Si8 0.932030 0.069866 0.827424
O O1 0.250000 0.312292 0.906506
O O2 0.490054 0.249448 0.853058
O O3 0.524298 0.368165 0.912076
O O4 0.466195 0.261889 0.982029
O O5 0.250000 0.704401 0.696554
O O6 0.524871 0.752922 0.723283
O O7 0.446601 0.735603 0.601231
O O8 0.496511 0.629902 0.673798
O O9 0.750000 0.697846 0.292601
O O10 0.490240 0.633973 0.285689
O O11 0.500000 0.500000 0.892305
O O12 0.250000 0.564296 0.853518
O O13 0.513452 0.586768 0.794037
O O14 0.250000 0.719592 0.502422
O O15 0.484534 0.635006 0.517619
O O16 0.500000 0.500000 0.508304
O O17 0.750000 0.439597 0.477648
O O18 0.507780 0.421749 0.402108
O O19 0.250000 0.428297 0.716500
O O20 0.000000 0.500000 0.694587
O O21 0.750000 0.066719 0.823095
O O22 0.000000 0.000000 0.797016
#
# Coordination Sequence:
#
# PCOD8192007 Si02
#       8
#     8   8   8   8   8   8   8   8
#     4  11  22  36  58  86 114 147 190 235 283 335
#     4  11  23  38  57  81 113 153 193 235 284 338
#     4  11  22  36  57  84 114 147 190 236 280 335
#     4  11  21  35  58  85 116 147 185 234 284 336
#     4  10  22  39  56  80 113 151 193 233 281 337
#     4   9  18  32  51  76 109 145 183 225 267 323
#     4  11  21  35  54  79 113 151 192 234 280 337
#     4  10  19  33  56  83 114 145 183 230 283 333
#
# _framework density 18.538803000000001
#
# number of rings (size 3 to 8) (size 9 to 14) (size 15 to 20)
#    0.000    1.500    2.500    4.500    0.000    3.500 
#    0.000    1.250    0.000    0.750    0.000    0.000 
#    0.000    0.000    0.000    0.000    0.000    0.000 
#
# Total GULP energy -396936.174432 kJ/mol
# GULP energy per Si atom -12404.255451 kJ/mol
# Density = 1.849661 g / cm^3
# Si number density = 18.538803 Si / 1000 Ang^3
#
#
#
# Elastic Constant Matrix: (Units=GPa)
#
#
# Indices 1 2 3 4 5 6 
#
# 1 62.3164 24.7492 12.0727 0.0000 0.0000 0.0000
# 2 24.7492 114.6283 32.8929 0.0000 0.0000 0.0000
# 3 12.0727 32.8929 63.8207 0.0000 0.0000 0.0000
# 4 0.0000 0.0000 0.0000 58.5022 0.0000 0.0000
# 5 0.0000 0.0000 0.0000 0.0000 21.1985 0.0000
# 6 0.0000 0.0000 0.0000 0.0000 0.0000 36.8780
#
#
#
# Elastic Compliance Matrix: (Units=1/GPa)
#
#
# Indices 1 2 3 4 5 6 
#
# 1 0.017693 -0.003356 -0.001617 0.000000 0.000000 0.000000
# 2 -0.003356 0.010875 -0.004970 0.000000 0.000000 0.000000
# 3 -0.001617 -0.004970 0.018536 0.000000 0.000000 0.000000
# 4 0.000000 0.000000 0.000000 0.017093 0.000000 0.000000
# 5 0.000000 0.000000 0.000000 0.000000 0.047173 0.000000
# 6 0.000000 0.000000 0.000000 0.000000 0.000000 0.027116
#
#
# Mechanical properties :
#
#
# Convention : Reuss Voigt Hill
#
# Bulk Modulus (GPa) = 36.74064 42.24389 39.49227
# Shear Modulus (GPa) = 29.86034 34.71910 32.28972
#
# Velocity S-wave (km/s) = 4.01770 4.33226 4.17794
# Velocity P-wave (km/s) = 6.43302 6.91815 6.67999
#
# Compressibility (1/GPa) = 0.02721781
#
# Stress axis : x y z
#
# Youngs Moduli (GPa) = 56.51844 91.95772 53.94824
#
# Poissons Ratio (x) = 0.30862 0.08725
# Poissons Ratio (y) = 0.18968 0.26812
# Poissons Ratio (z) = 0.09141 0.45702
#
# Static dielectric constant tensor:
#      x y z
#    x 3.408110 0.000000 0.000000 
#    y 0.000000 3.567120 0.000000 
#    z 0.000000 0.000000 3.112120 
# 
# 
# High freq. dielectric constant tensor:
#      x y z
#    x 1.730190 0.000000 0.000000 
#    y 0.000000 1.726180 0.000000 
#    z 0.000000 0.000000 1.685830 
# 
# From -- ./inp_files/21310.got.cif
#   From: 2010.03.12/outbox.cif.g09.slc.cpg/sg46_11_cif.got.tgz:21310.got - 2010.04.14 02:56:35.
