data_PCOD8192303
_publ_section_title
;
Structure prediction by ZEFSAII (Michael W. Deem and Ramdas Pophale) SiO2 
 PCOD8192303
Probable space group: I M A 2
;
_chemical_formula_sum "Si O2"
_cell_formula_units_Z 64
_cell_length_a 13.956845
_cell_length_b 17.819571
_cell_length_c 13.717699
_cell_angle_alpha 90.000000
_cell_angle_beta 90.000000
_cell_angle_gamma 90.000000
_cell_volume 3411.660198
_symmetry_space_group_name_H-M "I M A 2"
_symmetry_group_IT_number 46
_symmetry_cell_setting 'orthorhombic'
loop_
_space_group_symop_operation_xyz
x,y,z
-x,-y,z
1/2-x,y,z
1/2+x,-y,z
1/2+x,1/2+y,1/2+z
1/2-x,1/2-y,1/2+z
-x,1/2+y,1/2+z
x,1/2-y,1/2+z
loop_
_atom_site_type_symbol
_atom_site_label
_atom_site_fract_x
_atom_site_fract_y
_atom_site_fract_z
Si Si1 0.636926 0.484993 0.756600
Si Si2 0.639601 0.710345 0.056193
Si Si3 0.945100 0.841965 0.946730
Si Si4 0.636693 0.629834 0.863820
Si Si5 0.352613 0.648266 0.511937
Si Si6 0.857162 0.321564 0.739391
Si Si7 0.141963 0.020442 0.043084
Si Si8 0.043153 0.235922 0.756270
O O1 0.750000 0.480145 0.744883
O O2 0.603117 0.544860 0.838265
O O3 0.603327 0.400566 0.786183
O O4 0.597665 0.513854 0.652078
O O5 0.750000 0.697489 0.085460
O O6 0.573564 0.703969 0.151424
O O7 0.627951 0.792421 0.009844
O O8 0.604393 0.650130 0.974304
O O9 0.927653 0.829440 0.832012
O O10 0.054510 0.813555 0.964519
O O11 0.927710 0.927220 0.978682
O O12 0.750000 0.636506 0.855950
O O13 0.596514 0.686924 0.782977
O O14 0.250000 0.678700 0.469618
O O15 0.353677 0.663506 0.625602
O O16 0.358068 0.559756 0.490968
O O17 0.750000 0.300931 0.777886
O O18 0.929232 0.253241 0.761259
O O19 0.250000 0.053552 0.044969
#
# Coordination Sequence:
#
# PCOD8192303 Si02
#       8
#     8   8   8   8   8   8   8   8
#     4   8  15  29  51  77 102 127 160 202 252 301
#     4  10  20  33  47  68 104 139 168 203 245 301
#     4  11  20  31  49  74 103 135 167 204 252 307
#     4   9  18  31  47  71 103 135 167 202 245 300
#     4   9  18  33  51  73 101 129 165 209 255 302
#     4   9  18  33  51  75 103 130 164 210 255 297
#     4   9  17  29  49  78 106 130 159 204 256 303
#     4  11  21  31  48  75 103 136 172 201 247 307
#
# _framework density 18.759195999999999
#
# number of rings (size 3 to 8) (size 9 to 14) (size 15 to 20)
#    0.000    2.500    1.250    3.375    0.000    3.500 
#    0.000    0.000    0.000    0.000   13.000    0.000 
#    0.000    0.000    0.000    0.000    0.000    0.000 
#
# Total GULP energy -396557.676629 kJ/mol
# GULP energy per Si atom -12392.427395 kJ/mol
# Density = 1.871650 g / cm^3
# Si number density = 18.759196 Si / 1000 Ang^3
#
#
#
# Elastic Constant Matrix: (Units=GPa)
#
#
# Indices 1 2 3 4 5 6 
#
# 1 71.8858 6.7177 16.1133 0.0000 0.0000 0.0000
# 2 6.7177 41.8606 25.6527 0.0000 0.0000 0.0000
# 3 16.1133 25.6527 84.7150 0.0000 0.0000 0.0000
# 4 0.0000 0.0000 0.0000 15.1730 0.0000 0.0000
# 5 0.0000 0.0000 0.0000 0.0000 15.7886 0.0000
# 6 0.0000 0.0000 0.0000 0.0000 0.0000 5.9000
#
#
#
# Elastic Compliance Matrix: (Units=1/GPa)
#
#
# Indices 1 2 3 4 5 6 
#
# 1 0.014551 -0.000785 -0.002530 0.000000 0.000000 0.000000
# 2 -0.000785 0.029374 -0.008746 0.000000 0.000000 0.000000
# 3 -0.002530 -0.008746 0.014934 0.000000 0.000000 0.000000
# 4 0.000000 0.000000 0.000000 0.065907 0.000000 0.000000
# 5 0.000000 0.000000 0.000000 0.000000 0.063337 0.000000
# 6 0.000000 0.000000 0.000000 0.000000 0.000000 0.169493
#
#
# Mechanical properties :
#
#
# Convention : Reuss Voigt Hill
#
# Bulk Modulus (GPa) = 28.78649 32.82542 30.80596
# Shear Modulus (GPa) = 12.71308 17.37082 15.04195
#
# Velocity S-wave (km/s) = 2.60609 3.04631 2.83476
# Velocity P-wave (km/s) = 4.94309 5.46897 5.21267
#
# Compressibility (1/GPa) = 0.03473852
#
# Stress axis : x y z
#
# Youngs Moduli (GPa) = 68.72185 34.04359 66.96220
#
# Poissons Ratio (x) = 0.02671 0.16942
# Poissons Ratio (y) = 0.05392 0.58562
# Poissons Ratio (z) = 0.17388 0.29773
#
# Static dielectric constant tensor:
#      x y z
#    x 3.799190 0.000000 0.000000 
#    y 0.000000 3.389080 0.000000 
#    z 0.000000 0.000000 3.238430 
# 
# 
# High freq. dielectric constant tensor:
#      x y z
#    x 1.745160 0.000000 0.000000 
#    y 0.000000 1.699530 0.000000 
#    z 0.000000 0.000000 1.696930 
# 
# From -- ./inp_files/11326.got.cif
#   From: 2010.03.12/outbox.cif.g09.slc.cpg/sg46_6_cif.got.tgz:11326.got - 2010.04.14 02:56:35.
