data_PCOD8192904
_publ_section_title
;
Structure prediction by ZEFSAII (Michael W. Deem and Ramdas Pophale) SiO2 
 PCOD8192904
Probable space group: I M A 2
;
_chemical_formula_sum "Si O2"
_cell_formula_units_Z 64
_cell_length_a 8.737650
_cell_length_b 15.462890
_cell_length_c 23.846528
_cell_angle_alpha 90.000000
_cell_angle_beta 90.000000
_cell_angle_gamma 90.000000
_cell_volume 3221.888202
_symmetry_space_group_name_H-M "I M A 2"
_symmetry_group_IT_number 46
_symmetry_cell_setting 'orthorhombic'
loop_
_space_group_symop_operation_xyz
x,y,z
-x,-y,z
1/2-x,y,z
1/2+x,-y,z
1/2+x,1/2+y,1/2+z
1/2-x,1/2-y,1/2+z
-x,1/2+y,1/2+z
x,1/2-y,1/2+z
loop_
_atom_site_type_symbol
_atom_site_label
_atom_site_fract_x
_atom_site_fract_y
_atom_site_fract_z
Si Si1 0.069278 0.646660 0.643620
Si Si2 0.931553 0.753186 0.459870
Si Si3 0.929253 0.347049 0.144762
Si Si4 0.931105 0.748441 0.332837
Si Si5 0.930623 0.588925 0.033401
Si Si6 0.431405 0.411317 0.759039
Si Si7 0.569403 0.091266 0.766781
Si Si8 0.068191 0.411421 0.528391
O O1 0.250000 0.632444 0.643080
O O2 0.024249 0.747016 0.643715
O O3 0.999791 0.601566 0.697733
O O4 0.995051 0.601197 0.590528
O O5 0.750000 0.755507 0.461987
O O6 0.990276 0.759389 0.396345
O O7 0.997663 0.833977 0.495039
O O8 0.991708 0.665214 0.488307
O O9 0.750000 0.360145 0.134098
O O10 0.982666 0.386339 0.203790
O O11 0.022184 0.397523 0.097645
O O12 0.750000 0.736032 0.329920
O O13 0.984368 0.832866 0.298801
O O14 0.009167 0.663784 0.308456
O O15 0.750000 0.583940 0.029391
O O16 0.000000 0.500000 0.010165
O O17 0.500000 0.500000 0.784408
O O18 0.250000 0.417731 0.755751
O O19 0.750000 0.087228 0.771633
O O20 0.500000 0.000000 0.785365
O O21 0.250000 0.415706 0.530204
O O22 0.000000 0.500000 0.503384
#
# Coordination Sequence:
#
# PCOD8192904 Si02
#       8
#     8   8   8   8   8   8   8   8
#     4  11  21  37  61  89 122 153 191 241 293 352
#     4   9  21  41  62  84 116 155 198 244 292 345
#     4  10  21  37  60  89 121 154 191 239 293 351
#     4  10  22  42  64  86 115 156 202 248 294 345
#     4  11  22  38  61  89 121 156 195 240 291 350
#     4  11  23  38  61  89 120 157 197 240 294 352
#     4  11  23  40  61  90 122 156 195 241 295 351
#     4  11  22  39  61  88 119 155 195 239 292 350
#
# _framework density 19.864127
#
# number of rings (size 3 to 8) (size 9 to 14) (size 15 to 20)
#    0.000    1.500    2.500    2.625    0.000    4.000 
#    0.000    3.750    0.000    0.000    0.000    0.000 
#    0.000    0.000    0.000    0.000    0.000    0.000 
#
# Total GULP energy -396973.666237 kJ/mol
# GULP energy per Si atom -12405.427070 kJ/mol
# Density = 1.981892 g / cm^3
# Si number density = 19.864127 Si / 1000 Ang^3
#
#
#
# Elastic Constant Matrix: (Units=GPa)
#
#
# Indices 1 2 3 4 5 6 
#
# 1 52.9894 39.3021 24.9089 0.0000 0.0000 0.0000
# 2 39.3021 174.3733 62.8484 0.0000 0.0000 0.0000
# 3 24.9089 62.8484 132.8617 0.0000 0.0000 0.0000
# 4 0.0000 0.0000 0.0000 15.8402 0.0000 0.0000
# 5 0.0000 0.0000 0.0000 0.0000 2.2735 0.0000
# 6 0.0000 0.0000 0.0000 0.0000 0.0000 34.6507
#
#
#
# Elastic Compliance Matrix: (Units=1/GPa)
#
#
# Indices 1 2 3 4 5 6 
#
# 1 0.023211 -0.004416 -0.002263 0.000000 0.000000 0.000000
# 2 -0.004416 0.007754 -0.002840 0.000000 0.000000 0.000000
# 3 -0.002263 -0.002840 0.009294 0.000000 0.000000 0.000000
# 4 0.000000 0.000000 0.000000 0.063131 0.000000 0.000000
# 5 0.000000 0.000000 0.000000 0.000000 0.439852 0.000000
# 6 0.000000 0.000000 0.000000 0.000000 0.000000 0.028859
#
#
# Mechanical properties :
#
#
# Convention : Reuss Voigt Hill
#
# Bulk Modulus (GPa) = 47.12182 68.26037 57.69109
# Shear Modulus (GPa) = 8.35825 26.09719 17.22772
#
# Velocity S-wave (km/s) = 2.05350 3.62855 2.94815
# Velocity P-wave (km/s) = 5.42181 7.21064 6.37924
#
# Compressibility (1/GPa) = 0.02122159
#
# Stress axis : x y z
#
# Youngs Moduli (GPa) = 43.08376 128.97073 107.59413
#
# Poissons Ratio (x) = 0.56953 0.24344
# Poissons Ratio (y) = 0.19026 0.30555
# Poissons Ratio (z) = 0.09748 0.36626
#
# Static dielectric constant tensor:
#      x y z
#    x 3.480490 0.000000 0.000000 
#    y 0.000000 3.929440 0.000000 
#    z 0.000000 0.000000 3.666600 
# 
# 
# High freq. dielectric constant tensor:
#      x y z
#    x 1.766860 0.000000 0.000000 
#    y 0.000000 1.796090 0.000000 
#    z 0.000000 0.000000 1.771360 
# 
# From -- ./inp_files/23142.got.cif
#   From: 2010.03.12/outbox.cif.g09.slc.cpg/sg46_12_cif.got.tgz:23142.got - 2010.04.14 02:56:35.
