data_PCOD8192870
_publ_section_title
;
Structure prediction by ZEFSAII (Michael W. Deem and Ramdas Pophale) SiO2 
 PCOD8192870
Probable space group: I M A 2
;
_chemical_formula_sum "Si O2"
_cell_formula_units_Z 60
_cell_length_a 9.410427
_cell_length_b 26.380136
_cell_length_c 11.198084
_cell_angle_alpha 90.000000
_cell_angle_beta 90.000000
_cell_angle_gamma 90.000000
_cell_volume 2779.905810
_symmetry_space_group_name_H-M "I M A 2"
_symmetry_group_IT_number 46
_symmetry_cell_setting 'orthorhombic'
loop_
_space_group_symop_operation_xyz
x,y,z
-x,-y,z
1/2-x,y,z
1/2+x,-y,z
1/2+x,1/2+y,1/2+z
1/2-x,1/2-y,1/2+z
-x,1/2+y,1/2+z
x,1/2-y,1/2+z
loop_
_atom_site_type_symbol
_atom_site_label
_atom_site_fract_x
_atom_site_fract_y
_atom_site_fract_z
Si Si1 0.405671 0.956993 0.779760
Si Si2 0.599123 0.063354 0.511780
Si Si3 0.414436 0.905460 0.177294
Si Si4 0.083739 0.861743 0.922946
Si Si5 0.000000 0.000000 0.308970
Si Si6 0.085854 0.696951 0.820853
Si Si7 0.085512 0.210789 0.772601
Si Si8 0.586663 0.658142 0.024606
O O1 0.250000 0.966322 0.832332
O O2 0.411934 0.964620 0.637950
O O3 0.453922 0.901254 0.818091
O O4 0.500000 0.000000 0.841847
O O5 0.750000 0.094012 0.508061
O O6 0.467188 0.101166 0.498801
O O7 0.614352 0.021281 0.405745
O O8 0.250000 0.924683 0.172923
O O9 0.520169 0.951080 0.221460
O O10 0.429680 0.858945 0.267303
O O11 0.464197 0.886343 0.047870
O O12 0.250000 0.846180 0.926389
O O13 0.988404 0.813009 0.891015
O O14 0.250000 0.713367 0.830994
O O15 0.000152 0.737740 0.740723
O O16 0.009288 0.697239 0.949604
O O17 0.250000 0.222770 0.800477
O O18 0.070386 0.172289 0.662734
O O19 0.750000 0.661291 0.982920
#
# Coordination Sequence:
#
# PCOD8192870 Si02
#       8
#     8   8   8   8   4   8   8   8
#     4  10  21  36  59  89 123 162 213 271 330 390
#     4  11  22  39  63  93 125 164 217 271 325 391
#     4  10  24  44  64  94 131 172 224 273 318 391
#     4  10  22  43  67  93 128 175 226 271 325 395
#     4  12  22  40  64  94 130 170 210 274 330 376
#     4  11  24  44  69  97 133 176 225 275 327 395
#     4  11  25  44  67 100 137 171 217 277 340 398
#     4  11  24  42  66  97 133 169 214 275 334 389
#
# _framework density 21.583466000000001
#
# number of rings (size 3 to 8) (size 9 to 14) (size 15 to 20)
#    0.000    1.333    3.333    1.600    2.800    3.733 
#    0.000    2.000    0.000    0.000    0.000    0.000 
#    0.000    0.000    0.000    0.000    0.000    0.000 
#
# Total GULP energy -371687.219668 kJ/mol
# GULP energy per Si atom -12389.573989 kJ/mol
# Density = 2.153434 g / cm^3
# Si number density = 21.583466 Si / 1000 Ang^3
#
#
#
# Elastic Constant Matrix: (Units=GPa)
#
#
# Indices 1 2 3 4 5 6 
#
# 1 130.4898 63.9991 39.8748 -0.0013 0.0004 0.0003
# 2 63.9991 107.4718 27.6268 -0.0001 0.0001 0.0001
# 3 39.8748 27.6268 97.7749 -0.0058 -0.0002 0.0009
# 4 -0.0013 -0.0001 -0.0058 29.0596 0.0001 0.0003
# 5 0.0004 0.0001 -0.0002 0.0001 23.8290 -0.0002
# 6 0.0003 0.0001 0.0009 0.0003 -0.0002 36.5055
#
#
#
# Elastic Compliance Matrix: (Units=1/GPa)
#
#
# Indices 1 2 3 4 5 6 
#
# 1 0.011584 -0.006129 -0.002992 0.000000 0.000000 0.000000
# 2 -0.006129 0.013276 -0.001252 0.000000 0.000000 0.000000
# 3 -0.002992 -0.001252 0.011802 0.000002 0.000000 0.000000
# 4 0.000000 0.000000 0.000002 0.034412 0.000000 0.000000
# 5 0.000000 0.000000 0.000000 0.000000 0.041966 0.000000
# 6 0.000000 0.000000 0.000000 0.000000 0.000000 0.027393
#
#
# Mechanical properties :
#
#
# Convention : Reuss Voigt Hill
#
# Bulk Modulus (GPa) = 62.83144 66.52644 64.67894
# Shear Modulus (GPa) = 30.03294 31.49453 30.76373
#
# Velocity S-wave (km/s) = 3.73430 3.82409 3.77946
# Velocity P-wave (km/s) = 6.91140 7.09845 7.00555
#
# Compressibility (1/GPa) = 0.01591560
#
# Stress axis : x y z
#
# Youngs Moduli (GPa) = 86.32771 75.32236 84.73401
#
# Poissons Ratio (x) = 0.46164 0.25356
# Poissons Ratio (y) = 0.52909 0.10607
# Poissons Ratio (z) = 0.25833 0.09429
#
# Static dielectric constant tensor:
#      x y z
#    x 3.917190 0.000000 0.000000 
#    y 0.000000 3.875350 0.000000 
#    z 0.000000 0.000000 3.950520 
# 
# 
# High freq. dielectric constant tensor:
#      x y z
#    x 1.835850 0.000000 0.000000 
#    y 0.000000 1.846250 0.000000 
#    z 0.000000 0.000000 1.849650 
# 
# From -- ./inp_files/9515.got.cif
#   From: 2010.03.12/outbox.cif.g09.slc.cpg/sg46_5_cif.got.tgz:9515.got - 2010.04.14 02:56:35.
