data_PCOD8192532
_publ_section_title
;
Structure prediction by ZEFSAII (Michael W. Deem and Ramdas Pophale) SiO2 
 PCOD8192532
Probable space group: I M A 2
;
_chemical_formula_sum "Si O2"
_cell_formula_units_Z 48
_cell_length_a 11.599328
_cell_length_b 11.048017
_cell_length_c 20.077969
_cell_angle_alpha 90.000000
_cell_angle_beta 90.000000
_cell_angle_gamma 90.000000
_cell_volume 2572.983153
_symmetry_space_group_name_H-M "I M A 2"
_symmetry_group_IT_number 46
_symmetry_cell_setting 'orthorhombic'
loop_
_space_group_symop_operation_xyz
x,y,z
-x,-y,z
1/2-x,y,z
1/2+x,-y,z
1/2+x,1/2+y,1/2+z
1/2-x,1/2-y,1/2+z
-x,1/2+y,1/2+z
x,1/2-y,1/2+z
loop_
_atom_site_type_symbol
_atom_site_label
_atom_site_fract_x
_atom_site_fract_y
_atom_site_fract_z
Si Si1 0.881418 0.579483 0.822920
Si Si2 0.500000 0.500000 0.115328
Si Si3 0.118006 0.303528 0.417709
Si Si4 0.543302 0.632650 0.683963
Si Si5 0.500000 0.000000 0.833479
Si Si6 0.617712 0.151496 0.721418
Si Si7 0.382095 0.273508 0.057585
O O1 0.750000 0.523868 0.838170
O O2 0.907360 0.687733 0.872671
O O3 0.871428 0.626975 0.747173
O O4 0.000000 0.500000 0.828562
O O5 0.400399 0.555411 0.162185
O O6 0.447913 0.398499 0.068422
O O7 0.250000 0.322348 0.431554
O O8 0.080741 0.425163 0.381989
O O9 0.061306 0.285958 0.491158
O O10 0.500000 0.500000 0.664163
O O11 0.438542 0.720103 0.704139
O O12 0.609596 0.684673 0.620432
O O13 0.428823 0.905179 0.789580
O O14 0.750000 0.179669 0.731461
O O15 0.250000 0.307353 0.045275
#
# Coordination Sequence:
#
# PCOD8192532 Si02
#       7
#     8   4   8   8   4   8   8
#     4  10  21  39  61  88 117 151 194 243 294 348
#     4   9  20  36  58  84 111 144 186 240 287 344
#     4  10  22  38  58  83 114 151 191 235 290 349
#     4  10  21  37  57  86 114 152 188 242 284 344
#     4  11  20  38  58  82 113 148 190 236 291 340
#     4  10  20  35  59  87 113 145 189 241 292 343
#     4  10  21  37  58  82 111 152 189 230 289 346
#
# _framework density 18.655389
#
# number of rings (size 3 to 8) (size 9 to 14) (size 15 to 20)
#    0.000    2.000    1.667    1.500    2.333    3.333 
#    0.000    0.000    0.000    3.000    0.000    0.000 
#    0.000    0.000    0.000    0.000    0.000    0.000 
#
# Total GULP energy -297400.409852 kJ/mol
# GULP energy per Si atom -12391.683744 kJ/mol
# Density = 1.861293 g / cm^3
# Si number density = 18.655389 Si / 1000 Ang^3
#
#
#
# Elastic Constant Matrix: (Units=GPa)
#
#
# Indices 1 2 3 4 5 6 
#
# 1 78.6474 37.5301 20.0360 0.0000 0.0000 0.0000
# 2 37.5301 110.7618 55.3061 0.0000 0.0000 0.0000
# 3 20.0360 55.3061 122.2480 0.0000 0.0000 0.0000
# 4 0.0000 0.0000 0.0000 -86.7392 0.0000 0.0000
# 5 0.0000 0.0000 0.0000 0.0000 26.6293 0.0000
# 6 0.0000 0.0000 0.0000 0.0000 0.0000 24.7170
#
#
#
# Elastic Compliance Matrix: (Units=1/GPa)
#
#
# Indices 1 2 3 4 5 6 
#
# 1 0.015171 -0.005037 -0.000208 0.000000 0.000000 0.000000
# 2 -0.005037 0.013335 -0.005207 0.000000 0.000000 0.000000
# 3 -0.000208 -0.005207 0.010570 0.000000 0.000000 0.000000
# 4 0.000000 0.000000 0.000000 -0.011529 0.000000 0.000000
# 5 0.000000 0.000000 0.000000 0.000000 0.037553 0.000000
# 6 0.000000 0.000000 0.000000 0.000000 0.000000 0.040458
#
#
# Mechanical properties :
#
#
# Convention : Reuss Voigt Hill
#
# Bulk Modulus (GPa) = 55.02826 59.71129 57.36977
# Shear Modulus (GPa) = 37.73004 6.17376 21.95190
#
# Velocity S-wave (km/s) = 4.50207 1.82114 3.43404
# Velocity P-wave (km/s) = 7.52238 6.04145 6.82221
#
# Compressibility (1/GPa) = 0.01817248
#
# Stress axis : x y z
#
# Youngs Moduli (GPa) = 65.91312 74.98898 94.60685
#
# Poissons Ratio (x) = 0.37771 0.01966
# Poissons Ratio (y) = 0.33200 0.49266
# Poissons Ratio (z) = 0.01370 0.39050
#
# Static dielectric constant tensor:
#      x y z
#    x 0.267640 0.000000 0.000000 
#    y 0.000000 3.890350 0.000000 
#    z 0.000000 0.000000 3.684460 
# 
# 
# High freq. dielectric constant tensor:
#      x y z
#    x 1.716620 0.000000 0.000000 
#    y 0.000000 1.724430 0.000000 
#    z 0.000000 0.000000 1.735840 
# 
# From -- ./inp_files/18917.got.cif
#   From: 2010.03.12/outbox.cif.g09.slc.cpg/sg46_10_cif.got.tgz:18917.got - 2010.04.14 02:56:35.
