data_PCOD8192929
_publ_section_title
;
Structure prediction by ZEFSAII (Michael W. Deem and Ramdas Pophale) SiO2 
 PCOD8192929
Probable space group: I M A 2
;
_chemical_formula_sum "Si O2"
_cell_formula_units_Z 36
_cell_length_a 30.909530
_cell_length_b 11.248054
_cell_length_c 5.218737
_cell_angle_alpha 90.000000
_cell_angle_beta 90.000000
_cell_angle_gamma 90.000000
_cell_volume 1814.409057
_symmetry_space_group_name_H-M "I M A 2"
_symmetry_group_IT_number 46
_symmetry_cell_setting 'orthorhombic'
loop_
_space_group_symop_operation_xyz
x,y,z
-x,-y,z
1/2-x,y,z
1/2+x,-y,z
1/2+x,1/2+y,1/2+z
1/2-x,1/2-y,1/2+z
-x,1/2+y,1/2+z
x,1/2-y,1/2+z
loop_
_atom_site_type_symbol
_atom_site_label
_atom_site_fract_x
_atom_site_fract_y
_atom_site_fract_z
Si Si1 0.657979 0.328011 0.922360
Si Si2 0.250000 0.676310 0.825425
Si Si3 0.061262 0.294747 0.875179
Si Si4 0.021565 0.872115 0.874355
Si Si5 0.568586 0.070133 0.373730
O O1 0.653968 0.225404 0.707441
O O2 0.704987 0.393322 0.886097
O O3 0.620680 0.426286 0.883532
O O4 0.250000 0.712515 0.526069
O O5 0.087497 0.251654 0.126662
O O6 0.052392 0.434249 0.872099
O O7 0.014712 0.229697 0.882468
O O8 0.052637 0.860921 0.121517
O O9 0.049934 0.859476 0.617154
O O10 0.000000 0.000000 0.878485
#
# Coordination Sequence:
#
# PCOD8192929 Si02
#       5
#     8   4   8   8   8
#     4  10  21  38  58  87 113 141 177 224 281 337
#     4   8  16  34  60  82 112 138 166 218 284 342
#     4  12  23  37  53  71 101 143 188 226 268 307
#     4  12  23  38  54  74 105 148 193 226 268 310
#     4  12  24  39  54  79 106 143 189 229 273 322
#
# _framework density 19.841170999999999
#
# number of rings (size 3 to 8) (size 9 to 14) (size 15 to 20)
#    0.000    0.889    4.444    3.333    0.000    5.333 
#    0.000    0.000    0.000    0.000    0.000    1.556 
#    0.000    0.000    0.000    0.000    0.000    0.000 
#
# Total GULP energy -223047.347063 kJ/mol
# GULP energy per Si atom -12391.519281 kJ/mol
# Density = 1.979601 g / cm^3
# Si number density = 19.841171 Si / 1000 Ang^3
#
#
#
# Elastic Constant Matrix: (Units=GPa)
#
#
# Indices 1 2 3 4 5 6 
#
# 1 132.2499 39.6612 16.3062 -0.0025 0.0001 -0.0034
# 2 39.6612 101.8805 8.9902 -0.0016 -0.0003 -0.0182
# 3 16.3062 8.9902 170.6245 -0.0075 -0.0024 -0.0718
# 4 -0.0025 -0.0016 -0.0075 -16.2790 0.0022 -0.0126
# 5 0.0001 -0.0003 -0.0024 0.0022 53.4442 0.0330
# 6 -0.0034 -0.0182 -0.0718 -0.0126 0.0330 15.3873
#
#
#
# Elastic Compliance Matrix: (Units=1/GPa)
#
#
# Indices 1 2 3 4 5 6 
#
# 1 0.008632 -0.003303 -0.000651 -0.000001 0.000000 -0.000005
# 2 -0.003303 0.011125 -0.000271 0.000000 0.000000 0.000011
# 3 -0.000651 -0.000271 0.005937 -0.000003 0.000000 0.000027
# 4 -0.000001 0.000000 -0.000003 -0.061429 0.000003 -0.000050
# 5 0.000000 0.000000 0.000000 0.000003 0.018711 -0.000040
# 6 -0.000005 0.000011 0.000027 -0.000050 -0.000040 0.064989
#
#
# Mechanical properties :
#
#
# Convention : Reuss Voigt Hill
#
# Bulk Modulus (GPa) = 57.98532 59.40779 58.69655
# Shear Modulus (GPa) = 80.43313 33.16366 56.79839
#
# Velocity S-wave (km/s) = 6.37389 4.09278 5.35618
# Velocity P-wave (km/s) = 9.13547 7.23472 8.24009
#
# Compressibility (1/GPa) = 0.01724575
#
# Stress axis : x y z
#
# Youngs Moduli (GPa) = 115.84441 89.88659 168.42683
#
# Poissons Ratio (x) = 0.29690 0.10963
# Poissons Ratio (y) = 0.38264 0.04556
# Poissons Ratio (z) = 0.07541 0.02432
#
# Static dielectric constant tensor:
#      x y z
#    x 3.767770 0.000000 -0.000010 
#    y 0.000000 3.405300 0.000000 
#    z -0.000010 0.000000 5.416600 
# 
# 
# High freq. dielectric constant tensor:
#      x y z
#    x 1.740760 0.000000 0.000000 
#    y 0.000000 1.742260 0.000000 
#    z 0.000000 0.000000 1.824000 
# 
# From -- ./inp_files/2682.got.cif
#   From: 2010.03.12/outbox.cif.g09.slc.cpg/sg46_2_cif.got.tgz:2682.got - 2010.04.14 02:56:35.
