data_PCOD8192169
_publ_section_title
;
Structure prediction by ZEFSAII (Michael W. Deem and Ramdas Pophale) SiO2 
 PCOD8192169
Probable space group: I M A 2
;
_chemical_formula_sum "Si O2"
_cell_formula_units_Z 64
_cell_length_a 28.219808
_cell_length_b 5.865113
_cell_length_c 18.078948
_cell_angle_alpha 90.000000
_cell_angle_beta 90.000000
_cell_angle_gamma 90.000000
_cell_volume 2992.289400
_symmetry_space_group_name_H-M "I M A 2"
_symmetry_group_IT_number 46
_symmetry_cell_setting 'orthorhombic'
loop_
_space_group_symop_operation_xyz
x,y,z
-x,-y,z
1/2-x,y,z
1/2+x,-y,z
1/2+x,1/2+y,1/2+z
1/2-x,1/2-y,1/2+z
-x,1/2+y,1/2+z
x,1/2-y,1/2+z
loop_
_atom_site_type_symbol
_atom_site_label
_atom_site_fract_x
_atom_site_fract_y
_atom_site_fract_z
Si Si1 0.695971 0.180597 0.981870
Si Si2 0.576116 0.195761 0.785154
Si Si3 0.854959 0.916142 0.247277
Si Si4 0.302279 0.724810 0.646711
Si Si5 0.891000 0.539780 0.149758
Si Si6 0.892539 0.477049 0.982065
Si Si7 0.022013 0.749220 0.417331
Si Si8 0.862713 0.639340 0.381263
O O1 0.750000 0.245285 0.959986
O O2 0.677596 0.979086 0.929988
O O3 0.693054 0.099528 0.067257
O O4 0.662453 0.401806 0.975121
O O5 0.607321 0.420359 0.785759
O O6 0.571110 0.096896 0.701709
O O7 0.526215 0.246195 0.826954
O O8 0.600580 0.019220 0.840084
O O9 0.884394 0.791005 0.182163
O O10 0.834770 0.765953 0.314609
O O11 0.810314 0.040241 0.210793
O O12 0.250000 0.830989 0.656042
O O13 0.339647 0.924894 0.656885
O O14 0.908381 0.541821 0.065574
O O15 0.925556 0.268005 0.954458
O O16 0.896654 0.701085 0.931629
O O17 0.000000 0.500000 0.443621
O O18 0.000000 0.000000 0.440947
#
# Coordination Sequence:
#
# PCOD8192169 Si02
#       8
#     8   8   8   8   8   8   8   8
#     4  10  21  36  59  90 128 175 222 272 336 402
#     4  10  21  42  62  93 124 168 212 273 335 410
#     4  10  19  35  60  87 116 170 216 262 336 398
#     4   9  19  35  52  84 126 164 216 271 325 397
#     4   9  21  37  64  88 121 177 217 263 344 388
#     4  11  22  42  65  95 135 176 218 290 333 406
#     4  12  26  44  73 106 133 180 232 282 354 420
#     4  11  19  35  63  88 128 169 221 270 339 393
#
# _framework density 21.388304000000002
#
# number of rings (size 3 to 8) (size 9 to 14) (size 15 to 20)
#    0.000    1.750    2.500    1.500    1.750    1.500 
#    0.000   12.500    0.000    0.000    0.000    0.000 
#    0.000    0.000    0.000    0.000    0.000    0.000 
#
# Total GULP energy -396461.720475 kJ/mol
# GULP energy per Si atom -12389.428765 kJ/mol
# Density = 2.133962 g / cm^3
# Si number density = 21.388304 Si / 1000 Ang^3
#
#
#
# Elastic Constant Matrix: (Units=GPa)
#
#
# Indices 1 2 3 4 5 6 
#
# 1 43.0644 18.6336 17.6868 0.0000 0.0000 0.0000
# 2 18.6336 106.8472 49.6277 0.0000 0.0000 0.0000
# 3 17.6868 49.6277 129.6672 0.0000 0.0000 0.0000
# 4 0.0000 0.0000 0.0000 41.2174 0.0000 0.0000
# 5 0.0000 0.0000 0.0000 0.0000 28.2145 0.0000
# 6 0.0000 0.0000 0.0000 0.0000 0.0000 22.6923
#
#
#
# Elastic Compliance Matrix: (Units=1/GPa)
#
#
# Indices 1 2 3 4 5 6 
#
# 1 0.025608 -0.003458 -0.002169 0.000000 0.000000 0.000000
# 2 -0.003458 0.011850 -0.004064 0.000000 0.000000 0.000000
# 3 -0.002169 -0.004064 0.009563 0.000000 0.000000 0.000000
# 4 0.000000 0.000000 0.000000 0.024262 0.000000 0.000000
# 5 0.000000 0.000000 0.000000 0.000000 0.035443 0.000000
# 6 0.000000 0.000000 0.000000 0.000000 0.000000 0.044068
#
#
# Mechanical properties :
#
#
# Convention : Reuss Voigt Hill
#
# Bulk Modulus (GPa) = 36.18109 50.16388 43.17248
# Shear Modulus (GPa) = 27.87241 31.33356 29.60298
#
# Velocity S-wave (km/s) = 3.61385 3.83167 3.72435
# Velocity P-wave (km/s) = 5.86227 6.56356 6.22280
#
# Compressibility (1/GPa) = 0.02763875
#
# Stress axis : x y z
#
# Youngs Moduli (GPa) = 39.04968 84.39058 104.56760
#
# Poissons Ratio (x) = 0.29185 0.22685
# Poissons Ratio (y) = 0.13505 0.42491
# Poissons Ratio (z) = 0.08471 0.34292
#
# Static dielectric constant tensor:
#      x y z
#    x 3.708500 0.000000 0.000000 
#    y 0.000000 4.012920 0.000000 
#    z 0.000000 0.000000 4.258370 
# 
# 
# High freq. dielectric constant tensor:
#      x y z
#    x 1.807950 0.000000 0.000000 
#    y 0.000000 1.841200 0.000000 
#    z 0.000000 0.000000 1.854750 
# 
# From -- ./inp_files/20545.got.cif
#   From: 2010.03.12/outbox.cif.g09.slc.cpg/sg46_11_cif.got.tgz:20545.got - 2010.04.14 02:56:35.
