data_PCOD8192666
_publ_section_title
;
Structure prediction by ZEFSAII (Michael W. Deem and Ramdas Pophale) SiO2 
 PCOD8192666
Probable space group: I M A 2
;
_chemical_formula_sum "Si O2"
_cell_formula_units_Z 56
_cell_length_a 13.442185
_cell_length_b 27.260822
_cell_length_c 7.610718
_cell_angle_alpha 90.000000
_cell_angle_beta 90.000000
_cell_angle_gamma 90.000000
_cell_volume 2788.909653
_symmetry_space_group_name_H-M "I M A 2"
_symmetry_group_IT_number 46
_symmetry_cell_setting 'orthorhombic'
loop_
_space_group_symop_operation_xyz
x,y,z
-x,-y,z
1/2-x,y,z
1/2+x,-y,z
1/2+x,1/2+y,1/2+z
1/2-x,1/2-y,1/2+z
-x,1/2+y,1/2+z
x,1/2-y,1/2+z
loop_
_atom_site_type_symbol
_atom_site_label
_atom_site_fract_x
_atom_site_fract_y
_atom_site_fract_z
Si Si1 0.361970 0.174142 0.178280
Si Si2 0.496297 0.698419 0.375959
Si Si3 0.013503 0.698414 0.974323
Si Si4 0.636913 0.930570 0.045006
Si Si5 0.554769 0.093012 0.860855
Si Si6 0.868550 0.101182 0.482245
Si Si7 0.864699 0.466687 0.672885
O O1 0.250000 0.193415 0.192360
O O2 0.419510 0.192583 0.348199
O O3 0.405981 0.195581 0.997276
O O4 0.366066 0.114944 0.177848
O O5 0.437387 0.748429 0.427606
O O6 0.427162 0.650606 0.407524
O O7 0.528241 0.698279 0.172164
O O8 0.094424 0.656227 0.941106
O O9 0.750000 0.939549 0.974358
O O10 0.562622 0.920412 0.881558
O O11 0.593052 0.977823 0.150824
O O12 0.587638 0.080849 0.664049
O O13 0.622263 0.062005 0.991218
O O14 0.750000 0.102805 0.489075
O O15 0.911634 0.064331 0.333344
O O16 0.750000 0.472384 0.716301
#
# Coordination Sequence:
#
# PCOD8192666 Si02
#       7
#     8   8   8   8   8   8   8
#     4  10  21  38  59  84 118 155 195 237 289 353
#     4  10  21  36  56  78 113 152 191 242 290 338
#     4  11  21  38  57  81 117 154 193 249 295 344
#     4   9  19  37  60  88 118 155 194 240 294 347
#     4  10  20  37  61  84 118 158 193 242 292 351
#     4  10  22  39  60  87 117 155 199 245 295 350
#     4  10  20  37  62  88 119 153 196 243 292 349
#
# _framework density 20.079532
#
# number of rings (size 3 to 8) (size 9 to 14) (size 15 to 20)
#    0.000    2.000    1.429    2.571    0.000    1.143 
#    0.000   15.714    0.000   14.571    0.000    0.000 
#    0.000    0.000    0.000    0.000    0.000    0.000 
#
# Total GULP energy -347086.854016 kJ/mol
# GULP energy per Si atom -12395.959072 kJ/mol
# Density = 2.003383 g / cm^3
# Si number density = 20.079532 Si / 1000 Ang^3
#
#
#
# Elastic Constant Matrix: (Units=GPa)
#
#
# Indices 1 2 3 4 5 6 
#
# 1 48.4504 18.6251 21.3748 0.0160 -0.0146 -0.0027
# 2 18.6251 147.6245 56.0942 0.0070 -0.0056 -0.0020
# 3 21.3748 56.0942 119.1806 0.0728 -0.0582 -0.0108
# 4 0.0160 0.0070 0.0728 27.1110 -0.0071 -0.0052
# 5 -0.0146 -0.0056 -0.0582 -0.0071 29.1198 0.0025
# 6 -0.0027 -0.0020 -0.0108 -0.0052 0.0025 22.8074
#
#
#
# Elastic Compliance Matrix: (Units=1/GPa)
#
#
# Indices 1 2 3 4 5 6 
#
# 1 0.022721 -0.001605 -0.003319 -0.000004 0.000004 0.000001
# 2 -0.001605 0.008363 -0.003648 0.000009 -0.000006 -0.000001
# 3 -0.003319 -0.003648 0.010703 -0.000026 0.000019 0.000004
# 4 -0.000004 0.000009 -0.000026 0.036885 0.000009 0.000008
# 5 0.000004 -0.000006 0.000019 0.000009 0.034341 -0.000004
# 6 0.000001 -0.000001 0.000004 0.000008 -0.000004 0.043845
#
#
# Mechanical properties :
#
#
# Convention : Reuss Voigt Hill
#
# Bulk Modulus (GPa) = 40.58248 56.38263 48.48255
# Shear Modulus (GPa) = 27.43963 30.41840 28.92901
#
# Velocity S-wave (km/s) = 3.70069 3.89639 3.79980
# Velocity P-wave (km/s) = 6.20604 6.95579 6.59159
#
# Compressibility (1/GPa) = 0.02464118
#
# Stress axis : x y z
#
# Youngs Moduli (GPa) = 44.01173 119.57875 93.43148
#
# Poissons Ratio (x) = 0.19196 0.31014
# Poissons Ratio (y) = 0.07065 0.34085
# Poissons Ratio (z) = 0.14609 0.43624
#
# Static dielectric constant tensor:
#      x y z
#    x 3.498360 0.000100 0.000080 
#    y 0.000100 4.211740 -0.000240 
#    z 0.000080 -0.000240 3.648960 
# 
# 
# High freq. dielectric constant tensor:
#      x y z
#    x 1.763410 0.000000 0.000000 
#    y 0.000000 1.807770 0.000000 
#    z 0.000000 0.000000 1.778070 
# 
# From -- ./inp_files/1429.got.cif
#   From: 2010.03.12/outbox.cif.g09.slc.cpg/sg46_1_cif.got.tgz:1429.got - 2010.04.14 02:56:35.
