data_PCOD8192714
_publ_section_title
;
Structure prediction by ZEFSAII (Michael W. Deem and Ramdas Pophale) SiO2 
 PCOD8192714
Probable space group: I M A 2
;
_chemical_formula_sum "Si O2"
_cell_formula_units_Z 64
_cell_length_a 18.979973
_cell_length_b 12.018301
_cell_length_c 14.285402
_cell_angle_alpha 90.000000
_cell_angle_beta 90.000000
_cell_angle_gamma 90.000000
_cell_volume 3258.600601
_symmetry_space_group_name_H-M "I M A 2"
_symmetry_group_IT_number 46
_symmetry_cell_setting 'orthorhombic'
loop_
_space_group_symop_operation_xyz
x,y,z
-x,-y,z
1/2-x,y,z
1/2+x,-y,z
1/2+x,1/2+y,1/2+z
1/2-x,1/2-y,1/2+z
-x,1/2+y,1/2+z
x,1/2-y,1/2+z
loop_
_atom_site_type_symbol
_atom_site_label
_atom_site_fract_x
_atom_site_fract_y
_atom_site_fract_z
Si Si1 0.415331 0.330478 0.995970
Si Si2 0.668586 0.853066 0.884734
Si Si3 0.075955 0.520589 0.843496
Si Si4 0.575434 0.289681 0.977288
Si Si5 0.668649 0.154843 0.643460
Si Si6 0.831358 0.906651 0.677649
Si Si7 0.328366 0.605005 0.695145
Si Si8 0.329736 0.582744 0.480638
O O1 0.375395 0.232673 0.944387
O O2 0.409890 0.437272 0.929028
O O3 0.494908 0.288474 0.014437
O O4 0.380915 0.359865 0.095898
O O5 0.750000 0.824722 0.899740
O O6 0.648841 0.845385 0.774596
O O7 0.650547 0.974758 0.922290
O O8 0.078755 0.646211 0.880024
O O9 0.130423 0.515939 0.758551
O O10 0.000000 0.500000 0.798195
O O11 0.609092 0.170034 0.956260
O O12 0.622896 0.356846 0.050496
O O13 0.750000 0.173919 0.614145
O O14 0.643616 0.266092 0.699427
O O15 0.658337 0.039130 0.698424
O O16 0.750000 0.884440 0.649686
O O17 0.250000 0.602980 0.735184
O O18 0.332731 0.556916 0.590736
O O19 0.250000 0.624367 0.454516
#
# Coordination Sequence:
#
# PCOD8192714 Si02
#       8
#     8   8   8   8   8   8   8   8
#     4  11  23  41  58  86 126 164 203 242 295 366
#     4  10  23  42  62  87 121 160 205 253 298 358
#     4  10  22  38  56  84 126 162 198 240 296 358
#     4  10  20  38  60  86 122 157 195 247 303 353
#     4   9  18  36  61  91 118 147 195 249 303 353
#     4  10  21  39  64  89 115 157 203 248 302 357
#     4   9  19  35  59  91 118 149 197 249 302 353
#     4   9  20  41  63  88 122 154 195 256 310 351
#
# _framework density 19.640332999999998
#
# number of rings (size 3 to 8) (size 9 to 14) (size 15 to 20)
#    0.000    2.250    1.250    1.500    1.750    3.500 
#   13.500    3.750    0.000    0.000    0.000    0.000 
#    0.000    0.000    0.000    0.000    0.000    0.000 
#
# Total GULP energy -396636.817942 kJ/mol
# GULP energy per Si atom -12394.900561 kJ/mol
# Density = 1.959563 g / cm^3
# Si number density = 19.640333 Si / 1000 Ang^3
#
#
#
# Elastic Constant Matrix: (Units=GPa)
#
#
# Indices 1 2 3 4 5 6 
#
# 1 110.4718 58.7634 56.7917 0.0000 0.0000 0.0000
# 2 58.7634 77.8238 47.6198 0.0000 0.0000 0.0000
# 3 56.7917 47.6198 86.7945 0.0000 0.0000 0.0000
# 4 0.0000 0.0000 0.0000 14.3574 0.0000 0.0000
# 5 0.0000 0.0000 0.0000 0.0000 20.7029 0.0000
# 6 0.0000 0.0000 0.0000 0.0000 0.0000 29.5101
#
#
#
# Elastic Compliance Matrix: (Units=1/GPa)
#
#
# Indices 1 2 3 4 5 6 
#
# 1 0.017073 -0.009116 -0.006170 0.000000 0.000000 0.000000
# 2 -0.009116 0.024211 -0.007318 0.000000 0.000000 0.000000
# 3 -0.006170 -0.007318 0.019574 0.000000 0.000000 0.000000
# 4 0.000000 0.000000 0.000000 0.069651 0.000000 0.000000
# 5 0.000000 0.000000 0.000000 0.000000 0.048302 0.000000
# 6 0.000000 0.000000 0.000000 0.000000 0.000000 0.033887
#
#
# Mechanical properties :
#
#
# Convention : Reuss Voigt Hill
#
# Bulk Modulus (GPa) = 63.90146 66.82666 65.36406
# Shear Modulus (GPa) = 19.00251 20.37508 19.68880
#
# Velocity S-wave (km/s) = 3.11388 3.22438 3.16961
# Velocity P-wave (km/s) = 6.74795 6.92541 6.83725
#
# Compressibility (1/GPa) = 0.01564909
#
# Stress axis : x y z
#
# Youngs Moduli (GPa) = 58.57167 41.30303 51.08918
#
# Poissons Ratio (x) = 0.37654 0.31520
# Poissons Ratio (y) = 0.53397 0.37389
# Poissons Ratio (z) = 0.36136 0.30227
#
# Static dielectric constant tensor:
#      x y z
#    x 3.663430 0.000000 0.000000 
#    y 0.000000 3.635640 0.000000 
#    z 0.000000 0.000000 3.428260 
# 
# 
# High freq. dielectric constant tensor:
#      x y z
#    x 1.763900 0.000000 0.000000 
#    y 0.000000 1.763170 0.000000 
#    z 0.000000 0.000000 1.760290 
# 
# From -- ./inp_files/16779.got.cif
#   From: 2010.03.12/outbox.cif.g09.slc.cpg/sg46_9_cif.got.tgz:16779.got - 2010.04.14 02:56:35.
