data_PCOD8192859
_publ_section_title
;
Structure prediction by ZEFSAII (Michael W. Deem and Ramdas Pophale) SiO2 
 PCOD8192859
Probable space group: I M A 2
;
_chemical_formula_sum "Si O2"
_cell_formula_units_Z 60
_cell_length_a 13.357092
_cell_length_b 11.767859
_cell_length_c 19.063390
_cell_angle_alpha 90.000000
_cell_angle_beta 90.000000
_cell_angle_gamma 90.000000
_cell_volume 2996.467048
_symmetry_space_group_name_H-M "I M A 2"
_symmetry_group_IT_number 46
_symmetry_cell_setting 'orthorhombic'
loop_
_space_group_symop_operation_xyz
x,y,z
-x,-y,z
1/2-x,y,z
1/2+x,-y,z
1/2+x,1/2+y,1/2+z
1/2-x,1/2-y,1/2+z
-x,1/2+y,1/2+z
x,1/2-y,1/2+z
loop_
_atom_site_type_symbol
_atom_site_label
_atom_site_fract_x
_atom_site_fract_y
_atom_site_fract_z
Si Si1 0.938780 0.751894 0.265150
Si Si2 0.855648 0.123008 0.573868
Si Si3 0.632134 0.199630 0.189317
Si Si4 0.632743 0.689401 0.911486
Si Si5 0.866319 0.733128 0.562314
Si Si6 0.000000 0.500000 0.970601
Si Si7 0.595412 0.927187 0.659523
Si Si8 0.133072 0.446072 0.670998
O O1 0.918845 0.743362 0.347712
O O2 0.876831 0.647926 0.227983
O O3 0.894092 0.870923 0.238479
O O4 0.058466 0.744073 0.247862
O O5 0.750000 0.145506 0.534432
O O6 0.885977 0.236472 0.615897
O O7 0.939070 0.088890 0.518094
O O8 0.829106 0.021926 0.630262
O O9 0.750000 0.204949 0.212684
O O10 0.587041 0.072401 0.177681
O O11 0.750000 0.665831 0.897584
O O12 0.577480 0.568821 0.922052
O O13 0.616998 0.770562 0.978996
O O14 0.750000 0.755977 0.580997
O O15 0.926997 0.838824 0.595816
O O16 0.901959 0.616041 0.598866
O O17 0.500000 0.000000 0.679084
O O18 0.250000 0.467556 0.668854
#
# Coordination Sequence:
#
# PCOD8192859 Si02
#       8
#     8   8   8   8   8   4   8   8
#     4  11  22  37  57  84 118 154 196 238 286 340
#     4  11  20  35  62  92 118 149 189 242 300 352
#     4  10  21  36  57  87 120 153 194 238 289 349
#     4  11  24  39  58  86 118 154 194 236 290 345
#     4   9  18  34  57  85 111 143 187 241 287 332
#     4  12  22  38  58  86 122 150 188 242 294 350
#     4  11  18  34  59  85 117 144 193 242 291 337
#     4   9  19  35  58  85 113 147 194 242 286 336
#
# _framework density 20.023579999999999
#
# number of rings (size 3 to 8) (size 9 to 14) (size 15 to 20)
#    0.000    1.600    3.333    1.600    3.733    1.600 
#    0.000    0.667    2.933    0.000    0.000    0.000 
#    0.000    0.000    0.000    0.000    0.000    0.000 
#
# Total GULP energy -371660.889795 kJ/mol
# GULP energy per Si atom -12388.696327 kJ/mol
# Density = 1.997801 g / cm^3
# Si number density = 20.023580 Si / 1000 Ang^3
#
#
#
# Elastic Constant Matrix: (Units=GPa)
#
#
# Indices 1 2 3 4 5 6 
#
# 1 52.0096 5.6762 17.9542 0.0000 0.0000 0.0000
# 2 5.6762 80.6188 25.4536 0.0000 0.0000 0.0000
# 3 17.9542 25.4536 115.6482 0.0000 0.0000 0.0000
# 4 0.0000 0.0000 0.0000 22.0541 0.0000 0.0000
# 5 0.0000 0.0000 0.0000 0.0000 23.2569 0.0000
# 6 0.0000 0.0000 0.0000 0.0000 0.0000 10.8911
#
#
#
# Elastic Compliance Matrix: (Units=1/GPa)
#
#
# Indices 1 2 3 4 5 6 
#
# 1 0.020332 -0.000467 -0.003054 0.000000 0.000000 0.000000
# 2 -0.000467 0.013341 -0.002864 0.000000 0.000000 0.000000
# 3 -0.003054 -0.002864 0.009751 0.000000 0.000000 0.000000
# 4 0.000000 0.000000 0.000000 0.045343 0.000000 0.000000
# 5 0.000000 0.000000 0.000000 0.000000 0.042998 0.000000
# 6 0.000000 0.000000 0.000000 0.000000 0.000000 0.091818
#
#
# Mechanical properties :
#
#
# Convention : Reuss Voigt Hill
#
# Bulk Modulus (GPa) = 32.62103 38.49384 35.55743
# Shear Modulus (GPa) = 20.27804 24.51993 22.39899
#
# Velocity S-wave (km/s) = 3.18576 3.50316 3.34822
# Velocity P-wave (km/s) = 5.46432 5.96899 5.72222
#
# Compressibility (1/GPa) = 0.03065507
#
# Stress axis : x y z
#
# Youngs Moduli (GPa) = 49.18263 74.95619 102.55051
#
# Poissons Ratio (x) = 0.03504 0.31316
# Poissons Ratio (y) = 0.02299 0.29368
# Poissons Ratio (z) = 0.15019 0.21466
#
# Static dielectric constant tensor:
#      x y z
#    x 3.872900 0.000000 0.000000 
#    y 0.000000 3.826390 0.000000 
#    z 0.000000 0.000000 3.361160 
# 
# 
# High freq. dielectric constant tensor:
#      x y z
#    x 1.806010 0.000000 0.000000 
#    y 0.000000 1.775180 0.000000 
#    z 0.000000 0.000000 1.741480 
# 
# From -- ./inp_files/19596.got.cif
#   From: 2010.03.12/outbox.cif.g09.slc.cpg/sg46_10_cif.got.tgz:19596.got - 2010.04.14 02:56:35.
