data_PCOD8192429
_publ_section_title
;
Structure prediction by ZEFSAII (Michael W. Deem and Ramdas Pophale) SiO2 
 PCOD8192429
Probable space group: I M A 2
;
_chemical_formula_sum "Si O2"
_cell_formula_units_Z 48
_cell_length_a 10.156051
_cell_length_b 7.583259
_cell_length_c 31.142521
_cell_angle_alpha 90.000000
_cell_angle_beta 90.000000
_cell_angle_gamma 90.000000
_cell_volume 2398.471312
_symmetry_space_group_name_H-M "I M A 2"
_symmetry_group_IT_number 46
_symmetry_cell_setting 'orthorhombic'
loop_
_space_group_symop_operation_xyz
x,y,z
-x,-y,z
1/2-x,y,z
1/2+x,-y,z
1/2+x,1/2+y,1/2+z
1/2-x,1/2-y,1/2+z
-x,1/2+y,1/2+z
x,1/2-y,1/2+z
loop_
_atom_site_type_symbol
_atom_site_label
_atom_site_fract_x
_atom_site_fract_y
_atom_site_fract_z
Si Si1 0.500000 0.500000 0.928951
Si Si2 0.250000 0.496623 0.986435
Si Si3 0.250000 0.314137 0.548487
Si Si4 0.250000 0.768487 0.063066
Si Si5 0.906049 0.833597 0.875406
Si Si6 0.104600 0.351217 0.694794
Si Si7 0.108663 0.132391 0.778696
Si Si8 0.987046 0.707507 0.608520
O O1 0.376676 0.542662 0.958602
O O2 0.536574 0.667739 0.900372
O O3 0.250000 0.290908 0.002908
O O4 0.250000 0.635411 0.024373
O O5 0.250000 0.528764 0.544828
O O6 0.121399 0.245850 0.573113
O O7 0.374334 0.718352 0.092597
O O8 0.750000 0.867517 0.886594
O O9 0.924329 0.785503 0.825176
O O10 0.000000 0.000000 0.887125
O O11 0.250000 0.422507 0.681204
O O12 0.116367 0.274210 0.741829
O O13 0.055513 0.220577 0.655925
O O14 0.000000 0.500000 0.700920
O O15 0.250000 0.034199 0.782326
O O16 0.000000 0.000000 0.762780
O O17 0.000000 0.500000 0.614631
#
# Coordination Sequence:
#
# PCOD8192429 Si02
#       8
#     4   4   4   4   8   8   8   8
#     4  12  26  44  66  98 138 158 218 280 324 396
#     4  12  26  42  64  96 124 164 216 268 326 396
#     4  10  20  40  62  81 121 163 201 262 314 370
#     4  10  22  40  62  87 117 165 211 258 320 382
#     4  10  23  44  71  96 129 176 215 263 328 393
#     4  10  20  34  56  88 124 161 207 256 297 361
#     4   9  20  40  59  88 126 161 207 252 308 373
#     4   9  18  35  58  82 117 160 209 251 309 371
#
# _framework density 20.012747000000001
#
# number of rings (size 3 to 8) (size 9 to 14) (size 15 to 20)
#    0.000    2.000    1.667    1.000    5.833    2.000 
#    3.000    0.000    0.000    0.000    0.000    0.000 
#    0.000    0.000    0.000    0.000    0.000    0.000 
#
# Total GULP energy -297340.139664 kJ/mol
# GULP energy per Si atom -12389.172486 kJ/mol
# Density = 1.996720 g / cm^3
# Si number density = 20.012747 Si / 1000 Ang^3
#
#
#
# Elastic Constant Matrix: (Units=GPa)
#
#
# Indices 1 2 3 4 5 6 
#
# 1 193.1532 53.9519 69.2788 0.0000 0.0000 0.0000
# 2 53.9519 78.0292 46.7467 0.0000 0.0000 0.0000
# 3 69.2788 46.7467 106.8941 0.0000 0.0000 0.0000
# 4 0.0000 0.0000 0.0000 24.3555 0.0000 0.0000
# 5 0.0000 0.0000 0.0000 0.0000 37.4925 0.0000
# 6 0.0000 0.0000 0.0000 0.0000 0.0000 27.0289
#
#
#
# Elastic Compliance Matrix: (Units=1/GPa)
#
#
# Indices 1 2 3 4 5 6 
#
# 1 0.007218 -0.002965 -0.003382 0.000000 0.000000 0.000000
# 2 -0.002965 0.018583 -0.006205 0.000000 0.000000 0.000000
# 3 -0.003382 -0.006205 0.014260 0.000000 0.000000 0.000000
# 4 0.000000 0.000000 0.000000 0.041058 0.000000 0.000000
# 5 0.000000 0.000000 0.000000 0.000000 0.026672 0.000000
# 6 0.000000 0.000000 0.000000 0.000000 0.000000 0.036997
#
#
# Mechanical properties :
#
#
# Convention : Reuss Voigt Hill
#
# Bulk Modulus (GPa) = 66.85225 79.78127 73.31676
# Shear Modulus (GPa) = 28.59112 31.64866 30.11989
#
# Velocity S-wave (km/s) = 3.78384 3.98103 3.88369
# Velocity P-wave (km/s) = 7.25033 7.81558 7.53825
#
# Compressibility (1/GPa) = 0.01495836
#
# Stress axis : x y z
#
# Youngs Moduli (GPa) = 138.53620 53.81168 70.12489
#
# Poissons Ratio (x) = 0.15956 0.23713
# Poissons Ratio (y) = 0.41078 0.43513
# Poissons Ratio (z) = 0.46847 0.33391
#
# Static dielectric constant tensor:
#      x y z
#    x 4.890920 0.000000 0.000000 
#    y 0.000000 3.367510 0.000000 
#    z 0.000000 0.000000 4.097330 
# 
# 
# High freq. dielectric constant tensor:
#      x y z
#    x 1.810870 0.000000 0.000000 
#    y 0.000000 1.744940 0.000000 
#    z 0.000000 0.000000 1.797870 
# 
# From -- ./inp_files/25066.got.cif
#   From: 2010.03.12/outbox.cif.g09.slc.cpg/sg46_13_cif.got.tgz:25066.got - 2010.04.14 02:56:35.
