data_PCOD8192439
_publ_section_title
;
Structure prediction by ZEFSAII (Michael W. Deem and Ramdas Pophale) SiO2 
 PCOD8192439
Probable space group: I M A 2
;
_chemical_formula_sum "Si O2"
_cell_formula_units_Z 64
_cell_length_a 15.026003
_cell_length_b 8.914481
_cell_length_c 22.220712
_cell_angle_alpha 90.000000
_cell_angle_beta 90.000000
_cell_angle_gamma 90.000000
_cell_volume 2976.442557
_symmetry_space_group_name_H-M "I M A 2"
_symmetry_group_IT_number 46
_symmetry_cell_setting 'orthorhombic'
loop_
_space_group_symop_operation_xyz
x,y,z
-x,-y,z
1/2-x,y,z
1/2+x,-y,z
1/2+x,1/2+y,1/2+z
1/2-x,1/2-y,1/2+z
-x,1/2+y,1/2+z
x,1/2-y,1/2+z
loop_
_atom_site_type_symbol
_atom_site_label
_atom_site_fract_x
_atom_site_fract_y
_atom_site_fract_z
Si Si1 0.349437 0.102883 0.120180
Si Si2 0.851634 0.267664 0.838512
Si Si3 0.153060 0.170981 0.915112
Si Si4 0.976962 0.334490 0.948775
Si Si5 0.913810 0.093827 0.224495
Si Si6 0.904992 0.439438 0.500503
Si Si7 0.031494 0.343609 0.175515
Si Si8 0.851744 0.948759 0.787700
O O1 0.250000 0.163158 0.110617
O O2 0.413403 0.247528 0.126163
O O3 0.353834 0.001013 0.179026
O O4 0.375999 0.994518 0.065673
O O5 0.750000 0.259156 0.863249
O O6 0.921522 0.329923 0.886971
O O7 0.853649 0.382821 0.782921
O O8 0.885983 0.108930 0.812230
O O9 0.250000 0.245461 0.927805
O O10 0.139420 0.163528 0.843657
O O11 0.075677 0.267650 0.943806
O O12 0.156881 0.004925 0.946838
O O13 0.000000 0.500000 0.971825
O O14 0.915386 0.242314 0.996897
O O15 0.944186 0.250849 0.194599
O O16 0.000000 0.000000 0.243037
O O17 0.000000 0.500000 0.482412
O O18 0.089824 0.383100 0.234060
O O19 0.000000 0.500000 0.145201
O O20 0.750000 0.962329 0.765095
#
# Coordination Sequence:
#
# PCOD8192439 Si02
#       8
#     8   8   8   8   8   8   8   8
#     4  11  24  43  64  91 127 173 224 273 330 398
#     4  11  21  35  59  95 138 176 218 268 329 400
#     4  10  21  39  65  94 127 175 224 268 321 394
#     4  11  24  40  64  99 134 171 213 277 340 396
#     4  10  21  37  58  87 128 179 222 262 324 398
#     4  10  21  42  69  89 120 166 220 265 320 394
#     4  11  21  37  63  91 128 166 216 274 333 396
#     4  10  20  34  59  95 132 171 216 262 324 394
#
# _framework density 21.502177
#
# number of rings (size 3 to 8) (size 9 to 14) (size 15 to 20)
#    0.000    1.500    2.500    3.375    0.000    2.000 
#    0.000    8.125    0.000    0.000    0.000    0.000 
#    0.000    0.000    0.000    0.000    0.000    0.000 
#
# Total GULP energy -396619.194714 kJ/mol
# GULP energy per Si atom -12394.349835 kJ/mol
# Density = 2.145324 g / cm^3
# Si number density = 21.502177 Si / 1000 Ang^3
#
#
#
# Elastic Constant Matrix: (Units=GPa)
#
#
# Indices 1 2 3 4 5 6 
#
# 1 99.0267 35.2225 30.2213 0.0000 0.0000 0.0000
# 2 35.2225 128.0248 31.6301 0.0000 0.0000 0.0000
# 3 30.2213 31.6301 86.7650 0.0000 0.0000 0.0000
# 4 0.0000 0.0000 0.0000 27.4436 0.0000 0.0000
# 5 0.0000 0.0000 0.0000 0.0000 17.7566 0.0000
# 6 0.0000 0.0000 0.0000 0.0000 0.0000 24.1633
#
#
#
# Elastic Compliance Matrix: (Units=1/GPa)
#
#
# Indices 1 2 3 4 5 6 
#
# 1 0.011980 -0.002489 -0.003265 0.000000 0.000000 0.000000
# 2 -0.002489 0.009101 -0.002451 0.000000 0.000000 0.000000
# 3 -0.003265 -0.002451 0.013556 0.000000 0.000000 0.000000
# 4 0.000000 0.000000 0.000000 0.036438 0.000000 0.000000
# 5 0.000000 0.000000 0.000000 0.000000 0.056317 0.000000
# 6 0.000000 0.000000 0.000000 0.000000 0.000000 0.041385
#
#
# Mechanical properties :
#
#
# Convention : Reuss Voigt Hill
#
# Bulk Modulus (GPa) = 54.86433 56.44045 55.65239
# Shear Modulus (GPa) = 26.14174 28.32221 27.23198
#
# Velocity S-wave (km/s) = 3.49057 3.63323 3.56262
# Velocity P-wave (km/s) = 6.46657 6.62618 6.54686
#
# Compressibility (1/GPa) = 0.01822678
#
# Stress axis : x y z
#
# Youngs Moduli (GPa) = 83.47084 109.87377 73.76690
#
# Poissons Ratio (x) = 0.27351 0.24088
# Poissons Ratio (y) = 0.20778 0.18079
# Poissons Ratio (z) = 0.27257 0.26928
#
# Static dielectric constant tensor:
#      x y z
#    x 4.059380 0.000000 0.000000 
#    y 0.000000 4.103770 0.000000 
#    z 0.000000 0.000000 3.656790 
# 
# 
# High freq. dielectric constant tensor:
#      x y z
#    x 1.850890 0.000000 0.000000 
#    y 0.000000 1.835570 0.000000 
#    z 0.000000 0.000000 1.828180 
# 
# From -- ./inp_files/23644.got.cif
#   From: 2010.03.12/outbox.cif.g09.slc.cpg/sg46_12_cif.got.tgz:23644.got - 2010.04.14 02:56:35.
