data_PCOD8192979
_publ_section_title
;
Structure prediction by ZEFSAII (Michael W. Deem and Ramdas Pophale) SiO2 
 PCOD8192979
Probable space group: I M A 2
;
_chemical_formula_sum "Si O2"
_cell_formula_units_Z 40
_cell_length_a 15.351468
_cell_length_b 23.987404
_cell_length_c 5.083871
_cell_angle_alpha 90.000000
_cell_angle_beta 90.000000
_cell_angle_gamma 90.000000
_cell_volume 1872.094138
_symmetry_space_group_name_H-M "I M A 2"
_symmetry_group_IT_number 46
_symmetry_cell_setting 'orthorhombic'
loop_
_space_group_symop_operation_xyz
x,y,z
-x,-y,z
1/2-x,y,z
1/2+x,-y,z
1/2+x,1/2+y,1/2+z
1/2-x,1/2-y,1/2+z
-x,1/2+y,1/2+z
x,1/2-y,1/2+z
loop_
_atom_site_type_symbol
_atom_site_label
_atom_site_fract_x
_atom_site_fract_y
_atom_site_fract_z
Si Si1 0.091801 0.470364 0.924830
Si Si2 0.406965 0.285952 0.487671
Si Si3 0.250000 0.875968 0.902116
Si Si4 0.750000 0.447790 0.902471
Si Si5 0.109049 0.714568 0.491922
Si Si6 0.350211 0.408226 0.421438
O O1 0.164548 0.516887 0.958103
O O2 0.095864 0.439771 0.645817
O O3 0.000000 0.500000 0.960210
O O4 0.105342 0.423224 0.145379
O O5 0.381638 0.257483 0.761258
O O6 0.508382 0.302142 0.472656
O O7 0.351982 0.341971 0.458882
O O8 0.250000 0.895991 0.601797
O O9 0.337100 0.841196 0.950776
O O10 0.250000 0.927765 0.101285
O O11 0.133755 0.739769 0.773759
O O12 0.250000 0.428147 0.431720
#
# Coordination Sequence:
#
# PCOD8192979 Si02
#       6
#     8   8   4   4   8   8
#     4  12  27  46  70  95 135 179 221 273 332 390
#     4  10  23  40  63  97 128 164 214 266 319 394
#     4  12  24  37  66  92 130 169 212 266 326 378
#     4  12  26  43  62 102 128 161 226 278 310 392
#     4  10  21  39  60  89 131 168 211 258 319 390
#     4  12  24  46  71  97 134 172 217 274 336 391
#
# _framework density 21.366446
#
# number of rings (size 3 to 8) (size 9 to 14) (size 15 to 20)
#    0.000    0.800    2.000    4.800    5.600    0.800 
#    0.000    0.000    0.000    0.000    0.000    0.000 
#    0.000    0.000    0.000    0.000    0.000    0.000 
#
# Total GULP energy -248187.367009 kJ/mol
# GULP energy per Si atom -12409.368350 kJ/mol
# Density = 2.131782 g / cm^3
# Si number density = 21.366446 Si / 1000 Ang^3
#
#
#
# Elastic Constant Matrix: (Units=GPa)
#
#
# Indices 1 2 3 4 5 6 
#
# 1 102.1750 36.7774 17.5346 -0.0001 0.0000 0.0000
# 2 36.7774 84.2224 4.0476 0.0001 -0.0001 -0.0001
# 3 17.5346 4.0476 82.7153 0.0005 -0.0006 -0.0019
# 4 -0.0001 0.0001 0.0005 39.6411 -0.0002 0.0002
# 5 0.0000 -0.0001 -0.0006 -0.0002 21.2532 -0.0003
# 6 0.0000 -0.0001 -0.0019 0.0002 -0.0003 -67.1321
#
#
#
# Elastic Compliance Matrix: (Units=1/GPa)
#
#
# Indices 1 2 3 4 5 6 
#
# 1 0.012033 -0.005144 -0.002299 0.000000 0.000000 0.000000
# 2 -0.005144 0.014100 0.000400 0.000000 0.000000 0.000000
# 3 -0.002299 0.000400 0.012557 0.000000 0.000000 0.000000
# 4 0.000000 0.000000 0.000000 0.025226 0.000000 0.000000
# 5 0.000000 0.000000 0.000000 0.000000 0.047052 0.000000
# 6 0.000000 0.000000 0.000000 0.000000 0.000000 -0.014896
#
#
# Mechanical properties :
#
#
# Convention : Reuss Voigt Hill
#
# Bulk Modulus (GPa) = 40.64122 42.87019 41.75570
# Shear Modulus (GPa) = 42.24383 12.80265 27.52324
#
# Velocity S-wave (km/s) = 4.45130 2.45050 3.59298
# Velocity P-wave (km/s) = 6.74396 5.30230 6.06611
#
# Compressibility (1/GPa) = 0.02460556
#
# Stress axis : x y z
#
# Youngs Moduli (GPa) = 83.10283 70.92023 79.63391
#
# Poissons Ratio (x) = 0.36482 0.18309
# Poissons Ratio (y) = 0.42749 -0.03189
# Poissons Ratio (z) = 0.19107 -0.02840
#
# Static dielectric constant tensor:
#      x y z
#    x 3.886270 0.000000 0.000000 
#    y 0.000000 3.747460 0.000000 
#    z 0.000000 0.000000 4.102940 
# 
# 
# High freq. dielectric constant tensor:
#      x y z
#    x 1.842020 0.000000 0.000000 
#    y 0.000000 1.843940 0.000000 
#    z 0.000000 0.000000 1.856810 
# 
# From -- ./inp_files/1230.got.cif
#   From: 2010.03.12/outbox.cif.g09.slc.cpg/sg46_1_cif.got.tgz:1230.got - 2010.04.14 02:56:35.
