data_PCOD8192776
_publ_section_title
;
Structure prediction by ZEFSAII (Michael W. Deem and Ramdas Pophale) SiO2 
 PCOD8192776
Probable space group: I M A 2
;
_chemical_formula_sum "Si O2"
_cell_formula_units_Z 40
_cell_length_a 9.998573
_cell_length_b 8.825066
_cell_length_c 22.841485
_cell_angle_alpha 90.000000
_cell_angle_beta 90.000000
_cell_angle_gamma 90.000000
_cell_volume 2015.488475
_symmetry_space_group_name_H-M "I M A 2"
_symmetry_group_IT_number 46
_symmetry_cell_setting 'orthorhombic'
loop_
_space_group_symop_operation_xyz
x,y,z
-x,-y,z
1/2-x,y,z
1/2+x,-y,z
1/2+x,1/2+y,1/2+z
1/2-x,1/2-y,1/2+z
-x,1/2+y,1/2+z
x,1/2-y,1/2+z
loop_
_atom_site_type_symbol
_atom_site_label
_atom_site_fract_x
_atom_site_fract_y
_atom_site_fract_z
Si Si1 0.987381 0.179719 0.279590
Si Si2 0.998998 0.175431 0.541023
Si Si3 0.750000 0.816518 0.833084
Si Si4 0.411044 0.648847 0.652602
Si Si5 0.250000 0.826810 0.845859
Si Si6 0.750000 0.825006 0.462291
Si Si7 0.250000 0.680669 0.965012
O O1 0.126016 0.256588 0.296043
O O2 0.936464 0.228578 0.215131
O O3 0.880722 0.241731 0.324546
O O4 0.000000 0.000000 0.286671
O O5 0.983203 0.253200 0.603374
O O6 0.876223 0.224766 0.502487
O O7 0.126771 0.224028 0.503041
O O8 0.000000 0.000000 0.555440
O O9 0.750000 0.762150 0.900583
O O10 0.750000 0.997245 0.830409
O O11 0.500000 0.500000 0.653430
O O12 0.250000 0.623483 0.643062
O O13 0.250000 0.803286 0.914540
O O14 0.750000 0.003716 0.446201
#
# Coordination Sequence:
#
# PCOD8192776 Si02
#       7
#     8   8   4   8   4   4   4
#     4  11  24  44  68  92 130 181 221 262 329 409
#     4  10  22  40  66  95 130 171 218 265 324 391
#     4  12  26  41  66 103 135 164 222 280 335 384
#     4  11  25  44  68  97 130 172 223 272 328 390
#     4  12  24  41  66  99 133 168 218 284 335 378
#     4  10  22  39  62  99 129 176 222 256 323 412
#     4  10  20  39  64  89 131 180 218 260 323 404
#
# _framework density 19.846305000000001
#
# number of rings (size 3 to 8) (size 9 to 14) (size 15 to 20)
#    0.000    1.200    2.000    3.600    5.600    4.800 
#    0.000    0.000    0.000    0.000    0.000    0.000 
#    0.000    0.000    0.000    0.000    0.000    0.000 
#
# Total GULP energy -247919.484919 kJ/mol
# GULP energy per Si atom -12395.974246 kJ/mol
# Density = 1.980113 g / cm^3
# Si number density = 19.846305 Si / 1000 Ang^3
#
#
#
# Elastic Constant Matrix: (Units=GPa)
#
#
# Indices 1 2 3 4 5 6 
#
# 1 156.1411 29.0312 40.8870 0.0000 0.0000 0.0000
# 2 29.0312 80.0313 36.9793 0.0000 0.0000 0.0000
# 3 40.8870 36.9793 114.4766 0.0000 0.0000 0.0000
# 4 0.0000 0.0000 0.0000 33.4159 0.0000 0.0000
# 5 0.0000 0.0000 0.0000 0.0000 89.7376 0.0000
# 6 0.0000 0.0000 0.0000 0.0000 0.0000 19.6943
#
#
#
# Elastic Compliance Matrix: (Units=1/GPa)
#
#
# Indices 1 2 3 4 5 6 
#
# 1 0.007254 -0.001686 -0.002046 0.000000 0.000000 0.000000
# 2 -0.001686 0.015079 -0.004269 0.000000 0.000000 0.000000
# 3 -0.002046 -0.004269 0.010845 0.000000 0.000000 0.000000
# 4 0.000000 0.000000 0.000000 0.029926 0.000000 0.000000
# 5 0.000000 0.000000 0.000000 0.000000 0.011144 0.000000
# 6 0.000000 0.000000 0.000000 0.000000 0.000000 0.050776
#
#
# Mechanical properties :
#
#
# Convention : Reuss Voigt Hill
#
# Bulk Modulus (GPa) = 58.21991 62.71602 60.46797
# Shear Modulus (GPa) = 34.07132 44.81966 39.44549
#
# Velocity S-wave (km/s) = 4.14787 4.75735 4.46303
# Velocity P-wave (km/s) = 7.23456 7.86422 7.55595
#
# Compressibility (1/GPa) = 0.01717625
#
# Stress axis : x y z
#
# Youngs Moduli (GPa) = 137.86028 66.31683 92.20653
#
# Poissons Ratio (x) = 0.11180 0.18867
# Poissons Ratio (y) = 0.23241 0.39362
# Poissons Ratio (z) = 0.28209 0.28310
#
# Static dielectric constant tensor:
#      x y z
#    x 3.458220 0.000000 0.000000 
#    y 0.000000 3.625220 0.000000 
#    z 0.000000 0.000000 3.939960 
# 
# 
# High freq. dielectric constant tensor:
#      x y z
#    x 1.798150 0.000000 0.000000 
#    y 0.000000 1.765260 0.000000 
#    z 0.000000 0.000000 1.792970 
# 
# From -- ./inp_files/22787.got.cif
#   From: 2010.03.12/outbox.cif.g09.slc.cpg/sg46_12_cif.got.tgz:22787.got - 2010.04.14 02:56:35.
