data_PCOD8192296
_publ_section_title
;
Structure prediction by ZEFSAII (Michael W. Deem and Ramdas Pophale) SiO2 
 PCOD8192296
Probable space group: I M A 2
;
_chemical_formula_sum "Si O2"
_cell_formula_units_Z 64
_cell_length_a 8.728644
_cell_length_b 23.191586
_cell_length_c 18.862372
_cell_angle_alpha 90.000000
_cell_angle_beta 90.000000
_cell_angle_gamma 90.000000
_cell_volume 3818.330675
_symmetry_space_group_name_H-M "I M A 2"
_symmetry_group_IT_number 46
_symmetry_cell_setting 'orthorhombic'
loop_
_space_group_symop_operation_xyz
x,y,z
-x,-y,z
1/2-x,y,z
1/2+x,-y,z
1/2+x,1/2+y,1/2+z
1/2-x,1/2-y,1/2+z
-x,1/2+y,1/2+z
x,1/2-y,1/2+z
loop_
_atom_site_type_symbol
_atom_site_label
_atom_site_fract_x
_atom_site_fract_y
_atom_site_fract_z
Si Si1 0.572889 0.341835 0.389360
Si Si2 0.571926 0.738013 0.161051
Si Si3 0.427101 0.728112 0.800316
Si Si4 0.430893 0.060751 0.519330
Si Si5 0.069466 0.061338 0.801371
Si Si6 0.925535 0.722544 0.509125
Si Si7 0.426582 0.165205 0.422086
Si Si8 0.430883 0.613499 0.159874
O O1 0.750000 0.358995 0.385308
O O2 0.534240 0.288330 0.338326
O O3 0.471222 0.395498 0.365203
O O4 0.530153 0.324761 0.469904
O O5 0.750000 0.720310 0.163221
O O6 0.526456 0.775904 0.228968
O O7 0.536584 0.777361 0.092528
O O8 0.472188 0.680485 0.158579
O O9 0.250000 0.722909 0.780627
O O10 0.473355 0.675528 0.851688
O O11 0.250000 0.057011 0.530877
O O12 0.473423 0.104457 0.456168
O O13 0.505479 0.080763 0.592129
O O14 0.500000 0.000000 0.495854
O O15 0.250000 0.056446 0.792829
O O16 0.998887 0.083545 0.728632
O O17 0.000000 0.000000 0.821798
O O18 0.750000 0.706124 0.494290
O O19 0.962336 0.786424 0.480718
O O20 0.250000 0.166497 0.399423
O O21 0.250000 0.606875 0.162268
#
# Coordination Sequence:
#
# PCOD8192296 Si02
#       8
#     8   8   8   8   8   8   8   8
#     4  10  20  34  51  76 104 133 170 213 257 304
#     4  11  20  33  53  77 105 139 174 209 256 309
#     4  10  20  32  50  76 105 133 169 212 259 307
#     4  11  22  37  53  74 102 138 179 216 256 303
#     4  12  24  38  55  73 101 139 178 217 255 300
#     4   9  18  33  52  74 100 134 172 209 254 307
#     4   9  18  34  52  71  99 134 174 212 253 303
#     4  12  23  35  50  73 105 139 178 216 252 299
#
# _framework density 16.76125
#
# number of rings (size 3 to 8) (size 9 to 14) (size 15 to 20)
#    0.000    1.500    2.500    4.125    0.000    3.000 
#    0.000    0.000    0.000    0.000    0.000    0.875 
#    0.000    4.000    0.000    0.000    0.000    0.000 
#
# Total GULP energy -396940.078594 kJ/mol
# GULP energy per Si atom -12404.377456 kJ/mol
# Density = 1.672310 g / cm^3
# Si number density = 16.761250 Si / 1000 Ang^3
#
#
#
# Elastic Constant Matrix: (Units=GPa)
#
#
# Indices 1 2 3 4 5 6 
#
# 1 91.5746 45.6811 42.1757 0.0047 0.0000 0.0000
# 2 45.6811 90.9317 51.2936 0.0034 0.0000 0.0000
# 3 42.1757 51.2936 105.4246 0.0116 0.0000 0.0000
# 4 0.0047 0.0034 0.0116-2686.5187 -0.0014 0.0001
# 5 0.0000 0.0000 0.0000 -0.0014 25.8904 0.0000
# 6 0.0000 0.0000 0.0000 0.0001 0.0000 27.3749
#
#
#
# Elastic Compliance Matrix: (Units=1/GPa)
#
#
# Indices 1 2 3 4 5 6 
#
# 1 0.015359 -0.005858 -0.003295 0.000000 0.000000 0.000000
# 2 -0.005858 0.017391 -0.006118 0.000000 0.000000 0.000000
# 3 -0.003295 -0.006118 0.013780 0.000000 0.000000 0.000000
# 4 0.000000 0.000000 0.000000 -0.000372 0.000000 0.000000
# 5 0.000000 0.000000 0.000000 0.000000 0.038624 0.000000
# 6 0.000000 0.000000 0.000000 0.000000 0.000000 0.036530
#
#
# Mechanical properties :
#
#
# Convention : Reuss Voigt Hill
#
# Bulk Modulus (GPa) = 62.53918 62.91463 62.72691
# Shear Modulus (GPa) = 31.80992 -516.73198 -242.46103
#
# Velocity S-wave (km/s) = 4.36113 -17.57723 -12.04034
# Velocity P-wave (km/s) = 7.92162 19.34756 12.48151
#
# Compressibility (1/GPa) = 0.01598998
#
# Stress axis : x y z
#
# Youngs Moduli (GPa) = 65.10648 57.50054 72.56765
#
# Poissons Ratio (x) = 0.33682 0.23908
# Poissons Ratio (y) = 0.38137 0.44398
# Poissons Ratio (z) = 0.21450 0.35180
#
# Static dielectric constant tensor:
#      x y z
#    x 3.252760 0.000000 0.000000 
#    y 0.000000 3.063290 0.000000 
#    z 0.000000 0.000000 3.199640 
# 
# 
# High freq. dielectric constant tensor:
#      x y z
#    x 1.661080 0.000000 0.000000 
#    y 0.000000 1.619520 0.000000 
#    z 0.000000 0.000000 1.641330 
# 
# From -- ./inp_files/18570.got.cif
#   From: 2010.03.12/outbox.cif.g09.slc.cpg/sg46_10_cif.got.tgz:18570.got - 2010.04.14 02:56:35.
