data_PCOD8192437
_publ_section_title
;
Structure prediction by ZEFSAII (Michael W. Deem and Ramdas Pophale) SiO2 
 PCOD8192437
Probable space group: I M A 2
;
_chemical_formula_sum "Si O2"
_cell_formula_units_Z 48
_cell_length_a 14.128964
_cell_length_b 12.521652
_cell_length_c 12.519792
_cell_angle_alpha 90.000000
_cell_angle_beta 90.000000
_cell_angle_gamma 90.000000
_cell_volume 2214.976190
_symmetry_space_group_name_H-M "I M A 2"
_symmetry_group_IT_number 46
_symmetry_cell_setting 'orthorhombic'
loop_
_space_group_symop_operation_xyz
x,y,z
-x,-y,z
1/2-x,y,z
1/2+x,-y,z
1/2+x,1/2+y,1/2+z
1/2-x,1/2-y,1/2+z
-x,1/2+y,1/2+z
x,1/2-y,1/2+z
loop_
_atom_site_type_symbol
_atom_site_label
_atom_site_fract_x
_atom_site_fract_y
_atom_site_fract_z
Si Si1 0.250000 0.079466 0.086540
Si Si2 0.049259 0.328746 0.559941
Si Si3 0.446565 0.669287 0.765377
Si Si4 0.250000 0.893451 0.924985
Si Si5 0.541284 0.388697 0.007810
Si Si6 0.549116 0.398560 0.346597
Si Si7 0.750000 0.353471 0.989263
Si Si8 0.250000 0.578345 0.760055
O O1 0.338929 0.151225 0.052024
O O2 0.250000 0.042418 0.210955
O O3 0.250000 0.963784 0.031124
O O4 0.016129 0.376530 0.674351
O O5 0.025399 0.203232 0.555315
O O6 0.994155 0.387263 0.465210
O O7 0.463092 0.613123 0.878866
O O8 0.467771 0.795293 0.774670
O O9 0.340749 0.647284 0.723438
O O10 0.159903 0.922434 0.854147
O O11 0.250000 0.768547 0.951137
O O12 0.500000 0.500000 0.049549
O O13 0.650482 0.374633 0.050728
O O14 0.500000 0.500000 0.289684
O O15 0.750000 0.433716 0.888121
#
# Coordination Sequence:
#
# PCOD8192437 Si02
#       8
#     4   8   8   4   8   8   4   4
#     4  12  26  35  65  98 128 167 208 271 332 372
#     4  11  24  40  58  94 127 161 214 264 320 379
#     4  10  22  38  61  90 127 159 213 268 311 386
#     4  12  18  38  61  91 126 158 213 261 320 378
#     4  10  23  41  64  90 125 173 209 264 325 381
#     4  11  21  39  63  91 125 171 212 266 320 376
#     4  10  20  39  60  93 122 159 220 258 305 396
#     4  10  20  34  58  92 120 152 205 266 319 368
#
# _framework density 21.670660999999999
#
# number of rings (size 3 to 8) (size 9 to 14) (size 15 to 20)
#    0.000    1.333    6.667    1.000    4.667    1.333 
#    0.000    4.167    0.000    2.000    0.000    0.000 
#    0.000    0.000    0.000    0.000    0.000    0.000 
#
# Total GULP energy -297545.624623 kJ/mol
# GULP energy per Si atom -12397.734359 kJ/mol
# Density = 2.162134 g / cm^3
# Si number density = 21.670661 Si / 1000 Ang^3
#
#
#
# Elastic Constant Matrix: (Units=GPa)
#
#
# Indices 1 2 3 4 5 6 
#
# 1 163.6570 50.0858 24.1719 0.0000 0.0000 0.0000
# 2 50.0858 113.6734 -4.9184 0.0000 0.0000 0.0000
# 3 24.1719 -4.9184 60.5509 0.0000 0.0000 0.0000
# 4 0.0000 0.0000 0.0000 14.3199 0.0000 0.0000
# 5 0.0000 0.0000 0.0000 0.0000 17.2797 0.0000
# 6 0.0000 0.0000 0.0000 0.0000 0.0000 35.9629
#
#
#
# Elastic Compliance Matrix: (Units=1/GPa)
#
#
# Indices 1 2 3 4 5 6 
#
# 1 0.007687 -0.003532 -0.003356 0.000000 0.000000 0.000000
# 2 -0.003532 0.010451 0.002259 0.000000 0.000000 0.000000
# 3 -0.003356 0.002259 0.018038 0.000000 0.000000 0.000000
# 4 0.000000 0.000000 0.000000 0.069833 0.000000 0.000000
# 5 0.000000 0.000000 0.000000 0.000000 0.057871 0.000000
# 6 0.000000 0.000000 0.000000 0.000000 0.000000 0.027806
#
#
# Mechanical properties :
#
#
# Convention : Reuss Voigt Hill
#
# Bulk Modulus (GPa) = 37.14888 52.95111 45.04999
# Shear Modulus (GPa) = 23.81892 31.41530 27.61711
#
# Velocity S-wave (km/s) = 3.31891 3.81158 3.57375
# Velocity P-wave (km/s) = 5.64505 6.62257 6.15325
#
# Compressibility (1/GPa) = 0.02691871
#
# Stress axis : x y z
#
# Youngs Moduli (GPa) = 130.09104 95.68309 55.43841
#
# Poissons Ratio (x) = 0.33797 0.18602
# Poissons Ratio (y) = 0.45950 -0.12523
# Poissons Ratio (z) = 0.43652 -0.21614
#
# Static dielectric constant tensor:
#      x y z
#    x 4.215580 0.000000 0.000000 
#    y 0.000000 3.790980 0.000000 
#    z 0.000000 0.000000 3.765140 
# 
# 
# High freq. dielectric constant tensor:
#      x y z
#    x 1.855590 0.000000 0.000000 
#    y 0.000000 1.842010 0.000000 
#    z 0.000000 0.000000 1.837120 
# 
# From -- ./inp_files/15917.got.cif
#   From: 2010.03.12/outbox.cif.g09.slc.cpg/sg46_8_cif.got.tgz:15917.got - 2010.04.14 02:56:35.
