data_PCOD8192996
_publ_section_title
;
Structure prediction by ZEFSAII (Michael W. Deem and Ramdas Pophale) SiO2 
 PCOD8192996
Probable space group: I M A 2
;
_chemical_formula_sum "Si O2"
_cell_formula_units_Z 64
_cell_length_a 8.526444
_cell_length_b 15.451872
_cell_length_c 23.709666
_cell_angle_alpha 90.000000
_cell_angle_beta 90.000000
_cell_angle_gamma 90.000000
_cell_volume 3123.737146
_symmetry_space_group_name_H-M "I M A 2"
_symmetry_group_IT_number 46
_symmetry_cell_setting 'orthorhombic'
loop_
_space_group_symop_operation_xyz
x,y,z
-x,-y,z
1/2-x,y,z
1/2+x,-y,z
1/2+x,1/2+y,1/2+z
1/2-x,1/2-y,1/2+z
-x,1/2+y,1/2+z
x,1/2-y,1/2+z
loop_
_atom_site_type_symbol
_atom_site_label
_atom_site_fract_x
_atom_site_fract_y
_atom_site_fract_z
Si Si1 0.065482 0.088980 0.611420
Si Si2 0.564714 0.409770 0.384144
Si Si3 0.064464 0.649738 0.996797
Si Si4 0.564806 0.746942 0.188848
Si Si5 0.063442 0.592432 0.622902
Si Si6 0.935819 0.344276 0.502126
Si Si7 0.934491 0.909360 0.378544
Si Si8 0.565750 0.247798 0.311276
O O1 0.250000 0.085851 0.611950
O O2 0.005277 0.170283 0.647938
O O3 0.006207 0.094749 0.547544
O O4 0.000000 0.000000 0.638211
O O5 0.500000 0.500000 0.360086
O O6 0.750000 0.413335 0.383220
O O7 0.499365 0.395445 0.447699
O O8 0.504650 0.331283 0.345525
O O9 0.250000 0.648316 0.001918
O O10 0.996742 0.747061 0.000874
O O11 0.015492 0.608342 0.938099
O O12 0.750000 0.742858 0.199614
O O13 0.519157 0.838110 0.162275
O O14 0.472111 0.735412 0.246572
O O15 0.250000 0.598664 0.629403
O O16 0.007450 0.607892 0.558572
O O17 0.000000 0.500000 0.642856
O O18 0.750000 0.339501 0.499408
O O19 0.750000 0.914640 0.387087
O O20 0.975099 0.836235 0.333094
O O21 0.000000 0.000000 0.354678
O O22 0.750000 0.233250 0.320627
#
# Coordination Sequence:
#
# PCOD8192996 Si02
#       8
#     8   8   8   8   8   8   8   8
#     4  11  24  41  63  93 127 164 209 257 313 372
#     4  10  21  39  62  92 126 161 201 246 302 362
#     4  11  20  38  65  93 128 165 206 252 310 374
#     4  11  25  44  64  90 123 160 211 265 310 367
#     4  11  22  39  64  94 126 165 205 250 309 369
#     4   9  18  35  61  91 125 162 199 244 302 363
#     4  12  25  42  65  95 128 164 206 254 311 372
#     4  11  24  44  67  90 122 164 210 259 311 367
#
# _framework density 20.48828
#
# number of rings (size 3 to 8) (size 9 to 14) (size 15 to 20)
#    0.000    1.250    2.500    3.750    0.000    3.500 
#    0.000    5.625    0.000    0.000    0.000    0.000 
#    0.000    0.000    0.000    0.000    0.000    0.000 
#
# Total GULP energy -396967.530259 kJ/mol
# GULP energy per Si atom -12405.235321 kJ/mol
# Density = 2.044165 g / cm^3
# Si number density = 20.488280 Si / 1000 Ang^3
#
#
#
# Elastic Constant Matrix: (Units=GPa)
#
#
# Indices 1 2 3 4 5 6 
#
# 1 29.4032 29.0976 9.8096 0.0000 0.0000 0.0000
# 2 29.0976 150.8062 31.6094 0.0000 0.0000 0.0000
# 3 9.8096 31.6094 99.6847 0.0000 0.0000 0.0000
# 4 0.0000 0.0000 0.0000 9.0885 0.0000 0.0000
# 5 0.0000 0.0000 0.0000 0.0000 28.2985 0.0000
# 6 0.0000 0.0000 0.0000 0.0000 0.0000 33.6605
#
#
#
# Elastic Compliance Matrix: (Units=1/GPa)
#
#
# Indices 1 2 3 4 5 6 
#
# 1 0.042299 -0.007808 -0.001687 0.000000 0.000000 0.000000
# 2 -0.007808 0.008544 -0.001941 0.000000 0.000000 0.000000
# 3 -0.001687 -0.001941 0.010813 0.000000 0.000000 0.000000
# 4 0.000000 0.000000 0.000000 0.110029 0.000000 0.000000
# 5 0.000000 0.000000 0.000000 0.000000 0.035338 0.000000
# 6 0.000000 0.000000 0.000000 0.000000 0.000000 0.029708
#
#
# Mechanical properties :
#
#
# Convention : Reuss Voigt Hill
#
# Bulk Modulus (GPa) = 25.78280 46.76968 36.27624
# Shear Modulus (GPa) = 18.34651 28.16803 23.25727
#
# Velocity S-wave (km/s) = 2.99568 3.71190 3.37285
# Velocity P-wave (km/s) = 4.95751 6.42246 5.73694
#
# Compressibility (1/GPa) = 0.03878555
#
# Stress axis : x y z
#
# Youngs Moduli (GPa) = 23.64100 117.03576 92.48052
#
# Poissons Ratio (x) = 0.91382 0.15598
# Poissons Ratio (y) = 0.18459 0.17951
# Poissons Ratio (z) = 0.03987 0.22717
#
# Static dielectric constant tensor:
#      x y z
#    x 3.555180 0.000000 0.000000 
#    y 0.000000 4.097960 0.000000 
#    z 0.000000 0.000000 3.786730 
# 
# 
# High freq. dielectric constant tensor:
#      x y z
#    x 1.794970 0.000000 0.000000 
#    y 0.000000 1.819760 0.000000 
#    z 0.000000 0.000000 1.798550 
# 
# From -- ./inp_files/23155.got.cif
#   From: 2010.03.12/outbox.cif.g09.slc.cpg/sg46_12_cif.got.tgz:23155.got - 2010.04.14 02:56:35.
