data_PCOD8192033
_publ_section_title
;
Structure prediction by ZEFSAII (Michael W. Deem and Ramdas Pophale) SiO2 
 PCOD8192033
Probable space group: I M A 2
;
_chemical_formula_sum "Si O2"
_cell_formula_units_Z 64
_cell_length_a 8.739838
_cell_length_b 23.185441
_cell_length_c 18.886641
_cell_angle_alpha 90.000000
_cell_angle_beta 90.000000
_cell_angle_gamma 90.000000
_cell_volume 3827.132240
_symmetry_space_group_name_H-M "I M A 2"
_symmetry_group_IT_number 46
_symmetry_cell_setting 'orthorhombic'
loop_
_space_group_symop_operation_xyz
x,y,z
-x,-y,z
1/2-x,y,z
1/2+x,-y,z
1/2+x,1/2+y,1/2+z
1/2-x,1/2-y,1/2+z
-x,1/2+y,1/2+z
x,1/2-y,1/2+z
loop_
_atom_site_type_symbol
_atom_site_label
_atom_site_fract_x
_atom_site_fract_y
_atom_site_fract_z
Si Si1 0.428954 0.776021 0.845750
Si Si2 0.930167 0.561180 0.848299
Si Si3 0.070659 0.159147 0.969410
Si Si4 0.430976 0.937513 0.060866
Si Si5 0.071533 0.260405 0.707897
Si Si6 0.926009 0.726833 0.052894
Si Si7 0.427236 0.838370 0.432995
Si Si8 0.929851 0.384861 0.710163
O O1 0.250000 0.784478 0.832827
O O2 0.491445 0.827165 0.894704
O O3 0.519374 0.780475 0.771925
O O4 0.466382 0.714440 0.881003
O O5 0.750000 0.555605 0.846006
O O6 0.000000 0.500000 0.869679
O O7 0.976950 0.606732 0.908359
O O8 0.987133 0.580068 0.771394
O O9 0.250000 0.151266 0.957720
O O10 0.032523 0.209493 0.025230
O O11 0.998772 0.100639 0.998031
O O12 0.250000 0.939433 0.054224
O O13 0.482968 0.912053 0.136211
O O14 0.500000 0.000000 0.051612
O O15 0.250000 0.276428 0.713083
O O16 0.036253 0.225375 0.636072
O O17 0.973583 0.318247 0.711552
O O18 0.750000 0.712515 0.037053
O O19 0.027028 0.678856 0.013027
O O20 0.250000 0.854476 0.430509
O O21 0.750000 0.390299 0.722859
#
# Coordination Sequence:
#
# PCOD8192033 Si02
#       8
#     8   8   8   8   8   8   8   8
#     4  10  20  33  51  75 105 136 171 213 259 310
#     4  12  24  37  54  73 102 139 179 219 258 304
#     4  10  19  34  53  74 101 134 174 216 260 306
#     4  11  23  36  52  73 102 139 179 218 259 305
#     4  11  20  32  52  78 106 139 174 211 258 310
#     4   9  19  33  51  75 103 135 171 211 259 310
#     4  10  20  34  52  75 102 134 173 215 259 305
#     4  11  22  35  50  73 105 140 179 216 253 301
#
# _framework density 16.722705000000001
#
# number of rings (size 3 to 8) (size 9 to 14) (size 15 to 20)
#    0.000    1.500    2.500    3.750    0.000    5.000 
#    0.000    0.000    0.000    0.000    0.000    0.875 
#    0.000    6.000    0.000    0.000    0.000    0.000 
#
# Total GULP energy -396970.914850 kJ/mol
# GULP energy per Si atom -12405.341089 kJ/mol
# Density = 1.668464 g / cm^3
# Si number density = 16.722705 Si / 1000 Ang^3
#
#
#
# Elastic Constant Matrix: (Units=GPa)
#
#
# Indices 1 2 3 4 5 6 
#
# 1 77.8999 34.1655 41.4780 0.0000 0.0000 0.0000
# 2 34.1655 82.6033 51.8851 0.0000 0.0000 0.0000
# 3 41.4780 51.8851 115.3846 0.0000 0.0000 0.0000
# 4 0.0000 0.0000 0.0000 18.2512 0.0000 0.0000
# 5 0.0000 0.0000 0.0000 0.0000 29.8657 0.0000
# 6 0.0000 0.0000 0.0000 0.0000 0.0000 28.8128
#
#
#
# Elastic Compliance Matrix: (Units=1/GPa)
#
#
# Indices 1 2 3 4 5 6 
#
# 1 0.016970 -0.004442 -0.004103 0.000000 0.000000 0.000000
# 2 -0.004442 0.018034 -0.006513 0.000000 0.000000 0.000000
# 3 -0.004103 -0.006513 0.013070 0.000000 0.000000 0.000000
# 4 0.000000 0.000000 0.000000 0.054791 0.000000 0.000000
# 5 0.000000 0.000000 0.000000 0.000000 0.033483 0.000000
# 6 0.000000 0.000000 0.000000 0.000000 0.000000 0.034707
#
#
# Mechanical properties :
#
#
# Convention : Reuss Voigt Hill
#
# Bulk Modulus (GPa) = 55.68169 58.99390 57.33780
# Shear Modulus (GPa) = 24.13648 25.27655 24.70651
#
# Velocity S-wave (km/s) = 3.80325 3.89203 3.84790
# Velocity P-wave (km/s) = 7.25642 7.45329 7.35551
#
# Compressibility (1/GPa) = 0.01795922
#
# Stress axis : x y z
#
# Youngs Moduli (GPa) = 58.92886 55.45102 76.51050
#
# Poissons Ratio (x) = 0.24630 0.31391
# Poissons Ratio (y) = 0.26174 0.49829
# Poissons Ratio (z) = 0.24178 0.36113
#
# Static dielectric constant tensor:
#      x y z
#    x 3.246000 0.000000 0.000000 
#    y 0.000000 2.977060 0.000000 
#    z 0.000000 0.000000 3.272560 
# 
# 
# High freq. dielectric constant tensor:
#      x y z
#    x 1.662580 0.000000 0.000000 
#    y 0.000000 1.617890 0.000000 
#    z 0.000000 0.000000 1.641330 
# 
# From -- ./inp_files/18537.got.cif
#   From: 2010.03.12/outbox.cif.g09.slc.cpg/sg46_10_cif.got.tgz:18537.got - 2010.04.14 02:56:35.
