data_PCOD8192655
_publ_section_title
;
Structure prediction by ZEFSAII (Michael W. Deem and Ramdas Pophale) SiO2 
 PCOD8192655
Probable space group: I M A 2
;
_chemical_formula_sum "Si O2"
_cell_formula_units_Z 48
_cell_length_a 8.723628
_cell_length_b 15.243689
_cell_length_c 18.440438
_cell_angle_alpha 90.000000
_cell_angle_beta 90.000000
_cell_angle_gamma 90.000000
_cell_volume 2452.214464
_symmetry_space_group_name_H-M "I M A 2"
_symmetry_group_IT_number 46
_symmetry_cell_setting 'orthorhombic'
loop_
_space_group_symop_operation_xyz
x,y,z
-x,-y,z
1/2-x,y,z
1/2+x,-y,z
1/2+x,1/2+y,1/2+z
1/2-x,1/2-y,1/2+z
-x,1/2+y,1/2+z
x,1/2-y,1/2+z
loop_
_atom_site_type_symbol
_atom_site_label
_atom_site_fract_x
_atom_site_fract_y
_atom_site_fract_z
Si Si1 0.427804 0.745180 0.662960
Si Si2 0.574007 0.253337 0.829833
Si Si3 0.431844 0.093019 0.590027
Si Si4 0.429019 0.090343 0.902484
Si Si5 0.068316 0.092172 0.067776
Si Si6 0.568393 0.092304 0.435501
O O1 0.250000 0.757352 0.643364
O O2 0.452434 0.721198 0.746668
O O3 0.517015 0.835191 0.648097
O O4 0.497406 0.667944 0.615835
O O5 0.750000 0.231112 0.846389
O O6 0.476653 0.168544 0.850027
O O7 0.518819 0.336032 0.876706
O O8 0.250000 0.086520 0.586335
O O9 0.496111 0.121087 0.511775
O O10 0.500000 0.000000 0.614790
O O11 0.250000 0.078277 0.899205
O O12 0.500000 0.000000 0.873292
O O13 0.482602 0.109734 0.984821
O O14 0.250000 0.091338 0.077085
O O15 0.000000 0.000000 0.094914
O O16 0.750000 0.083662 0.444164
O O17 0.500000 0.000000 0.409183
#
# Coordination Sequence:
#
# PCOD8192655 Si02
#       6
#     8   8   8   8   8   8
#     4  11  23  39  57  82 116 153 188 229 279 334
#     4  10  23  39  56  81 115 151 187 226 277 333
#     4  11  22  38  60  86 112 145 188 234 281 333
#     4  10  21  37  60  85 111 144 185 231 279 329
#     4  10  21  38  60  87 114 147 189 233 279 331
#     4  10  20  37  60  85 112 146 185 231 279 328
#
# _framework density 19.574144
#
# number of rings (size 3 to 8) (size 9 to 14) (size 15 to 20)
#    0.000    1.667    0.000    5.500    0.000    8.667 
#    0.000    1.667    0.000    0.000    0.000    0.000 
#    0.000    0.000    0.000    0.000    0.000    0.000 
#
# Total GULP energy -297733.572790 kJ/mol
# GULP energy per Si atom -12405.565533 kJ/mol
# Density = 1.952959 g / cm^3
# Si number density = 19.574144 Si / 1000 Ang^3
#
#
#
# Elastic Constant Matrix: (Units=GPa)
#
#
# Indices 1 2 3 4 5 6 
#
# 1 97.9435 36.1094 22.0187 0.0000 0.0000 0.0000
# 2 36.1094 100.8037 27.5638 0.0000 0.0000 0.0000
# 3 22.0187 27.5638 45.4262 0.0000 0.0000 0.0000
# 4 0.0000 0.0000 0.0000 8.6871 0.0000 0.0000
# 5 0.0000 0.0000 0.0000 0.0000 29.2116 0.0000
# 6 0.0000 0.0000 0.0000 0.0000 0.0000 40.0736
#
#
#
# Elastic Compliance Matrix: (Units=1/GPa)
#
#
# Indices 1 2 3 4 5 6 
#
# 1 0.012328 -0.003336 -0.003952 0.000000 0.000000 0.000000
# 2 -0.003336 0.012796 -0.006148 0.000000 0.000000 0.000000
# 3 -0.003952 -0.006148 0.027659 0.000000 0.000000 0.000000
# 4 0.000000 0.000000 0.000000 0.115113 0.000000 0.000000
# 5 0.000000 0.000000 0.000000 0.000000 0.034233 0.000000
# 6 0.000000 0.000000 0.000000 0.000000 0.000000 0.024954
#
#
# Mechanical properties :
#
#
# Convention : Reuss Voigt Hill
#
# Bulk Modulus (GPa) = 38.58932 46.17305 42.38119
# Shear Modulus (GPa) = 19.04100 26.15990 22.60045
#
# Velocity S-wave (km/s) = 3.12230 3.65972 3.40164
# Velocity P-wave (km/s) = 5.72325 6.44190 6.09318
#
# Compressibility (1/GPa) = 0.02591391
#
# Stress axis : x y z
#
# Youngs Moduli (GPa) = 81.11567 78.14854 36.15401
#
# Poissons Ratio (x) = 0.26067 0.14287
# Poissons Ratio (y) = 0.27057 0.22226
# Poissons Ratio (z) = 0.32054 0.48043
#
# Static dielectric constant tensor:
#      x y z
#    x 3.678200 0.000000 0.000000 
#    y 0.000000 3.704820 0.000000 
#    z 0.000000 0.000000 3.550660 
# 
# 
# High freq. dielectric constant tensor:
#      x y z
#    x 1.776210 0.000000 0.000000 
#    y 0.000000 1.774960 0.000000 
#    z 0.000000 0.000000 1.756000 
# 
# From -- ./inp_files/18167.got.cif
#   From: 2010.03.12/outbox.cif.g09.slc.cpg/sg46_10_cif.got.tgz:18167.got - 2010.04.14 02:56:35.
