data_PCOD8192255
_publ_section_title
;
Structure prediction by ZEFSAII (Michael W. Deem and Ramdas Pophale) SiO2 
 PCOD8192255
Probable space group: I M A 2
;
_chemical_formula_sum "Si O2"
_cell_formula_units_Z 48
_cell_length_a 15.664377
_cell_length_b 7.928357
_cell_length_c 19.732497
_cell_angle_alpha 90.000000
_cell_angle_beta 90.000000
_cell_angle_gamma 90.000000
_cell_volume 2450.633521
_symmetry_space_group_name_H-M "I M A 2"
_symmetry_group_IT_number 46
_symmetry_cell_setting 'orthorhombic'
loop_
_space_group_symop_operation_xyz
x,y,z
-x,-y,z
1/2-x,y,z
1/2+x,-y,z
1/2+x,1/2+y,1/2+z
1/2-x,1/2-y,1/2+z
-x,1/2+y,1/2+z
x,1/2-y,1/2+z
loop_
_atom_site_type_symbol
_atom_site_label
_atom_site_fract_x
_atom_site_fract_y
_atom_site_fract_z
Si Si1 0.580825 0.614112 0.310550
Si Si2 0.750000 0.529880 0.383821
Si Si3 0.250000 0.110489 0.453877
Si Si4 0.250000 0.901502 0.021843
Si Si5 0.082900 0.386164 0.545598
Si Si6 0.750000 0.459317 0.092181
Si Si7 0.573571 0.629394 0.921913
Si Si8 0.585771 0.900507 0.653615
O O1 0.500000 0.500000 0.327251
O O2 0.666188 0.521675 0.337062
O O3 0.564070 0.792458 0.347387
O O4 0.589610 0.653052 0.231689
O O5 0.750000 0.695877 0.430421
O O6 0.750000 0.379712 0.439446
O O7 0.163286 0.025363 0.425447
O O8 0.250000 0.107767 0.535653
O O9 0.250000 0.717182 0.053864
O O10 0.334495 0.996495 0.046214
O O11 0.076459 0.277966 0.477017
O O12 0.088904 0.269350 0.611155
O O13 0.000000 0.500000 0.551576
O O14 0.834183 0.477894 0.137905
O O15 0.500000 0.500000 0.939778
O O16 0.500000 0.000000 0.635467
#
# Coordination Sequence:
#
# PCOD8192255 Si02
#       8
#     8   4   4   4   8   4   8   8
#     4  10  22  40  63  86 124 166 206 250 313 375
#     4  10  19  39  59  88 117 165 199 251 311 368
#     4  10  20  38  59  85 127 155 199 254 312 353
#     4  12  24  37  63  93 127 153 213 263 307 365
#     4  12  23  39  62  92 126 164 205 262 313 367
#     4  12  23  38  63  94 119 167 205 258 308 370
#     4  11  22  38  64  91 125 162 212 256 315 374
#     4  11  23  42  62  90 126 168 206 254 311 373
#
# _framework density 19.586773000000001
#
# number of rings (size 3 to 8) (size 9 to 14) (size 15 to 20)
#    0.000    1.000    5.000    3.000    2.333    0.667 
#    0.000    0.000    0.000    4.000    0.000    0.000 
#    0.000    0.000    0.000    0.000    0.000    0.000 
#
# Total GULP energy -297601.918440 kJ/mol
# GULP energy per Si atom -12400.079935 kJ/mol
# Density = 1.954219 g / cm^3
# Si number density = 19.586773 Si / 1000 Ang^3
#
#
#
# Elastic Constant Matrix: (Units=GPa)
#
#
# Indices 1 2 3 4 5 6 
#
# 1 195.4676 56.6226 50.0846 0.0000 0.0000 0.0000
# 2 56.6226 69.8503 36.9289 0.0000 0.0000 0.0000
# 3 50.0846 36.9289 105.6452 0.0000 0.0000 0.0000
# 4 0.0000 0.0000 0.0000 25.4048 0.0000 0.0000
# 5 0.0000 0.0000 0.0000 0.0000 37.7793 0.0000
# 6 0.0000 0.0000 0.0000 0.0000 0.0000 31.7281
#
#
#
# Elastic Compliance Matrix: (Units=1/GPa)
#
#
# Indices 1 2 3 4 5 6 
#
# 1 0.006904 -0.004742 -0.001615 0.000000 0.000000 0.000000
# 2 -0.004742 0.020819 -0.005029 0.000000 0.000000 0.000000
# 3 -0.001615 -0.005029 0.011989 0.000000 0.000000 0.000000
# 4 0.000000 0.000000 0.000000 0.039363 0.000000 0.000000
# 5 0.000000 0.000000 0.000000 0.000000 0.026470 0.000000
# 6 0.000000 0.000000 0.000000 0.000000 0.000000 0.031518
#
#
# Mechanical properties :
#
#
# Convention : Reuss Voigt Hill
#
# Bulk Modulus (GPa) = 59.03581 73.13725 66.08653
# Shear Modulus (GPa) = 30.21476 34.13760 32.17618
#
# Velocity S-wave (km/s) = 3.93187 4.17932 4.05748
# Velocity P-wave (km/s) = 7.12874 7.79167 7.46756
#
# Compressibility (1/GPa) = 0.01693887
#
# Stress axis : x y z
#
# Youngs Moduli (GPa) = 144.85377 48.03198 83.40702
#
# Poissons Ratio (x) = 0.22778 0.13472
# Poissons Ratio (y) = 0.68694 0.41948
# Poissons Ratio (z) = 0.23396 0.24157
#
# Static dielectric constant tensor:
#      x y z
#    x 4.294210 0.000000 0.000000 
#    y 0.000000 3.325850 0.000000 
#    z 0.000000 0.000000 3.643190 
# 
# 
# High freq. dielectric constant tensor:
#      x y z
#    x 1.797690 0.000000 0.000000 
#    y 0.000000 1.740910 0.000000 
#    z 0.000000 0.000000 1.764550 
# 
# From -- ./inp_files/19467.got.cif
#   From: 2010.03.12/outbox.cif.g09.slc.cpg/sg46_10_cif.got.tgz:19467.got - 2010.04.14 02:56:35.
