data_PCOD8192717
_publ_section_title
;
Structure prediction by ZEFSAII (Michael W. Deem and Ramdas Pophale) SiO2 
 PCOD8192717
Probable space group: I M A 2
;
_chemical_formula_sum "Si O2"
_cell_formula_units_Z 64
_cell_length_a 8.823433
_cell_length_b 29.650391
_cell_length_c 12.609424
_cell_angle_alpha 90.000000
_cell_angle_beta 90.000000
_cell_angle_gamma 90.000000
_cell_volume 3298.855294
_symmetry_space_group_name_H-M "I M A 2"
_symmetry_group_IT_number 46
_symmetry_cell_setting 'orthorhombic'
loop_
_space_group_symop_operation_xyz
x,y,z
-x,-y,z
1/2-x,y,z
1/2+x,-y,z
1/2+x,1/2+y,1/2+z
1/2-x,1/2-y,1/2+z
-x,1/2+y,1/2+z
x,1/2-y,1/2+z
loop_
_atom_site_type_symbol
_atom_site_label
_atom_site_fract_x
_atom_site_fract_y
_atom_site_fract_z
Si Si1 0.429321 0.451975 0.362910
Si Si2 0.075954 0.144718 0.229801
Si Si3 0.918745 0.794271 0.905443
Si Si4 0.572249 0.376926 0.511242
Si Si5 0.572041 0.874560 0.465382
Si Si6 0.423910 0.783316 0.509095
Si Si7 0.072357 0.452874 0.122803
Si Si8 0.081054 0.247492 0.200605
O O1 0.500000 0.500000 0.392534
O O2 0.250000 0.455005 0.374222
O O3 0.489008 0.415954 0.446822
O O4 0.476633 0.437969 0.242387
O O5 0.250000 0.135317 0.201272
O O6 0.031823 0.119850 0.340392
O O7 0.044860 0.197935 0.247993
O O8 0.977761 0.124004 0.134012
O O9 0.750000 0.805335 0.948911
O O10 0.918560 0.790839 0.778768
O O11 0.034720 0.829654 0.954471
O O12 0.969240 0.743235 0.928504
O O13 0.750000 0.385409 0.505842
O O14 0.750000 0.864719 0.479444
O O15 0.477516 0.834383 0.516931
O O16 0.519437 0.917688 0.533240
O O17 0.250000 0.780510 0.474134
O O18 0.446834 0.757875 0.620089
O O19 0.250000 0.459482 0.119700
O O20 0.000000 0.500000 0.090804
O O21 0.250000 0.245476 0.148085
#
# Coordination Sequence:
#
# PCOD8192717 Si02
#       8
#     8   8   8   8   8   8   8   8
#     4  10  21  41  66  93 120 153 191 237 297 356
#     4  10  20  38  61  82 113 161 207 244 286 345
#     4  11  22  39  59  80 111 157 205 245 288 348
#     4  12  25  39  58  89 123 156 197 247 299 355
#     4  10  21  40  62  86 115 157 204 241 288 355
#     4  12  24  35  53  84 119 154 192 245 298 347
#     4   9  20  39  66  93 119 149 186 236 294 352
#     4  10  21  37  57  77 108 157 204 245 289 344
#
# _framework density 19.400669000000001
#
# number of rings (size 3 to 8) (size 9 to 14) (size 15 to 20)
#    0.000    1.500    2.500    3.000    1.750    2.500 
#    0.000    0.625    0.000    1.500    0.000    0.000 
#    0.000    0.000    0.000    0.000    0.000    0.000 
#
# Total GULP energy -396666.516205 kJ/mol
# GULP energy per Si atom -12395.828631 kJ/mol
# Density = 1.935651 g / cm^3
# Si number density = 19.400669 Si / 1000 Ang^3
#
#
#
# Elastic Constant Matrix: (Units=GPa)
#
#
# Indices 1 2 3 4 5 6 
#
# 1 73.5329 34.4830 32.3163 -0.0007 0.0008 0.0001
# 2 34.4830 108.5138 58.8608 -0.0008 0.0007 0.0000
# 3 32.3163 58.8608 109.2432 -0.0011 0.0034 0.0003
# 4 -0.0007 -0.0008 -0.0011 33.5770 0.0006 0.0000
# 5 0.0008 0.0007 0.0034 0.0006 -0.3899 -0.0003
# 6 0.0001 0.0000 0.0003 0.0000 -0.0003 31.5223
#
#
#
# Elastic Compliance Matrix: (Units=1/GPa)
#
#
# Indices 1 2 3 4 5 6 
#
# 1 0.016617 -0.003694 -0.002926 0.000000 0.000003 0.000000
# 2 -0.003694 0.013842 -0.006365 0.000000 -0.000039 0.000000
# 3 -0.002926 -0.006365 0.013449 0.000000 0.000099 0.000000
# 4 0.000000 0.000000 0.000000 0.029782 0.000044 0.000000
# 5 0.000003 -0.000039 0.000099 0.000044 -2.564585 -0.000021
# 6 0.000000 0.000000 0.000000 0.000000 -0.000021 0.031724
#
#
# Mechanical properties :
#
#
# Convention : Reuss Voigt Hill
#
# Bulk Modulus (GPa) = 55.74471 60.29000 58.01736
# Shear Modulus (GPa) = -2.05997 23.98385 10.96194
#
# Velocity S-wave (km/s) = -1.03156 3.51983 2.37961
# Velocity P-wave (km/s) = 5.23230 6.90382 6.12534
#
# Compressibility (1/GPa) = 0.01793892
#
# Stress axis : x y z
#
# Youngs Moduli (GPa) = 60.17869 72.24403 74.35458
#
# Poissons Ratio (x) = 0.26684 0.21753
# Poissons Ratio (y) = 0.22228 0.47330
# Poissons Ratio (z) = 0.17605 0.45987
#
# Static dielectric constant tensor:
#      x y z
#    x 3.451600 0.000000 0.000000 
#    y 0.000000 3.451380 0.000000 
#    z 0.000000 0.000000 3.694280 
# 
# 
# High freq. dielectric constant tensor:
#      x y z
#    x 1.751470 0.000000 0.000000 
#    y 0.000000 1.740450 0.000000 
#    z 0.000000 0.000000 1.764310 
# 
# From -- ./inp_files/9718.got.cif
#   From: 2010.03.12/outbox.cif.g09.slc.cpg/sg46_5_cif.got.tgz:9718.got - 2010.04.14 02:56:35.
