data_PCOD8192172
_publ_section_title
;
Structure prediction by ZEFSAII (Michael W. Deem and Ramdas Pophale) SiO2 
 PCOD8192172
Probable space group: I M A 2
;
_chemical_formula_sum "Si O2"
_cell_formula_units_Z 56
_cell_length_a 13.534038
_cell_length_b 11.951099
_cell_length_c 15.273493
_cell_angle_alpha 90.000000
_cell_angle_beta 90.000000
_cell_angle_gamma 90.000000
_cell_volume 2470.435991
_symmetry_space_group_name_H-M "I M A 2"
_symmetry_group_IT_number 46
_symmetry_cell_setting 'orthorhombic'
loop_
_space_group_symop_operation_xyz
x,y,z
-x,-y,z
1/2-x,y,z
1/2+x,-y,z
1/2+x,1/2+y,1/2+z
1/2-x,1/2-y,1/2+z
-x,1/2+y,1/2+z
x,1/2-y,1/2+z
loop_
_atom_site_type_symbol
_atom_site_label
_atom_site_fract_x
_atom_site_fract_y
_atom_site_fract_z
Si Si1 0.864460 0.623853 0.442970
Si Si2 0.634315 0.606001 0.759626
Si Si3 0.451320 0.353780 0.942122
Si Si4 0.134963 0.360315 0.251626
Si Si5 0.862047 0.508183 0.089451
Si Si6 0.866158 0.031427 0.094109
Si Si7 0.361695 0.772196 0.528202
O O1 0.750000 0.594366 0.438830
O O2 0.876847 0.753848 0.467848
O O3 0.913624 0.609406 0.346136
O O4 0.913933 0.542158 0.515125
O O5 0.750000 0.586065 0.782592
O O6 0.568488 0.593071 0.846907
O O7 0.617866 0.731597 0.723815
O O8 0.594894 0.517553 0.686820
O O9 0.430038 0.454024 0.008955
O O10 0.562972 0.302958 0.949453
O O11 0.250000 0.386131 0.260402
O O12 0.089592 0.439564 0.176859
O O13 0.750000 0.550816 0.075455
O O14 0.864419 0.373652 0.097721
O O15 0.750000 0.014094 0.094421
O O16 0.895465 0.160805 0.080166
O O17 0.250000 0.757417 0.489654
#
# Coordination Sequence:
#
# PCOD8192172 Si02
#       7
#     8   8   8   8   8   8   8
#     4   9  17  32  61  96 123 152 198 262 325 376
#     4   9  17  32  61 101 128 148 196 264 329 385
#     4  11  20  34  62  92 124 155 206 266 324 367
#     4   8  15  29  55  92 121 145 188 249 319 374
#     4  10  19  35  61  87 119 159 202 259 315 372
#     4   9  18  36  61  89 128 169 205 253 316 388
#     4  10  23  40  59  84 122 175 221 248 301 388
#
# _framework density 22.668064000000001
#
# number of rings (size 3 to 8) (size 9 to 14) (size 15 to 20)
#    0.000    2.571    0.000    3.429    0.000    2.857 
#    0.000    1.429   34.571    6.857    0.000    1.000 
#    0.000    0.000    0.000    0.000    0.000    0.000 
#
# Total GULP energy -347004.395337 kJ/mol
# GULP energy per Si atom -12393.014119 kJ/mol
# Density = 2.261647 g / cm^3
# Si number density = 22.668064 Si / 1000 Ang^3
#
#
#
# Elastic Constant Matrix: (Units=GPa)
#
#
# Indices 1 2 3 4 5 6 
#
# 1 77.7136 27.9771 44.5721 0.0000 0.0000 0.0000
# 2 27.9771 156.9807 98.5427 0.0000 0.0000 0.0000
# 3 44.5721 98.5427 169.2865 0.0000 0.0000 0.0000
# 4 0.0000 0.0000 0.0000 -156.9878 0.0000 0.0000
# 5 0.0000 0.0000 0.0000 0.0000 -8.1774 0.0000
# 6 0.0000 0.0000 0.0000 0.0000 0.0000 22.5401
#
#
#
# Elastic Compliance Matrix: (Units=1/GPa)
#
#
# Indices 1 2 3 4 5 6 
#
# 1 0.015166 -0.000309 -0.003813 0.000000 0.000000 0.000000
# 2 -0.000309 0.010045 -0.005766 0.000000 0.000000 0.000000
# 3 -0.003813 -0.005766 0.010267 0.000000 0.000000 0.000000
# 4 0.000000 0.000000 0.000000 -0.006370 0.000000 0.000000
# 5 0.000000 0.000000 0.000000 0.000000 -0.122289 0.000000
# 6 0.000000 0.000000 0.000000 0.000000 0.000000 0.044365
#
#
# Mechanical properties :
#
#
# Convention : Reuss Voigt Hill
#
# Bulk Modulus (GPa) = 63.68598 82.90717 73.29658
# Shear Modulus (GPa) = -210.03846 -12.99910 -111.51878
#
# Velocity S-wave (km/s) = -9.63636 -2.39729 -7.02163
# Velocity P-wave (km/s) = 9.78042 5.38435 5.77345
#
# Compressibility (1/GPa) = 0.01570204
#
# Stress axis : x y z
#
# Youngs Moduli (GPa) = 65.93656 99.55585 97.39650
#
# Poissons Ratio (x) = 0.03079 0.37138
# Poissons Ratio (y) = 0.02039 0.56155
# Poissons Ratio (z) = 0.25142 0.57400
#
# Static dielectric constant tensor:
#      x y z
#    x 3.953150 0.000000 0.000000 
#    y 0.000000 4.144160 0.000000 
#    z 0.000000 0.000000 4.322110 
# 
# 
# High freq. dielectric constant tensor:
#      x y z
#    x 1.888860 0.000000 0.000000 
#    y 0.000000 1.897690 0.000000 
#    z 0.000000 0.000000 1.875690 
# 
# From -- ./inp_files/15983.got.cif
#   From: 2010.03.12/outbox.cif.g09.slc.cpg/sg46_8_cif.got.tgz:15983.got - 2010.04.14 02:56:35.
