data_PCOD8192899
_publ_section_title
;
Structure prediction by ZEFSAII (Michael W. Deem and Ramdas Pophale) SiO2 
 PCOD8192899
Probable space group: I M A 2
;
_chemical_formula_sum "Si O2"
_cell_formula_units_Z 60
_cell_length_a 24.146067
_cell_length_b 7.266933
_cell_length_c 16.950308
_cell_angle_alpha 90.000000
_cell_angle_beta 90.000000
_cell_angle_gamma 90.000000
_cell_volume 2974.234120
_symmetry_space_group_name_H-M "I M A 2"
_symmetry_group_IT_number 46
_symmetry_cell_setting 'orthorhombic'
loop_
_space_group_symop_operation_xyz
x,y,z
-x,-y,z
1/2-x,y,z
1/2+x,-y,z
1/2+x,1/2+y,1/2+z
1/2-x,1/2-y,1/2+z
-x,1/2+y,1/2+z
x,1/2-y,1/2+z
loop_
_atom_site_type_symbol
_atom_site_label
_atom_site_fract_x
_atom_site_fract_y
_atom_site_fract_z
Si Si1 0.000000 0.000000 0.568401
Si Si2 0.964495 0.665493 0.468783
Si Si3 0.111137 0.412930 0.159619
Si Si4 0.687573 0.053688 0.911460
Si Si5 0.387353 0.225585 0.829803
Si Si6 0.686889 0.238153 0.174752
Si Si7 0.138025 0.067069 0.066689
Si Si8 0.311082 0.925131 0.345777
O O1 0.000674 0.819548 0.513251
O O2 0.944575 0.996720 0.621423
O O3 0.937204 0.753476 0.391100
O O4 0.923152 0.563614 0.529590
O O5 0.000000 0.500000 0.434307
O O6 0.092935 0.307186 0.240094
O O7 0.157160 0.566784 0.170554
O O8 0.143897 0.268078 0.104872
O O9 0.750000 0.030661 0.881081
O O10 0.672078 0.272555 0.912169
O O11 0.648316 0.952809 0.849899
O O12 0.682530 0.963211 0.997521
O O13 0.353358 0.410469 0.841833
O O14 0.750000 0.247203 0.140117
O O15 0.689877 0.184474 0.264894
O O16 0.648207 0.091185 0.130300
O O17 0.250000 0.006331 0.364244
#
# Coordination Sequence:
#
# PCOD8192899 Si02
#       8
#     4   8   8   8   8   8   8   8
#     4  10  24  46  66  90 126 166 210 266 320 372
#     4  10  23  42  65  88 120 162 204 260 319 373
#     4  11  23  41  65  95 128 164 212 263 316 371
#     4  10  21  38  59  89 126 168 206 247 299 364
#     4  11  22  38  63  93 124 160 210 255 310 373
#     4  11  22  37  62  94 128 167 207 253 308 372
#     4  10  22  40  62  89 126 160 203 256 310 373
#     4  10  21  37  59  90 131 169 203 248 304 369
#
# _framework density 20.173261
#
# number of rings (size 3 to 8) (size 9 to 14) (size 15 to 20)
#    0.000    1.600    2.667    1.600    0.933    6.933 
#    0.000    0.000    1.467    0.000    0.000    0.000 
#    0.000    0.000    0.000    0.000    0.000    0.000 
#
# Total GULP energy -371884.914170 kJ/mol
# GULP energy per Si atom -12396.163806 kJ/mol
# Density = 2.012735 g / cm^3
# Si number density = 20.173261 Si / 1000 Ang^3
#
#
#
# Elastic Constant Matrix: (Units=GPa)
#
#
# Indices 1 2 3 4 5 6 
#
# 1 89.1576 69.5625 51.9806 0.0000 0.0000 0.0000
# 2 69.5625 129.2689 53.3765 0.0000 0.0000 0.0000
# 3 51.9806 53.3765 94.6301 0.0000 0.0000 0.0000
# 4 0.0000 0.0000 0.0000 34.6739 0.0000 0.0000
# 5 0.0000 0.0000 0.0000 0.0000 35.7708 0.0000
# 6 0.0000 0.0000 0.0000 0.0000 0.0000 38.4300
#
#
#
# Elastic Compliance Matrix: (Units=1/GPa)
#
#
# Indices 1 2 3 4 5 6 
#
# 1 0.022587 -0.009167 -0.007237 0.000000 0.000000 0.000000
# 2 -0.009167 0.013805 -0.002751 0.000000 0.000000 0.000000
# 3 -0.007237 -0.002751 0.016095 0.000000 0.000000 0.000000
# 4 0.000000 0.000000 0.000000 0.028840 0.000000 0.000000
# 5 0.000000 0.000000 0.000000 0.000000 0.027956 0.000000
# 6 0.000000 0.000000 0.000000 0.000000 0.000000 0.026021
#
#
# Mechanical properties :
#
#
# Convention : Reuss Voigt Hill
#
# Bulk Modulus (GPa) = 70.53666 73.65508 72.09587
# Shear Modulus (GPa) = 28.03655 30.98407 29.51031
#
# Velocity S-wave (km/s) = 3.73203 3.92330 3.82886
# Velocity P-wave (km/s) = 7.32203 7.55735 7.44062
#
# Compressibility (1/GPa) = 0.01417702
#
# Stress axis : x y z
#
# Youngs Moduli (GPa) = 44.27281 72.43968 62.13275
#
# Poissons Ratio (x) = 0.66402 0.44964
# Poissons Ratio (y) = 0.40583 0.17095
# Poissons Ratio (z) = 0.32039 0.19930
#
# Static dielectric constant tensor:
#      x y z
#    x 3.636860 0.000000 0.000000 
#    y 0.000000 3.737390 0.000000 
#    z 0.000000 0.000000 3.847050 
# 
# 
# High freq. dielectric constant tensor:
#      x y z
#    x 1.780410 0.000000 0.000000 
#    y 0.000000 1.798670 0.000000 
#    z 0.000000 0.000000 1.793570 
# 
# From -- ./inp_files/20490.got.cif
#   From: 2010.03.12/outbox.cif.g09.slc.cpg/sg46_11_cif.got.tgz:20490.got - 2010.04.14 02:56:35.
