data_PCOD8192888
_publ_section_title
;
Structure prediction by ZEFSAII (Michael W. Deem and Ramdas Pophale) SiO2 
 PCOD8192888
Probable space group: I M A 2
;
_chemical_formula_sum "Si O2"
_cell_formula_units_Z 64
_cell_length_a 29.919393
_cell_length_b 9.477701
_cell_length_c 10.726188
_cell_angle_alpha 90.000000
_cell_angle_beta 90.000000
_cell_angle_gamma 90.000000
_cell_volume 3041.593606
_symmetry_space_group_name_H-M "I M A 2"
_symmetry_group_IT_number 46
_symmetry_cell_setting 'orthorhombic'
loop_
_space_group_symop_operation_xyz
x,y,z
-x,-y,z
1/2-x,y,z
1/2+x,-y,z
1/2+x,1/2+y,1/2+z
1/2-x,1/2-y,1/2+z
-x,1/2+y,1/2+z
x,1/2-y,1/2+z
loop_
_atom_site_type_symbol
_atom_site_label
_atom_site_fract_x
_atom_site_fract_y
_atom_site_fract_z
Si Si1 0.699147 0.933291 0.983050
Si Si2 0.300936 0.855106 0.208054
Si Si3 0.645042 0.783283 0.621678
Si Si4 0.627778 0.955909 0.293049
Si Si5 0.457027 0.600646 0.703525
Si Si6 0.971628 0.195774 0.475956
Si Si7 0.698561 0.035957 0.711006
Si Si8 0.065642 0.097964 0.516546
O O1 0.750000 0.874906 0.986488
O O2 0.687110 0.005067 0.853607
O O3 0.664631 0.804884 0.004482
O O4 0.693068 0.057967 0.082059
O O5 0.250000 0.858966 0.259471
O O6 0.315945 0.695388 0.180349
O O7 0.334482 0.922847 0.310066
O O8 0.652465 0.682979 0.740544
O O9 0.591469 0.819192 0.625729
O O10 0.671264 0.929707 0.625322
O O11 0.607134 0.915184 0.423397
O O12 0.588129 0.009322 0.200666
O O13 0.500000 0.500000 0.719674
O O14 0.457668 0.678440 0.569237
O O15 0.455111 0.700968 0.830255
O O16 0.025385 0.194794 0.468086
O O17 0.953010 0.057093 0.546855
O O18 0.750000 0.011146 0.680111
#
# Coordination Sequence:
#
# PCOD8192888 Si02
#       8
#     8   8   8   8   8   8   8   8
#     4   9  19  38  57  81 120 156 196 248 305 355
#     4   9  20  38  59  85 119 161 206 254 304 369
#     4  11  21  35  59  89 117 155 205 248 306 368
#     4  10  21  39  62  87 126 164 206 259 312 376
#     4  11  21  44  65  93 125 165 206 262 316 377
#     4  10  22  42  65  87 126 163 200 257 315 373
#     4  10  21  37  58  86 119 159 204 255 306 364
#     4  10  21  39  59  87 122 158 196 256 311 367
#
# _framework density 21.041601
#
# number of rings (size 3 to 8) (size 9 to 14) (size 15 to 20)
#    0.000    2.000    2.500    1.875    1.750    1.500 
#    9.000    3.750    0.000    0.000    0.000    0.000 
#    0.000    0.000    0.000    0.000    0.000    0.000 
#
# Total GULP energy -396523.597080 kJ/mol
# GULP energy per Si atom -12391.362409 kJ/mol
# Density = 2.099371 g / cm^3
# Si number density = 21.041601 Si / 1000 Ang^3
#
#
#
# Elastic Constant Matrix: (Units=GPa)
#
#
# Indices 1 2 3 4 5 6 
#
# 1 86.6651 43.1220 2.6543 0.0000 0.0000 0.0000
# 2 43.1220 100.2589 18.7957 0.0000 0.0000 0.0000
# 3 2.6543 18.7957 58.0378 0.0000 0.0000 0.0000
# 4 0.0000 0.0000 0.0000 22.7680 0.0000 0.0000
# 5 0.0000 0.0000 0.0000 0.0000 33.2111 0.0000
# 6 0.0000 0.0000 0.0000 0.0000 0.0000 36.1738
#
#
#
# Elastic Compliance Matrix: (Units=1/GPa)
#
#
# Indices 1 2 3 4 5 6 
#
# 1 0.014798 -0.006641 0.001474 0.000000 0.000000 0.000000
# 2 -0.006641 0.013599 -0.004100 0.000000 0.000000 0.000000
# 3 0.001474 -0.004100 0.018491 0.000000 0.000000 0.000000
# 4 0.000000 0.000000 0.000000 0.043921 0.000000 0.000000
# 5 0.000000 0.000000 0.000000 0.000000 0.030110 0.000000
# 6 0.000000 0.000000 0.000000 0.000000 0.000000 0.027644
#
#
# Mechanical properties :
#
#
# Convention : Reuss Voigt Hill
#
# Bulk Modulus (GPa) = 35.26986 41.56733 38.41859
# Shear Modulus (GPa) = 28.32064 30.45657 29.38860
#
# Velocity S-wave (km/s) = 3.67268 3.80866 3.74129
# Velocity P-wave (km/s) = 5.89772 6.25611 6.07956
#
# Compressibility (1/GPa) = 0.02835282
#
# Stress axis : x y z
#
# Youngs Moduli (GPa) = 67.57720 73.53355 54.08128
#
# Poissons Ratio (x) = 0.48834 -0.07971
# Poissons Ratio (y) = 0.44878 0.22176
# Poissons Ratio (z) = -0.09961 0.30152
#
# Static dielectric constant tensor:
#      x y z
#    x 4.048730 0.000000 0.000000 
#    y 0.000000 3.869390 0.000000 
#    z 0.000000 0.000000 3.572880 
# 
# 
# High freq. dielectric constant tensor:
#      x y z
#    x 1.836730 0.000000 0.000000 
#    y 0.000000 1.822610 0.000000 
#    z 0.000000 0.000000 1.803830 
# 
# From -- ./inp_files/13193.got.cif
#   From: 2010.03.12/outbox.cif.g09.slc.cpg/sg46_7_cif.got.tgz:13193.got - 2010.04.14 02:56:35.
