data_PCOD8192123
_publ_section_title
;
Structure prediction by ZEFSAII (Michael W. Deem and Ramdas Pophale) SiO2 
 PCOD8192123
Probable space group: I M A 2
;
_chemical_formula_sum "Si O2"
_cell_formula_units_Z 48
_cell_length_a 18.476131
_cell_length_b 16.663531
_cell_length_c 8.697846
_cell_angle_alpha 90.000000
_cell_angle_beta 90.000000
_cell_angle_gamma 90.000000
_cell_volume 2677.871792
_symmetry_space_group_name_H-M "I M A 2"
_symmetry_group_IT_number 46
_symmetry_cell_setting 'orthorhombic'
loop_
_space_group_symop_operation_xyz
x,y,z
-x,-y,z
1/2-x,y,z
1/2+x,-y,z
1/2+x,1/2+y,1/2+z
1/2-x,1/2-y,1/2+z
-x,1/2+y,1/2+z
x,1/2-y,1/2+z
loop_
_atom_site_type_symbol
_atom_site_label
_atom_site_fract_x
_atom_site_fract_y
_atom_site_fract_z
Si Si1 0.460290 0.078539 0.841490
Si Si2 0.170424 0.859327 0.873579
Si Si3 0.933697 0.444165 0.948989
Si Si4 0.445914 0.799819 0.672904
Si Si5 0.951351 0.118586 0.114038
Si Si6 0.829349 0.516481 0.176766
O O1 0.493268 0.160371 0.778318
O O2 0.500000 0.000000 0.769081
O O3 0.376856 0.075180 0.787424
O O4 0.478948 0.079711 0.024791
O O5 0.250000 0.826838 0.924402
O O6 0.128606 0.792600 0.771771
O O7 0.180216 0.934883 0.766477
O O8 0.123046 0.886576 0.018514
O O9 0.934254 0.431313 0.766693
O O10 0.000000 0.500000 0.998138
O O11 0.936734 0.354989 0.022053
O O12 0.864526 0.494853 0.010916
O O13 0.472421 0.711300 0.635792
O O14 0.750000 0.555986 0.149667
#
# Coordination Sequence:
#
# PCOD8192123 Si02
#       6
#     8   8   8   8   8   8
#     4  11  17  38  57  75 104 144 188 223 261 327
#     4   9  19  34  51  74 112 150 178 207 263 336
#     4  11  19  33  54  81 108 137 182 234 272 310
#     4  10  19  35  52  78 108 143 183 217 270 328
#     4  11  22  30  55  84 112 139 182 233 273 313
#     4  10  19  35  58  77 101 145 188 222 268 327
#
# _framework density 17.924683000000002
#
# number of rings (size 3 to 8) (size 9 to 14) (size 15 to 20)
#    0.000    1.667    6.667    2.500    0.000    1.333 
#    0.000    3.333    0.000    1.000    0.000    0.000 
#    0.000    0.000    0.000    0.000    0.000    0.000 
#
# Total GULP energy -297329.475315 kJ/mol
# GULP energy per Si atom -12388.728138 kJ/mol
# Density = 1.788389 g / cm^3
# Si number density = 17.924683 Si / 1000 Ang^3
#
#
#
# Elastic Constant Matrix: (Units=GPa)
#
#
# Indices 1 2 3 4 5 6 
#
# 1 134.3059 41.5649 56.4540 0.0000 0.0000 0.0000
# 2 41.5649 49.9941 19.8067 0.0000 0.0000 0.0000
# 3 56.4540 19.8067 129.6222 0.0000 0.0000 0.0000
# 4 0.0000 0.0000 0.0000 20.0248 0.0000 0.0000
# 5 0.0000 0.0000 0.0000 0.0000 6.5389 0.0000
# 6 0.0000 0.0000 0.0000 0.0000 0.0000 59.1994
#
#
#
# Elastic Compliance Matrix: (Units=1/GPa)
#
#
# Indices 1 2 3 4 5 6 
#
# 1 0.011545 -0.008096 -0.003791 0.000000 0.000000 0.000000
# 2 -0.008096 0.026969 -0.000595 0.000000 0.000000 0.000000
# 3 -0.003791 -0.000595 0.009457 0.000000 0.000000 0.000000
# 4 0.000000 0.000000 0.000000 0.049938 0.000000 0.000000
# 5 0.000000 0.000000 0.000000 0.000000 0.152932 0.000000
# 6 0.000000 0.000000 0.000000 0.000000 0.000000 0.016892
#
#
# Mechanical properties :
#
#
# Convention : Reuss Voigt Hill
#
# Bulk Modulus (GPa) = 43.46592 61.06371 52.26482
# Shear Modulus (GPa) = 16.64638 30.22573 23.43605
#
# Velocity S-wave (km/s) = 3.05074 4.11087 3.61982
# Velocity P-wave (km/s) = 6.05898 7.52815 6.83317
#
# Compressibility (1/GPa) = 0.02300653
#
# Stress axis : x y z
#
# Youngs Moduli (GPa) = 86.61872 37.07916 105.74551
#
# Poissons Ratio (x) = 0.30021 0.40087
# Poissons Ratio (y) = 0.70130 0.06290
# Poissons Ratio (z) = 0.32837 0.02205
#
# Static dielectric constant tensor:
#      x y z
#    x 4.427660 0.000000 0.000000 
#    y 0.000000 3.131540 0.000000 
#    z 0.000000 0.000000 3.510400 
# 
# 
# High freq. dielectric constant tensor:
#      x y z
#    x 1.673990 0.000000 0.000000 
#    y 0.000000 1.673540 0.000000 
#    z 0.000000 0.000000 1.703930 
# 
# From -- ./inp_files/6707.got.cif
#   From: 2010.03.12/outbox.cif.g09.slc.cpg/sg46_4_cif.got.tgz:6707.got - 2010.04.14 02:56:35.
