data_PCOD8192174
_publ_section_title
;
Structure prediction by ZEFSAII (Michael W. Deem and Ramdas Pophale) SiO2 
 PCOD8192174
Probable space group: I M A 2
;
_chemical_formula_sum "Si O2"
_cell_formula_units_Z 56
_cell_length_a 18.225293
_cell_length_b 11.610422
_cell_length_c 13.673574
_cell_angle_alpha 90.000000
_cell_angle_beta 90.000000
_cell_angle_gamma 90.000000
_cell_volume 2893.373966
_symmetry_space_group_name_H-M "I M A 2"
_symmetry_group_IT_number 46
_symmetry_cell_setting 'orthorhombic'
loop_
_space_group_symop_operation_xyz
x,y,z
-x,-y,z
1/2-x,y,z
1/2+x,-y,z
1/2+x,1/2+y,1/2+z
1/2-x,1/2-y,1/2+z
-x,1/2+y,1/2+z
x,1/2-y,1/2+z
loop_
_atom_site_type_symbol
_atom_site_label
_atom_site_fract_x
_atom_site_fract_y
_atom_site_fract_z
Si Si1 0.948282 0.146395 0.894890
Si Si2 0.667516 0.350736 0.676288
Si Si3 0.076995 0.023562 0.065530
Si Si4 0.056826 0.275226 0.030218
Si Si5 0.838070 0.975114 0.550054
Si Si6 0.667817 0.334111 0.897543
Si Si7 0.932477 0.365823 0.169021
O O1 0.874145 0.215920 0.912380
O O2 0.959889 0.119999 0.780450
O O3 0.014175 0.229394 0.933547
O O4 0.936620 0.027449 0.955080
O O5 0.750000 0.315084 0.649296
O O6 0.645283 0.462876 0.615881
O O7 0.659173 0.383702 0.789018
O O8 0.616313 0.245470 0.647537
O O9 0.091696 0.159217 0.075101
O O10 0.000000 0.000000 0.122835
O O11 0.127669 0.355205 0.011025
O O12 0.003708 0.349171 0.101129
O O13 0.750000 0.962943 0.568010
O O14 0.860081 0.065939 0.467368
O O15 0.882012 0.021957 0.645504
O O16 0.750000 0.300078 0.923379
#
# Coordination Sequence:
#
# PCOD8192174 Si02
#       7
#     8   8   8   8   8   8   8
#     4  10  21  37  61  89 119 154 197 253 302 351
#     4  10  19  35  61  89 115 150 194 247 301 348
#     4  10  20  38  54  82 120 155 195 242 293 356
#     4  11  23  38  58  87 119 159 204 240 302 361
#     4  11  23  40  59  85 125 162 199 246 300 367
#     4   9  19  35  58  89 117 145 193 247 298 350
#     4  11  21  38  63  92 117 154 200 259 301 352
#
# _framework density 19.354566999999999
#
# number of rings (size 3 to 8) (size 9 to 14) (size 15 to 20)
#    0.000    1.714    4.286    0.857    0.000    7.429 
#    0.000    0.000    0.000    4.286    0.000    0.000 
#    0.000    0.000    0.000    0.000    0.000    0.000 
#
# Total GULP energy -346990.915466 kJ/mol
# GULP energy per Si atom -12392.532695 kJ/mol
# Density = 1.931052 g / cm^3
# Si number density = 19.354567 Si / 1000 Ang^3
#
#
#
# Elastic Constant Matrix: (Units=GPa)
#
#
# Indices 1 2 3 4 5 6 
#
# 1 77.4593 33.4308 36.3703 0.0000 0.0000 0.0000
# 2 33.4308 85.2488 18.2470 0.0000 0.0000 0.0000
# 3 36.3703 18.2470 65.4796 0.0000 0.0000 0.0000
# 4 0.0000 0.0000 0.0000 10.7639 0.0000 0.0000
# 5 0.0000 0.0000 0.0000 0.0000 25.8583 0.0000
# 6 0.0000 0.0000 0.0000 0.0000 0.0000 34.8025
#
#
#
# Elastic Compliance Matrix: (Units=1/GPa)
#
#
# Indices 1 2 3 4 5 6 
#
# 1 0.019807 -0.005756 -0.009398 0.000000 0.000000 0.000000
# 2 -0.005756 0.014147 -0.000745 0.000000 0.000000 0.000000
# 3 -0.009398 -0.000745 0.020699 0.000000 0.000000 0.000000
# 4 0.000000 0.000000 0.000000 0.092903 0.000000 0.000000
# 5 0.000000 0.000000 0.000000 0.000000 0.038672 0.000000
# 6 0.000000 0.000000 0.000000 0.000000 0.000000 0.028734
#
#
# Mechanical properties :
#
#
# Convention : Reuss Voigt Hill
#
# Bulk Modulus (GPa) = 43.75240 44.92041 44.33640
# Shear Modulus (GPa) = 19.65578 23.62758 21.64168
#
# Velocity S-wave (km/s) = 3.19025 3.49775 3.34753
# Velocity P-wave (km/s) = 6.01872 6.29062 6.15617
#
# Compressibility (1/GPa) = 0.02285589
#
# Stress axis : x y z
#
# Youngs Moduli (GPa) = 50.48792 70.68602 48.31048
#
# Poissons Ratio (x) = 0.40686 0.45400
# Poissons Ratio (y) = 0.29060 0.03600
# Poissons Ratio (z) = 0.47446 0.05268
#
# Static dielectric constant tensor:
#      x y z
#    x 3.658470 0.000000 0.000000 
#    y 0.000000 3.613770 0.000000 
#    z 0.000000 0.000000 3.577780 
# 
# 
# High freq. dielectric constant tensor:
#      x y z
#    x 1.755440 0.000000 0.000000 
#    y 0.000000 1.753350 0.000000 
#    z 0.000000 0.000000 1.745050 
# 
# From -- ./inp_files/15973.got.cif
#   From: 2010.03.12/outbox.cif.g09.slc.cpg/sg46_8_cif.got.tgz:15973.got - 2010.04.14 02:56:35.
