data_PCOD8192585
_publ_section_title
;
Structure prediction by ZEFSAII (Michael W. Deem and Ramdas Pophale) SiO2 
 PCOD8192585
Probable space group: I M A 2
;
_chemical_formula_sum "Si O2"
_cell_formula_units_Z 64
_cell_length_a 8.681886
_cell_length_b 15.462812
_cell_length_c 23.826634
_cell_angle_alpha 90.000000
_cell_angle_beta 90.000000
_cell_angle_gamma 90.000000
_cell_volume 3198.639148
_symmetry_space_group_name_H-M "I M A 2"
_symmetry_group_IT_number 46
_symmetry_cell_setting 'orthorhombic'
loop_
_space_group_symop_operation_xyz
x,y,z
-x,-y,z
1/2-x,y,z
1/2+x,-y,z
1/2+x,1/2+y,1/2+z
1/2-x,1/2-y,1/2+z
-x,1/2+y,1/2+z
x,1/2-y,1/2+z
loop_
_atom_site_type_symbol
_atom_site_label
_atom_site_fract_x
_atom_site_fract_y
_atom_site_fract_z
Si Si1 0.570222 0.756698 0.848170
Si Si2 0.568120 0.089165 0.779374
Si Si3 0.068120 0.910835 0.547638
Si Si4 0.070222 0.243302 0.478842
Si Si5 0.568175 0.910845 0.045540
Si Si6 0.931825 0.910845 0.281472
Si Si7 0.433255 0.350669 0.163506
Si Si8 0.933013 0.654456 0.663506
O O1 0.750000 0.772617 0.835529
O O2 0.475265 0.834843 0.821992
O O3 0.534453 0.750000 0.913506
O O4 0.512935 0.667353 0.820705
O O5 0.750000 0.082757 0.774267
O O6 0.496448 0.102529 0.718224
O O7 0.500000 0.000000 0.804162
O O8 0.250000 0.917243 0.552745
O O9 0.024735 0.834843 0.505020
O O10 0.996448 0.897471 0.608788
O O11 0.000000 0.000000 0.522850
O O12 0.250000 0.227383 0.491484
O O13 0.012935 0.332647 0.506307
O O14 0.750000 0.917998 0.045110
O O15 0.504270 0.894293 0.108454
O O16 0.500000 0.000000 0.021871
O O17 0.750000 0.917998 0.281902
O O18 0.995730 0.894293 0.218558
O O19 0.000000 0.000000 0.305141
O O20 0.250000 0.355625 0.163506
O O21 0.494292 0.252368 0.163506
O O22 0.750000 0.656829 0.663506
#
# Coordination Sequence:
#
# PCOD8192585 Si02
#       8
#     8   8   8   8   8   8   8   8
#     4  10  22  42  65  88 119 162 209 257 308 358
#     4  12  25  41  63  93 126 162 206 253 310 372
#     4  12  25  41  63  93 126 162 206 253 310 372
#     4  10  22  42  65  88 119 162 209 257 308 358
#     4  10  20  36  58  87 119 154 194 241 299 359
#     4  10  20  36  58  87 119 154 194 241 299 359
#     4  11  20  39  66  91 124 160 202 251 310 373
#     4   9  17  33  59  85 115 153 191 236 296 359
#
# _framework density 20.008509
#
# number of rings (size 3 to 8) (size 9 to 14) (size 15 to 20)
#    0.000    1.500    2.500    3.375    0.000    2.500 
#    0.000    2.500    0.000    0.000    0.000    0.000 
#    0.000    0.000    0.000    0.000    0.000    0.000 
#
# Total GULP energy -396930.141533 kJ/mol
# GULP energy per Si atom -12404.066923 kJ/mol
# Density = 1.996297 g / cm^3
# Si number density = 20.008509 Si / 1000 Ang^3
#
#
#
# Elastic Constant Matrix: (Units=GPa)
#
#
# Indices 1 2 3 4 5 6 
#
# 1 89.1569 54.3443 39.2570 0.0000 0.0000 0.0000
# 2 54.3443 182.9483 63.1053 0.0000 0.0000 0.0000
# 3 39.2570 63.1053 122.9459 0.0000 0.0000 0.0000
# 4 0.0000 0.0000 0.0000 6.1528 0.0000 0.0000
# 5 0.0000 0.0000 0.0000 0.0000 22.3912 0.0000
# 6 0.0000 0.0000 0.0000 0.0000 0.0000 35.9181
#
#
#
# Elastic Compliance Matrix: (Units=1/GPa)
#
#
# Indices 1 2 3 4 5 6 
#
# 1 0.014523 -0.003298 -0.002944 0.000000 0.000000 0.000000
# 2 -0.003298 0.007391 -0.002740 0.000000 0.000000 0.000000
# 3 -0.002944 -0.002740 0.010480 0.000000 0.000000 0.000000
# 4 0.000000 0.000000 0.000000 0.162529 0.000000 0.000000
# 5 0.000000 0.000000 0.000000 0.000000 0.044660 0.000000
# 6 0.000000 0.000000 0.000000 0.000000 0.000000 0.027841
#
#
# Mechanical properties :
#
#
# Convention : Reuss Voigt Hill
#
# Bulk Modulus (GPa) = 69.30858 78.71825 74.01342
# Shear Modulus (GPa) = 17.22946 28.78203 23.00575
#
# Velocity S-wave (km/s) = 2.93765 3.79686 3.39455
# Velocity P-wave (km/s) = 6.79861 7.65828 7.24122
#
# Compressibility (1/GPa) = 0.01442823
#
# Stress axis : x y z
#
# Youngs Moduli (GPa) = 68.85575 135.29749 95.41638
#
# Poissons Ratio (x) = 0.44628 0.28093
# Poissons Ratio (y) = 0.22712 0.26149
# Poissons Ratio (z) = 0.20273 0.37078
#
# Static dielectric constant tensor:
#      x y z
#    x 3.404510 0.000000 0.000000 
#    y 0.000000 3.896340 0.000000 
#    z 0.000000 0.000000 3.740050 
# 
# 
# High freq. dielectric constant tensor:
#      x y z
#    x 1.763230 0.000000 0.000000 
#    y 0.000000 1.799920 0.000000 
#    z 0.000000 0.000000 1.780020 
# 
# From -- ./inp_files/23140.got.cif
#   From: 2010.03.12/outbox.cif.g09.slc.cpg/sg46_12_cif.got.tgz:23140.got - 2010.04.14 02:56:35.
