data_PCOD8192642
_publ_section_title
;
Structure prediction by ZEFSAII (Michael W. Deem and Ramdas Pophale) SiO2 
 PCOD8192642
Probable space group: I M A 2
;
_chemical_formula_sum "Si O2"
_cell_formula_units_Z 64
_cell_length_a 9.188518
_cell_length_b 24.525476
_cell_length_c 15.089054
_cell_angle_alpha 90.000000
_cell_angle_beta 90.000000
_cell_angle_gamma 90.000000
_cell_volume 3400.360232
_symmetry_space_group_name_H-M "I M A 2"
_symmetry_group_IT_number 46
_symmetry_cell_setting 'orthorhombic'
loop_
_space_group_symop_operation_xyz
x,y,z
-x,-y,z
1/2-x,y,z
1/2+x,-y,z
1/2+x,1/2+y,1/2+z
1/2-x,1/2-y,1/2+z
-x,1/2+y,1/2+z
x,1/2-y,1/2+z
loop_
_atom_site_type_symbol
_atom_site_label
_atom_site_fract_x
_atom_site_fract_y
_atom_site_fract_z
Si Si1 0.581883 0.634938 0.430910
Si Si2 0.419115 0.337568 0.624377
Si Si3 0.921359 0.149863 0.300834
Si Si4 0.420810 0.609930 0.113423
Si Si5 0.085950 0.216030 0.639043
Si Si6 0.923176 0.442499 0.298346
Si Si7 0.586289 0.743107 0.337811
Si Si8 0.579612 0.445304 0.934151
O O1 0.750000 0.622313 0.405619
O O2 0.555435 0.626785 0.536079
O O3 0.474168 0.595421 0.378949
O O4 0.544764 0.698103 0.410790
O O5 0.250000 0.336435 0.652596
O O6 0.509120 0.363244 0.705135
O O7 0.470285 0.275250 0.607533
O O8 0.750000 0.154858 0.289122
O O9 0.966767 0.101567 0.366087
O O10 0.978150 0.206036 0.343529
O O11 0.250000 0.618733 0.113815
O O12 0.488394 0.669184 0.096359
O O13 0.474560 0.583390 0.205273
O O14 0.469910 0.570989 0.033268
O O15 0.250000 0.206104 0.606216
O O16 0.073537 0.212033 0.744736
O O17 0.750000 0.449649 0.302527
O O18 0.000000 0.500000 0.310089
O O19 0.750000 0.765186 0.352335
O O20 0.500000 0.500000 0.904703
O O21 0.750000 0.456221 0.930486
#
# Coordination Sequence:
#
# PCOD8192642 Si02
#       8
#     8   8   8   8   8   8   8   8
#     4  10  20  37  59  83 115 151 190 236 279 331
#     4   9  20  37  57  83 115 150 190 231 278 336
#     4  10  21  37  57  82 114 147 186 237 287 334
#     4  10  21  36  54  81 115 148 184 228 278 335
#     4   9  17  31  52  81 113 146 185 222 266 328
#     4  11  23  38  58  83 114 151 192 234 283 339
#     4   9  18  33  55  82 113 148 186 225 272 334
#     4  10  23  41  58  81 110 145 191 237 283 336
#
# _framework density 18.821534
#
# number of rings (size 3 to 8) (size 9 to 14) (size 15 to 20)
#    0.000    2.250    1.250    1.875    1.750    5.000 
#    0.000    0.625    0.000    1.500    0.000    0.000 
#    0.000    0.000    0.000    0.000    0.000    0.000 
#
# Total GULP energy -396844.006174 kJ/mol
# GULP energy per Si atom -12401.375193 kJ/mol
# Density = 1.877870 g / cm^3
# Si number density = 18.821534 Si / 1000 Ang^3
#
#
#
# Elastic Constant Matrix: (Units=GPa)
#
#
# Indices 1 2 3 4 5 6 
#
# 1 65.0554 51.3371 45.0160 0.0000 0.0000 0.0000
# 2 51.3371 103.9483 56.1784 0.0000 0.0000 0.0000
# 3 45.0160 56.1784 104.4514 -0.0001 0.0000 0.0000
# 4 0.0000 0.0000 -0.0001 25.1328 0.0000 0.0000
# 5 0.0000 0.0000 0.0000 0.0000 26.2689 0.0000
# 6 0.0000 0.0000 0.0000 0.0000 0.0000 35.8872
#
#
#
# Elastic Compliance Matrix: (Units=1/GPa)
#
#
# Indices 1 2 3 4 5 6 
#
# 1 0.028031 -0.010312 -0.006534 0.000000 0.000000 0.000000
# 2 -0.010312 0.017356 -0.004891 0.000000 0.000000 0.000000
# 3 -0.006534 -0.004891 0.015020 0.000000 0.000000 0.000000
# 4 0.000000 0.000000 0.000000 0.039789 0.000000 0.000000
# 5 0.000000 0.000000 0.000000 0.000000 0.038068 0.000000
# 6 0.000000 0.000000 0.000000 0.000000 0.000000 0.027865
#
#
# Mechanical properties :
#
#
# Convention : Reuss Voigt Hill
#
# Bulk Modulus (GPa) = 59.05574 64.27979 61.66777
# Shear Modulus (GPa) = 23.22916 25.51935 24.37425
#
# Velocity S-wave (km/s) = 3.51690 3.68619 3.60254
# Velocity P-wave (km/s) = 6.92360 7.23490 7.08096
#
# Compressibility (1/GPa) = 0.01693315
#
# Stress axis : x y z
#
# Youngs Moduli (GPa) = 35.67533 57.61655 66.57667
#
# Poissons Ratio (x) = 0.59415 0.43503
# Poissons Ratio (y) = 0.36789 0.32560
# Poissons Ratio (z) = 0.23311 0.28178
#
# Static dielectric constant tensor:
#      x y z
#    x 3.338610 0.000000 0.000000 
#    y 0.000000 3.277970 0.000000 
#    z 0.000000 0.000000 3.551660 
# 
# 
# High freq. dielectric constant tensor:
#      x y z
#    x 1.724270 0.000000 0.000000 
#    y 0.000000 1.720280 0.000000 
#    z 0.000000 0.000000 1.735020 
# 
# From -- ./inp_files/14454.got.cif
#   From: 2010.03.12/outbox.cif.g09.slc.cpg/sg46_8_cif.got.tgz:14454.got - 2010.04.14 02:56:35.
