data_PCOD8192900
_publ_section_title
;
Structure prediction by ZEFSAII (Michael W. Deem and Ramdas Pophale) SiO2 
 PCOD8192900
Probable space group: I M A 2
;
_chemical_formula_sum "Si O2"
_cell_formula_units_Z 40
_cell_length_a 10.093602
_cell_length_b 7.405264
_cell_length_c 25.993000
_cell_angle_alpha 90.000000
_cell_angle_beta 90.000000
_cell_angle_gamma 90.000000
_cell_volume 1942.867255
_symmetry_space_group_name_H-M "I M A 2"
_symmetry_group_IT_number 46
_symmetry_cell_setting 'orthorhombic'
loop_
_space_group_symop_operation_xyz
x,y,z
-x,-y,z
1/2-x,y,z
1/2+x,-y,z
1/2+x,1/2+y,1/2+z
1/2-x,1/2-y,1/2+z
-x,1/2+y,1/2+z
x,1/2-y,1/2+z
loop_
_atom_site_type_symbol
_atom_site_label
_atom_site_fract_x
_atom_site_fract_y
_atom_site_fract_z
Si Si1 0.250000 0.488913 0.647090
Si Si2 0.750000 0.205548 0.570739
Si Si3 0.485691 0.799124 0.504051
Si Si4 0.500000 0.000000 0.215973
Si Si5 0.250000 0.274378 0.051899
Si Si6 0.905349 0.329116 0.284965
Si Si7 0.900793 0.159679 0.901358
O O1 0.250000 0.698933 0.627121
O O2 0.122245 0.444505 0.680852
O O3 0.250000 0.344594 0.602217
O O4 0.624494 0.289576 0.540638
O O5 0.750000 0.985964 0.570472
O O6 0.627945 0.711832 0.515601
O O7 0.438535 0.805806 0.444573
O O8 0.500000 0.000000 0.523696
O O9 0.543524 0.167395 0.250562
O O10 0.750000 0.375166 0.273489
O O11 0.922752 0.264129 0.344062
O O12 0.000000 0.500000 0.274052
O O13 0.750000 0.092977 0.907561
O O14 0.000000 0.000000 0.913944
#
# Coordination Sequence:
#
# PCOD8192900 Si02
#       7
#     4   4   8   4   4   8   8
#     4  12  26  42  68  94 126 178 226 278 340 384
#     4  10  22  42  59  87 133 169 220 276 318 393
#     4  10  21  37  59  92 129 175 212 259 327 390
#     4  12  26  46  68 104 128 174 236 280 342 396
#     4  10  24  40  61  93 131 171 220 272 328 391
#     4  10  24  46  70  98 138 177 222 282 337 402
#     4  10  22  39  62  96 130 171 216 261 327 395
#
# _framework density 20.588128000000001
#
# number of rings (size 3 to 8) (size 9 to 14) (size 15 to 20)
#    0.000    1.600    2.000    1.200    7.000    1.600 
#    0.000    0.000    0.000    0.000    0.000    0.000 
#    0.000    0.000    0.000    0.000    0.000    0.000 
#
# Total GULP energy -247844.198063 kJ/mol
# GULP energy per Si atom -12392.209903 kJ/mol
# Density = 2.054127 g / cm^3
# Si number density = 20.588128 Si / 1000 Ang^3
#
#
#
# Elastic Constant Matrix: (Units=GPa)
#
#
# Indices 1 2 3 4 5 6 
#
# 1 198.7124 45.2983 73.5258 0.0000 0.0000 0.0000
# 2 45.2983 68.6353 42.3652 0.0000 0.0000 0.0000
# 3 73.5258 42.3652 117.7863 0.0000 0.0000 0.0000
# 4 0.0000 0.0000 0.0000 36.0641 0.0000 0.0000
# 5 0.0000 0.0000 0.0000 0.0000 31.1727 0.0000
# 6 0.0000 0.0000 0.0000 0.0000 0.0000 22.9877
#
#
#
# Elastic Compliance Matrix: (Units=1/GPa)
#
#
# Indices 1 2 3 4 5 6 
#
# 1 0.006842 -0.002416 -0.003402 0.000000 0.000000 0.000000
# 2 -0.002416 0.019580 -0.005535 0.000000 0.000000 0.000000
# 3 -0.003402 -0.005535 0.012604 0.000000 0.000000 0.000000
# 4 0.000000 0.000000 0.000000 0.027728 0.000000 0.000000
# 5 0.000000 0.000000 0.000000 0.000000 0.032079 0.000000
# 6 0.000000 0.000000 0.000000 0.000000 0.000000 0.043501
#
#
# Mechanical properties :
#
#
# Convention : Reuss Voigt Hill
#
# Bulk Modulus (GPa) = 61.26791 78.61251 69.94021
# Shear Modulus (GPa) = 29.32876 32.97456 31.15166
#
# Velocity S-wave (km/s) = 3.77841 4.00638 3.89406
# Velocity P-wave (km/s) = 6.98990 7.72449 7.36636
#
# Compressibility (1/GPa) = 0.01632176
#
# Stress axis : x y z
#
# Youngs Moduli (GPa) = 146.15922 51.07163 79.33776
#
# Poissons Ratio (x) = 0.12337 0.26991
# Poissons Ratio (y) = 0.35306 0.43911
# Poissons Ratio (z) = 0.49724 0.28267
#
# Static dielectric constant tensor:
#      x y z
#    x 4.632880 0.000000 0.000000 
#    y 0.000000 3.614000 0.000000 
#    z 0.000000 0.000000 3.799350 
# 
# 
# High freq. dielectric constant tensor:
#      x y z
#    x 1.834210 0.000000 0.000000 
#    y 0.000000 1.786790 0.000000 
#    z 0.000000 0.000000 1.811160 
# 
# From -- ./inp_files/22793.got.cif
#   From: 2010.03.12/outbox.cif.g09.slc.cpg/sg46_12_cif.got.tgz:22793.got - 2010.04.14 02:56:35.
