data_PCOD8192623
_publ_section_title
;
Structure prediction by ZEFSAII (Michael W. Deem and Ramdas Pophale) SiO2 
 PCOD8192623
Probable space group: I M A 2
;
_chemical_formula_sum "Si O2"
_cell_formula_units_Z 64
_cell_length_a 8.857447
_cell_length_b 23.410109
_cell_length_c 15.198023
_cell_angle_alpha 90.000000
_cell_angle_beta 90.000000
_cell_angle_gamma 90.000000
_cell_volume 3151.367817
_symmetry_space_group_name_H-M "I M A 2"
_symmetry_group_IT_number 46
_symmetry_cell_setting 'orthorhombic'
loop_
_space_group_symop_operation_xyz
x,y,z
-x,-y,z
1/2-x,y,z
1/2+x,-y,z
1/2+x,1/2+y,1/2+z
1/2-x,1/2-y,1/2+z
-x,1/2+y,1/2+z
x,1/2-y,1/2+z
loop_
_atom_site_type_symbol
_atom_site_label
_atom_site_fract_x
_atom_site_fract_y
_atom_site_fract_z
Si Si1 0.922589 0.864900 0.320670
Si Si2 0.572512 0.440018 0.483111
Si Si3 0.924055 0.262454 0.073550
Si Si4 0.425770 0.377702 0.124970
Si Si5 0.576166 0.879239 0.825394
Si Si6 0.421561 0.256578 0.393549
Si Si7 0.928277 0.060199 0.467352
Si Si8 0.075015 0.639125 0.642276
O O1 0.750000 0.884860 0.331435
O O2 0.939672 0.796756 0.328224
O O3 0.021447 0.893111 0.396742
O O4 0.981681 0.884045 0.225328
O O5 0.500000 0.500000 0.508186
O O6 0.750000 0.447293 0.483028
O O7 0.523028 0.419600 0.386828
O O8 0.518491 0.394005 0.555479
O O9 0.750000 0.281487 0.078566
O O10 0.955145 0.206181 0.130580
O O11 0.028163 0.312278 0.110715
O O12 0.962535 0.249193 0.972979
O O13 0.250000 0.383327 0.101376
O O14 0.459592 0.395634 0.224982
O O15 0.519061 0.420486 0.063853
O O16 0.750000 0.890627 0.848440
O O17 0.534837 0.812855 0.839003
O O18 0.250000 0.259840 0.430004
O O19 0.750000 0.054395 0.466640
O O20 0.000000 0.000000 0.441587
O O21 0.250000 0.626406 0.659769
#
# Coordination Sequence:
#
# PCOD8192623 Si02
#       8
#     8   8   8   8   8   8   8   8
#     4  11  23  40  65  96 127 165 205 251 309 370
#     4  11  24  43  64  88 121 161 209 260 310 364
#     4  11  21  36  61  93 127 167 205 250 310 365
#     4  11  23  41  64  94 128 163 206 255 308 373
#     4  10  22  40  64  93 125 164 206 252 306 365
#     4  10  20  36  61  92 127 163 202 248 304 371
#     4  12  26  45  67  91 122 163 209 260 312 368
#     4  10  23  41  61  91 128 165 207 256 307 367
#
# _framework density 20.308641000000001
#
# number of rings (size 3 to 8) (size 9 to 14) (size 15 to 20)
#    0.000    1.250    2.500    3.375    0.000    5.500 
#    0.000    1.250    0.000    0.000    0.000    0.000 
#    0.000    0.000    0.000    0.000    0.000    0.000 
#
# Total GULP energy -397004.650454 kJ/mol
# GULP energy per Si atom -12406.395327 kJ/mol
# Density = 2.026242 g / cm^3
# Si number density = 20.308641 Si / 1000 Ang^3
#
#
#
# Elastic Constant Matrix: (Units=GPa)
#
#
# Indices 1 2 3 4 5 6 
#
# 1 101.1894 29.5621 46.2951 0.0002 -0.0001 0.0000
# 2 29.5621 66.0981 10.2027 0.0001 -0.0001 0.0000
# 3 46.2951 10.2027 108.3384 -0.0002 0.0002 0.0001
# 4 0.0002 0.0001 -0.0002 13.0852 0.0000 0.0000
# 5 -0.0001 -0.0001 0.0002 0.0000 34.1479 0.0000
# 6 0.0000 0.0000 0.0001 0.0000 0.0000 33.8085
#
#
#
# Elastic Compliance Matrix: (Units=1/GPa)
#
#
# Indices 1 2 3 4 5 6 
#
# 1 0.013956 -0.005400 -0.005455 0.000000 0.000000 0.000000
# 2 -0.005400 0.017441 0.000665 0.000000 0.000000 0.000000
# 3 -0.005455 0.000665 0.011499 0.000000 0.000000 0.000000
# 4 0.000000 0.000000 0.000000 0.076422 0.000000 0.000000
# 5 0.000000 0.000000 0.000000 0.000000 0.029284 0.000000
# 6 0.000000 0.000000 0.000000 0.000000 0.000000 0.029578
#
#
# Mechanical properties :
#
#
# Convention : Reuss Voigt Hill
#
# Bulk Modulus (GPa) = 44.41251 49.74955 47.08103
# Shear Modulus (GPa) = 24.26410 28.84606 26.55508
#
# Velocity S-wave (km/s) = 3.46029 3.77289 3.61996
# Velocity P-wave (km/s) = 6.15476 6.59769 6.38007
#
# Compressibility (1/GPa) = 0.02251618
#
# Stress axis : x y z
#
# Youngs Moduli (GPa) = 71.65555 57.33505 86.96582
#
# Poissons Ratio (x) = 0.30959 0.47440
# Poissons Ratio (y) = 0.38691 -0.05782
# Poissons Ratio (z) = 0.39088 -0.03812
#
# Static dielectric constant tensor:
#      x y z
#    x 3.700950 0.000000 0.000000 
#    y 0.000000 3.690530 0.000000 
#    z 0.000000 0.000000 3.659840 
# 
# 
# High freq. dielectric constant tensor:
#      x y z
#    x 1.798290 0.000000 0.000000 
#    y 0.000000 1.793150 0.000000 
#    z 0.000000 0.000000 1.798810 
# 
# From -- ./inp_files/14537.got.cif
#   From: 2010.03.12/outbox.cif.g09.slc.cpg/sg46_8_cif.got.tgz:14537.got - 2010.04.14 02:56:35.
