data_PCOD8192113
_publ_section_title
;
Structure prediction by ZEFSAII (Michael W. Deem and Ramdas Pophale) SiO2 
 PCOD8192113
Probable space group: I M A 2
;
_chemical_formula_sum "Si O2"
_cell_formula_units_Z 48
_cell_length_a 8.944829
_cell_length_b 27.896654
_cell_length_c 9.971691
_cell_angle_alpha 90.000000
_cell_angle_beta 90.000000
_cell_angle_gamma 90.000000
_cell_volume 2488.244030
_symmetry_space_group_name_H-M "I M A 2"
_symmetry_group_IT_number 46
_symmetry_cell_setting 'orthorhombic'
loop_
_space_group_symop_operation_xyz
x,y,z
-x,-y,z
1/2-x,y,z
1/2+x,-y,z
1/2+x,1/2+y,1/2+z
1/2-x,1/2-y,1/2+z
-x,1/2+y,1/2+z
x,1/2-y,1/2+z
loop_
_atom_site_type_symbol
_atom_site_label
_atom_site_fract_x
_atom_site_fract_y
_atom_site_fract_z
Si Si1 0.423777 0.142919 0.272260
Si Si2 0.576302 0.795236 0.530337
Si Si3 0.077361 0.648482 0.258640
Si Si4 0.926105 0.048442 0.342995
Si Si5 0.577147 0.303094 0.535834
Si Si6 0.575576 0.452363 0.151347
O O1 0.250000 0.133426 0.247856
O O2 0.454504 0.165087 0.417888
O O3 0.511268 0.092982 0.258698
O O4 0.483118 0.179547 0.162130
O O5 0.750000 0.781630 0.540477
O O6 0.522333 0.815345 0.672636
O O7 0.483098 0.748430 0.490428
O O8 0.250000 0.654466 0.213861
O O9 0.055000 0.659904 0.414329
O O10 0.023358 0.593878 0.235614
O O11 0.750000 0.045495 0.323038
O O12 0.973621 0.055409 0.497595
O O13 0.000000 0.000000 0.285894
O O14 0.750000 0.298769 0.576825
O O15 0.500000 0.500000 0.211919
O O16 0.750000 0.460687 0.162719
#
# Coordination Sequence:
#
# PCOD8192113 Si02
#       6
#     8   8   8   8   8   8
#     4  11  23  39  59  86 119 153 194 238 286 342
#     4  11  23  38  59  85 113 148 193 241 287 339
#     4  10  21  39  60  85 114 150 193 235 283 344
#     4  10  19  34  59  87 117 149 189 239 288 339
#     4  11  24  39  58  82 115 155 193 235 287 344
#     4   9  18  33  56  85 114 143 183 232 281 334
#
# _framework density 19.290711999999999
#
# number of rings (size 3 to 8) (size 9 to 14) (size 15 to 20)
#    0.000    1.667    1.667    3.000    0.000    7.333 
#    0.000    0.833    0.000    2.000    0.000    0.000 
#    0.000    0.000    0.000    0.000    0.000    0.000 
#
# Total GULP energy -297743.619646 kJ/mol
# GULP energy per Si atom -12405.984152 kJ/mol
# Density = 1.924681 g / cm^3
# Si number density = 19.290712 Si / 1000 Ang^3
#
#
#
# Elastic Constant Matrix: (Units=GPa)
#
#
# Indices 1 2 3 4 5 6 
#
# 1 83.6692 46.8536 32.5046 -0.0012 0.0000 0.0000
# 2 46.8536 122.5757 14.6618 -0.0027 -0.0016 -0.0006
# 3 32.5046 14.6618 51.3436 -0.0150 -0.0069 -0.0021
# 4 -0.0012 -0.0027 -0.0150 21.8424 -0.0011 -0.0003
# 5 0.0000 -0.0016 -0.0069 -0.0011 23.5492 -0.0021
# 6 0.0000 -0.0006 -0.0021 -0.0003 -0.0021 41.2838
#
#
#
# Elastic Compliance Matrix: (Units=1/GPa)
#
#
# Indices 1 2 3 4 5 6 
#
# 1 0.019544 -0.006202 -0.010602 -0.000007 -0.000003 -0.000001
# 2 -0.006202 0.010415 0.000952 0.000002 0.000001 0.000000
# 3 -0.010602 0.000952 0.025916 0.000017 0.000008 0.000001
# 4 -0.000007 0.000002 0.000017 0.045782 0.000002 0.000000
# 5 -0.000003 0.000001 0.000008 0.000002 0.042464 0.000002
# 6 -0.000001 0.000000 0.000001 0.000000 0.000002 0.024223
#
#
# Mechanical properties :
#
#
# Convention : Reuss Voigt Hill
#
# Bulk Modulus (GPa) = 41.36996 49.51428 45.44212
# Shear Modulus (GPa) = 24.02638 28.23966 26.13302
#
# Velocity S-wave (km/s) = 3.53298 3.83024 3.68461
# Velocity P-wave (km/s) = 6.17533 6.72935 6.45828
#
# Compressibility (1/GPa) = 0.02417213
#
# Stress axis : x y z
#
# Youngs Moduli (GPa) = 51.16756 96.01451 38.58572
#
# Poissons Ratio (x) = 0.59551 0.40907
# Poissons Ratio (y) = 0.31736 -0.03675
# Poissons Ratio (z) = 0.54246 -0.09145
#
# Static dielectric constant tensor:
#      x y z
#    x 3.539390 0.000000 0.000000 
#    y 0.000000 3.673150 0.000000 
#    z 0.000000 0.000000 3.264560 
# 
# 
# High freq. dielectric constant tensor:
#      x y z
#    x 1.758260 0.000000 0.000000 
#    y 0.000000 1.765000 0.000000 
#    z 0.000000 0.000000 1.727680 
# 
# From -- ./inp_files/3898.got.cif
#   From: 2010.03.12/outbox.cif.g09.slc.cpg/sg46_2_cif.got.tgz:3898.got - 2010.04.14 02:56:35.
