data_PCOD8192811
_publ_section_title
;
Structure prediction by ZEFSAII (Michael W. Deem and Ramdas Pophale) SiO2 
 PCOD8192811
Probable space group: I M A 2
;
_chemical_formula_sum "Si O2"
_cell_formula_units_Z 40
_cell_length_a 13.518070
_cell_length_b 16.336003
_cell_length_c 7.803427
_cell_angle_alpha 90.000000
_cell_angle_beta 90.000000
_cell_angle_gamma 90.000000
_cell_volume 1723.240399
_symmetry_space_group_name_H-M "I M A 2"
_symmetry_group_IT_number 46
_symmetry_cell_setting 'orthorhombic'
loop_
_space_group_symop_operation_xyz
x,y,z
-x,-y,z
1/2-x,y,z
1/2+x,-y,z
1/2+x,1/2+y,1/2+z
1/2-x,1/2-y,1/2+z
-x,1/2+y,1/2+z
x,1/2-y,1/2+z
loop_
_atom_site_type_symbol
_atom_site_label
_atom_site_fract_x
_atom_site_fract_y
_atom_site_fract_z
Si Si1 0.364361 0.114478 0.695520
Si Si2 0.641976 0.064286 0.821400
Si Si3 0.485396 0.096164 0.363599
Si Si4 0.137108 0.694586 0.025863
Si Si5 0.007811 0.152894 0.008880
O O1 0.250000 0.140324 0.682932
O O2 0.419141 0.134550 0.517361
O O3 0.412819 0.164470 0.854755
O O4 0.379116 0.017443 0.715389
O O5 0.750000 0.058577 0.905984
O O6 0.633081 0.144804 0.703228
O O7 0.560956 0.073998 0.968333
O O8 0.595694 0.135061 0.377216
O O9 0.500000 0.000000 0.372220
O O10 0.436820 0.127819 0.185287
O O11 0.250000 0.720885 0.981046
O O12 0.063867 0.770778 0.038979
#
# Coordination Sequence:
#
# PCOD8192811 Si02
#       5
#     8   8   8   8   8
#     4  11  24  46  69  93 135 189 238 281 328 401
#     4  10  20  41  70  99 139 182 222 276 348 413
#     4  12  24  42  70 101 137 181 231 282 340 408
#     4  11  24  44  72 105 142 177 218 283 359 414
#     4  12  24  41  69 104 141 177 225 285 352 405
#
# _framework density 23.212084000000001
#
# number of rings (size 3 to 8) (size 9 to 14) (size 15 to 20)
#    0.000    0.800    4.000    3.600    0.000    4.000 
#    0.000    1.000    0.000    0.000    0.000    0.000 
#    0.000    0.000    0.000    0.000    0.000    0.000 
#
# Total GULP energy -247903.843941 kJ/mol
# GULP energy per Si atom -12395.192197 kJ/mol
# Density = 2.315925 g / cm^3
# Si number density = 23.212084 Si / 1000 Ang^3
#
#
#
# Elastic Constant Matrix: (Units=GPa)
#
#
# Indices 1 2 3 4 5 6 
#
# 1 140.9847 48.5044 64.1562 0.0000 0.0000 0.0000
# 2 48.5044 72.4909 31.4672 0.0000 0.0000 0.0000
# 3 64.1562 31.4672 160.6004 0.0000 0.0000 0.0000
# 4 0.0000 0.0000 0.0000 5.4766 0.0000 0.0000
# 5 0.0000 0.0000 0.0000 0.0000 19.8391 0.0000
# 6 0.0000 0.0000 0.0000 0.0000 0.0000 35.2979
#
#
#
# Elastic Compliance Matrix: (Units=1/GPa)
#
#
# Indices 1 2 3 4 5 6 
#
# 1 0.010429 -0.005650 -0.003059 0.000000 0.000000 0.000000
# 2 -0.005650 0.018138 -0.001297 0.000000 0.000000 0.000000
# 3 -0.003059 -0.001297 0.007703 0.000000 0.000000 0.000000
# 4 0.000000 0.000000 0.000000 0.182595 0.000000 0.000000
# 5 0.000000 0.000000 0.000000 0.000000 0.050406 0.000000
# 6 0.000000 0.000000 0.000000 0.000000 0.000000 0.028330
#
#
# Mechanical properties :
#
#
# Convention : Reuss Voigt Hill
#
# Bulk Modulus (GPa) = 61.50851 73.59239 67.55045
# Shear Modulus (GPa) = 15.47831 27.45260 21.46545
#
# Velocity S-wave (km/s) = 2.58509 3.44275 3.04427
# Velocity P-wave (km/s) = 5.95536 6.89758 6.44371
#
# Compressibility (1/GPa) = 0.01625791
#
# Stress axis : x y z
#
# Youngs Moduli (GPa) = 95.88730 55.13172 129.82393
#
# Poissons Ratio (x) = 0.31151 0.39714
# Poissons Ratio (y) = 0.54178 0.16836
# Poissons Ratio (z) = 0.29332 0.07149
#
# Static dielectric constant tensor:
#      x y z
#    x 4.458150 0.000000 0.000000 
#    y 0.000000 4.191940 0.000000 
#    z 0.000000 0.000000 4.302160 
# 
# 
# High freq. dielectric constant tensor:
#      x y z
#    x 1.911300 0.000000 0.000000 
#    y 0.000000 1.922220 0.000000 
#    z 0.000000 0.000000 1.915410 
# 
# From -- ./inp_files/5430.got.cif
#   From: 2010.03.12/outbox.cif.g09.slc.cpg/sg46_3_cif.got.tgz:5430.got - 2010.04.14 02:56:35.
