data_PCOD8192958
_publ_section_title
;
Structure prediction by ZEFSAII (Michael W. Deem and Ramdas Pophale) SiO2 
 PCOD8192958
Probable space group: I M A 2
;
_chemical_formula_sum "Si O2"
_cell_formula_units_Z 32
_cell_length_a 13.813170
_cell_length_b 4.993134
_cell_length_c 20.341354
_cell_angle_alpha 90.000000
_cell_angle_beta 90.000000
_cell_angle_gamma 90.000000
_cell_volume 1402.963705
_symmetry_space_group_name_H-M "I M A 2"
_symmetry_group_IT_number 46
_symmetry_cell_setting 'orthorhombic'
loop_
_space_group_symop_operation_xyz
x,y,z
-x,-y,z
1/2-x,y,z
1/2+x,-y,z
1/2+x,1/2+y,1/2+z
1/2-x,1/2-y,1/2+z
-x,1/2+y,1/2+z
x,1/2-y,1/2+z
loop_
_atom_site_type_symbol
_atom_site_label
_atom_site_fract_x
_atom_site_fract_y
_atom_site_fract_z
Si Si1 0.390393 0.961756 0.328010
Si Si2 0.750000 0.203102 0.056670
Si Si3 0.750000 0.804787 0.643566
Si Si4 0.933729 0.258118 0.968529
Si Si5 0.385695 0.038236 0.755826
O O1 0.381551 0.876289 0.403726
O O2 0.340708 0.741871 0.280715
O O3 0.500000 0.000000 0.306345
O O4 0.346368 0.251350 0.311083
O O5 0.750000 0.508624 0.079789
O O6 0.750000 0.000758 0.118470
O O7 0.848928 0.158745 0.016291
O O8 0.654024 0.870436 0.685334
O O9 0.000000 0.500000 0.998496
O O10 0.000000 0.000000 0.950977
O O11 0.500000 0.000000 0.750403
#
# Coordination Sequence:
#
# PCOD8192958 Si02
#       5
#     8   4   4   8   8
#     4   9  18  37  64  94 120 150 201 257 324 388
#     4  12  28  44  62  94 128 174 230 256 298 384
#     4  12  26  42  60  90 130 172 222 258 296 378
#     4  11  23  43  69  95 129 166 207 270 327 374
#     4  10  21  38  62  90 123 159 199 259 320 370
#
# _framework density 22.808859000000002
#
# number of rings (size 3 to 8) (size 9 to 14) (size 15 to 20)
#    0.000    1.500    0.000    6.750    0.000    5.000 
#    0.000    0.000    0.000    1.500    0.000    0.000 
#    0.000    0.000    0.000    0.000    0.000    0.000 
#
# Total GULP energy -198246.080489 kJ/mol
# GULP energy per Si atom -12390.380031 kJ/mol
# Density = 2.275695 g / cm^3
# Si number density = 22.808859 Si / 1000 Ang^3
#
#
#
# Elastic Constant Matrix: (Units=GPa)
#
#
# Indices 1 2 3 4 5 6 
#
# 1 110.9241 30.4792 42.3870 0.0000 0.0000 0.0000
# 2 30.4792 123.0753 37.4782 0.0000 0.0000 0.0000
# 3 42.3870 37.4782 109.5172 0.0000 0.0000 0.0000
# 4 0.0000 0.0000 0.0000 54.5849 0.0000 0.0000
# 5 0.0000 0.0000 0.0000 0.0000 88.6269 0.0000
# 6 0.0000 0.0000 0.0000 0.0000 0.0000 10.0501
#
#
#
# Elastic Compliance Matrix: (Units=1/GPa)
#
#
# Indices 1 2 3 4 5 6 
#
# 1 0.010845 -0.001571 -0.003660 0.000000 0.000000 0.000000
# 2 -0.001571 0.009298 -0.002574 0.000000 0.000000 0.000000
# 3 -0.003660 -0.002574 0.011428 0.000000 0.000000 0.000000
# 4 0.000000 0.000000 0.000000 0.018320 0.000000 0.000000
# 5 0.000000 0.000000 0.000000 0.000000 0.011283 0.000000
# 6 0.000000 0.000000 0.000000 0.000000 0.000000 0.099501
#
#
# Mechanical properties :
#
#
# Convention : Reuss Voigt Hill
#
# Bulk Modulus (GPa) = 62.64943 62.68951 62.66947
# Shear Modulus (GPa) = 27.53203 46.19721 36.86462
#
# Velocity S-wave (km/s) = 3.47807 4.50533 4.02461
# Velocity P-wave (km/s) = 6.60727 7.38975 7.00944
#
# Compressibility (1/GPa) = 0.01596184
#
# Stress axis : x y z
#
# Youngs Moduli (GPa) = 92.20449 107.55016 87.50269
#
# Poissons Ratio (x) = 0.16900 0.32024
# Poissons Ratio (y) = 0.14489 0.22521
# Poissons Ratio (z) = 0.33745 0.27680
#
# Static dielectric constant tensor:
#      x y z
#    x 4.009600 0.000000 0.000000 
#    y 0.000000 4.814360 0.000000 
#    z 0.000000 0.000000 3.761040 
# 
# 
# High freq. dielectric constant tensor:
#      x y z
#    x 1.901980 0.000000 0.000000 
#    y 0.000000 1.927970 0.000000 
#    z 0.000000 0.000000 1.879850 
# 
# From -- ./inp_files/19114.got.cif
#   From: 2010.03.12/outbox.cif.g09.slc.cpg/sg46_10_cif.got.tgz:19114.got - 2010.04.14 02:56:35.
