data_PCOD8192514
_publ_section_title
;
Structure prediction by ZEFSAII (Michael W. Deem and Ramdas Pophale) SiO2 
 PCOD8192514
Probable space group: I M A 2
;
_chemical_formula_sum "Si O2"
_cell_formula_units_Z 60
_cell_length_a 23.635456
_cell_length_b 7.898887
_cell_length_c 14.559122
_cell_angle_alpha 90.000000
_cell_angle_beta 90.000000
_cell_angle_gamma 90.000000
_cell_volume 2718.097755
_symmetry_space_group_name_H-M "I M A 2"
_symmetry_group_IT_number 46
_symmetry_cell_setting 'orthorhombic'
loop_
_space_group_symop_operation_xyz
x,y,z
-x,-y,z
1/2-x,y,z
1/2+x,-y,z
1/2+x,1/2+y,1/2+z
1/2-x,1/2-y,1/2+z
-x,1/2+y,1/2+z
x,1/2-y,1/2+z
loop_
_atom_site_type_symbol
_atom_site_label
_atom_site_fract_x
_atom_site_fract_y
_atom_site_fract_z
Si Si1 0.379587 0.026501 0.644960
Si Si2 0.813597 0.059071 0.055744
Si Si3 0.003722 0.303897 0.439682
Si Si4 0.315926 0.311439 0.982227
Si Si5 0.500000 0.000000 0.575110
Si Si6 0.385607 0.320321 0.328574
Si Si7 0.879337 0.193335 0.899541
Si Si8 0.314758 0.722430 0.736886
O O1 0.352170 0.064088 0.545941
O O2 0.444417 0.961446 0.635518
O O3 0.380179 0.185962 0.717404
O O4 0.341397 0.883241 0.688045
O O5 0.750000 0.112010 0.028516
O O6 0.822181 0.067999 0.165595
O O7 0.826320 0.869182 0.028028
O O8 0.855007 0.191750 0.003376
O O9 0.017100 0.170215 0.519639
O O10 0.050234 0.283189 0.360334
O O11 0.000000 0.500000 0.476087
O O12 0.944010 0.249026 0.396958
O O13 0.250000 0.363520 0.978240
O O14 0.342038 0.308849 0.878986
O O15 0.368836 0.508425 0.358874
O O16 0.845585 0.322948 0.833148
O O17 0.250000 0.762547 0.759582
#
# Coordination Sequence:
#
# PCOD8192514 Si02
#       8
#     8   8   8   8   4   8   8   8
#     4  11  23  37  61  91 125 160 215 264 321 382
#     4   9  18  34  55  81 114 152 198 248 305 375
#     4  10  21  41  64  88 128 167 216 260 316 381
#     4  10  20  39  62  86 120 164 207 258 321 387
#     4  12  24  40  68  94 130 172 216 270 316 382
#     4   9  20  38  60  84 119 162 206 262 315 384
#     4   9  18  33  59  81 113 161 202 249 314 377
#     4  10  20  35  57  88 119 155 208 263 320 379
#
# _framework density 22.074259999999999
#
# number of rings (size 3 to 8) (size 9 to 14) (size 15 to 20)
#    0.000    2.133    1.333    1.600    4.667    3.733 
#    2.400    0.000    1.467    3.200    0.000    0.000 
#    0.000    0.000    0.000    0.000    0.000    0.000 
#
# Total GULP energy -371842.320465 kJ/mol
# GULP energy per Si atom -12394.744015 kJ/mol
# Density = 2.202402 g / cm^3
# Si number density = 22.074260 Si / 1000 Ang^3
#
#
#
# Elastic Constant Matrix: (Units=GPa)
#
#
# Indices 1 2 3 4 5 6 
#
# 1 118.2379 10.8825 -6.7150 0.0000 0.0000 0.0000
# 2 10.8825 31.9622 -1.5735 0.0000 0.0000 0.0000
# 3 -6.7150 -1.5735 24.1450 0.0000 0.0000 0.0000
# 4 0.0000 0.0000 0.0000 17.8944 0.0000 0.0000
# 5 0.0000 0.0000 0.0000 0.0000 30.7629 0.0000
# 6 0.0000 0.0000 0.0000 0.0000 0.0000 22.4705
#
#
#
# Elastic Compliance Matrix: (Units=1/GPa)
#
#
# Indices 1 2 3 4 5 6 
#
# 1 0.008854 -0.002903 0.002273 0.000000 0.000000 0.000000
# 2 -0.002903 0.032339 0.001300 0.000000 0.000000 0.000000
# 3 0.002273 0.001300 0.042133 0.000000 0.000000 0.000000
# 4 0.000000 0.000000 0.000000 0.055884 0.000000 0.000000
# 5 0.000000 0.000000 0.000000 0.000000 0.032507 0.000000
# 6 0.000000 0.000000 0.000000 0.000000 0.000000 0.044503
#
#
# Mechanical properties :
#
#
# Convention : Reuss Voigt Hill
#
# Bulk Modulus (GPa) = 11.81085 19.94812 15.87949
# Shear Modulus (GPa) = 20.56763 25.67562 23.12163
#
# Velocity S-wave (km/s) = 3.05576 3.41420 3.23994
# Velocity P-wave (km/s) = 4.22047 4.95971 4.60495
#
# Compressibility (1/GPa) = 0.08466791
#
# Stress axis : x y z
#
# Youngs Moduli (GPa) = 112.94608 30.92220 23.73416
#
# Poissons Ratio (x) = 0.08976 -0.05395
# Poissons Ratio (y) = 0.32784 -0.03086
# Poissons Ratio (z) = -0.25675 -0.04021
#
# Static dielectric constant tensor:
#      x y z
#    x 4.080990 0.000000 0.000000 
#    y 0.000000 3.723590 0.000000 
#    z 0.000000 0.000000 4.556410 
# 
# 
# High freq. dielectric constant tensor:
#      x y z
#    x 1.882370 0.000000 0.000000 
#    y 0.000000 1.841350 0.000000 
#    z 0.000000 0.000000 1.867260 
# 
# From -- ./inp_files/17362.got.cif
#   From: 2010.03.12/outbox.cif.g09.slc.cpg/sg46_9_cif.got.tgz:17362.got - 2010.04.14 02:56:35.
