data_PCOD8192681
_publ_section_title
;
Structure prediction by ZEFSAII (Michael W. Deem and Ramdas Pophale) SiO2 
 PCOD8192681
Probable space group: I M A 2
;
_chemical_formula_sum "Si O2"
_cell_formula_units_Z 48
_cell_length_a 16.466561
_cell_length_b 4.980496
_cell_length_c 27.653639
_cell_angle_alpha 90.000000
_cell_angle_beta 90.000000
_cell_angle_gamma 90.000000
_cell_volume 2267.920319
_symmetry_space_group_name_H-M "I M A 2"
_symmetry_group_IT_number 46
_symmetry_cell_setting 'orthorhombic'
loop_
_space_group_symop_operation_xyz
x,y,z
-x,-y,z
1/2-x,y,z
1/2+x,-y,z
1/2+x,1/2+y,1/2+z
1/2-x,1/2-y,1/2+z
-x,1/2+y,1/2+z
x,1/2-y,1/2+z
loop_
_atom_site_type_symbol
_atom_site_label
_atom_site_fract_x
_atom_site_fract_y
_atom_site_fract_z
Si Si1 0.591228 0.102609 0.729760
Si Si2 0.094073 0.421012 0.574556
Si Si3 0.342730 0.386054 0.780247
Si Si4 0.344068 0.911792 0.627191
Si Si5 0.057276 0.255662 0.869927
Si Si6 0.055803 0.249194 0.475867
O O1 0.603961 0.356880 0.764764
O O2 0.611761 0.195631 0.675371
O O3 0.500000 0.000000 0.736111
O O4 0.650159 0.853793 0.741580
O O5 0.147343 0.682260 0.586427
O O6 0.116868 0.316066 0.520245
O O7 0.000000 0.500000 0.576934
O O8 0.112092 0.185756 0.612114
O O9 0.250000 0.480935 0.783707
O O10 0.370185 0.260669 0.831456
O O11 0.250000 0.970767 0.636408
O O12 0.098338 0.293977 0.923566
O O13 0.000000 0.500000 0.858365
O O14 0.000000 0.000000 0.863553
O O15 0.000000 0.500000 0.465834
O O16 0.000000 0.000000 0.491854
#
# Coordination Sequence:
#
# PCOD8192681 Si02
#       6
#     8   8   8   8   8   8
#     4  12  25  43  64  86 115 160 207 245 287 354
#     4  11  21  39  64  89 117 156 204 247 288 350
#     4  12  24  40  61  91 125 156 191 247 306 352
#     4  12  25  41  59  88 124 158 194 246 305 354
#     4  10  20  37  62  88 117 156 201 243 289 350
#     4   9  18  34  60  90 116 150 199 250 289 336
#
# _framework density 21.164764000000002
#
# number of rings (size 3 to 8) (size 9 to 14) (size 15 to 20)
#    0.000    1.000    0.000    9.500    0.000    0.000 
#    0.000    1.667    0.000    0.000    0.000    0.000 
#    0.000    0.000    0.000    0.000    0.000    0.000 
#
# Total GULP energy -297593.600889 kJ/mol
# GULP energy per Si atom -12399.733370 kJ/mol
# Density = 2.111659 g / cm^3
# Si number density = 21.164764 Si / 1000 Ang^3
#
#
#
# Elastic Constant Matrix: (Units=GPa)
#
#
# Indices 1 2 3 4 5 6 
#
# 1 86.2421 29.9776 54.0067 0.0000 0.0000 0.0000
# 2 29.9776 135.1655 32.8018 0.0000 0.0000 0.0000
# 3 54.0067 32.8018 120.4546 0.0000 0.0000 0.0000
# 4 0.0000 0.0000 0.0000 36.9494 0.0000 0.0000
# 5 0.0000 0.0000 0.0000 0.0000 14.1476 0.0000
# 6 0.0000 0.0000 0.0000 0.0000 0.0000 28.2312
#
#
#
# Elastic Compliance Matrix: (Units=1/GPa)
#
#
# Indices 1 2 3 4 5 6 
#
# 1 0.016617 -0.002010 -0.006903 0.000000 0.000000 0.000000
# 2 -0.002010 0.008165 -0.001322 0.000000 0.000000 0.000000
# 3 -0.006903 -0.001322 0.011757 0.000000 0.000000 0.000000
# 4 0.000000 0.000000 0.000000 0.027064 0.000000 0.000000
# 5 0.000000 0.000000 0.000000 0.000000 0.070683 0.000000
# 6 0.000000 0.000000 0.000000 0.000000 0.000000 0.035422
#
#
# Mechanical properties :
#
#
# Convention : Reuss Voigt Hill
#
# Bulk Modulus (GPa) = 62.23459 63.93715 63.08587
# Shear Modulus (GPa) = 25.57095 30.87070 28.22083
#
# Velocity S-wave (km/s) = 3.47967 3.82329 3.65552
# Velocity P-wave (km/s) = 6.75372 7.05442 6.90571
#
# Compressibility (1/GPa) = 0.01606824
#
# Stress axis : x y z
#
# Youngs Moduli (GPa) = 60.18044 122.47348 85.05667
#
# Poissons Ratio (x) = 0.24619 0.58713
# Poissons Ratio (y) = 0.12097 0.11246
# Poissons Ratio (z) = 0.41541 0.16193
#
# Static dielectric constant tensor:
#      x y z
#    x 3.431650 0.000000 0.000000 
#    y 0.000000 3.937260 0.000000 
#    z 0.000000 0.000000 4.366990 
# 
# 
# High freq. dielectric constant tensor:
#      x y z
#    x 1.791150 0.000000 0.000000 
#    y 0.000000 1.852940 0.000000 
#    z 0.000000 0.000000 1.848720 
# 
# From -- ./inp_files/24585.got.cif
#   From: 2010.03.12/outbox.cif.g09.slc.cpg/sg46_13_cif.got.tgz:24585.got - 2010.04.14 02:56:35.
