data_PCOD8192037
_publ_section_title
;
Structure prediction by ZEFSAII (Michael W. Deem and Ramdas Pophale) SiO2 
 PCOD8192037
Probable space group: I M A 2
;
_chemical_formula_sum "Si O2"
_cell_formula_units_Z 56
_cell_length_a 8.790995
_cell_length_b 14.557690
_cell_length_c 22.484440
_cell_angle_alpha 90.000000
_cell_angle_beta 90.000000
_cell_angle_gamma 90.000000
_cell_volume 2877.481734
_symmetry_space_group_name_H-M "I M A 2"
_symmetry_group_IT_number 46
_symmetry_cell_setting 'orthorhombic'
loop_
_space_group_symop_operation_xyz
x,y,z
-x,-y,z
1/2-x,y,z
1/2+x,-y,z
1/2+x,1/2+y,1/2+z
1/2-x,1/2-y,1/2+z
-x,1/2+y,1/2+z
x,1/2-y,1/2+z
loop_
_atom_site_type_symbol
_atom_site_label
_atom_site_fract_x
_atom_site_fract_y
_atom_site_fract_z
Si Si1 0.073295 0.092421 0.620810
Si Si2 0.569979 0.906576 0.923387
Si Si3 0.569924 0.906326 0.486948
Si Si4 0.929445 0.785279 0.380556
Si Si5 0.430173 0.594380 0.551820
Si Si6 0.430487 0.399190 0.769293
Si Si7 0.071930 0.290919 0.652094
O O1 0.250000 0.072324 0.618239
O O2 0.011078 0.112029 0.553960
O O3 0.036985 0.182088 0.660734
O O4 0.000000 0.000000 0.648316
O O5 0.750000 0.917419 0.930707
O O6 0.526536 0.822660 0.879315
O O7 0.500000 0.000000 0.896183
O O8 0.499930 0.885222 0.987555
O O9 0.750000 0.913146 0.485161
O O10 0.510356 0.826771 0.442896
O O11 0.500000 0.000000 0.461834
O O12 0.750000 0.795923 0.377361
O O13 0.998156 0.840355 0.324473
O O14 0.500000 0.500000 0.577735
O O15 0.250000 0.585483 0.546847
O O16 0.475398 0.675573 0.596021
O O17 0.500000 0.500000 0.769347
O O18 0.250000 0.408049 0.772549
O O19 0.481528 0.345088 0.710348
O O20 0.250000 0.305983 0.638579
#
# Coordination Sequence:
#
# PCOD8192037 Si02
#       7
#     8   8   8   8   8   8   8
#     4   9  18  32  50  73 101 133 168 209 256 307
#     4  10  19  34  54  76 105 137 172 213 259 311
#     4   9  16  28  47  71  98 127 160 199 248 300
#     4   9  18  33  53  74 100 136 171 205 251 307
#     4  11  21  33  52  79 109 138 173 216 265 318
#     4  10  21  37  56  78 103 135 175 215 257 307
#     4  10  20  35  54  75 104 142 180 217 262 312
#
# _framework density 19.461461
#
# number of rings (size 3 to 8) (size 9 to 14) (size 15 to 20)
#    0.000    2.286    0.000    4.286    0.000    4.571 
#    0.000    6.429    0.000    0.000    0.000    0.000 
#    0.000    0.000    0.000    0.000    0.000    0.000 
#
# Total GULP energy -347128.503180 kJ/mol
# GULP energy per Si atom -12397.446542 kJ/mol
# Density = 1.941717 g / cm^3
# Si number density = 19.461461 Si / 1000 Ang^3
#
#
#
# Elastic Constant Matrix: (Units=GPa)
#
#
# Indices 1 2 3 4 5 6 
#
# 1 59.7356 41.6292 23.3845 0.0000 0.0000 0.0000
# 2 41.6292 178.3008 70.2618 0.0000 0.0000 0.0000
# 3 23.3845 70.2618 74.4574 0.0000 0.0000 0.0000
# 4 0.0000 0.0000 0.0000 33.4666 0.0000 0.0000
# 5 0.0000 0.0000 0.0000 0.0000 14.5808 0.0000
# 6 0.0000 0.0000 0.0000 0.0000 0.0000 33.9474
#
#
#
# Elastic Compliance Matrix: (Units=1/GPa)
#
#
# Indices 1 2 3 4 5 6 
#
# 1 0.020419 -0.003566 -0.003047 0.000000 0.000000 0.000000
# 2 -0.003566 0.009552 -0.007893 0.000000 0.000000 0.000000
# 3 -0.003047 -0.007893 0.021836 0.000000 0.000000 0.000000
# 4 0.000000 0.000000 0.000000 0.029880 0.000000 0.000000
# 5 0.000000 0.000000 0.000000 0.000000 0.068583 0.000000
# 6 0.000000 0.000000 0.000000 0.000000 0.000000 0.029457
#
#
# Mechanical properties :
#
#
# Convention : Reuss Voigt Hill
#
# Bulk Modulus (GPa) = 43.87447 64.78276 54.32861
# Shear Modulus (GPa) = 23.11182 28.21352 25.66267
#
# Velocity S-wave (km/s) = 3.44985 3.81164 3.63525
# Velocity P-wave (km/s) = 6.20176 7.26164 6.75253
#
# Compressibility (1/GPa) = 0.02279230
#
# Stress axis : x y z
#
# Youngs Moduli (GPa) = 48.97443 104.69375 45.79567
#
# Poissons Ratio (x) = 0.37339 0.13955
# Poissons Ratio (y) = 0.17467 0.36148
# Poissons Ratio (z) = 0.14924 0.82638
#
# Static dielectric constant tensor:
#      x y z
#    x 3.332800 0.000000 0.000000 
#    y 0.000000 3.894410 0.000000 
#    z 0.000000 0.000000 3.508820 
# 
# 
# High freq. dielectric constant tensor:
#      x y z
#    x 1.736250 0.000000 0.000000 
#    y 0.000000 1.774630 0.000000 
#    z 0.000000 0.000000 1.735250 
# 
# From -- ./inp_files/21036.got.cif
#   From: 2010.03.12/outbox.cif.g09.slc.cpg/sg46_11_cif.got.tgz:21036.got - 2010.04.14 02:56:35.
