data_PCOD8192086
_publ_section_title
;
Structure prediction by ZEFSAII (Michael W. Deem and Ramdas Pophale) SiO2 
 PCOD8192086
Probable space group: I M A 2
;
_chemical_formula_sum "Si O2"
_cell_formula_units_Z 64
_cell_length_a 8.894868
_cell_length_b 15.830791
_cell_length_c 22.769451
_cell_angle_alpha 90.000000
_cell_angle_beta 90.000000
_cell_angle_gamma 90.000000
_cell_volume 3206.230065
_symmetry_space_group_name_H-M "I M A 2"
_symmetry_group_IT_number 46
_symmetry_cell_setting 'orthorhombic'
loop_
_space_group_symop_operation_xyz
x,y,z
-x,-y,z
1/2-x,y,z
1/2+x,-y,z
1/2+x,1/2+y,1/2+z
1/2-x,1/2-y,1/2+z
-x,1/2+y,1/2+z
x,1/2-y,1/2+z
loop_
_atom_site_type_symbol
_atom_site_label
_atom_site_fract_x
_atom_site_fract_y
_atom_site_fract_z
Si Si1 0.921144 0.307921 0.792630
Si Si2 0.921858 0.124557 0.744393
Si Si3 0.927389 0.740322 0.906762
Si Si4 0.571990 0.088079 0.612083
Si Si5 0.928189 0.260603 0.026518
Si Si6 0.074620 0.419568 0.359725
Si Si7 0.577917 0.592005 0.569024
Si Si8 0.580015 0.584783 0.698812
O O1 0.750000 0.324053 0.811651
O O2 0.939457 0.223488 0.755235
O O3 0.023906 0.313988 0.850404
O O4 0.975988 0.378398 0.748721
O O5 0.750000 0.095294 0.753133
O O6 0.980436 0.103918 0.679133
O O7 0.025403 0.077865 0.791562
O O8 0.750000 0.732244 0.916510
O O9 0.979848 0.836156 0.893192
O O10 0.015677 0.706267 0.963259
O O11 0.750000 0.079392 0.607580
O O12 0.517362 0.168487 0.573410
O O13 0.500000 0.000000 0.589338
O O14 0.750000 0.251967 0.028373
O O15 0.997211 0.167044 0.033671
O O16 0.250000 0.428954 0.362932
O O17 0.000000 0.500000 0.392103
O O18 0.500000 0.500000 0.560147
O O19 0.750000 0.582376 0.546816
O O20 0.577322 0.629830 0.635425
O O21 0.500000 0.500000 0.681349
O O22 0.750000 0.575613 0.722439
#
# Coordination Sequence:
#
# PCOD8192086 Si02
#       8
#     8   8   8   8   8   8   8   8
#     4  10  19  34  57  82 110 144 181 224 278 335
#     4   9  18  33  54  81 112 143 175 215 268 328
#     4  10  22  39  56  77 106 142 188 234 277 331
#     4  10  22  38  57  83 113 147 187 232 281 333
#     4  11  23  40  60  82 112 150 194 242 290 339
#     4  10  20  33  52  79 110 141 174 215 264 322
#     4  10  21  37  59  88 120 154 190 230 282 343
#     4  10  20  34  54  82 114 145 180 224 276 335
#
# _framework density 19.961136
#
# number of rings (size 3 to 8) (size 9 to 14) (size 15 to 20)
#    0.000    2.000    0.000    3.375    0.000    7.500 
#    0.000    1.875    0.000    1.500    0.000    0.000 
#    0.000    0.000    0.000    0.000    0.000    0.000 
#
# Total GULP energy -396667.886582 kJ/mol
# GULP energy per Si atom -12395.871456 kJ/mol
# Density = 1.991570 g / cm^3
# Si number density = 19.961136 Si / 1000 Ang^3
#
#
#
# Elastic Constant Matrix: (Units=GPa)
#
#
# Indices 1 2 3 4 5 6 
#
# 1 62.5172 25.6395 25.0371 0.0000 0.0000 0.0000
# 2 25.6395 60.0228 26.7506 0.0000 0.0000 0.0000
# 3 25.0371 26.7506 82.9932 0.0000 0.0000 0.0000
# 4 0.0000 0.0000 0.0000 14.5982 0.0000 0.0000
# 5 0.0000 0.0000 0.0000 0.0000 32.8224 0.0000
# 6 0.0000 0.0000 0.0000 0.0000 0.0000 33.7068
#
#
#
# Elastic Compliance Matrix: (Units=1/GPa)
#
#
# Indices 1 2 3 4 5 6 
#
# 1 0.020425 -0.006982 -0.003912 0.000000 0.000000 0.000000
# 2 -0.006982 0.021842 -0.004934 0.000000 0.000000 0.000000
# 3 -0.003912 -0.004934 0.014819 0.000000 0.000000 0.000000
# 4 0.000000 0.000000 0.000000 0.068502 0.000000 0.000000
# 5 0.000000 0.000000 0.000000 0.000000 0.030467 0.000000
# 6 0.000000 0.000000 0.000000 0.000000 0.000000 0.029668
#
#
# Mechanical properties :
#
#
# Convention : Reuss Voigt Hill
#
# Bulk Modulus (GPa) = 39.31997 40.04307 39.68152
# Shear Modulus (GPa) = 22.13816 24.76586 23.45201
#
# Velocity S-wave (km/s) = 3.33387 3.52618 3.43138
# Velocity P-wave (km/s) = 5.87883 6.05662 5.96839
#
# Compressibility (1/GPa) = 0.02543237
#
# Stress axis : x y z
#
# Youngs Moduli (GPa) = 48.95863 45.78431 67.47878
#
# Poissons Ratio (x) = 0.31965 0.26394
# Poissons Ratio (y) = 0.34181 0.33293
# Poissons Ratio (z) = 0.19150 0.22589
#
# Static dielectric constant tensor:
#      x y z
#    x 3.609640 0.000000 0.000000 
#    y 0.000000 3.614670 0.000000 
#    z 0.000000 0.000000 3.622700 
# 
# 
# High freq. dielectric constant tensor:
#      x y z
#    x 1.783950 0.000000 0.000000 
#    y 0.000000 1.768210 0.000000 
#    z 0.000000 0.000000 1.778270 
# 
# From -- ./inp_files/23166.got.cif
#   From: 2010.03.12/outbox.cif.g09.slc.cpg/sg46_12_cif.got.tgz:23166.got - 2010.04.14 02:56:35.
