data_PCOD8192864
_publ_section_title
;
Structure prediction by ZEFSAII (Michael W. Deem and Ramdas Pophale) SiO2 
 PCOD8192864
Probable space group: I M A 2
;
_chemical_formula_sum "Si O2"
_cell_formula_units_Z 64
_cell_length_a 8.983488
_cell_length_b 24.688832
_cell_length_c 15.110780
_cell_angle_alpha 90.000000
_cell_angle_beta 90.000000
_cell_angle_gamma 90.000000
_cell_volume 3351.447489
_symmetry_space_group_name_H-M "I M A 2"
_symmetry_group_IT_number 46
_symmetry_cell_setting 'orthorhombic'
loop_
_space_group_symop_operation_xyz
x,y,z
-x,-y,z
1/2-x,y,z
1/2+x,-y,z
1/2+x,1/2+y,1/2+z
1/2-x,1/2-y,1/2+z
-x,1/2+y,1/2+z
x,1/2-y,1/2+z
loop_
_atom_site_type_symbol
_atom_site_label
_atom_site_fract_x
_atom_site_fract_y
_atom_site_fract_z
Si Si1 0.426440 0.162123 0.531480
Si Si2 0.580386 0.236018 0.239687
Si Si3 0.926110 0.056980 0.203300
Si Si4 0.925774 0.943897 0.839932
Si Si5 0.421671 0.860945 0.357968
Si Si6 0.425356 0.857670 0.713954
Si Si7 0.422573 0.280925 0.565166
Si Si8 0.423375 0.101405 0.028835
O O1 0.250000 0.156187 0.541638
O O2 0.479640 0.129327 0.445125
O O3 0.506022 0.136222 0.616378
O O4 0.481700 0.224988 0.521748
O O5 0.750000 0.230601 0.208860
O O6 0.550578 0.201130 0.327520
O O7 0.538519 0.298584 0.254939
O O8 0.486494 0.209306 0.162134
O O9 0.750000 0.050061 0.197857
O O10 0.973022 0.098336 0.280792
O O11 0.980639 0.078357 0.108832
O O12 0.000000 0.000000 0.226637
O O13 0.750000 0.946555 0.825452
O O14 0.993496 0.898917 0.777316
O O15 0.967232 0.931049 0.941206
O O16 0.000000 0.000000 0.812624
O O17 0.250000 0.870780 0.382356
O O18 0.250000 0.869487 0.709926
O O19 0.250000 0.273195 0.578107
O O20 0.460548 0.335012 0.509489
O O21 0.250000 0.094269 0.052754
#
# Coordination Sequence:
#
# PCOD8192864 Si02
#       8
#     8   8   8   8   8   8   8   8
#     4  10  21  36  58  87 120 156 194 240 294 349
#     4   9  18  34  55  83 116 151 190 233 286 346
#     4  11  23  39  60  84 117 156 198 243 289 344
#     4  11  24  41  61  85 117 153 199 249 294 349
#     4  10  21  37  56  84 119 155 195 241 291 347
#     4  10  21  39  62  86 116 153 195 244 298 351
#     4   9  18  33  53  83 119 153 189 230 282 341
#     4  10  21  37  58  86 120 156 193 236 287 346
#
# _framework density 19.096226999999999
#
# number of rings (size 3 to 8) (size 9 to 14) (size 15 to 20)
#    0.000    2.000    1.250    1.875    1.750    4.500 
#    0.000    0.625    0.000    1.500    0.000    0.000 
#    0.000    0.000    0.000    0.000    0.000    0.000 
#
# Total GULP energy -396790.103089 kJ/mol
# GULP energy per Si atom -12399.690722 kJ/mol
# Density = 1.905276 g / cm^3
# Si number density = 19.096227 Si / 1000 Ang^3
#
#
#
# Elastic Constant Matrix: (Units=GPa)
#
#
# Indices 1 2 3 4 5 6 
#
# 1 57.0847 50.1651 44.1072 0.0000 0.0000 0.0000
# 2 50.1651 107.7730 58.4471 -0.0002 0.0000 0.0000
# 3 44.1072 58.4471 106.5744 0.0001 0.0000 -0.0001
# 4 0.0000 -0.0002 0.0001 11.6008 0.0000 0.0000
# 5 0.0000 0.0000 0.0000 0.0000 35.7491 0.0000
# 6 0.0000 0.0000 -0.0001 0.0000 0.0000 27.9613
#
#
#
# Elastic Compliance Matrix: (Units=1/GPa)
#
#
# Indices 1 2 3 4 5 6 
#
# 1 0.033423 -0.011466 -0.007545 0.000000 0.000000 0.000000
# 2 -0.011466 0.017140 -0.004655 0.000000 0.000000 0.000000
# 3 -0.007545 -0.004655 0.015058 0.000000 0.000000 0.000000
# 4 0.000000 0.000000 0.000000 0.086201 0.000000 0.000000
# 5 0.000000 0.000000 0.000000 0.000000 0.027973 0.000000
# 6 0.000000 0.000000 0.000000 0.000000 0.000000 0.035764
#
#
# Mechanical properties :
#
#
# Convention : Reuss Voigt Hill
#
# Bulk Modulus (GPa) = 54.67051 64.09675 59.38363
# Shear Modulus (GPa) = 18.58828 22.97641 20.78235
#
# Velocity S-wave (km/s) = 3.12332 3.47247 3.30251
# Velocity P-wave (km/s) = 6.45740 7.05091 6.76067
#
# Compressibility (1/GPa) = 0.01829140
#
# Stress axis : x y z
#
# Youngs Moduli (GPa) = 29.91912 58.34263 66.40929
#
# Poissons Ratio (x) = 0.66896 0.50103
# Poissons Ratio (y) = 0.34306 0.30910
# Poissons Ratio (z) = 0.22573 0.27156
#
# Static dielectric constant tensor:
#      x y z
#    x 3.498480 0.000000 0.000000 
#    y 0.000000 3.831540 0.000000 
#    z 0.000000 0.000000 3.411780 
# 
# 
# High freq. dielectric constant tensor:
#      x y z
#    x 1.747050 0.000000 0.000000 
#    y 0.000000 1.743440 0.000000 
#    z 0.000000 0.000000 1.735100 
# 
# From -- ./inp_files/14490.got.cif
#   From: 2010.03.12/outbox.cif.g09.slc.cpg/sg46_8_cif.got.tgz:14490.got - 2010.04.14 02:56:35.
