data_PCOD8192768
_publ_section_title
;
Structure prediction by ZEFSAII (Michael W. Deem and Ramdas Pophale) SiO2 
 PCOD8192768
Probable space group: I M A 2
;
_chemical_formula_sum "Si O2"
_cell_formula_units_Z 48
_cell_length_a 14.694776
_cell_length_b 7.203421
_cell_length_c 22.178618
_cell_angle_alpha 90.000000
_cell_angle_beta 90.000000
_cell_angle_gamma 90.000000
_cell_volume 2347.665667
_symmetry_space_group_name_H-M "I M A 2"
_symmetry_group_IT_number 46
_symmetry_cell_setting 'orthorhombic'
loop_
_space_group_symop_operation_xyz
x,y,z
-x,-y,z
1/2-x,y,z
1/2+x,-y,z
1/2+x,1/2+y,1/2+z
1/2-x,1/2-y,1/2+z
-x,1/2+y,1/2+z
x,1/2-y,1/2+z
loop_
_atom_site_type_symbol
_atom_site_label
_atom_site_fract_x
_atom_site_fract_y
_atom_site_fract_z
Si Si1 0.503933 0.708964 0.613900
Si Si2 0.354054 0.182598 0.848478
Si Si3 0.353503 0.504685 0.073350
Si Si4 0.395468 0.018369 0.440155
Si Si5 0.352120 0.762810 0.836026
Si Si6 0.506266 0.782260 0.748970
O O1 0.500000 0.500000 0.586176
O O2 0.593101 0.815312 0.589446
O O3 0.516418 0.683078 0.685384
O O4 0.410755 0.818982 0.598020
O O5 0.250000 0.214032 0.831111
O O6 0.377732 0.279884 0.911615
O O7 0.410012 0.268670 0.792793
O O8 0.379725 0.968266 0.857838
O O9 0.250000 0.506072 0.100632
O O10 0.340634 0.511757 0.001414
O O11 0.500000 0.000000 0.457253
O O12 0.362417 0.866695 0.393160
O O13 0.250000 0.755918 0.811070
O O14 0.416168 0.701930 0.781103
O O15 0.500000 0.000000 0.736097
#
# Coordination Sequence:
#
# PCOD8192768 Si02
#       6
#     8   8   8   8   8   8
#     4  11  25  44  66  96 130 173 228 271 326 385
#     4  10  22  38  61  96 129 161 204 257 318 382
#     4  11  25  48  69  93 132 177 223 276 324 387
#     4  12  22  41  69  92 127 171 208 261 326 386
#     4  10  22  38  61  96 129 161 204 257 318 382
#     4  10  20  39  62  89 131 171 203 260 316 382
#
# _framework density 20.445843
#
# number of rings (size 3 to 8) (size 9 to 14) (size 15 to 20)
#    0.000    1.333    5.000    1.500    2.333    3.333 
#    0.000    0.000    0.000    0.000    0.000    0.000 
#    0.000    0.000    0.000    0.000    0.000    0.000 
#
# Total GULP energy -297614.658261 kJ/mol
# GULP energy per Si atom -12400.610761 kJ/mol
# Density = 2.039931 g / cm^3
# Si number density = 20.445843 Si / 1000 Ang^3
#
#
#
# Elastic Constant Matrix: (Units=GPa)
#
#
# Indices 1 2 3 4 5 6 
#
# 1 120.6708 5.3870 -6.7588 0.0000 0.0000 0.0000
# 2 5.3870 80.1132 -8.1513 0.0000 0.0000 0.0000
# 3 -6.7588 -8.1513 77.7201 0.0000 0.0000 0.0000
# 4 0.0000 0.0000 0.0000 23.8768 0.0000 0.0000
# 5 0.0000 0.0000 0.0000 0.0000 14.6205 0.0000
# 6 0.0000 0.0000 0.0000 0.0000 0.0000 21.4643
#
#
#
# Elastic Compliance Matrix: (Units=1/GPa)
#
#
# Indices 1 2 3 4 5 6 
#
# 1 0.008347 -0.000493 0.000674 0.000000 0.000000 0.000000
# 2 -0.000493 0.012646 0.001283 0.000000 0.000000 0.000000
# 3 0.000674 0.001283 0.013060 0.000000 0.000000 0.000000
# 4 0.000000 0.000000 0.000000 0.041882 0.000000 0.000000
# 5 0.000000 0.000000 0.000000 0.000000 0.068397 0.000000
# 6 0.000000 0.000000 0.000000 0.000000 0.000000 0.046589
#
#
# Mechanical properties :
#
#
# Convention : Reuss Voigt Hill
#
# Bulk Modulus (GPa) = 27.03962 28.82866 27.93414
# Shear Modulus (GPa) = 24.96031 31.19414 28.07722
#
# Velocity S-wave (km/s) = 3.49779 3.91025 3.70976
# Velocity P-wave (km/s) = 5.43750 5.87515 5.66056
#
# Compressibility (1/GPa) = 0.03698276
#
# Stress axis : x y z
#
# Youngs Moduli (GPa) = 119.80694 79.07604 76.57013
#
# Poissons Ratio (x) = 0.03896 -0.05162
# Poissons Ratio (y) = 0.05902 -0.09828
# Poissons Ratio (z) = -0.08077 -0.10149
#
# Static dielectric constant tensor:
#      x y z
#    x 3.963560 0.000000 0.000000 
#    y 0.000000 3.823510 0.000000 
#    z 0.000000 0.000000 3.760190 
# 
# 
# High freq. dielectric constant tensor:
#      x y z
#    x 1.810020 0.000000 0.000000 
#    y 0.000000 1.803040 0.000000 
#    z 0.000000 0.000000 1.791510 
# 
# From -- ./inp_files/21894.got.cif
#   From: 2010.03.12/outbox.cif.g09.slc.cpg/sg46_11_cif.got.tgz:21894.got - 2010.04.14 02:56:35.
