data_PCOD8192847
_publ_section_title
;
Structure prediction by ZEFSAII (Michael W. Deem and Ramdas Pophale) SiO2 
 PCOD8192847
Probable space group: I M A 2
;
_chemical_formula_sum "Si O2"
_cell_formula_units_Z 48
_cell_length_a 9.129923
_cell_length_b 15.285001
_cell_length_c 18.185948
_cell_angle_alpha 90.000000
_cell_angle_beta 90.000000
_cell_angle_gamma 90.000000
_cell_volume 2537.865087
_symmetry_space_group_name_H-M "I M A 2"
_symmetry_group_IT_number 46
_symmetry_cell_setting 'orthorhombic'
loop_
_space_group_symop_operation_xyz
x,y,z
-x,-y,z
1/2-x,y,z
1/2+x,-y,z
1/2+x,1/2+y,1/2+z
1/2-x,1/2-y,1/2+z
-x,1/2+y,1/2+z
x,1/2-y,1/2+z
loop_
_atom_site_type_symbol
_atom_site_label
_atom_site_fract_x
_atom_site_fract_y
_atom_site_fract_z
Si Si1 0.921715 0.089312 0.605550
Si Si2 0.921372 0.088968 0.435927
Si Si3 0.918662 0.766703 0.342767
Si Si4 0.579536 0.585461 0.409871
Si Si5 0.580721 0.749831 0.673135
Si Si6 0.078464 0.413620 0.578331
O O1 0.750000 0.078838 0.619628
O O2 0.956756 0.111170 0.520626
O O3 0.983551 0.165964 0.656309
O O4 0.000000 0.000000 0.629495
O O5 0.750000 0.076891 0.422371
O O6 0.979694 0.166769 0.386017
O O7 0.000000 0.000000 0.411482
O O8 0.750000 0.781481 0.366604
O O9 0.969360 0.668759 0.362635
O O10 0.940866 0.780418 0.256572
O O11 0.500000 0.500000 0.377678
O O12 0.750000 0.567244 0.402676
O O13 0.533223 0.602439 0.494046
O O14 0.750000 0.772396 0.656242
O O15 0.523563 0.670165 0.623354
O O16 0.250000 0.427643 0.588541
O O17 0.000000 0.500000 0.609656
#
# Coordination Sequence:
#
# PCOD8192847 Si02
#       6
#     8   8   8   8   8   8
#     4  10  21  37  58  82 107 140 183 229 275 323
#     4  10  21  37  58  82 107 140 183 229 275 323
#     4  10  21  36  54  79 111 144 177 217 269 325
#     4   9  18  33  53  75 100 133 172 214 258 305
#     4  10  21  36  54  79 111 144 177 217 269 325
#     4   9  18  33  53  75 100 133 172 214 258 305
#
# _framework density 18.913535
#
# number of rings (size 3 to 8) (size 9 to 14) (size 15 to 20)
#    0.000    2.333    0.000    2.000    0.000    6.667 
#    0.000    6.667    0.000    0.000    0.000    0.000 
#    0.000    0.000    0.000    0.000    0.000    0.000 
#
# Total GULP energy -297710.363250 kJ/mol
# GULP energy per Si atom -12404.598469 kJ/mol
# Density = 1.887049 g / cm^3
# Si number density = 18.913535 Si / 1000 Ang^3
#
#
#
# Elastic Constant Matrix: (Units=GPa)
#
#
# Indices 1 2 3 4 5 6 
#
# 1 68.8396 39.4045 18.6624 0.0000 0.0000 0.0000
# 2 39.4045 90.7524 13.8334 0.0000 0.0000 0.0000
# 3 18.6624 13.8334 34.3971 0.0000 0.0000 0.0000
# 4 0.0000 0.0000 0.0000 5.5141 0.0000 0.0000
# 5 0.0000 0.0000 0.0000 0.0000 24.0055 0.0000
# 6 0.0000 0.0000 0.0000 0.0000 0.0000 42.0363
#
#
#
# Elastic Compliance Matrix: (Units=1/GPa)
#
#
# Indices 1 2 3 4 5 6 
#
# 1 0.021381 -0.008006 -0.008381 0.000000 0.000000 0.000000
# 2 -0.008006 0.014737 -0.001583 0.000000 0.000000 0.000000
# 3 -0.008381 -0.001583 0.034256 0.000000 0.000000 0.000000
# 4 0.000000 0.000000 0.000000 0.181352 0.000000 0.000000
# 5 0.000000 0.000000 0.000000 0.000000 0.041657 0.000000
# 6 0.000000 0.000000 0.000000 0.000000 0.000000 0.023789
#
#
# Mechanical properties :
#
#
# Convention : Reuss Voigt Hill
#
# Bulk Modulus (GPa) = 29.04088 37.53220 33.28654
# Shear Modulus (GPa) = 13.71406 22.45044 18.08225
#
# Velocity S-wave (km/s) = 2.69567 3.44903 3.09536
# Velocity P-wave (km/s) = 5.00767 5.97898 5.51475
#
# Compressibility (1/GPa) = 0.03443421
#
# Stress axis : x y z
#
# Youngs Moduli (GPa) = 46.76956 67.85846 29.19221
#
# Poissons Ratio (x) = 0.54330 0.24465
# Poissons Ratio (y) = 0.37445 0.04620
# Poissons Ratio (z) = 0.39196 0.10740
#
# Static dielectric constant tensor:
#      x y z
#    x 3.432690 0.000000 0.000000 
#    y 0.000000 3.582590 0.000000 
#    z 0.000000 0.000000 3.397840 
# 
# 
# High freq. dielectric constant tensor:
#      x y z
#    x 1.731590 0.000000 0.000000 
#    y 0.000000 1.744960 0.000000 
#    z 0.000000 0.000000 1.727860 
# 
# From -- ./inp_files/6579.got.cif
#   From: 2010.03.12/outbox.cif.g09.slc.cpg/sg46_4_cif.got.tgz:6579.got - 2010.04.14 02:56:35.
