data_PCOD8192441
_publ_section_title
;
Structure prediction by ZEFSAII (Michael W. Deem and Ramdas Pophale) SiO2 
 PCOD8192441
Probable space group: I M A 2
;
_chemical_formula_sum "Si O2"
_cell_formula_units_Z 64
_cell_length_a 20.141343
_cell_length_b 11.083558
_cell_length_c 14.136241
_cell_angle_alpha 90.000000
_cell_angle_beta 90.000000
_cell_angle_gamma 90.000000
_cell_volume 3155.742540
_symmetry_space_group_name_H-M "I M A 2"
_symmetry_group_IT_number 46
_symmetry_cell_setting 'orthorhombic'
loop_
_space_group_symop_operation_xyz
x,y,z
-x,-y,z
1/2-x,y,z
1/2+x,-y,z
1/2+x,1/2+y,1/2+z
1/2-x,1/2-y,1/2+z
-x,1/2+y,1/2+z
x,1/2-y,1/2+z
loop_
_atom_site_type_symbol
_atom_site_label
_atom_site_fract_x
_atom_site_fract_y
_atom_site_fract_z
Si Si1 0.606681 0.814602 0.865990
Si Si2 0.326654 0.483225 0.103393
Si Si3 0.822765 0.772734 0.191733
Si Si4 0.544878 0.164812 0.090491
Si Si5 0.563283 0.417195 0.989703
Si Si6 0.096676 0.417284 0.556274
Si Si7 0.473230 0.793880 0.308760
Si Si8 0.430723 0.958445 0.754683
O O1 0.665869 0.766417 0.800198
O O2 0.547100 0.717822 0.853575
O O3 0.580434 0.943547 0.834043
O O4 0.634760 0.846757 0.970742
O O5 0.250000 0.529495 0.098596
O O6 0.329199 0.341804 0.122990
O O7 0.368554 0.552273 0.184200
O O8 0.367505 0.510500 0.007023
O O9 0.750000 0.829791 0.185461
O O10 0.874477 0.872173 0.156230
O O11 0.477823 0.127491 0.038532
O O12 0.529329 0.155479 0.202513
O O13 0.599986 0.064083 0.060253
O O14 0.564402 0.298767 0.057971
O O15 0.500000 0.500000 0.014771
O O16 0.565317 0.383506 0.879098
O O17 0.436303 0.666335 0.310038
O O18 0.500000 0.000000 0.701721
#
# Coordination Sequence:
#
# PCOD8192441 Si02
#       8
#     8   8   8   8   8   8   8   8
#     4  10  20  34  61  92 120 158 209 259 305 368
#     4  10  21  39  61  87 120 160 211 264 306 362
#     4  10  22  41  63  88 120 164 212 257 308 368
#     4  11  23  38  59  93 126 161 196 265 322 374
#     4  12  24  37  64  95 123 163 215 258 312 382
#     4  11  22  38  60  88 131 159 202 258 323 372
#     4  11  21  35  58  91 126 154 204 256 323 368
#     4   9  18  34  62  90 120 158 207 264 307 367
#
# _framework density 20.28049
#
# number of rings (size 3 to 8) (size 9 to 14) (size 15 to 20)
#    0.000    1.500    3.750    1.875    7.000    0.500 
#    0.000    1.250    0.000    1.500    0.000    0.000 
#    0.000    0.000    0.000    0.000    0.000    0.000 
#
# Total GULP energy -396540.594398 kJ/mol
# GULP energy per Si atom -12391.893575 kJ/mol
# Density = 2.023433 g / cm^3
# Si number density = 20.280490 Si / 1000 Ang^3
#
#
#
# Elastic Constant Matrix: (Units=GPa)
#
#
# Indices 1 2 3 4 5 6 
#
# 1 102.6535 32.5160 18.4184 0.0000 0.0000 0.0000
# 2 32.5160 79.2733 29.8013 0.0000 0.0000 0.0000
# 3 18.4184 29.8013 111.0164 0.0000 0.0000 0.0000
# 4 0.0000 0.0000 0.0000 28.7265 0.0000 0.0000
# 5 0.0000 0.0000 0.0000 0.0000 14.0771 0.0000
# 6 0.0000 0.0000 0.0000 0.0000 0.0000 19.2571
#
#
#
# Elastic Compliance Matrix: (Units=1/GPa)
#
#
# Indices 1 2 3 4 5 6 
#
# 1 0.011245 -0.004350 -0.000698 0.000000 0.000000 0.000000
# 2 -0.004350 0.015713 -0.003496 0.000000 0.000000 0.000000
# 3 -0.000698 -0.003496 0.010062 0.000000 0.000000 0.000000
# 4 0.000000 0.000000 0.000000 0.034811 0.000000 0.000000
# 5 0.000000 0.000000 0.000000 0.000000 0.071038 0.000000
# 6 0.000000 0.000000 0.000000 0.000000 0.000000 0.051929
#
#
# Mechanical properties :
#
#
# Convention : Reuss Voigt Hill
#
# Bulk Modulus (GPa) = 50.17181 50.49051 50.33116
# Shear Modulus (GPa) = 22.88021 26.55930 24.71975
#
# Velocity S-wave (km/s) = 3.36249 3.62276 3.49505
# Velocity P-wave (km/s) = 6.31410 6.51532 6.41550
#
# Compressibility (1/GPa) = 0.01993151
#
# Stress axis : x y z
#
# Youngs Moduli (GPa) = 88.93175 63.64072 99.38355
#
# Poissons Ratio (x) = 0.27683 0.06936
# Poissons Ratio (y) = 0.38684 0.34748
# Poissons Ratio (z) = 0.06206 0.22251
#
# Static dielectric constant tensor:
#      x y z
#    x 3.525030 0.000000 0.000000 
#    y 0.000000 3.743040 0.000000 
#    z 0.000000 0.000000 3.685760 
# 
# 
# High freq. dielectric constant tensor:
#      x y z
#    x 1.752970 0.000000 0.000000 
#    y 0.000000 1.793100 0.000000 
#    z 0.000000 0.000000 1.799050 
# 
# From -- ./inp_files/16797.got.cif
#   From: 2010.03.12/outbox.cif.g09.slc.cpg/sg46_9_cif.got.tgz:16797.got - 2010.04.14 02:56:35.
