data_PCOD8192691
_publ_section_title
;
Structure prediction by ZEFSAII (Michael W. Deem and Ramdas Pophale) SiO2 
 PCOD8192691
Probable space group: I M A 2
;
_chemical_formula_sum "Si O2"
_cell_formula_units_Z 48
_cell_length_a 9.045446
_cell_length_b 27.664816
_cell_length_c 9.624427
_cell_angle_alpha 90.000000
_cell_angle_beta 90.000000
_cell_angle_gamma 90.000000
_cell_volume 2408.422380
_symmetry_space_group_name_H-M "I M A 2"
_symmetry_group_IT_number 46
_symmetry_cell_setting 'orthorhombic'
loop_
_space_group_symop_operation_xyz
x,y,z
-x,-y,z
1/2-x,y,z
1/2+x,-y,z
1/2+x,1/2+y,1/2+z
1/2-x,1/2-y,1/2+z
-x,1/2+y,1/2+z
x,1/2-y,1/2+z
loop_
_atom_site_type_symbol
_atom_site_label
_atom_site_fract_x
_atom_site_fract_y
_atom_site_fract_z
Si Si1 0.074004 0.706959 0.071970
Si Si2 0.919812 0.399920 0.487241
Si Si3 0.082363 0.046305 0.758469
Si Si4 0.925186 0.296402 0.389309
Si Si5 0.580201 0.610843 0.999994
Si Si6 0.078658 0.950199 0.271541
O O1 0.250000 0.701214 0.065120
O O2 0.017904 0.710634 0.231302
O O3 0.002450 0.661737 0.993195
O O4 0.016271 0.753745 0.988547
O O5 0.750000 0.403252 0.439363
O O6 0.983933 0.346678 0.453693
O O7 0.937802 0.410933 0.649455
O O8 0.010567 0.440076 0.404842
O O9 0.250000 0.031263 0.785563
O O10 0.068867 0.091668 0.656621
O O11 0.000000 0.000000 0.693692
O O12 0.750000 0.295617 0.390471
O O13 0.750000 0.616837 0.952859
O O14 0.499903 0.571841 0.904866
O O15 0.250000 0.960626 0.305074
O O16 0.000000 0.000000 0.229131
#
# Coordination Sequence:
#
# PCOD8192691 Si02
#       6
#     8   8   8   8   8   8
#     4  10  20  37  63  90 121 157 200 250 301 356
#     4  10  21  39  62  90 122 157 199 246 298 359
#     4  11  23  38  60  87 117 154 198 246 299 360
#     4   9  19  35  61  93 120 153 198 246 296 357
#     4  11  24  41  60  87 123 160 205 249 299 361
#     4  11  24  40  62  89 123 161 205 251 302 361
#
# _framework density 19.930059
#
# number of rings (size 3 to 8) (size 9 to 14) (size 15 to 20)
#    0.000    1.667    1.667    2.500    2.333    6.000 
#    0.000    1.667    0.000    0.000    0.000    0.000 
#    0.000    0.000    0.000    0.000    0.000    0.000 
#
# Total GULP energy -297700.052244 kJ/mol
# GULP energy per Si atom -12404.168844 kJ/mol
# Density = 1.988470 g / cm^3
# Si number density = 19.930059 Si / 1000 Ang^3
#
#
#
# Elastic Constant Matrix: (Units=GPa)
#
#
# Indices 1 2 3 4 5 6 
#
# 1 96.5594 42.6278 34.3219 -0.0005 -0.0002 0.0000
# 2 42.6278 132.9949 36.0831 -0.0007 -0.0003 0.0000
# 3 34.3219 36.0831 83.7925 -0.0001 -0.0025 -0.0002
# 4 -0.0005 -0.0007 -0.0001 40.2590 -0.0001 0.0001
# 5 -0.0002 -0.0003 -0.0025 -0.0001 22.0028 -0.0002
# 6 0.0000 0.0000 -0.0002 0.0001 -0.0002 30.2543
#
#
#
# Elastic Compliance Matrix: (Units=1/GPa)
#
#
# Indices 1 2 3 4 5 6 
#
# 1 0.013175 -0.003124 -0.004052 0.000000 0.000000 0.000000
# 2 -0.003124 0.009254 -0.002706 0.000000 0.000000 0.000000
# 3 -0.004052 -0.002706 0.014759 0.000000 0.000002 0.000000
# 4 0.000000 0.000000 0.000000 0.024839 0.000000 0.000000
# 5 0.000000 0.000000 0.000002 0.000000 0.045449 0.000000
# 6 0.000000 0.000000 0.000000 0.000000 0.000000 0.033053
#
#
# Mechanical properties :
#
#
# Convention : Reuss Voigt Hill
#
# Bulk Modulus (GPa) = 57.38297 59.93470 58.65883
# Shear Modulus (GPa) = 30.10222 31.85751 30.97987
#
# Velocity S-wave (km/s) = 3.89059 4.00242 3.94690
# Velocity P-wave (km/s) = 7.00264 7.17614 7.08992
#
# Compressibility (1/GPa) = 0.01742677
#
# Stress axis : x y z
#
# Youngs Moduli (GPa) = 75.89853 108.05671 67.75570
#
# Poissons Ratio (x) = 0.33755 0.27452
# Poissons Ratio (y) = 0.23709 0.18332
# Poissons Ratio (z) = 0.30751 0.29236
#
# Static dielectric constant tensor:
#      x y z
#    x 3.491330 0.000000 0.000000 
#    y 0.000000 3.714450 0.000000 
#    z 0.000000 0.000000 3.556770 
# 
# 
# High freq. dielectric constant tensor:
#      x y z
#    x 1.760480 0.000000 0.000000 
#    y 0.000000 1.789150 0.000000 
#    z 0.000000 0.000000 1.780380 
# 
# From -- ./inp_files/3893.got.cif
#   From: 2010.03.12/outbox.cif.g09.slc.cpg/sg46_2_cif.got.tgz:3893.got - 2010.04.14 02:56:35.
