data_PCOD8192590
_publ_section_title
;
Structure prediction by ZEFSAII (Michael W. Deem and Ramdas Pophale) SiO2 
 PCOD8192590
Probable space group: I M A 2
;
_chemical_formula_sum "Si O2"
_cell_formula_units_Z 48
_cell_length_a 8.833503
_cell_length_b 15.277182
_cell_length_c 18.492471
_cell_angle_alpha 90.000000
_cell_angle_beta 90.000000
_cell_angle_gamma 90.000000
_cell_volume 2495.578065
_symmetry_space_group_name_H-M "I M A 2"
_symmetry_group_IT_number 46
_symmetry_cell_setting 'orthorhombic'
loop_
_space_group_symop_operation_xyz
x,y,z
-x,-y,z
1/2-x,y,z
1/2+x,-y,z
1/2+x,1/2+y,1/2+z
1/2-x,1/2-y,1/2+z
-x,1/2+y,1/2+z
x,1/2-y,1/2+z
loop_
_atom_site_type_symbol
_atom_site_label
_atom_site_fract_x
_atom_site_fract_y
_atom_site_fract_z
Si Si1 0.928563 0.089861 0.531750
Si Si2 0.572034 0.409664 0.668121
Si Si3 0.426033 0.235759 0.434143
Si Si4 0.572583 0.240767 0.281213
Si Si5 0.928288 0.088991 0.696320
Si Si6 0.427284 0.090121 0.015982
O O1 0.750000 0.081956 0.525668
O O2 0.982460 0.105967 0.614156
O O3 0.982446 0.170824 0.484852
O O4 0.000000 0.000000 0.501679
O O5 0.500000 0.500000 0.696213
O O6 0.750000 0.421681 0.657412
O O7 0.533167 0.335995 0.725901
O O8 0.500707 0.381599 0.591846
O O9 0.250000 0.213635 0.441418
O O10 0.477691 0.222598 0.352489
O O11 0.461681 0.335067 0.457576
O O12 0.750000 0.243371 0.299742
O O13 0.516504 0.331357 0.245988
O O14 0.750000 0.079438 0.699032
O O15 0.000000 0.000000 0.727329
O O16 0.250000 0.075617 0.027980
O O17 0.500000 0.000000 0.986902
#
# Coordination Sequence:
#
# PCOD8192590 Si02
#       6
#     8   8   8   8   8   8
#     4  10  20  37  61  85 111 144 182 227 275 324
#     4  10  20  36  59  84 108 139 181 226 273 325
#     4  11  24  38  54  81 114 148 186 226 272 326
#     4  10  22  38  55  78 111 149 183 219 271 330
#     4   9  19  36  58  83 108 139 181 225 272 325
#     4  10  21  37  58  83 110 143 184 229 275 324
#
# _framework density 19.234022
#
# number of rings (size 3 to 8) (size 9 to 14) (size 15 to 20)
#    0.000    2.000    0.000    4.000    0.000    8.000 
#    0.000    5.000    0.000    0.000    0.000    0.000 
#    0.000    0.000    0.000    0.000    0.000    0.000 
#
# Total GULP energy -297694.235948 kJ/mol
# GULP energy per Si atom -12403.926498 kJ/mol
# Density = 1.919024 g / cm^3
# Si number density = 19.234022 Si / 1000 Ang^3
#
#
#
# Elastic Constant Matrix: (Units=GPa)
#
#
# Indices 1 2 3 4 5 6 
#
# 1 70.3992 21.3412 9.9220 0.0000 0.0000 0.0000
# 2 21.3412 61.6372 -6.4079 0.0000 0.0000 0.0000
# 3 9.9220 -6.4079 20.0846 0.0000 0.0000 0.0000
# 4 0.0000 0.0000 0.0000 6.3055 0.0000 0.0000
# 5 0.0000 0.0000 0.0000 0.0000 27.1619 0.0000
# 6 0.0000 0.0000 0.0000 0.0000 0.0000 36.1777
#
#
#
# Elastic Compliance Matrix: (Units=1/GPa)
#
#
# Indices 1 2 3 4 5 6 
#
# 1 0.018044 -0.007420 -0.011281 0.000000 0.000000 0.000000
# 2 -0.007420 0.019832 0.009993 0.000000 0.000000 0.000000
# 3 -0.011281 0.009993 0.058551 0.000000 0.000000 0.000000
# 4 0.000000 0.000000 0.000000 0.158593 0.000000 0.000000
# 5 0.000000 0.000000 0.000000 0.000000 0.036816 0.000000
# 6 0.000000 0.000000 0.000000 0.000000 0.000000 0.027641
#
#
# Mechanical properties :
#
#
# Convention : Reuss Voigt Hill
#
# Bulk Modulus (GPa) = 12.65670 22.42572 17.54121
# Shear Modulus (GPa) = 13.76532 22.41338 18.08935
#
# Velocity S-wave (km/s) = 2.67811 3.41735 3.07006
# Velocity P-wave (km/s) = 4.01967 5.22071 4.65905
#
# Compressibility (1/GPa) = 0.07900955
#
# Stress axis : x y z
#
# Youngs Moduli (GPa) = 55.41948 50.42326 17.07919
#
# Poissons Ratio (x) = 0.37416 0.19268
# Poissons Ratio (y) = 0.41124 -0.17068
# Poissons Ratio (z) = 0.62521 -0.50389
#
# Static dielectric constant tensor:
#      x y z
#    x 3.552170 0.000000 0.000000 
#    y 0.000000 3.710400 0.000000 
#    z 0.000000 0.000000 3.448530 
# 
# 
# High freq. dielectric constant tensor:
#      x y z
#    x 1.755280 0.000000 0.000000 
#    y 0.000000 1.762610 0.000000 
#    z 0.000000 0.000000 1.741170 
# 
# From -- ./inp_files/13902.got.cif
#   From: 2010.03.12/outbox.cif.g09.slc.cpg/sg46_7_cif.got.tgz:13902.got - 2010.04.14 02:56:35.
