data_PCOD8192249
_publ_section_title
;
Structure prediction by ZEFSAII (Michael W. Deem and Ramdas Pophale) SiO2 
 PCOD8192249
Probable space group: I M A 2
;
_chemical_formula_sum "Si O2"
_cell_formula_units_Z 48
_cell_length_a 10.031153
_cell_length_b 8.856810
_cell_length_c 27.792064
_cell_angle_alpha 90.000000
_cell_angle_beta 90.000000
_cell_angle_gamma 90.000000
_cell_volume 2469.158584
_symmetry_space_group_name_H-M "I M A 2"
_symmetry_group_IT_number 46
_symmetry_cell_setting 'orthorhombic'
loop_
_space_group_symop_operation_xyz
x,y,z
-x,-y,z
1/2-x,y,z
1/2+x,-y,z
1/2+x,1/2+y,1/2+z
1/2-x,1/2-y,1/2+z
-x,1/2+y,1/2+z
x,1/2-y,1/2+z
loop_
_atom_site_type_symbol
_atom_site_label
_atom_site_fract_x
_atom_site_fract_y
_atom_site_fract_z
Si Si1 0.750000 0.311201 0.830850
Si Si2 0.250000 0.330915 0.828372
Si Si3 0.404563 0.131116 0.566476
Si Si4 0.750000 0.311429 0.720364
Si Si5 0.995688 0.679165 0.889490
Si Si6 0.404532 0.142297 0.980701
Si Si7 0.494455 0.326974 0.172891
Si Si8 0.750000 0.670433 0.721446
O O1 0.750000 0.489798 0.827283
O O2 0.750000 0.248802 0.775762
O O3 0.624690 0.255953 0.862165
O O4 0.122218 0.267853 0.855196
O O5 0.250000 0.265345 0.775190
O O6 0.250000 0.076074 0.574138
O O7 0.406275 0.271809 0.531063
O O8 0.473371 0.183249 0.615857
O O9 0.500000 0.000000 0.544839
O O10 0.627007 0.253763 0.689760
O O11 0.750000 0.490929 0.720419
O O12 0.973221 0.752528 0.941028
O O13 0.000000 0.500000 0.897093
O O14 0.250000 0.100660 0.967695
O O15 0.500000 0.000000 0.986329
O O16 0.500000 0.500000 0.190201
O O17 0.378145 0.233987 0.196388
#
# Coordination Sequence:
#
# PCOD8192249 Si02
#       8
#     4   4   8   4   8   8   8   4
#     4   9  20  35  60  93 122 155 218 257 298 361
#     4   9  18  35  60  87 120 161 208 261 298 355
#     4  10  23  44  68  92 120 161 210 252 302 373
#     4  11  23  39  64  95 126 169 216 263 310 371
#     4  10  19  38  64  89 116 163 210 257 301 359
#     4  11  25  43  61  92 129 160 198 255 318 371
#     4  11  23  41  62  93 128 167 207 261 317 371
#     4  11  21  39  64  91 126 165 214 263 312 371
#
# _framework density 19.439821999999999
#
# number of rings (size 3 to 8) (size 9 to 14) (size 15 to 20)
#    0.000    1.667    1.667    2.500    4.667    4.667 
#    0.000    5.000    0.000    0.000    0.000    0.000 
#    0.000    0.000    0.000    0.000    0.000    0.000 
#
# Total GULP energy -297532.119615 kJ/mol
# GULP energy per Si atom -12397.171651 kJ/mol
# Density = 1.939558 g / cm^3
# Si number density = 19.439822 Si / 1000 Ang^3
#
#
#
# Elastic Constant Matrix: (Units=GPa)
#
#
# Indices 1 2 3 4 5 6 
#
# 1 187.1080 54.4083 63.1148 0.0000 0.0000 0.0000
# 2 54.4083 85.9331 43.7692 0.0000 0.0000 0.0000
# 3 63.1148 43.7692 104.4304 0.0000 0.0000 0.0000
# 4 0.0000 0.0000 0.0000 31.1447 0.0000 0.0000
# 5 0.0000 0.0000 0.0000 0.0000 41.6188 0.0000
# 6 0.0000 0.0000 0.0000 0.0000 0.0000 35.1933
#
#
#
# Elastic Compliance Matrix: (Units=1/GPa)
#
#
# Indices 1 2 3 4 5 6 
#
# 1 0.007278 -0.003010 -0.003137 0.000000 0.000000 0.000000
# 2 -0.003010 0.016041 -0.004904 0.000000 0.000000 0.000000
# 3 -0.003137 -0.004904 0.013527 0.000000 0.000000 0.000000
# 4 0.000000 0.000000 0.000000 0.032108 0.000000 0.000000
# 5 0.000000 0.000000 0.000000 0.000000 0.024028 0.000000
# 6 0.000000 0.000000 0.000000 0.000000 0.000000 0.028415
#
#
# Mechanical properties :
#
#
# Convention : Reuss Voigt Hill
#
# Bulk Modulus (GPa) = 67.82564 77.78401 72.80483
# Shear Modulus (GPa) = 33.69001 36.00330 34.84665
#
# Velocity S-wave (km/s) = 4.16750 4.30820 4.23843
# Velocity P-wave (km/s) = 7.62386 8.05277 7.84124
#
# Compressibility (1/GPa) = 0.01474369
#
# Stress axis : x y z
#
# Youngs Moduli (GPa) = 137.40054 62.34217 73.92692
#
# Poissons Ratio (x) = 0.18767 0.23190
# Poissons Ratio (y) = 0.41361 0.36251
# Poissons Ratio (z) = 0.43102 0.30570
#
# Static dielectric constant tensor:
#      x y z
#    x 3.859470 0.000000 0.000000 
#    y 0.000000 3.407210 0.000000 
#    z 0.000000 0.000000 3.728540 
# 
# 
# High freq. dielectric constant tensor:
#      x y z
#    x 1.779280 0.000000 0.000000 
#    y 0.000000 1.738020 0.000000 
#    z 0.000000 0.000000 1.771830 
# 
# From -- ./inp_files/25076.got.cif
#   From: 2010.03.12/outbox.cif.g09.slc.cpg/sg46_13_cif.got.tgz:25076.got - 2010.04.14 02:56:35.
