data_PCOD8192190
_publ_section_title
;
Structure prediction by ZEFSAII (Michael W. Deem and Ramdas Pophale) SiO2 
 PCOD8192190
Probable space group: I M A 2
;
_chemical_formula_sum "Si O2"
_cell_formula_units_Z 48
_cell_length_a 31.957165
_cell_length_b 9.067504
_cell_length_c 8.964234
_cell_angle_alpha 90.000000
_cell_angle_beta 90.000000
_cell_angle_gamma 90.000000
_cell_volume 2597.581518
_symmetry_space_group_name_H-M "I M A 2"
_symmetry_group_IT_number 46
_symmetry_cell_setting 'orthorhombic'
loop_
_space_group_symop_operation_xyz
x,y,z
-x,-y,z
1/2-x,y,z
1/2+x,-y,z
1/2+x,1/2+y,1/2+z
1/2-x,1/2-y,1/2+z
-x,1/2+y,1/2+z
x,1/2-y,1/2+z
loop_
_atom_site_type_symbol
_atom_site_label
_atom_site_fract_x
_atom_site_fract_y
_atom_site_fract_z
Si Si1 0.838437 0.359412 0.372530
Si Si2 0.365516 0.414653 0.832501
Si Si3 0.201013 0.601313 0.690834
Si Si4 0.079201 0.817814 0.358933
Si Si5 0.376205 0.393740 0.182464
Si Si6 0.043644 0.578345 0.156683
O O1 0.813564 0.397985 0.520501
O O2 0.810864 0.253638 0.269627
O O3 0.882758 0.284910 0.418822
O O4 0.843926 0.508177 0.277005
O O5 0.319894 0.464597 0.777340
O O6 0.399441 0.538778 0.783580
O O7 0.378561 0.268696 0.747215
O O8 0.363144 0.392008 0.009796
O O9 0.250000 0.575469 0.697922
O O10 0.049155 0.729664 0.248020
O O11 0.048335 0.873848 0.486531
O O12 0.421988 0.460178 0.203610
O O13 0.000000 0.500000 0.188737
#
# Coordination Sequence:
#
# PCOD8192190 Si02
#       6
#     8   8   8   8   8   8
#     4  10  19  36  59  80 108 145 184 220 270 334
#     4  10  20  37  58  79 109 147 185 223 271 335
#     4  11  21  35  56  84 110 141 183 231 274 319
#     4   9  19  37  57  78 109 147 179 215 267 331
#     4  10  21  37  58  81 108 147 186 221 272 334
#     4  10  21  36  56  84 111 139 182 230 270 315
#
# _framework density 18.478726999999999
#
# number of rings (size 3 to 8) (size 9 to 14) (size 15 to 20)
#    0.000    2.000    0.000    6.500    0.000    4.000 
#    0.000    5.833    0.000    0.000    0.000    0.000 
#    0.000    0.000    0.000    0.000    0.000    0.000 
#
# Total GULP energy -297615.518584 kJ/mol
# GULP energy per Si atom -12400.646608 kJ/mol
# Density = 1.843667 g / cm^3
# Si number density = 18.478727 Si / 1000 Ang^3
#
#
#
# Elastic Constant Matrix: (Units=GPa)
#
#
# Indices 1 2 3 4 5 6 
#
# 1 100.5268 53.6633 63.5726 0.0000 0.0000 0.0000
# 2 53.6633 148.4191 67.6692 0.0000 0.0000 0.0000
# 3 63.5726 67.6692 117.6651 0.0000 0.0000 0.0000
# 4 0.0000 0.0000 0.0000 44.1401 0.0000 0.0000
# 5 0.0000 0.0000 0.0000 0.0000 21.0470 0.0000
# 6 0.0000 0.0000 0.0000 0.0000 0.0000 26.8476
#
#
#
# Elastic Compliance Matrix: (Units=1/GPa)
#
#
# Indices 1 2 3 4 5 6 
#
# 1 0.015746 -0.002459 -0.007093 0.000000 0.000000 0.000000
# 2 -0.002459 0.009516 -0.004144 0.000000 0.000000 0.000000
# 3 -0.007093 -0.004144 0.014714 0.000000 0.000000 0.000000
# 4 0.000000 0.000000 0.000000 0.022655 0.000000 0.000000
# 5 0.000000 0.000000 0.000000 0.000000 0.047513 0.000000
# 6 0.000000 0.000000 0.000000 0.000000 0.000000 0.037247
#
#
# Mechanical properties :
#
#
# Convention : Reuss Voigt Hill
#
# Bulk Modulus (GPa) = 79.46764 81.82459 80.64612
# Shear Modulus (GPa) = 27.93627 30.52068 29.22848
#
# Velocity S-wave (km/s) = 3.89241 4.06848 3.98142
# Velocity P-wave (km/s) = 7.95610 8.15148 8.05438
#
# Compressibility (1/GPa) = 0.01258374
#
# Stress axis : x y z
#
# Youngs Moduli (GPa) = 63.50839 105.08266 67.96164
#
# Poissons Ratio (x) = 0.25843 0.48205
# Poissons Ratio (y) = 0.15619 0.28164
# Poissons Ratio (z) = 0.45046 0.43548
#
# Static dielectric constant tensor:
#      x y z
#    x 3.233330 0.000000 0.000000 
#    y 0.000000 3.480630 0.000000 
#    z 0.000000 0.000000 3.509400 
# 
# 
# High freq. dielectric constant tensor:
#      x y z
#    x 1.700610 0.000000 0.000000 
#    y 0.000000 1.724360 0.000000 
#    z 0.000000 0.000000 1.727120 
# 
# From -- ./inp_files/8372.got.cif
#   From: 2010.03.12/outbox.cif.g09.slc.cpg/sg46_5_cif.got.tgz:8372.got - 2010.04.14 02:56:35.
