data_PCOD8192814
_publ_section_title
;
Structure prediction by ZEFSAII (Michael W. Deem and Ramdas Pophale) SiO2 
 PCOD8192814
Probable space group: I M A 2
;
_chemical_formula_sum "Si O2"
_cell_formula_units_Z 40
_cell_length_a 9.466891
_cell_length_b 7.260035
_cell_length_c 26.030247
_cell_angle_alpha 90.000000
_cell_angle_beta 90.000000
_cell_angle_gamma 90.000000
_cell_volume 1789.057835
_symmetry_space_group_name_H-M "I M A 2"
_symmetry_group_IT_number 46
_symmetry_cell_setting 'orthorhombic'
loop_
_space_group_symop_operation_xyz
x,y,z
-x,-y,z
1/2-x,y,z
1/2+x,-y,z
1/2+x,1/2+y,1/2+z
1/2-x,1/2-y,1/2+z
-x,1/2+y,1/2+z
x,1/2-y,1/2+z
loop_
_atom_site_type_symbol
_atom_site_label
_atom_site_fract_x
_atom_site_fract_y
_atom_site_fract_z
Si Si1 0.250000 0.584979 0.042001
Si Si2 0.500000 0.500000 0.114785
Si Si3 0.250000 0.867928 0.963715
Si Si4 0.083720 0.333621 0.684406
Si Si5 0.083556 0.690814 0.278214
Si Si6 0.750000 0.800033 0.446719
Si Si7 0.983426 0.215484 0.888742
O O1 0.384496 0.580402 0.077478
O O2 0.250000 0.793387 0.021199
O O3 0.250000 0.430896 0.996478
O O4 0.571684 0.652330 0.150331
O O5 0.121176 0.768309 0.935925
O O6 0.250000 0.087852 0.965771
O O7 0.250000 0.376335 0.694270
O O8 0.000000 0.500000 0.655590
O O9 0.995377 0.317663 0.737192
O O10 0.250000 0.661097 0.264674
O O11 0.070897 0.791793 0.333940
O O12 0.000000 0.500000 0.277189
O O13 0.618803 0.829895 0.408247
O O14 0.000000 0.000000 0.878227
#
# Coordination Sequence:
#
# PCOD8192814 Si02
#       7
#     4   4   4   8   8   4   8
#     4  12  26  44  74 102 132 192 242 294 366 420
#     4  12  28  50  74 104 144 184 248 308 368 422
#     4  10  20  42  65  93 141 179 230 292 346 425
#     4  12  28  49  76 106 144 187 241 306 370 440
#     4  11  22  39  70 105 146 192 238 290 360 434
#     4  10  22  40  63  99 139 181 236 290 346 433
#     4   9  19  36  63  97 140 186 227 281 356 422
#
# _framework density 22.358135999999998
#
# number of rings (size 3 to 8) (size 9 to 14) (size 15 to 20)
#    0.000    1.200    3.000    2.400    8.400    1.600 
#    3.600    0.000    0.000    0.000    0.000    0.000 
#    0.000    0.000    0.000    0.000    0.000    0.000 
#
# Total GULP energy -247844.448140 kJ/mol
# GULP energy per Si atom -12392.222407 kJ/mol
# Density = 2.230725 g / cm^3
# Si number density = 22.358136 Si / 1000 Ang^3
#
#
#
# Elastic Constant Matrix: (Units=GPa)
#
#
# Indices 1 2 3 4 5 6 
#
# 1 185.4765 20.1079 39.8508 0.0000 0.0000 0.0000
# 2 20.1079 57.8912 20.5506 0.0000 0.0000 0.0000
# 3 39.8508 20.5506 109.1295 0.0000 0.0000 0.0000
# 4 0.0000 0.0000 0.0000 4.3045 0.0000 0.0000
# 5 0.0000 0.0000 0.0000 0.0000 39.7354 0.0000
# 6 0.0000 0.0000 0.0000 0.0000 0.0000 41.2482
#
#
#
# Elastic Compliance Matrix: (Units=1/GPa)
#
#
# Indices 1 2 3 4 5 6 
#
# 1 0.005953 -0.001389 -0.001912 0.000000 0.000000 0.000000
# 2 -0.001389 0.018835 -0.003040 0.000000 0.000000 0.000000
# 3 -0.001912 -0.003040 0.010434 0.000000 0.000000 0.000000
# 4 0.000000 0.000000 0.000000 0.232316 0.000000 0.000000
# 5 0.000000 0.000000 0.000000 0.000000 0.025166 0.000000
# 6 0.000000 0.000000 0.000000 0.000000 0.000000 0.024243
#
#
# Mechanical properties :
#
#
# Convention : Reuss Voigt Hill
#
# Bulk Modulus (GPa) = 44.36449 57.05728 50.71089
# Shear Modulus (GPa) = 14.83048 35.19015 25.01032
#
# Velocity S-wave (km/s) = 2.57828 3.97158 3.34821
# Velocity P-wave (km/s) = 5.36182 6.82689 6.13822
#
# Compressibility (1/GPa) = 0.02254055
#
# Stress axis : x y z
#
# Youngs Moduli (GPa) = 167.98374 53.09190 95.83901
#
# Poissons Ratio (x) = 0.07374 0.18327
# Poissons Ratio (y) = 0.23331 0.29133
# Poissons Ratio (z) = 0.32123 0.16139
#
# Static dielectric constant tensor:
#      x y z
#    x 4.149430 0.000000 0.000000 
#    y 0.000000 4.047580 0.000000 
#    z 0.000000 0.000000 4.270180 
# 
# 
# High freq. dielectric constant tensor:
#      x y z
#    x 1.897320 0.000000 0.000000 
#    y 0.000000 1.878270 0.000000 
#    z 0.000000 0.000000 1.885180 
# 
# From -- ./inp_files/22795.got.cif
#   From: 2010.03.12/outbox.cif.g09.slc.cpg/sg46_12_cif.got.tgz:22795.got - 2010.04.14 02:56:35.
