data_PCOD8192841
_publ_section_title
;
Structure prediction by ZEFSAII (Michael W. Deem and Ramdas Pophale) SiO2 
 PCOD8192841
Probable space group: I M A 2
;
_chemical_formula_sum "Si O2"
_cell_formula_units_Z 44
_cell_length_a 15.838927
_cell_length_b 11.518193
_cell_length_c 12.978745
_cell_angle_alpha 90.000000
_cell_angle_beta 90.000000
_cell_angle_gamma 90.000000
_cell_volume 2367.787962
_symmetry_space_group_name_H-M "I M A 2"
_symmetry_group_IT_number 46
_symmetry_cell_setting 'orthorhombic'
loop_
_space_group_symop_operation_xyz
x,y,z
-x,-y,z
1/2-x,y,z
1/2+x,-y,z
1/2+x,1/2+y,1/2+z
1/2-x,1/2-y,1/2+z
-x,1/2+y,1/2+z
x,1/2-y,1/2+z
loop_
_atom_site_type_symbol
_atom_site_label
_atom_site_fract_x
_atom_site_fract_y
_atom_site_fract_z
Si Si1 0.480865 0.764904 0.630120
Si Si2 0.500000 0.000000 0.741167
Si Si3 0.156970 0.533188 0.382625
Si Si4 0.155540 0.709504 0.952910
Si Si5 0.911148 0.936055 0.084073
Si Si6 0.418544 0.931127 0.277439
O O1 0.506718 0.889526 0.669336
O O2 0.410279 0.786619 0.544706
O O3 0.565683 0.701209 0.586235
O O4 0.444322 0.688957 0.723074
O O5 0.415996 0.010479 0.808642
O O6 0.250000 0.503440 0.337603
O O7 0.147616 0.670645 0.391997
O O8 0.151671 0.467026 0.492279
O O9 0.250000 0.693721 0.997973
O O10 0.139205 0.602079 0.874605
O O11 0.872541 0.985012 0.192542
O O12 0.000000 0.000000 0.065178
O O13 0.500000 0.000000 0.320208
#
# Coordination Sequence:
#
# PCOD8192841 Si02
#       6
#     8   4   8   8   8   8
#     4  10  21  35  57  81 110 160 187 226 286 347
#     4  12  22  38  58  84 122 150 184 242 296 344
#     4  11  21  35  62  89 113 145 194 246 286 339
#     4  11  21  34  55  89 119 140 186 247 294 338
#     4   9  17  38  56  79 111 150 194 224 276 345
#     4   9  19  35  56  81 112 150 188 227 280 348
#
# _framework density 18.582744999999999
#
# number of rings (size 3 to 8) (size 9 to 14) (size 15 to 20)
#    0.000    2.182    6.364    0.000    1.273    2.182 
#    0.000    0.909    0.000    5.455    0.000    0.000 
#    0.000    0.000    0.000    0.000    0.000    0.000 
#
# Total GULP energy -272642.781412 kJ/mol
# GULP energy per Si atom -12392.853701 kJ/mol
# Density = 1.854045 g / cm^3
# Si number density = 18.582745 Si / 1000 Ang^3
#
#
#
# Elastic Constant Matrix: (Units=GPa)
#
#
# Indices 1 2 3 4 5 6 
#
# 1 100.6954 48.0607 43.5098 0.0000 0.0000 0.0000
# 2 48.0607 118.4079 52.9886 0.0000 0.0000 0.0000
# 3 43.5098 52.9886 37.8205 0.0000 0.0000 0.0000
# 4 0.0000 0.0000 0.0000 78.7522 0.0000 0.0000
# 5 0.0000 0.0000 0.0000 0.0000 -11.6803 0.0000
# 6 0.0000 0.0000 0.0000 0.0000 0.0000 19.9117
#
#
#
# Elastic Compliance Matrix: (Units=1/GPa)
#
#
# Indices 1 2 3 4 5 6 
#
# 1 0.021334 0.006230 -0.033273 0.000000 0.000000 0.000000
# 2 0.006230 0.024460 -0.041438 0.000000 0.000000 0.000000
# 3 -0.033273 -0.041438 0.122776 0.000000 0.000000 0.000000
# 4 0.000000 0.000000 0.000000 0.012698 0.000000 0.000000
# 5 0.000000 0.000000 0.000000 0.000000 -0.085614 0.000000
# 6 0.000000 0.000000 0.000000 0.000000 0.000000 0.050222
#
#
# Mechanical properties :
#
#
# Convention : Reuss Voigt Hill
#
# Bulk Modulus (GPa) = 31.63592 60.67133 46.15363
# Shear Modulus (GPa) = 17.04313 24.88769 20.96541
#
# Velocity S-wave (km/s) = 3.03173 3.66360 3.36254
# Velocity P-wave (km/s) = 5.41447 7.11450 6.32189
#
# Compressibility (1/GPa) = 0.03160963
#
# Stress axis : x y z
#
# Youngs Moduli (GPa) = 46.87337 40.88231 8.14493
#
# Poissons Ratio (x) = -0.25472 0.27100
# Poissons Ratio (y) = -0.29204 0.33751
# Poissons Ratio (z) = 1.55960 1.69409
#
# Static dielectric constant tensor:
#      x y z
#    x 3.791750 0.000000 0.000000 
#    y 0.000000 3.252430 0.000000 
#    z 0.000000 0.000000 3.379250 
# 
# 
# High freq. dielectric constant tensor:
#      x y z
#    x 1.700390 0.000000 0.000000 
#    y 0.000000 1.715030 0.000000 
#    z 0.000000 0.000000 1.715600 
# 
# From -- ./inp_files/11721.got.cif
#   From: 2010.03.12/outbox.cif.g09.slc.cpg/sg46_6_cif.got.tgz:11721.got - 2010.04.14 02:56:35.
