data_PCOD8192440
_publ_section_title
;
Structure prediction by ZEFSAII (Michael W. Deem and Ramdas Pophale) SiO2 
 PCOD8192440
Probable space group: I M A 2
;
_chemical_formula_sum "Si O2"
_cell_formula_units_Z 36
_cell_length_a 18.367012
_cell_length_b 10.429500
_cell_length_c 8.748887
_cell_angle_alpha 90.000000
_cell_angle_beta 90.000000
_cell_angle_gamma 90.000000
_cell_volume 1675.925872
_symmetry_space_group_name_H-M "I M A 2"
_symmetry_group_IT_number 46
_symmetry_cell_setting 'orthorhombic'
loop_
_space_group_symop_operation_xyz
x,y,z
-x,-y,z
1/2-x,y,z
1/2+x,-y,z
1/2+x,1/2+y,1/2+z
1/2-x,1/2-y,1/2+z
-x,1/2+y,1/2+z
x,1/2-y,1/2+z
loop_
_atom_site_type_symbol
_atom_site_label
_atom_site_fract_x
_atom_site_fract_y
_atom_site_fract_z
Si Si1 0.750000 0.212144 0.610311
Si Si2 0.593307 0.126711 0.592821
Si Si3 0.600719 0.553617 0.348769
Si Si4 0.000000 0.000000 0.092014
Si Si5 0.250000 0.556237 0.414007
Si Si6 0.003336 0.715348 0.815572
O O1 0.675946 0.153631 0.536757
O O2 0.750000 0.366746 0.576313
O O3 0.750000 0.172615 0.789562
O O4 0.572155 0.219712 0.733078
O O5 0.535282 0.136747 0.458130
O O6 0.587893 0.986112 0.671743
O O7 0.563809 0.456073 0.473635
O O8 0.684886 0.545009 0.392514
O O9 0.563079 0.692807 0.368671
O O10 0.969695 0.885304 0.195672
#
# Coordination Sequence:
#
# PCOD8192440 Si02
#       6
#     4   8   8   4   4   8
#     4  10  20  34  60  94 124 164 208 260 325 379
#     4  11  21  38  63  92 130 160 211 270 322 382
#     4  11  23  43  63  95 129 167 214 273 331 384
#     4  12  24  38  64  92 122 170 220 266 324 380
#     4  10  22  40  66  90 134 174 210 272 327 383
#     4  12  23  38  63  93 124 168 216 263 320 390
#
# _framework density 21.480661999999999
#
# number of rings (size 3 to 8) (size 9 to 14) (size 15 to 20)
#    0.000    0.889    4.444    4.000    3.111    0.000 
#    0.000    1.111    0.000    0.000    0.000    0.000 
#    0.000    0.000    0.000    0.000    0.000    0.000 
#
# Total GULP energy -223004.058515 kJ/mol
# GULP energy per Si atom -12389.114362 kJ/mol
# Density = 2.143177 g / cm^3
# Si number density = 21.480662 Si / 1000 Ang^3
#
#
#
# Elastic Constant Matrix: (Units=GPa)
#
#
# Indices 1 2 3 4 5 6 
#
# 1 161.0921 54.7650 62.2230 0.0000 0.0000 0.0000
# 2 54.7650 70.0089 36.5545 0.0000 0.0000 0.0000
# 3 62.2230 36.5545 106.3442 0.0000 0.0000 0.0000
# 4 0.0000 0.0000 0.0000 34.7395 0.0000 0.0000
# 5 0.0000 0.0000 0.0000 0.0000 27.0957 0.0000
# 6 0.0000 0.0000 0.0000 0.0000 0.0000 24.9912
#
#
#
# Elastic Compliance Matrix: (Units=1/GPa)
#
#
# Indices 1 2 3 4 5 6 
#
# 1 0.009497 -0.005518 -0.003660 0.000000 0.000000 0.000000
# 2 -0.005518 0.020615 -0.003857 0.000000 0.000000 0.000000
# 3 -0.003660 -0.003857 0.012871 0.000000 0.000000 0.000000
# 4 0.000000 0.000000 0.000000 0.028786 0.000000 0.000000
# 5 0.000000 0.000000 0.000000 0.000000 0.036906 0.000000
# 6 0.000000 0.000000 0.000000 0.000000 0.000000 0.040014
#
#
# Mechanical properties :
#
#
# Convention : Reuss Voigt Hill
#
# Bulk Modulus (GPa) = 59.13110 71.61447 65.37279
# Shear Modulus (GPa) = 27.71658 29.62547 28.67103
#
# Velocity S-wave (km/s) = 3.59598 3.71775 3.65737
# Velocity P-wave (km/s) = 6.69543 7.20002 6.95230
#
# Compressibility (1/GPa) = 0.01691157
#
# Stress axis : x y z
#
# Youngs Moduli (GPa) = 105.29197 48.50919 77.69462
#
# Poissons Ratio (x) = 0.26769 0.28438
# Poissons Ratio (y) = 0.58103 0.29969
# Poissons Ratio (z) = 0.38539 0.18711
#
# Static dielectric constant tensor:
#      x y z
#    x 3.895040 0.000000 0.000000 
#    y 0.000000 3.666910 0.000000 
#    z 0.000000 0.000000 4.036380 
# 
# 
# High freq. dielectric constant tensor:
#      x y z
#    x 1.838880 0.000000 0.000000 
#    y 0.000000 1.813510 0.000000 
#    z 0.000000 0.000000 1.854240 
# 
# From -- ./inp_files/7227.got.cif
#   From: 2010.03.12/outbox.cif.g09.slc.cpg/sg46_4_cif.got.tgz:7227.got - 2010.04.14 02:56:35.
