data_PCOD8192232
_publ_section_title
;
Structure prediction by ZEFSAII (Michael W. Deem and Ramdas Pophale) SiO2 
 PCOD8192232
Probable space group: I M A 2
;
_chemical_formula_sum "Si O2"
_cell_formula_units_Z 40
_cell_length_a 21.783312
_cell_length_b 10.381883
_cell_length_c 8.879048
_cell_angle_alpha 90.000000
_cell_angle_beta 90.000000
_cell_angle_gamma 90.000000
_cell_volume 2008.012657
_symmetry_space_group_name_H-M "I M A 2"
_symmetry_group_IT_number 46
_symmetry_cell_setting 'orthorhombic'
loop_
_space_group_symop_operation_xyz
x,y,z
-x,-y,z
1/2-x,y,z
1/2+x,-y,z
1/2+x,1/2+y,1/2+z
1/2-x,1/2-y,1/2+z
-x,1/2+y,1/2+z
x,1/2-y,1/2+z
loop_
_atom_site_type_symbol
_atom_site_label
_atom_site_fract_x
_atom_site_fract_y
_atom_site_fract_z
Si Si1 0.059724 0.084496 0.321420
Si Si2 0.315632 0.574822 0.798459
Si Si3 0.352688 0.718015 0.521660
Si Si4 0.581140 0.400346 0.255297
Si Si5 0.551821 0.838746 0.658098
O O1 0.043648 0.151261 0.479116
O O2 0.073649 0.195080 0.198694
O O3 0.122479 0.003523 0.334033
O O4 0.000000 0.000000 0.272952
O O5 0.250000 0.499618 0.822799
O O6 0.313552 0.621633 0.625212
O O7 0.311685 0.697919 0.908984
O O8 0.398647 0.629822 0.424616
O O9 0.389277 0.809893 0.631815
O O10 0.509729 0.370478 0.246895
O O11 0.598326 0.549013 0.214876
#
# Coordination Sequence:
#
# PCOD8192232 Si02
#       5
#     8   8   8   8   8
#     4  12  24  42  63  93 127 167 210 260 316 375
#     4  11  23  41  65  92 128 167 213 261 315 375
#     4  10  20  38  64  91 123 165 209 258 319 367
#     4  10  19  37  62  94 127 160 207 258 315 380
#     4  11  22  37  60  93 128 160 209 256 316 371
#
# _framework density 19.920193000000001
#
# number of rings (size 3 to 8) (size 9 to 14) (size 15 to 20)
#    0.000    1.200    4.000    4.200    2.800    0.000 
#    0.000    1.000    0.000    0.000    0.000    0.000 
#    0.000    0.000    0.000    0.000    0.000    0.000 
#
# Total GULP energy -247841.714464 kJ/mol
# GULP energy per Si atom -12392.085723 kJ/mol
# Density = 1.987485 g / cm^3
# Si number density = 19.920193 Si / 1000 Ang^3
#
#
#
# Elastic Constant Matrix: (Units=GPa)
#
#
# Indices 1 2 3 4 5 6 
#
# 1 101.0969 26.9065 11.2182 0.0000 0.0000 0.0000
# 2 26.9065 95.4454 27.8790 0.0000 0.0000 0.0000
# 3 11.2182 27.8790 100.7035 0.0000 0.0000 0.0000
# 4 0.0000 0.0000 0.0000 40.0952 0.0000 0.0000
# 5 0.0000 0.0000 0.0000 0.0000 -2.8011 0.0000
# 6 0.0000 0.0000 0.0000 0.0000 0.0000 16.6410
#
#
#
# Elastic Compliance Matrix: (Units=1/GPa)
#
#
# Indices 1 2 3 4 5 6 
#
# 1 0.010708 -0.002905 -0.000389 0.000000 0.000000 0.000000
# 2 -0.002905 0.012187 -0.003050 0.000000 0.000000 0.000000
# 3 -0.000389 -0.003050 0.010818 0.000000 0.000000 0.000000
# 4 0.000000 0.000000 0.000000 0.024941 0.000000 0.000000
# 5 0.000000 0.000000 0.000000 0.000000 -0.357005 0.000000
# 6 0.000000 0.000000 0.000000 0.000000 0.000000 0.060092
#
#
# Mechanical properties :
#
#
# Convention : Reuss Voigt Hill
#
# Bulk Modulus (GPa) = 47.56265 47.69479 47.62872
# Shear Modulus (GPa) = -22.87668 26.20317 1.66324
#
# Velocity S-wave (km/s) = -3.39251 3.63079 0.91475
# Velocity P-wave (km/s) = 2.92967 6.44762 5.00773
#
# Compressibility (1/GPa) = 0.02102490
#
# Stress axis : x y z
#
# Youngs Moduli (GPa) = 93.38990 82.05389 92.43964
#
# Poissons Ratio (x) = 0.23837 0.03592
# Poissons Ratio (y) = 0.27130 0.28197
# Poissons Ratio (z) = 0.03629 0.25029
#
# Static dielectric constant tensor:
#      x y z
#    x 3.467160 0.000000 0.000000 
#    y 0.000000 4.013040 0.000000 
#    z 0.000000 0.000000 3.905460 
# 
# 
# High freq. dielectric constant tensor:
#      x y z
#    x 1.754930 0.000000 0.000000 
#    y 0.000000 1.768470 0.000000 
#    z 0.000000 0.000000 1.793070 
# 
# From -- ./inp_files/6380.got.cif
#   From: 2010.03.12/outbox.cif.g09.slc.cpg/sg46_4_cif.got.tgz:6380.got - 2010.04.14 02:56:35.
