data_PCOD8192101
_publ_section_title
;
Structure prediction by ZEFSAII (Michael W. Deem and Ramdas Pophale) SiO2 
 PCOD8192101
Probable space group: I M A 2
;
_chemical_formula_sum "Si O2"
_cell_formula_units_Z 64
_cell_length_a 9.299748
_cell_length_b 27.995078
_cell_length_c 12.366267
_cell_angle_alpha 90.000000
_cell_angle_beta 90.000000
_cell_angle_gamma 90.000000
_cell_volume 3219.522625
_symmetry_space_group_name_H-M "I M A 2"
_symmetry_group_IT_number 46
_symmetry_cell_setting 'orthorhombic'
loop_
_space_group_symop_operation_xyz
x,y,z
-x,-y,z
1/2-x,y,z
1/2+x,-y,z
1/2+x,1/2+y,1/2+z
1/2-x,1/2-y,1/2+z
-x,1/2+y,1/2+z
x,1/2-y,1/2+z
loop_
_atom_site_type_symbol
_atom_site_label
_atom_site_fract_x
_atom_site_fract_y
_atom_site_fract_z
Si Si1 0.919749 0.450556 0.330450
Si Si2 0.911805 0.544179 0.987046
Si Si3 0.089113 0.787405 0.538068
Si Si4 0.909830 0.582809 0.764476
Si Si5 0.916148 0.386454 0.124641
Si Si6 0.912260 0.172608 0.300277
Si Si7 0.086018 0.093594 0.027632
Si Si8 0.082479 0.199978 0.104270
O O1 0.750000 0.460498 0.341483
O O2 0.952916 0.410817 0.239279
O O3 0.000000 0.500000 0.301463
O O4 0.977747 0.429458 0.442727
O O5 0.750000 0.540541 0.031337
O O6 0.914035 0.541749 0.855662
O O7 0.000000 0.500000 0.035307
O O8 0.983110 0.592257 0.031215
O O9 0.250000 0.768044 0.559870
O O10 0.053024 0.829287 0.626017
O O11 0.076261 0.809753 0.420938
O O12 0.978849 0.743825 0.536055
O O13 0.750000 0.607545 0.766880
O O14 0.934051 0.564695 0.641346
O O15 0.034133 0.618677 0.797199
O O16 0.750000 0.395584 0.092842
O O17 0.750000 0.174423 0.256975
O O18 0.009857 0.204553 0.221735
O O19 0.250000 0.088733 0.985314
O O20 0.046448 0.149313 0.047578
O O21 0.250000 0.207263 0.118052
#
# Coordination Sequence:
#
# PCOD8192101 Si02
#       8
#     8   8   8   8   8   8   8   8
#     4  11  24  41  63  87 118 160 205 256 308 366
#     4  11  22  35  56  85 116 149 188 235 291 354
#     4  10  21  37  59  87 118 155 202 251 302 360
#     4   9  19  36  57  83 113 147 187 236 292 351
#     4  10  22  41  60  84 118 154 199 250 300 356
#     4  10  19  34  58  82 112 151 189 239 296 352
#     4   9  20  40  61  83 118 155 197 248 296 353
#     4  10  22  38  58  87 122 159 200 249 302 362
#
# _framework density 19.878723999999998
#
# number of rings (size 3 to 8) (size 9 to 14) (size 15 to 20)
#    0.000    2.000    1.250    2.625    0.000    8.000 
#    0.000    5.000    0.000    0.000    0.000    0.000 
#    0.000    0.000    0.000    0.000    0.000    0.000 
#
# Total GULP energy -396677.915646 kJ/mol
# GULP energy per Si atom -12396.184864 kJ/mol
# Density = 1.983348 g / cm^3
# Si number density = 19.878724 Si / 1000 Ang^3
#
#
#
# Elastic Constant Matrix: (Units=GPa)
#
#
# Indices 1 2 3 4 5 6 
#
# 1 110.7490 36.1592 38.0104 0.0000 0.0001 0.0000
# 2 36.1592 58.1067 13.5256 0.0001 0.0000 0.0000
# 3 38.0104 13.5256 75.4150 0.0014 -0.0004 0.0001
# 4 0.0000 0.0001 0.0014 21.8186 0.0000 -0.0001
# 5 0.0001 0.0000 -0.0004 0.0000 31.4715 0.0001
# 6 0.0000 0.0000 0.0001 -0.0001 0.0001 30.5724
#
#
#
# Elastic Compliance Matrix: (Units=1/GPa)
#
#
# Indices 1 2 3 4 5 6 
#
# 1 0.013136 -0.006922 -0.005379 0.000000 0.000000 0.000000
# 2 -0.006922 0.021607 -0.000386 0.000000 0.000000 0.000000
# 3 -0.005379 -0.000386 0.016040 -0.000001 0.000000 0.000000
# 4 0.000000 0.000000 -0.000001 0.045832 0.000000 0.000000
# 5 0.000000 0.000000 0.000000 0.000000 0.031775 0.000000
# 6 0.000000 0.000000 0.000000 0.000000 0.000000 0.032709
#
#
# Mechanical properties :
#
#
# Convention : Reuss Voigt Hill
#
# Bulk Modulus (GPa) = 39.35751 46.62903 42.99327
# Shear Modulus (GPa) = 25.64833 27.21084 26.42959
#
# Velocity S-wave (km/s) = 3.59589 3.70380 3.65024
# Velocity P-wave (km/s) = 6.08953 6.46518 6.28016
#
# Compressibility (1/GPa) = 0.02540811
#
# Stress axis : x y z
#
# Youngs Moduli (GPa) = 76.12873 46.28083 62.34246
#
# Poissons Ratio (x) = 0.32036 0.33535
# Poissons Ratio (y) = 0.52697 0.02409
# Poissons Ratio (z) = 0.40951 0.01788
#
# Static dielectric constant tensor:
#      x y z
#    x 3.744620 0.000000 0.000000 
#    y 0.000000 3.589960 0.000000 
#    z 0.000000 0.000000 3.640460 
# 
# 
# High freq. dielectric constant tensor:
#      x y z
#    x 1.785020 0.000000 0.000000 
#    y 0.000000 1.760790 0.000000 
#    z 0.000000 0.000000 1.775850 
# 
# From -- ./inp_files/9792.got.cif
#   From: 2010.03.12/outbox.cif.g09.slc.cpg/sg46_5_cif.got.tgz:9792.got - 2010.04.14 02:56:35.
