data_PCOD8192578
_publ_section_title
;
Structure prediction by ZEFSAII (Michael W. Deem and Ramdas Pophale) SiO2 
 PCOD8192578
Probable space group: I M A 2
;
_chemical_formula_sum "Si O2"
_cell_formula_units_Z 64
_cell_length_a 9.190567
_cell_length_b 24.835906
_cell_length_c 15.032877
_cell_angle_alpha 90.000000
_cell_angle_beta 90.000000
_cell_angle_gamma 90.000000
_cell_volume 3431.345246
_symmetry_space_group_name_H-M "I M A 2"
_symmetry_group_IT_number 46
_symmetry_cell_setting 'orthorhombic'
loop_
_space_group_symop_operation_xyz
x,y,z
-x,-y,z
1/2-x,y,z
1/2+x,-y,z
1/2+x,1/2+y,1/2+z
1/2-x,1/2-y,1/2+z
-x,1/2+y,1/2+z
x,1/2-y,1/2+z
loop_
_atom_site_type_symbol
_atom_site_label
_atom_site_fract_x
_atom_site_fract_y
_atom_site_fract_z
Si Si1 0.917991 0.669591 0.869090
Si Si2 0.086482 0.776330 0.883742
Si Si3 0.919959 0.103939 0.864235
Si Si4 0.083655 0.144844 0.174256
Si Si5 0.420462 0.554171 0.177279
Si Si6 0.577657 0.145875 0.542906
Si Si7 0.086462 0.763277 0.087038
Si Si8 0.576328 0.943197 0.034161
O O1 0.750000 0.674592 0.895799
O O2 0.938058 0.634269 0.779444
O O3 0.977367 0.730003 0.852376
O O4 0.003069 0.638623 0.946922
O O5 0.250000 0.758154 0.857832
O O6 0.047140 0.833695 0.839795
O O7 0.076170 0.787385 0.988629
O O8 0.750000 0.096693 0.890085
O O9 0.962147 0.070201 0.777298
O O10 0.021742 0.083083 0.942867
O O11 0.250000 0.154216 0.149289
O O12 0.026034 0.094405 0.116765
O O13 0.005994 0.200681 0.152736
O O14 0.500000 0.500000 0.149890
O O15 0.250000 0.545468 0.167693
O O16 0.474604 0.599080 0.108080
O O17 0.750000 0.146680 0.526902
O O18 0.527141 0.202149 0.586783
O O19 0.250000 0.764246 0.123713
O O20 0.750000 0.950730 0.029498
O O21 0.500000 0.000000 0.049951
#
# Coordination Sequence:
#
# PCOD8192578 Si02
#       8
#     8   8   8   8   8   8   8   8
#     4  10  21  36  55  81 115 150 184 230 283 333
#     4   9  18  33  54  82 114 148 185 222 268 329
#     4  10  20  36  58  84 114 149 186 226 274 332
#     4  10  22  37  53  80 116 148 182 229 280 328
#     4  10  22  39  59  82 112 146 188 236 281 331
#     4   9  20  39  58  81 110 145 188 234 280 329
#     4   9  17  31  55  82 108 141 182 224 269 327
#     4  11  23  39  58  80 113 151 189 233 278 330
#
# _framework density 18.651577
#
# number of rings (size 3 to 8) (size 9 to 14) (size 15 to 20)
#    0.000    2.250    1.250    1.875    1.750    6.000 
#    0.000    0.625    0.000    3.000    0.000    0.000 
#    0.000    0.000    0.000    0.000    0.000    0.000 
#
# Total GULP energy -396808.509935 kJ/mol
# GULP energy per Si atom -12400.265935 kJ/mol
# Density = 1.860912 g / cm^3
# Si number density = 18.651577 Si / 1000 Ang^3
#
#
#
# Elastic Constant Matrix: (Units=GPa)
#
#
# Indices 1 2 3 4 5 6 
#
# 1 65.6401 44.2149 48.9698 0.0000 0.0000 0.0000
# 2 44.2149 113.7539 61.5115 0.0001 0.0000 0.0000
# 3 48.9698 61.5115 102.7834 0.0005 -0.0001 -0.0002
# 4 0.0000 0.0001 0.0005 29.9223 0.0000 -0.0001
# 5 0.0000 0.0000 -0.0001 0.0000 27.4281 0.0000
# 6 0.0000 0.0000 -0.0002 -0.0001 0.0000 27.8170
#
#
#
# Elastic Compliance Matrix: (Units=1/GPa)
#
#
# Indices 1 2 3 4 5 6 
#
# 1 0.025368 -0.004915 -0.009144 0.000000 0.000000 0.000000
# 2 -0.004915 0.013949 -0.006006 0.000000 0.000000 0.000000
# 3 -0.009144 -0.006006 0.017680 0.000000 0.000000 0.000000
# 4 0.000000 0.000000 0.000000 0.033420 0.000000 0.000000
# 5 0.000000 0.000000 0.000000 0.000000 0.036459 0.000000
# 6 0.000000 0.000000 0.000000 0.000000 0.000000 0.035949
#
#
# Mechanical properties :
#
#
# Convention : Reuss Voigt Hill
#
# Bulk Modulus (GPa) = 59.29324 65.72998 62.51161
# Shear Modulus (GPa) = 23.97174 25.53223 24.75198
#
# Velocity S-wave (km/s) = 3.58891 3.70389 3.64685
# Velocity P-wave (km/s) = 7.00233 7.32183 7.16386
#
# Compressibility (1/GPa) = 0.01686533
#
# Stress axis : x y z
#
# Youngs Moduli (GPa) = 39.42035 71.68848 56.55983
#
# Poissons Ratio (x) = 0.35237 0.51721
# Poissons Ratio (y) = 0.19376 0.33971
# Poissons Ratio (z) = 0.36048 0.43057
#
# Static dielectric constant tensor:
#      x y z
#    x 3.362030 0.000000 0.000000 
#    y 0.000000 3.414640 0.000000 
#    z 0.000000 0.000000 3.419670 
# 
# 
# High freq. dielectric constant tensor:
#      x y z
#    x 1.718340 0.000000 0.000000 
#    y 0.000000 1.718390 0.000000 
#    z 0.000000 0.000000 1.724620 
# 
# From -- ./inp_files/14486.got.cif
#   From: 2010.03.12/outbox.cif.g09.slc.cpg/sg46_8_cif.got.tgz:14486.got - 2010.04.14 02:56:35.
