data_PCOD8192216
_publ_section_title
;
Structure prediction by ZEFSAII (Michael W. Deem and Ramdas Pophale) SiO2 
 PCOD8192216
Probable space group: I M A 2
;
_chemical_formula_sum "Si O2"
_cell_formula_units_Z 40
_cell_length_a 20.260725
_cell_length_b 10.974022
_cell_length_c 9.011162
_cell_angle_alpha 90.000000
_cell_angle_beta 90.000000
_cell_angle_gamma 90.000000
_cell_volume 2003.556554
_symmetry_space_group_name_H-M "I M A 2"
_symmetry_group_IT_number 46
_symmetry_cell_setting 'orthorhombic'
loop_
_space_group_symop_operation_xyz
x,y,z
-x,-y,z
1/2-x,y,z
1/2+x,-y,z
1/2+x,1/2+y,1/2+z
1/2-x,1/2-y,1/2+z
-x,1/2+y,1/2+z
x,1/2-y,1/2+z
loop_
_atom_site_type_symbol
_atom_site_label
_atom_site_fract_x
_atom_site_fract_y
_atom_site_fract_z
Si Si1 0.172672 0.399327 0.556320
Si Si2 0.327621 0.651634 0.437177
Si Si3 0.894872 0.756736 0.314898
Si Si4 0.828054 0.108491 0.599334
Si Si5 0.937178 0.915590 0.568026
O O1 0.250000 0.404240 0.579906
O O2 0.143549 0.534870 0.525497
O O3 0.158468 0.314343 0.414581
O O4 0.141353 0.350695 0.706863
O O5 0.250000 0.651161 0.459052
O O6 0.354451 0.778874 0.501028
O O7 0.346961 0.642545 0.266336
O O8 0.943858 0.829547 0.424032
O O9 0.937771 0.662720 0.218751
O O10 0.750000 0.081472 0.579077
O O11 0.868198 0.988709 0.552334
O O12 0.000000 0.000000 0.575383
#
# Coordination Sequence:
#
# PCOD8192216 Si02
#       5
#     8   8   8   8   8
#     4  10  19  36  62  94 130 161 199 257 310 366
#     4   9  19  34  56  90 124 159 203 249 302 357
#     4  10  23  41  60  91 122 161 213 245 312 383
#     4  10  21  38  61  90 125 160 206 257 304 359
#     4  11  25  45  64  89 125 164 208 256 312 372
#
# _framework density 19.964497000000001
#
# number of rings (size 3 to 8) (size 9 to 14) (size 15 to 20)
#    0.000    2.000    2.000    0.600    2.800    5.600 
#    0.000    2.000    0.000    0.000    0.000    0.000 
#    0.000    0.000    0.000    0.000    0.000    0.000 
#
# Total GULP energy -248010.634756 kJ/mol
# GULP energy per Si atom -12400.531738 kJ/mol
# Density = 1.991906 g / cm^3
# Si number density = 19.964497 Si / 1000 Ang^3
#
#
#
# Elastic Constant Matrix: (Units=GPa)
#
#
# Indices 1 2 3 4 5 6 
#
# 1 71.4926 38.6530 29.2688 0.0000 0.0000 0.0000
# 2 38.6530 123.5056 51.2855 0.0000 0.0000 0.0000
# 3 29.2688 51.2855 107.7274 0.0000 0.0000 0.0000
# 4 0.0000 0.0000 0.0000 38.7719 0.0000 0.0000
# 5 0.0000 0.0000 0.0000 0.0000 11.3840 0.0000
# 6 0.0000 0.0000 0.0000 0.0000 0.0000 35.4965
#
#
#
# Elastic Compliance Matrix: (Units=1/GPa)
#
#
# Indices 1 2 3 4 5 6 
#
# 1 0.017429 -0.004348 -0.002666 0.000000 0.000000 0.000000
# 2 -0.004348 0.011176 -0.004139 0.000000 0.000000 0.000000
# 3 -0.002666 -0.004139 0.011978 0.000000 0.000000 0.000000
# 4 0.000000 0.000000 0.000000 0.025792 0.000000 0.000000
# 5 0.000000 0.000000 0.000000 0.000000 0.087843 0.000000
# 6 0.000000 0.000000 0.000000 0.000000 0.000000 0.028172
#
#
# Mechanical properties :
#
#
# Convention : Reuss Voigt Hill
#
# Bulk Modulus (GPa) = 54.71179 60.12669 57.41924
# Shear Modulus (GPa) = 23.72050 29.36504 26.54277
#
# Velocity S-wave (km/s) = 3.45067 3.83934 3.65018
# Velocity P-wave (km/s) = 6.58333 7.05948 6.82556
#
# Compressibility (1/GPa) = 0.01827760
#
# Stress axis : x y z
#
# Youngs Moduli (GPa) = 57.37403 89.47383 83.48953
#
# Poissons Ratio (x) = 0.38903 0.22255
# Poissons Ratio (y) = 0.24946 0.34560
# Poissons Ratio (z) = 0.15293 0.37037
#
# Static dielectric constant tensor:
#      x y z
#    x 3.171820 0.000000 0.000000 
#    y 0.000000 4.082510 0.000000 
#    z 0.000000 0.000000 3.874540 
# 
# 
# High freq. dielectric constant tensor:
#      x y z
#    x 1.738630 0.000000 0.000000 
#    y 0.000000 1.799330 0.000000 
#    z 0.000000 0.000000 1.792930 
# 
# From -- ./inp_files/6369.got.cif
#   From: 2010.03.12/outbox.cif.g09.slc.cpg/sg46_4_cif.got.tgz:6369.got - 2010.04.14 02:56:35.
