data_PCOD8192785
_publ_section_title
;
Structure prediction by ZEFSAII (Michael W. Deem and Ramdas Pophale) SiO2 
 PCOD8192785
Probable space group: I M A 2
;
_chemical_formula_sum "Si O2"
_cell_formula_units_Z 48
_cell_length_a 9.626625
_cell_length_b 8.704828
_cell_length_c 27.704843
_cell_angle_alpha 90.000000
_cell_angle_beta 90.000000
_cell_angle_gamma 90.000000
_cell_volume 2321.613615
_symmetry_space_group_name_H-M "I M A 2"
_symmetry_group_IT_number 46
_symmetry_cell_setting 'orthorhombic'
loop_
_space_group_symop_operation_xyz
x,y,z
-x,-y,z
1/2-x,y,z
1/2+x,-y,z
1/2+x,1/2+y,1/2+z
1/2-x,1/2-y,1/2+z
-x,1/2+y,1/2+z
x,1/2-y,1/2+z
loop_
_atom_site_type_symbol
_atom_site_label
_atom_site_fract_x
_atom_site_fract_y
_atom_site_fract_z
Si Si1 0.514530 0.181232 0.299700
Si Si2 0.981043 0.819498 0.577980
Si Si3 0.250000 0.330701 0.148573
Si Si4 0.415022 0.657975 0.906162
Si Si5 0.750000 0.197401 0.736258
Si Si6 0.250000 0.335870 0.257748
Si Si7 0.250000 0.692799 0.128048
Si Si8 0.585817 0.849663 0.982300
O O1 0.576131 0.223990 0.352009
O O2 0.614194 0.229900 0.257593
O O3 0.376064 0.276917 0.290134
O O4 0.500000 0.000000 0.296563
O O5 0.884489 0.766519 0.621974
O O6 0.919707 0.761926 0.527872
O O7 0.126097 0.747854 0.594320
O O8 0.000000 0.000000 0.572015
O O9 0.250000 0.268237 0.203410
O O10 0.250000 0.512898 0.140642
O O11 0.500000 0.500000 0.910999
O O12 0.250000 0.639061 0.920323
O O13 0.497439 0.778507 0.938711
O O14 0.750000 0.260143 0.681576
O O15 0.750000 0.017307 0.748740
O O16 0.750000 0.878102 0.968857
O O17 0.500000 0.000000 0.996938
#
# Coordination Sequence:
#
# PCOD8192785 Si02
#       8
#     8   8   4   8   4   4   4   8
#     4  11  24  42  65  96 136 173 220 273 334 398
#     4  10  20  39  67  93 124 168 224 268 321 388
#     4   9  18  39  58  95 126 169 224 271 318 377
#     4  11  25  46  73  97 128 172 223 270 325 403
#     4  11  21  43  62  99 132 173 230 273 334 387
#     4  11  23  37  70  95 132 179 222 281 326 393
#     4   9  20  33  66  93 128 167 218 277 312 385
#     4  12  27  45  66  96 137 171 213 275 341 400
#
# _framework density 20.675274999999999
#
# number of rings (size 3 to 8) (size 9 to 14) (size 15 to 20)
#    0.000    1.333    1.667    3.500    7.000    4.000 
#    0.000    5.000    0.000    0.000    0.000    0.000 
#    0.000    0.000    0.000    0.000    0.000    0.000 
#
# Total GULP energy -297404.561246 kJ/mol
# GULP energy per Si atom -12391.856719 kJ/mol
# Density = 2.062822 g / cm^3
# Si number density = 20.675275 Si / 1000 Ang^3
#
#
#
# Elastic Constant Matrix: (Units=GPa)
#
#
# Indices 1 2 3 4 5 6 
#
# 1 179.3014 24.0018 44.0530 0.0000 0.0000 0.0000
# 2 24.0018 49.7248 26.4118 0.0000 0.0000 0.0000
# 3 44.0530 26.4118 105.4027 0.0000 0.0000 0.0000
# 4 0.0000 0.0000 0.0000 27.6220 0.0000 0.0000
# 5 0.0000 0.0000 0.0000 0.0000 40.3553 0.0000
# 6 0.0000 0.0000 0.0000 0.0000 0.0000 36.0245
#
#
#
# Elastic Compliance Matrix: (Units=1/GPa)
#
#
# Indices 1 2 3 4 5 6 
#
# 1 0.006370 -0.001916 -0.002182 0.000000 0.000000 0.000000
# 2 -0.001916 0.023774 -0.005157 0.000000 0.000000 0.000000
# 3 -0.002182 -0.005157 0.011692 0.000000 0.000000 0.000000
# 4 0.000000 0.000000 0.000000 0.036203 0.000000 0.000000
# 5 0.000000 0.000000 0.000000 0.000000 0.024780 0.000000
# 6 0.000000 0.000000 0.000000 0.000000 0.000000 0.027759
#
#
# Mechanical properties :
#
#
# Convention : Reuss Voigt Hill
#
# Bulk Modulus (GPa) = 42.86935 58.15135 50.51035
# Shear Modulus (GPa) = 31.87507 36.79783 34.33645
#
# Velocity S-wave (km/s) = 3.93071 4.22334 4.07965
# Velocity P-wave (km/s) = 6.43275 7.20897 6.83189
#
# Compressibility (1/GPa) = 0.02332669
#
# Stress axis : x y z
#
# Youngs Moduli (GPa) = 156.99128 42.06213 85.53087
#
# Poissons Ratio (x) = 0.08057 0.18665
# Poissons Ratio (y) = 0.30072 0.44106
# Poissons Ratio (z) = 0.34260 0.21691
#
# Static dielectric constant tensor:
#      x y z
#    x 4.015230 0.000000 0.000000 
#    y 0.000000 3.583670 0.000000 
#    z 0.000000 0.000000 3.978850 
# 
# 
# High freq. dielectric constant tensor:
#      x y z
#    x 1.832500 0.000000 0.000000 
#    y 0.000000 1.788320 0.000000 
#    z 0.000000 0.000000 1.823310 
# 
# From -- ./inp_files/25077.got.cif
#   From: 2010.03.12/outbox.cif.g09.slc.cpg/sg46_13_cif.got.tgz:25077.got - 2010.04.14 02:56:35.
