data_PCOD8192760
_publ_section_title
;
Structure prediction by ZEFSAII (Michael W. Deem and Ramdas Pophale) SiO2 
 PCOD8192760
Probable space group: I M A 2
;
_chemical_formula_sum "Si O2"
_cell_formula_units_Z 64
_cell_length_a 13.955315
_cell_length_b 23.581776
_cell_length_c 9.261639
_cell_angle_alpha 90.000000
_cell_angle_beta 90.000000
_cell_angle_gamma 90.000000
_cell_volume 3047.923081
_symmetry_space_group_name_H-M "I M A 2"
_symmetry_group_IT_number 46
_symmetry_cell_setting 'orthorhombic'
loop_
_space_group_symop_operation_xyz
x,y,z
-x,-y,z
1/2-x,y,z
1/2+x,-y,z
1/2+x,1/2+y,1/2+z
1/2-x,1/2-y,1/2+z
-x,1/2+y,1/2+z
x,1/2-y,1/2+z
loop_
_atom_site_type_symbol
_atom_site_label
_atom_site_fract_x
_atom_site_fract_y
_atom_site_fract_z
Si Si1 0.009947 0.706126 0.469360
Si Si2 0.986277 0.183438 0.644400
Si Si3 0.353104 0.393236 0.245771
Si Si4 0.359492 0.596398 0.486417
Si Si5 0.483761 0.936793 0.238706
Si Si6 0.891102 0.483262 0.214702
Si Si7 0.136667 0.371862 0.569385
Si Si8 0.358376 0.603355 0.989568
O O1 0.028061 0.769182 0.523127
O O2 0.001701 0.713396 0.297887
O O3 0.092387 0.658892 0.492011
O O4 0.913033 0.689855 0.558647
O O5 0.891213 0.146503 0.616474
O O6 0.075740 0.138895 0.634444
O O7 0.250000 0.361670 0.237913
O O8 0.333164 0.458566 0.211702
O O9 0.391561 0.395307 0.410445
O O10 0.250000 0.605191 0.532546
O O11 0.413272 0.557040 0.602136
O O12 0.362949 0.562874 0.335638
O O13 0.586203 0.909753 0.192582
O O14 0.432155 0.895814 0.355189
O O15 0.500000 0.000000 0.300625
O O16 0.000000 0.500000 0.233062
O O17 0.863771 0.458536 0.059336
O O18 0.250000 0.368489 0.600778
O O19 0.250000 0.617802 0.939387
#
# Coordination Sequence:
#
# PCOD8192760 Si02
#       8
#     8   8   8   8   8   8   8   8
#     4  10  23  41  66  95 128 172 222 277 333 392
#     4  11  24  43  65  92 130 171 222 280 334 400
#     4  10  20  38  68 103 131 167 222 277 337 405
#     4  11  22  40  66  98 131 174 230 276 330 399
#     4  11  24  40  61  96 137 177 213 269 332 402
#     4  12  20  39  67  96 131 172 220 280 337 405
#     4   9  20  41  67  96 130 171 220 272 327 393
#     4  12  26  43  62  90 133 177 220 275 340 400
#
# _framework density 20.997903999999998
#
# number of rings (size 3 to 8) (size 9 to 14) (size 15 to 20)
#    0.000    1.250    2.500    4.500    3.500    3.000 
#    0.000    0.625    0.000    0.000    0.000    0.000 
#    0.000    0.000    0.000    0.000    0.000    0.000 
#
# Total GULP energy -396468.400260 kJ/mol
# GULP energy per Si atom -12389.637508 kJ/mol
# Density = 2.095011 g / cm^3
# Si number density = 20.997904 Si / 1000 Ang^3
#
#
#
# Elastic Constant Matrix: (Units=GPa)
#
#
# Indices 1 2 3 4 5 6 
#
# 1 157.5054 35.7656 31.0638 -0.0003 -0.0002 0.0001
# 2 35.7656 109.7767 27.8937 0.0000 -0.0002 0.0000
# 3 31.0638 27.8937 65.9380 -0.0005 0.0004 0.0025
# 4 -0.0003 0.0000 -0.0005 33.6494 -0.0002 0.0009
# 5 -0.0002 -0.0002 0.0004 -0.0002 21.1317 0.0004
# 6 0.0001 0.0000 0.0025 0.0009 0.0004 9.2808
#
#
#
# Elastic Compliance Matrix: (Units=1/GPa)
#
#
# Indices 1 2 3 4 5 6 
#
# 1 0.007265 -0.001678 -0.002713 0.000000 0.000000 0.000001
# 2 -0.001678 0.010594 -0.003691 0.000000 0.000000 0.000001
# 3 -0.002713 -0.003691 0.018005 0.000000 0.000000 -0.000005
# 4 0.000000 0.000000 0.000000 0.029718 0.000000 -0.000003
# 5 0.000000 0.000000 0.000000 0.000000 0.047322 -0.000002
# 6 0.000001 0.000001 -0.000005 -0.000003 -0.000002 0.107749
#
#
# Mechanical properties :
#
#
# Convention : Reuss Voigt Hill
#
# Bulk Modulus (GPa) = 50.75943 58.07403 54.41673
# Shear Modulus (GPa) = 20.54367 28.71219 24.62793
#
# Velocity S-wave (km/s) = 3.13128 3.70183 3.42844
# Velocity P-wave (km/s) = 6.10731 6.78148 6.45321
#
# Compressibility (1/GPa) = 0.01970077
#
# Stress axis : x y z
#
# Youngs Moduli (GPa) = 137.64653 94.39405 55.53917
#
# Poissons Ratio (x) = 0.15836 0.15067
# Poissons Ratio (y) = 0.23092 0.20501
# Poissons Ratio (z) = 0.37342 0.34843
#
# Static dielectric constant tensor:
#      x y z
#    x 3.921450 0.000000 0.000000 
#    y 0.000000 3.781360 0.000000 
#    z 0.000000 0.000000 3.702090 
# 
# 
# High freq. dielectric constant tensor:
#      x y z
#    x 1.829520 0.000000 0.000000 
#    y 0.000000 1.816070 0.000000 
#    z 0.000000 0.000000 1.813700 
# 
# From -- ./inp_files/6097.got.cif
#   From: 2010.03.12/outbox.cif.g09.slc.cpg/sg46_4_cif.got.tgz:6097.got - 2010.04.14 02:56:35.
