data_PCOD8192503
_publ_section_title
;
Structure prediction by ZEFSAII (Michael W. Deem and Ramdas Pophale) SiO2 
 PCOD8192503
Probable space group: I M A 2
;
_chemical_formula_sum "Si O2"
_cell_formula_units_Z 48
_cell_length_a 15.408742
_cell_length_b 8.684290
_cell_length_c 18.688292
_cell_angle_alpha 90.000000
_cell_angle_beta 90.000000
_cell_angle_gamma 90.000000
_cell_volume 2500.754808
_symmetry_space_group_name_H-M "I M A 2"
_symmetry_group_IT_number 46
_symmetry_cell_setting 'orthorhombic'
loop_
_space_group_symop_operation_xyz
x,y,z
-x,-y,z
1/2-x,y,z
1/2+x,-y,z
1/2+x,1/2+y,1/2+z
1/2-x,1/2-y,1/2+z
-x,1/2+y,1/2+z
x,1/2-y,1/2+z
loop_
_atom_site_type_symbol
_atom_site_label
_atom_site_fract_x
_atom_site_fract_y
_atom_site_fract_z
Si Si1 0.654600 0.696479 0.238030
Si Si2 0.507449 0.820731 0.327911
Si Si3 0.082595 0.608765 0.218877
Si Si4 0.150049 0.805687 0.087447
Si Si5 0.650107 0.837978 0.090723
Si Si6 0.500109 0.822078 0.979649
O O1 0.750000 0.764807 0.246368
O O2 0.601682 0.768293 0.302647
O O3 0.656747 0.510582 0.243712
O O4 0.617203 0.746173 0.160460
O O5 0.435079 0.728018 0.283009
O O6 0.500487 0.786916 0.411394
O O7 0.500000 0.000000 0.312808
O O8 0.115445 0.700287 0.150690
O O9 0.000000 0.500000 0.201278
O O10 0.250000 0.764431 0.068334
O O11 0.088750 0.776980 0.019558
O O12 0.141275 0.982897 0.110449
O O13 0.750000 0.796438 0.069947
O O14 0.585906 0.789155 0.026898
O O15 0.500000 0.000000 0.955569
#
# Coordination Sequence:
#
# PCOD8192503 Si02
#       6
#     8   8   8   8   8   8
#     4  10  20  36  58  85 112 142 183 231 276 327
#     4  11  23  38  56  79 111 151 188 227 278 330
#     4  10  20  35  57  83 110 144 184 227 277 328
#     4  10  20  36  58  84 111 145 185 227 274 330
#     4   9  19  35  59  86 113 146 184 224 274 331
#     4  10  20  36  55  79 114 150 185 226 274 330
#
# _framework density 19.194203000000002
#
# number of rings (size 3 to 8) (size 9 to 14) (size 15 to 20)
#    0.000    2.000    0.000    5.000    0.000    4.000 
#    0.000    6.667    0.000    0.000    0.000    0.000 
#    0.000    0.000    0.000    0.000    0.000    0.000 
#
# Total GULP energy -297570.849027 kJ/mol
# GULP energy per Si atom -12398.785376 kJ/mol
# Density = 1.915052 g / cm^3
# Si number density = 19.194203 Si / 1000 Ang^3
#
#
#
# Elastic Constant Matrix: (Units=GPa)
#
#
# Indices 1 2 3 4 5 6 
#
# 1 101.3158 36.7809 60.6130 0.0000 0.0000 0.0000
# 2 36.7809 114.2864 66.5126 0.0000 0.0000 0.0000
# 3 60.6130 66.5126 121.0060 0.0000 0.0000 0.0000
# 4 0.0000 0.0000 0.0000 37.8244 0.0000 0.0000
# 5 0.0000 0.0000 0.0000 0.0000 15.5456 0.0000
# 6 0.0000 0.0000 0.0000 0.0000 0.0000 17.1960
#
#
#
# Elastic Compliance Matrix: (Units=1/GPa)
#
#
# Indices 1 2 3 4 5 6 
#
# 1 0.014124 -0.000629 -0.006729 0.000000 0.000000 0.000000
# 2 -0.000629 0.012894 -0.006772 0.000000 0.000000 0.000000
# 3 -0.006729 -0.006772 0.015357 0.000000 0.000000 0.000000
# 4 0.000000 0.000000 0.000000 0.026438 0.000000 0.000000
# 5 0.000000 0.000000 0.000000 0.000000 0.064327 0.000000
# 6 0.000000 0.000000 0.000000 0.000000 0.000000 0.058153
#
#
# Mechanical properties :
#
#
# Convention : Reuss Voigt Hill
#
# Bulk Modulus (GPa) = 70.85062 73.82457 72.33760
# Shear Modulus (GPa) = 22.29575 25.62666 23.96121
#
# Velocity S-wave (km/s) = 3.41190 3.65790 3.53704
# Velocity P-wave (km/s) = 7.24666 7.50904 7.37902
#
# Compressibility (1/GPa) = 0.01411420
#
# Stress axis : x y z
#
# Youngs Moduli (GPa) = 70.79980 77.55774 65.11730
#
# Poissons Ratio (x) = 0.04882 0.43817
# Poissons Ratio (y) = 0.04457 0.44096
# Poissons Ratio (z) = 0.47641 0.52521
#
# Static dielectric constant tensor:
#      x y z
#    x 3.756170 0.000000 0.000000 
#    y 0.000000 3.692100 0.000000 
#    z 0.000000 0.000000 3.295420 
# 
# 
# High freq. dielectric constant tensor:
#      x y z
#    x 1.754020 0.000000 0.000000 
#    y 0.000000 1.752810 0.000000 
#    z 0.000000 0.000000 1.734450 
# 
# From -- ./inp_files/16524.got.cif
#   From: 2010.03.12/outbox.cif.g09.slc.cpg/sg46_9_cif.got.tgz:16524.got - 2010.04.14 02:56:35.
