data_PCOD8192015
_publ_section_title
;
Structure prediction by ZEFSAII (Michael W. Deem and Ramdas Pophale) SiO2 
 PCOD8192015
Probable space group: I M A 2
;
_chemical_formula_sum "Si O2"
_cell_formula_units_Z 48
_cell_length_a 8.981435
_cell_length_b 13.399944
_cell_length_c 18.650080
_cell_angle_alpha 90.000000
_cell_angle_beta 90.000000
_cell_angle_gamma 90.000000
_cell_volume 2244.550669
_symmetry_space_group_name_H-M "I M A 2"
_symmetry_group_IT_number 46
_symmetry_cell_setting 'orthorhombic'
loop_
_space_group_symop_operation_xyz
x,y,z
-x,-y,z
1/2-x,y,z
1/2+x,-y,z
1/2+x,1/2+y,1/2+z
1/2-x,1/2-y,1/2+z
-x,1/2+y,1/2+z
x,1/2-y,1/2+z
loop_
_atom_site_type_symbol
_atom_site_label
_atom_site_fract_x
_atom_site_fract_y
_atom_site_fract_z
Si Si1 0.927408 0.098978 0.109730
Si Si2 0.915118 0.261286 0.375576
Si Si3 0.074100 0.198991 0.616899
Si Si4 0.575404 0.605876 0.268842
Si Si5 0.911342 0.085568 0.269310
Si Si6 0.928644 0.398823 0.990571
O O1 0.750000 0.101079 0.097167
O O2 0.983209 0.101589 0.191703
O O3 0.000737 0.201084 0.082301
O O4 0.000000 0.000000 0.072599
O O5 0.750000 0.304339 0.393622
O O6 0.903103 0.188288 0.308969
O O7 0.977938 0.197441 0.442452
O O8 0.020285 0.349262 0.345637
O O9 0.250000 0.201311 0.603807
O O10 0.037308 0.177265 0.700682
O O11 0.997650 0.112178 0.569893
O O12 0.500000 0.500000 0.255339
O O13 0.750000 0.589183 0.275374
O O14 0.750000 0.039097 0.257169
O O15 0.000000 0.000000 0.312680
O O16 0.750000 0.408006 0.991203
O O17 0.000000 0.500000 0.957861
#
# Coordination Sequence:
#
# PCOD8192015 Si02
#       6
#     8   8   8   8   8   8
#     4  10  19  33  56  86 121 158 198 248 303 358
#     4  10  21  39  60  87 121 157 199 248 304 363
#     4  11  23  40  62  91 126 166 210 256 308 368
#     4  11  24  40  63  91 120 159 206 256 310 367
#     4   9  17  29  50  80 114 150 185 233 287 343
#     4  11  24  41  64  93 126 166 206 251 308 369
#
# _framework density 21.385128000000002
#
# number of rings (size 3 to 8) (size 9 to 14) (size 15 to 20)
#    0.000    1.667    1.667    3.000    0.000    6.000 
#    0.000    0.833    0.000    4.000    0.000    0.000 
#    0.000    0.000    0.000    0.000    0.000    0.000 
#
# Total GULP energy -297357.807383 kJ/mol
# GULP energy per Si atom -12389.908641 kJ/mol
# Density = 2.133645 g / cm^3
# Si number density = 21.385128 Si / 1000 Ang^3
#
#
#
# Elastic Constant Matrix: (Units=GPa)
#
#
# Indices 1 2 3 4 5 6 
#
# 1 114.1750 58.5756 32.1102 0.0000 0.0000 0.0000
# 2 58.5756 114.0451 19.5192 0.0000 0.0000 0.0000
# 3 32.1102 19.5192 71.3604 0.0000 0.0000 0.0000
# 4 0.0000 0.0000 0.0000 21.4128 0.0000 0.0000
# 5 0.0000 0.0000 0.0000 0.0000 17.7058 0.0000
# 6 0.0000 0.0000 0.0000 0.0000 0.0000 43.3666
#
#
#
# Elastic Compliance Matrix: (Units=1/GPa)
#
#
# Indices 1 2 3 4 5 6 
#
# 1 0.013001 -0.005955 -0.004221 0.000000 0.000000 0.000000
# 2 -0.005955 0.011927 -0.000583 0.000000 0.000000 0.000000
# 3 -0.004221 -0.000583 0.016072 0.000000 0.000000 0.000000
# 4 0.000000 0.000000 0.000000 0.046701 0.000000 0.000000
# 5 0.000000 0.000000 0.000000 0.000000 0.056479 0.000000
# 6 0.000000 0.000000 0.000000 0.000000 0.000000 0.023059
#
#
# Mechanical properties :
#
#
# Convention : Reuss Voigt Hill
#
# Bulk Modulus (GPa) = 51.32943 57.77673 54.55308
# Shear Modulus (GPa) = 25.60819 29.12208 27.36513
#
# Velocity S-wave (km/s) = 3.46421 3.69425 3.58108
# Velocity P-wave (km/s) = 6.32894 6.72849 6.53177
#
# Compressibility (1/GPa) = 0.01948200
#
# Stress axis : x y z
#
# Youngs Moduli (GPa) = 76.91903 83.84509 62.21940
#
# Poissons Ratio (x) = 0.49929 0.26263
# Poissons Ratio (y) = 0.45805 0.03626
# Poissons Ratio (z) = 0.32468 0.04886
#
# Static dielectric constant tensor:
#      x y z
#    x 4.037280 0.000000 0.000000 
#    y 0.000000 4.023800 0.000000 
#    z 0.000000 0.000000 3.683770 
# 
# 
# High freq. dielectric constant tensor:
#      x y z
#    x 1.839760 0.000000 0.000000 
#    y 0.000000 1.842190 0.000000 
#    z 0.000000 0.000000 1.819600 
# 
# From -- ./inp_files/18188.got.cif
#   From: 2010.03.12/outbox.cif.g09.slc.cpg/sg46_10_cif.got.tgz:18188.got - 2010.04.14 02:56:35.
