data_PCOD8192004
_publ_section_title
;
Structure prediction by ZEFSAII (Michael W. Deem and Ramdas Pophale) SiO2 
 PCOD8192004
Probable space group: I M A 2
;
_chemical_formula_sum "Si O2"
_cell_formula_units_Z 48
_cell_length_a 8.773151
_cell_length_b 9.508805
_cell_length_c 31.268343
_cell_angle_alpha 90.000000
_cell_angle_beta 90.000000
_cell_angle_gamma 90.000000
_cell_volume 2608.473404
_symmetry_space_group_name_H-M "I M A 2"
_symmetry_group_IT_number 46
_symmetry_cell_setting 'orthorhombic'
loop_
_space_group_symop_operation_xyz
x,y,z
-x,-y,z
1/2-x,y,z
1/2+x,-y,z
1/2+x,1/2+y,1/2+z
1/2-x,1/2-y,1/2+z
-x,1/2+y,1/2+z
x,1/2-y,1/2+z
loop_
_atom_site_type_symbol
_atom_site_label
_atom_site_fract_x
_atom_site_fract_y
_atom_site_fract_z
Si Si1 0.929310 0.850222 0.979250
Si Si2 0.428794 0.347064 0.900243
Si Si3 0.429508 0.847224 0.643365
Si Si4 0.073000 0.850492 0.735277
Si Si5 0.430440 0.655072 0.328319
Si Si6 0.931526 0.151073 0.067799
O O1 0.750000 0.870713 0.986046
O O2 0.968001 0.737651 0.943076
O O3 0.000000 0.000000 0.965868
O O4 0.004710 0.792006 0.022731
O O5 0.500000 0.500000 0.904373
O O6 0.250000 0.361013 0.892802
O O7 0.499719 0.265773 0.860548
O O8 0.250000 0.863400 0.638614
O O9 0.471464 0.775346 0.690046
O O10 0.493338 0.750025 0.605644
O O11 0.500000 0.000000 0.638246
O O12 0.250000 0.877382 0.736225
O O13 0.026869 0.781214 0.780850
O O14 0.000000 0.000000 0.733201
O O15 0.500000 0.500000 0.335327
O O16 0.250000 0.643975 0.335490
O O17 0.750000 0.143403 0.065919
O O18 0.000000 0.000000 0.077550
#
# Coordination Sequence:
#
# PCOD8192004 Si02
#       6
#     8   8   8   8   8   8
#     4  10  21  37  57  78 100 131 171 212 254 304
#     4  11  24  39  55  77 106 138 171 212 263 314
#     4   9  18  32  51  76 105 136 171 210 253 300
#     4   8  15  29  49  74 103 134 170 211 251 294
#     4  10  19  33  56  81 106 138 176 217 257 304
#     4  10  20  34  53  76 103 135 170 210 253 300
#
# _framework density 18.401568000000001
#
# number of rings (size 3 to 8) (size 9 to 14) (size 15 to 20)
#    0.000    2.333    0.000    3.500    0.000    6.667 
#    0.000    4.167    0.000    2.000    0.000    0.000 
#    0.000    0.000    0.000    0.000    0.000    0.000 
#
# Total GULP energy -297371.871524 kJ/mol
# GULP energy per Si atom -12390.494647 kJ/mol
# Density = 1.835969 g / cm^3
# Si number density = 18.401568 Si / 1000 Ang^3
#
#
#
# Elastic Constant Matrix: (Units=GPa)
#
#
# Indices 1 2 3 4 5 6 
#
# 1 73.5924 46.6497 70.9040 0.0000 0.0000 0.0000
# 2 46.6497 100.4106 98.0343 0.0000 0.0000 0.0000
# 3 70.9040 98.0343 196.7428 0.0000 0.0000 0.0000
# 4 0.0000 0.0000 0.0000 32.2709 0.0000 0.0000
# 5 0.0000 0.0000 0.0000 0.0000 22.1763 0.0000
# 6 0.0000 0.0000 0.0000 0.0000 0.0000 27.6293
#
#
#
# Elastic Compliance Matrix: (Units=1/GPa)
#
#
# Indices 1 2 3 4 5 6 
#
# 1 0.021952 -0.004819 -0.005510 0.000000 0.000000 0.000000
# 2 -0.004819 0.020452 -0.008454 0.000000 0.000000 0.000000
# 3 -0.005510 -0.008454 0.011281 0.000000 0.000000 0.000000
# 4 0.000000 0.000000 0.000000 0.030988 0.000000 0.000000
# 5 0.000000 0.000000 0.000000 0.000000 0.045093 0.000000
# 6 0.000000 0.000000 0.000000 0.000000 0.000000 0.036193
#
#
# Mechanical properties :
#
#
# Convention : Reuss Voigt Hill
#
# Bulk Modulus (GPa) = 62.04021 89.10243 75.57132
# Shear Modulus (GPa) = 23.93501 26.75915 25.34708
#
# Velocity S-wave (km/s) = 3.61044 3.81751 3.71542
# Velocity P-wave (km/s) = 7.15320 8.24362 7.71769
#
# Compressibility (1/GPa) = 0.01611858
#
# Stress axis : x y z
#
# Youngs Moduli (GPa) = 45.55447 48.89435 88.64312
#
# Poissons Ratio (x) = 0.23562 0.48842
# Poissons Ratio (y) = 0.21953 0.74942
# Poissons Ratio (z) = 0.25100 0.41337
#
# Static dielectric constant tensor:
#      x y z
#    x 3.503610 0.000000 0.000000 
#    y 0.000000 3.159580 0.000000 
#    z 0.000000 0.000000 4.241130 
# 
# 
# High freq. dielectric constant tensor:
#      x y z
#    x 1.724390 0.000000 0.000000 
#    y 0.000000 1.681710 0.000000 
#    z 0.000000 0.000000 1.742900 
# 
# From -- ./inp_files/25000.got.cif
#   From: 2010.03.12/outbox.cif.g09.slc.cpg/sg46_13_cif.got.tgz:25000.got - 2010.04.14 02:56:35.
