data_PCOD8192791
_publ_section_title
;
Structure prediction by ZEFSAII (Michael W. Deem and Ramdas Pophale) SiO2 
 PCOD8192791
Probable space group: I M A 2
;
_chemical_formula_sum "Si O2"
_cell_formula_units_Z 60
_cell_length_a 18.596250
_cell_length_b 27.290475
_cell_length_c 5.296445
_cell_angle_alpha 90.000000
_cell_angle_beta 90.000000
_cell_angle_gamma 90.000000
_cell_volume 2687.948463
_symmetry_space_group_name_H-M "I M A 2"
_symmetry_group_IT_number 46
_symmetry_cell_setting 'orthorhombic'
loop_
_space_group_symop_operation_xyz
x,y,z
-x,-y,z
1/2-x,y,z
1/2+x,-y,z
1/2+x,1/2+y,1/2+z
1/2-x,1/2-y,1/2+z
-x,1/2+y,1/2+z
x,1/2-y,1/2+z
loop_
_atom_site_type_symbol
_atom_site_label
_atom_site_fract_x
_atom_site_fract_y
_atom_site_fract_z
Si Si1 0.500000 0.000000 0.911021
Si Si2 0.325772 0.539941 0.150937
Si Si3 0.601065 0.614608 0.789557
Si Si4 0.874629 0.939379 0.775266
Si Si5 0.166762 0.281076 0.765789
Si Si6 0.334323 0.725659 0.246982
Si Si7 0.941009 0.423623 0.782483
Si Si8 0.328334 0.871375 0.002910
O O1 0.544919 0.961835 0.742440
O O2 0.445876 0.967309 0.078850
O O3 0.250000 0.547690 0.993175
O O4 0.401861 0.549432 0.015198
O O5 0.320735 0.484857 0.258754
O O6 0.321438 0.575636 0.385384
O O7 0.633515 0.587767 0.543584
O O8 0.614095 0.672269 0.759446
O O9 0.517561 0.601435 0.832611
O O10 0.641741 0.597252 0.043654
O O11 0.250000 0.298207 0.764231
O O12 0.149431 0.249379 0.517824
O O13 0.250000 0.735746 0.232760
O O14 0.368237 0.757021 0.480835
O O15 0.352462 0.668667 0.295220
O O16 0.889523 0.377482 0.713191
O O17 0.250000 0.855389 0.118942
#
# Coordination Sequence:
#
# PCOD8192791 Si02
#       8
#     4   8   8   8   8   8   8   8
#     4  10  20  40  60  84 122 176 224 262 322 392
#     4  11  23  38  60  91 132 178 221 268 320 386
#     4  11  25  40  69  96 132 168 217 268 330 393
#     4  11  22  40  59  95 127 173 212 269 319 387
#     4  10  22  45  74 101 131 169 213 268 338 408
#     4   9  19  36  57  79 106 145 195 251 307 356
#     4  11  22  39  59  89 126 174 221 264 319 386
#     4  10  22  38  59  86 121 165 217 267 313 375
#
# _framework density 22.321859
#
# number of rings (size 3 to 8) (size 9 to 14) (size 15 to 20)
#    0.000    1.600    1.333    3.600    3.733    1.600 
#    0.000    1.333    0.000    0.000    0.000    0.000 
#    0.000    0.000    0.000    0.000    0.000    0.000 
#
# Total GULP energy -371732.830391 kJ/mol
# GULP energy per Si atom -12391.094346 kJ/mol
# Density = 2.227105 g / cm^3
# Si number density = 22.321859 Si / 1000 Ang^3
#
#
#
# Elastic Constant Matrix: (Units=GPa)
#
#
# Indices 1 2 3 4 5 6 
#
# 1 80.9058 43.6755 19.2890 0.0000 0.0000 0.0000
# 2 43.6755 126.4113 37.9816 0.0000 0.0000 0.0000
# 3 19.2890 37.9816 116.7534 0.0000 0.0000 0.0000
# 4 0.0000 0.0000 0.0000 38.2497 0.0000 0.0000
# 5 0.0000 0.0000 0.0000 0.0000 19.9542 0.0000
# 6 0.0000 0.0000 0.0000 0.0000 0.0000 20.7852
#
#
#
# Elastic Compliance Matrix: (Units=1/GPa)
#
#
# Indices 1 2 3 4 5 6 
#
# 1 0.015278 -0.005010 -0.000894 0.000000 0.000000 0.000000
# 2 -0.005010 0.010410 -0.002559 0.000000 0.000000 0.000000
# 3 -0.000894 -0.002559 0.009545 0.000000 0.000000 0.000000
# 4 0.000000 0.000000 0.000000 0.026144 0.000000 0.000000
# 5 0.000000 0.000000 0.000000 0.000000 0.050115 0.000000
# 6 0.000000 0.000000 0.000000 0.000000 0.000000 0.048111
#
#
# Mechanical properties :
#
#
# Convention : Reuss Voigt Hill
#
# Bulk Modulus (GPa) = 54.62308 58.44031 56.53170
# Shear Modulus (GPa) = 27.37747 30.67279 29.02513
#
# Velocity S-wave (km/s) = 3.50592 3.71093 3.60988
# Velocity P-wave (km/s) = 6.39628 6.67824 6.53878
#
# Compressibility (1/GPa) = 0.01830728
#
# Stress axis : x y z
#
# Youngs Moduli (GPa) = 65.45478 96.05720 104.76369
#
# Poissons Ratio (x) = 0.48123 0.09369
# Poissons Ratio (y) = 0.32792 0.26809
# Poissons Ratio (z) = 0.05854 0.24581
#
# Static dielectric constant tensor:
#      x y z
#    x 4.084450 0.000000 0.000000 
#    y 0.000000 3.995080 0.000000 
#    z 0.000000 0.000000 4.003840 
# 
# 
# High freq. dielectric constant tensor:
#      x y z
#    x 1.859480 0.000000 0.000000 
#    y 0.000000 1.882860 0.000000 
#    z 0.000000 0.000000 1.877480 
# 
# From -- ./inp_files/1797.got.cif
#   From: 2010.03.12/outbox.cif.g09.slc.cpg/sg46_1_cif.got.tgz:1797.got - 2010.04.14 02:56:35.
