data_PCOD8192807
_publ_section_title
;
Structure prediction by ZEFSAII (Michael W. Deem and Ramdas Pophale) SiO2 
 PCOD8192807
Probable space group: I M A 2
;
_chemical_formula_sum "Si O2"
_cell_formula_units_Z 56
_cell_length_a 19.122669
_cell_length_b 14.855686
_cell_length_c 9.814991
_cell_angle_alpha 90.000000
_cell_angle_beta 90.000000
_cell_angle_gamma 90.000000
_cell_volume 2788.246237
_symmetry_space_group_name_H-M "I M A 2"
_symmetry_group_IT_number 46
_symmetry_cell_setting 'orthorhombic'
loop_
_space_group_symop_operation_xyz
x,y,z
-x,-y,z
1/2-x,y,z
1/2+x,-y,z
1/2+x,1/2+y,1/2+z
1/2-x,1/2-y,1/2+z
-x,1/2+y,1/2+z
x,1/2-y,1/2+z
loop_
_atom_site_type_symbol
_atom_site_label
_atom_site_fract_x
_atom_site_fract_y
_atom_site_fract_z
Si Si1 0.597527 0.257556 0.057600
Si Si2 0.574849 0.987941 0.230489
Si Si3 0.872959 0.721614 0.074118
Si Si4 0.508811 0.600180 0.173210
Si Si5 0.975410 0.873293 0.988149
Si Si6 0.823940 0.839770 0.308719
Si Si7 0.332349 0.662553 0.787208
O O1 0.555617 0.339644 0.123913
O O2 0.548074 0.168825 0.045341
O O3 0.659891 0.230675 0.160416
O O4 0.631533 0.290514 0.916955
O O5 0.554736 0.958791 0.074572
O O6 0.610170 0.904097 0.302647
O O7 0.500000 0.000000 0.306756
O O8 0.626781 0.071543 0.246149
O O9 0.918705 0.636241 0.115632
O O10 0.918912 0.795055 0.995634
O O11 0.834491 0.756582 0.207668
O O12 0.815803 0.693142 0.963444
O O13 0.500000 0.500000 0.115557
O O14 0.512075 0.596072 0.335738
O O15 0.750000 0.887085 0.270272
O O16 0.250000 0.643222 0.813458
#
# Coordination Sequence:
#
# PCOD8192807 Si02
#       7
#     8   8   8   8   8   8   8
#     4  11  24  42  66  96 134 180 224 275 341 407
#     4  11  24  39  69  99 129 166 221 275 328 392
#     4  10  22  38  62  92 124 169 209 262 323 387
#     4  11  23  37  64  98 129 162 218 278 329 378
#     4  10  20  41  65  97 127 166 220 275 327 386
#     4  11  23  41  63  90 130 170 210 262 325 392
#     4  12  26  45  68  99 138 182 226 279 345 417
#
# _framework density 20.084311
#
# number of rings (size 3 to 8) (size 9 to 14) (size 15 to 20)
#    0.000    1.143    4.286    1.714    6.000    0.000 
#    0.000    0.000    0.000    0.000    0.000    0.000 
#    0.000    0.000    0.000    0.000    0.000    0.000 
#
# Total GULP energy -347023.268673 kJ/mol
# GULP energy per Si atom -12393.688167 kJ/mol
# Density = 2.003860 g / cm^3
# Si number density = 20.084311 Si / 1000 Ang^3
#
#
#
# Elastic Constant Matrix: (Units=GPa)
#
#
# Indices 1 2 3 4 5 6 
#
# 1 138.1788 42.9459 42.1784 0.0000 0.0000 0.0000
# 2 42.9459 90.0736 49.5558 0.0000 0.0000 0.0000
# 3 42.1784 49.5558 129.5309 0.0000 0.0000 0.0000
# 4 0.0000 0.0000 0.0000 16.0440 0.0000 0.0000
# 5 0.0000 0.0000 0.0000 0.0000 14.2893 0.0000
# 6 0.0000 0.0000 0.0000 0.0000 0.0000 13.6401
#
#
#
# Elastic Compliance Matrix: (Units=1/GPa)
#
#
# Indices 1 2 3 4 5 6 
#
# 1 0.008746 -0.003297 -0.001586 0.000000 0.000000 0.000000
# 2 -0.003297 0.015305 -0.004782 0.000000 0.000000 0.000000
# 3 -0.001586 -0.004782 0.010066 0.000000 0.000000 0.000000
# 4 0.000000 0.000000 0.000000 0.062329 0.000000 0.000000
# 5 0.000000 0.000000 0.000000 0.000000 0.069982 0.000000
# 6 0.000000 0.000000 0.000000 0.000000 0.000000 0.073313
#
#
# Mechanical properties :
#
#
# Convention : Reuss Voigt Hill
#
# Bulk Modulus (GPa) = 67.63000 69.68260 68.65630
# Shear Modulus (GPa) = 18.93937 23.66823 21.30380
#
# Velocity S-wave (km/s) = 3.07415 3.43657 3.26040
# Velocity P-wave (km/s) = 6.80784 7.10754 6.95930
#
# Compressibility (1/GPa) = 0.01478634
#
# Stress axis : x y z
#
# Youngs Moduli (GPa) = 114.33765 65.33898 99.34303
#
# Poissons Ratio (x) = 0.21543 0.15761
# Poissons Ratio (y) = 0.37699 0.47502
# Poissons Ratio (z) = 0.18140 0.31243
#
# Static dielectric constant tensor:
#      x y z
#    x 3.696720 0.000000 0.000000 
#    y 0.000000 3.735580 0.000000 
#    z 0.000000 0.000000 3.690760 
# 
# 
# High freq. dielectric constant tensor:
#      x y z
#    x 1.783060 0.000000 0.000000 
#    y 0.000000 1.786440 0.000000 
#    z 0.000000 0.000000 1.794140 
# 
# From -- ./inp_files/7421.got.cif
#   From: 2010.03.12/outbox.cif.g09.slc.cpg/sg46_4_cif.got.tgz:7421.got - 2010.04.14 02:56:35.
