data_PCOD8192000
_publ_section_title
;
Structure prediction by ZEFSAII (Michael W. Deem and Ramdas Pophale) SiO2 
 PCOD8192000
Probable space group: I M A 2
;
_chemical_formula_sum "Si O2"
_cell_formula_units_Z 56
_cell_length_a 8.659662
_cell_length_b 14.476473
_cell_length_c 22.076404
_cell_angle_alpha 90.000000
_cell_angle_beta 90.000000
_cell_angle_gamma 90.000000
_cell_volume 2767.528098
_symmetry_space_group_name_H-M "I M A 2"
_symmetry_group_IT_number 46
_symmetry_cell_setting 'orthorhombic'
loop_
_space_group_symop_operation_xyz
x,y,z
-x,-y,z
1/2-x,y,z
1/2+x,-y,z
1/2+x,1/2+y,1/2+z
1/2-x,1/2-y,1/2+z
-x,1/2+y,1/2+z
x,1/2-y,1/2+z
loop_
_atom_site_type_symbol
_atom_site_label
_atom_site_fract_x
_atom_site_fract_y
_atom_site_fract_z
Si Si1 0.931293 0.208210 0.164990
Si Si2 0.429037 0.592705 0.131026
Si Si3 0.932035 0.898334 0.277993
Si Si4 0.432779 0.096041 0.059199
Si Si5 0.067342 0.903373 0.927462
Si Si6 0.068756 0.221411 0.394159
Si Si7 0.433182 0.595810 0.993566
O O1 0.750000 0.190423 0.155752
O O2 0.967805 0.317649 0.171697
O O3 0.990277 0.155832 0.223406
O O4 0.021574 0.175471 0.105691
O O5 0.500000 0.500000 0.160559
O O6 0.250000 0.574369 0.127408
O O7 0.490473 0.608268 0.062627
O O8 0.750000 0.903584 0.266924
O O9 0.976120 0.844816 0.338912
O O10 0.000000 0.000000 0.282543
O O11 0.250000 0.088721 0.052230
O O12 0.500000 0.000000 0.085057
O O13 0.506500 0.118310 0.994570
O O14 0.250000 0.909521 0.928063
O O15 0.010707 0.821050 0.883662
O O16 0.000000 0.000000 0.902887
O O17 0.250000 0.235861 0.399539
O O18 0.004690 0.179536 0.456187
O O19 0.500000 0.500000 0.967145
O O20 0.250000 0.597407 0.986455
#
# Coordination Sequence:
#
# PCOD8192000 Si02
#       7
#     8   8   8   8   8   8   8
#     4  11  22  38  59  84 115 152 195 239 288 342
#     4   9  20  36  56  83 114 147 183 228 278 334
#     4  11  25  43  62  85 114 149 191 238 286 340
#     4  11  21  35  57  86 120 155 191 234 287 343
#     4  11  22  38  60  87 119 152 190 236 287 343
#     4  11  23  39  59  84 114 151 195 239 288 345
#     4  10  19  33  55  85 119 152 188 232 286 345
#
# _framework density 20.234663999999999
#
# number of rings (size 3 to 8) (size 9 to 14) (size 15 to 20)
#    0.000    1.429    0.000    6.857    0.000    6.286 
#    0.000    0.714    0.000    1.714    0.000    0.000 
#    0.000    0.000    0.000    0.000    0.000    0.000 
#
# Total GULP energy -347302.016080 kJ/mol
# GULP energy per Si atom -12403.643431 kJ/mol
# Density = 2.018861 g / cm^3
# Si number density = 20.234664 Si / 1000 Ang^3
#
#
#
# Elastic Constant Matrix: (Units=GPa)
#
#
# Indices 1 2 3 4 5 6 
#
# 1 129.4708 67.8751 40.0939 0.0000 0.0000 0.0000
# 2 67.8751 176.6685 55.9440 0.0000 0.0000 0.0000
# 3 40.0939 55.9440 56.0024 0.0000 0.0000 0.0000
# 4 0.0000 0.0000 0.0000 32.7201 0.0000 0.0000
# 5 0.0000 0.0000 0.0000 0.0000 25.5797 0.0000
# 6 0.0000 0.0000 0.0000 0.0000 0.0000 40.1628
#
#
#
# Elastic Compliance Matrix: (Units=1/GPa)
#
#
# Indices 1 2 3 4 5 6 
#
# 1 0.010598 -0.002441 -0.005149 0.000000 0.000000 0.000000
# 2 -0.002441 0.008842 -0.007085 0.000000 0.000000 0.000000
# 3 -0.005149 -0.007085 0.028620 0.000000 0.000000 0.000000
# 4 0.000000 0.000000 0.000000 0.030562 0.000000 0.000000
# 5 0.000000 0.000000 0.000000 0.000000 0.039093 0.000000
# 6 0.000000 0.000000 0.000000 0.000000 0.000000 0.024899
#
#
# Mechanical properties :
#
#
# Convention : Reuss Voigt Hill
#
# Bulk Modulus (GPa) = 53.44691 76.66307 65.05499
# Shear Modulus (GPa) = 28.05837 32.90776 30.48306
#
# Velocity S-wave (km/s) = 3.72781 4.03712 3.88555
# Velocity P-wave (km/s) = 6.70818 7.72660 7.23533
#
# Compressibility (1/GPa) = 0.01871016
#
# Stress axis : x y z
#
# Youngs Moduli (GPa) = 94.35711 113.10045 34.94088
#
# Poissons Ratio (x) = 0.27611 0.17990
# Poissons Ratio (y) = 0.23036 0.24754
# Poissons Ratio (z) = 0.48582 0.80128
#
# Static dielectric constant tensor:
#      x y z
#    x 3.755640 0.000000 0.000000 
#    y 0.000000 3.952750 0.000000 
#    z 0.000000 0.000000 3.517150 
# 
# 
# High freq. dielectric constant tensor:
#      x y z
#    x 1.803490 0.000000 0.000000 
#    y 0.000000 1.810880 0.000000 
#    z 0.000000 0.000000 1.764030 
# 
# From -- ./inp_files/21101.got.cif
#   From: 2010.03.12/outbox.cif.g09.slc.cpg/sg46_11_cif.got.tgz:21101.got - 2010.04.14 02:56:35.
