data_PCOD8192446
_publ_section_title
;
Structure prediction by ZEFSAII (Michael W. Deem and Ramdas Pophale) SiO2 
 PCOD8192446
Probable space group: I M A 2
;
_chemical_formula_sum "Si O2"
_cell_formula_units_Z 64
_cell_length_a 8.644428
_cell_length_b 14.712645
_cell_length_c 27.344472
_cell_angle_alpha 90.000000
_cell_angle_beta 90.000000
_cell_angle_gamma 90.000000
_cell_volume 3477.735586
_symmetry_space_group_name_H-M "I M A 2"
_symmetry_group_IT_number 46
_symmetry_cell_setting 'orthorhombic'
loop_
_space_group_symop_operation_xyz
x,y,z
-x,-y,z
1/2-x,y,z
1/2+x,-y,z
1/2+x,1/2+y,1/2+z
1/2-x,1/2-y,1/2+z
-x,1/2+y,1/2+z
x,1/2-y,1/2+z
loop_
_atom_site_type_symbol
_atom_site_label
_atom_site_fract_x
_atom_site_fract_y
_atom_site_fract_z
Si Si1 0.566531 0.596004 0.254870
Si Si2 0.433094 0.904542 0.098351
Si Si3 0.430883 0.593763 0.870826
Si Si4 0.568406 0.905840 0.643548
Si Si5 0.933030 0.595311 0.704470
Si Si6 0.433246 0.271417 0.059992
Si Si7 0.567528 0.277077 0.784918
Si Si8 0.433608 0.596378 0.981783
O O1 0.500000 0.500000 0.273220
O O2 0.750000 0.597592 0.261009
O O3 0.513759 0.613836 0.198848
O O4 0.488469 0.673238 0.288130
O O5 0.250000 0.910671 0.101001
O O6 0.499359 0.881208 0.151624
O O7 0.486606 0.826928 0.060751
O O8 0.500000 0.000000 0.079114
O O9 0.500000 0.500000 0.850391
O O10 0.250000 0.580582 0.869995
O O11 0.482328 0.675987 0.835785
O O12 0.487063 0.613664 0.925915
O O13 0.750000 0.915740 0.641247
O O14 0.510904 0.825537 0.608353
O O15 0.500000 0.000000 0.623761
O O16 0.750000 0.588306 0.700129
O O17 0.000000 0.500000 0.724348
O O18 0.978377 0.675555 0.740607
O O19 0.250000 0.259953 0.058551
O O20 0.490324 0.322781 0.012008
O O21 0.750000 0.283424 0.775911
O O22 0.500000 0.500000 0.000315
O O23 0.250000 0.596937 0.988341
#
# Coordination Sequence:
#
# PCOD8192446 Si02
#       8
#     8   8   8   8   8   8   8   8
#     4  10  20  35  52  73 102 139 176 216 259 304
#     4  11  22  37  55  76 104 141 179 219 261 307
#     4   9  20  36  55  78 107 137 170 213 263 315
#     4   9  19  32  48  71 103 136 169 206 248 296
#     4  11  21  34  51  76 109 143 177 217 260 310
#     4  11  21  34  53  79 107 138 175 216 258 309
#     4  11  21  34  53  78 104 137 178 220 264 315
#     4  10  20  36  55  79 108 139 172 213 263 316
#
# _framework density 18.402778999999999
#
# number of rings (size 3 to 8) (size 9 to 14) (size 15 to 20)
#    0.000    1.750    0.000    6.000    0.000    6.000 
#    0.000    0.000    0.000    0.750    0.000    3.500 
#    0.000    0.000    0.000    0.000    0.000    0.000 
#
# Total GULP energy -396930.044071 kJ/mol
# GULP energy per Si atom -12404.063877 kJ/mol
# Density = 1.836089 g / cm^3
# Si number density = 18.402779 Si / 1000 Ang^3
#
#
#
# Elastic Constant Matrix: (Units=GPa)
#
#
# Indices 1 2 3 4 5 6 
#
# 1 97.9557 51.1686 35.1692 0.0000 0.0000 0.0000
# 2 51.1686 155.9847 68.6203 0.0000 0.0000 0.0000
# 3 35.1692 68.6203 74.3844 0.0000 0.0000 0.0000
# 4 0.0000 0.0000 0.0000 37.9282 0.0000 0.0000
# 5 0.0000 0.0000 0.0000 0.0000 21.0783 0.0000
# 6 0.0000 0.0000 0.0000 0.0000 0.0000 36.2676
#
#
#
# Elastic Compliance Matrix: (Units=1/GPa)
#
#
# Indices 1 2 3 4 5 6 
#
# 1 0.012896 -0.002605 -0.003694 0.000000 0.000000 0.000000
# 2 -0.002605 0.011316 -0.009207 0.000000 0.000000 0.000000
# 3 -0.003694 -0.009207 0.023684 0.000000 0.000000 0.000000
# 4 0.000000 0.000000 0.000000 0.026366 0.000000 0.000000
# 5 0.000000 0.000000 0.000000 0.000000 0.047442 0.000000
# 6 0.000000 0.000000 0.000000 0.000000 0.000000 0.027573
#
#
# Mechanical properties :
#
#
# Convention : Reuss Voigt Hill
#
# Bulk Modulus (GPa) = 59.23129 70.91567 65.07348
# Shear Modulus (GPa) = 26.89379 30.61261 28.75320
#
# Velocity S-wave (km/s) = 3.82697 4.08300 3.95706
# Velocity P-wave (km/s) = 7.19608 7.80044 7.50434
#
# Compressibility (1/GPa) = 0.01688297
#
# Stress axis : x y z
#
# Youngs Moduli (GPa) = 77.54456 88.37058 42.22281
#
# Poissons Ratio (x) = 0.23024 0.15596
# Poissons Ratio (y) = 0.20203 0.38876
# Poissons Ratio (z) = 0.28643 0.81365
#
# Static dielectric constant tensor:
#      x y z
#    x 3.426040 0.000000 0.000000 
#    y 0.000000 3.479750 0.000000 
#    z 0.000000 0.000000 3.393360 
# 
# 
# High freq. dielectric constant tensor:
#      x y z
#    x 1.726080 0.000000 0.000000 
#    y 0.000000 1.718710 0.000000 
#    z 0.000000 0.000000 1.689210 
# 
# From -- ./inp_files/23216.got.cif
#   From: 2010.03.12/outbox.cif.g09.slc.cpg/sg46_12_cif.got.tgz:23216.got - 2010.04.14 02:56:35.
