data_PCOD8192266
_publ_section_title
;
Structure prediction by ZEFSAII (Michael W. Deem and Ramdas Pophale) SiO2 
 PCOD8192266
Probable space group: I M A 2
;
_chemical_formula_sum "Si O2"
_cell_formula_units_Z 52
_cell_length_a 8.986784
_cell_length_b 12.853141
_cell_length_c 24.843173
_cell_angle_alpha 90.000000
_cell_angle_beta 90.000000
_cell_angle_gamma 90.000000
_cell_volume 2869.595211
_symmetry_space_group_name_H-M "I M A 2"
_symmetry_group_IT_number 46
_symmetry_cell_setting 'orthorhombic'
loop_
_space_group_symop_operation_xyz
x,y,z
-x,-y,z
1/2-x,y,z
1/2+x,-y,z
1/2+x,1/2+y,1/2+z
1/2-x,1/2-y,1/2+z
-x,1/2+y,1/2+z
x,1/2-y,1/2+z
loop_
_atom_site_type_symbol
_atom_site_label
_atom_site_fract_x
_atom_site_fract_y
_atom_site_fract_z
Si Si1 0.072175 0.393114 0.423640
Si Si2 0.410795 0.090652 0.330811
Si Si3 0.580269 0.289809 0.988569
Si Si4 0.000000 0.000000 0.432062
Si Si5 0.924291 0.109147 0.594517
Si Si6 0.076982 0.893539 0.713348
Si Si7 0.924900 0.299992 0.323901
O O1 0.250000 0.401372 0.423721
O O2 0.000000 0.500000 0.446505
O O3 0.024765 0.294661 0.460172
O O4 0.013241 0.379042 0.362583
O O5 0.250000 0.117620 0.304163
O O6 0.522174 0.185552 0.337326
O O7 0.500000 0.000000 0.297699
O O8 0.377054 0.049930 0.391591
O O9 0.750000 0.251244 0.981699
O O10 0.568859 0.407742 0.967305
O O11 0.533312 0.300442 0.051680
O O12 0.750000 0.087354 0.591803
O O13 0.973237 0.148391 0.654422
O O14 0.000000 0.000000 0.580314
O O15 0.250000 0.916590 0.713241
O O16 0.034442 0.814994 0.761109
O O17 0.000000 0.000000 0.728162
O O18 0.750000 0.311718 0.335741
#
# Coordination Sequence:
#
# PCOD8192266 Si02
#       7
#     8   8   8   4   8   8   8
#     4  12  25  39  56  78 109 145 186 227 272 325
#     4  10  20  32  49  74 107 140 172 214 265 320
#     4  11  21  35  57  82 113 144 176 220 270 326
#     4  10  20  30  54  80 114 140 168 216 266 322
#     4   9  18  33  53  80 109 138 173 215 265 317
#     4   9  19  34  52  75 105 140 176 218 263 310
#     4  11  21  34  53  77 108 143 181 221 265 318
#
# _framework density 18.121023000000001
#
# number of rings (size 3 to 8) (size 9 to 14) (size 15 to 20)
#    0.462    1.231    2.308    3.231    0.000    3.692 
#    0.000    0.000    0.000    0.923    0.000    0.000 
#    0.000    0.000    0.000    0.000    0.000    0.000 
#
# Total GULP energy -322100.626785 kJ/mol
# GULP energy per Si atom -12388.485646 kJ/mol
# Density = 1.807978 g / cm^3
# Si number density = 18.121023 Si / 1000 Ang^3
#
#
#
# Elastic Constant Matrix: (Units=GPa)
#
#
# Indices 1 2 3 4 5 6 
#
# 1 97.1538 36.7887 41.1643 0.0000 0.0000 0.0000
# 2 36.7887 97.7844 45.8393 0.0000 0.0000 0.0000
# 3 41.1643 45.8393 105.9592 0.0000 0.0000 0.0000
# 4 0.0000 0.0000 0.0000 13.2624 0.0000 0.0000
# 5 0.0000 0.0000 0.0000 0.0000 25.6226 0.0000
# 6 0.0000 0.0000 0.0000 0.0000 0.0000 26.2466
#
#
#
# Elastic Compliance Matrix: (Units=1/GPa)
#
#
# Indices 1 2 3 4 5 6 
#
# 1 0.013065 -0.003181 -0.003699 0.000000 0.000000 0.000000
# 2 -0.003181 0.013603 -0.004649 0.000000 0.000000 0.000000
# 3 -0.003699 -0.004649 0.012886 0.000000 0.000000 0.000000
# 4 0.000000 0.000000 0.000000 0.075401 0.000000 0.000000
# 5 0.000000 0.000000 0.000000 0.000000 0.039028 0.000000
# 6 0.000000 0.000000 0.000000 0.000000 0.000000 0.038100
#
#
# Mechanical properties :
#
#
# Convention : Reuss Voigt Hill
#
# Bulk Modulus (GPa) = 60.62525 60.94245 60.78385
# Shear Modulus (GPa) = 22.66132 24.83332 23.74732
#
# Velocity S-wave (km/s) = 3.54015 3.70593 3.62399
# Velocity P-wave (km/s) = 7.08792 7.21219 7.15033
#
# Compressibility (1/GPa) = 0.01649478
#
# Stress axis : x y z
#
# Youngs Moduli (GPa) = 76.54040 73.51493 77.60387
#
# Poissons Ratio (x) = 0.23386 0.28709
# Poissons Ratio (y) = 0.24348 0.36077
# Poissons Ratio (z) = 0.28316 0.34176
#
# Static dielectric constant tensor:
#      x y z
#    x 3.323200 0.000000 0.000000 
#    y 0.000000 3.163080 0.000000 
#    z 0.000000 0.000000 3.641690 
# 
# 
# High freq. dielectric constant tensor:
#      x y z
#    x 1.708670 0.000000 0.000000 
#    y 0.000000 1.685950 0.000000 
#    z 0.000000 0.000000 1.690730 
# 
# From -- ./inp_files/24172.got.cif
#   From: 2010.03.12/outbox.cif.g09.slc.cpg/sg46_13_cif.got.tgz:24172.got - 2010.04.14 02:56:35.
