data_PCOD8192378
_publ_section_title
;
Structure prediction by ZEFSAII (Michael W. Deem and Ramdas Pophale) SiO2 
 PCOD8192378
Probable space group: I M A 2
;
_chemical_formula_sum "Si O2"
_cell_formula_units_Z 64
_cell_length_a 8.885222
_cell_length_b 18.532052
_cell_length_c 20.772934
_cell_angle_alpha 90.000000
_cell_angle_beta 90.000000
_cell_angle_gamma 90.000000
_cell_volume 3420.500314
_symmetry_space_group_name_H-M "I M A 2"
_symmetry_group_IT_number 46
_symmetry_cell_setting 'orthorhombic'
loop_
_space_group_symop_operation_xyz
x,y,z
-x,-y,z
1/2-x,y,z
1/2+x,-y,z
1/2+x,1/2+y,1/2+z
1/2-x,1/2-y,1/2+z
-x,1/2+y,1/2+z
x,1/2-y,1/2+z
loop_
_atom_site_type_symbol
_atom_site_label
_atom_site_fract_x
_atom_site_fract_y
_atom_site_fract_z
Si Si1 0.928248 0.575602 0.063790
Si Si2 0.427701 0.350098 0.192386
Si Si3 0.420195 0.202452 0.323116
Si Si4 0.070388 0.076124 0.080521
Si Si5 0.423233 0.312984 0.684860
Si Si6 0.927536 0.348498 0.462552
Si Si7 0.076737 0.306103 0.963757
Si Si8 0.577288 0.150966 0.819489
O O1 0.750000 0.568413 0.060829
O O2 0.985286 0.600013 0.134222
O O3 0.000000 0.500000 0.045097
O O4 0.986517 0.634155 0.012270
O O5 0.250000 0.348556 0.194520
O O6 0.490758 0.268396 0.181749
O O7 0.485134 0.384070 0.260115
O O8 0.250000 0.235863 0.319332
O O9 0.445315 0.155161 0.258041
O O10 0.438394 0.160736 0.390981
O O11 0.543711 0.264427 0.322060
O O12 0.250000 0.070458 0.081557
O O13 0.003632 0.133431 0.132708
O O14 0.000000 0.000000 0.099687
O O15 0.015150 0.098773 0.010096
O O16 0.250000 0.307957 0.665722
O O17 0.750000 0.350692 0.476071
O O18 0.964449 0.378897 0.390598
O O19 0.982942 0.266752 0.472128
O O20 0.250000 0.287587 0.979997
O O21 0.750000 0.137644 0.803813
#
# Coordination Sequence:
#
# PCOD8192378 Si02
#       8
#     8   8   8   8   8   8   8   8
#     4  10  21  35  50  72 103 137 173 210 249 294
#     4   9  17  32  53  74  97 129 168 204 243 297
#     4   8  14  28  51  75  98 127 164 201 241 293
#     4  11  22  36  52  71 101 137 172 209 249 295
#     4   8  15  30  53  76  96 123 162 206 246 289
#     4  10  20  34  53  78 104 129 163 207 253 301
#     4   9  17  32  55  78 100 132 171 207 246 295
#     4   9  17  29  48  76 104 124 152 202 254 296
#
# _framework density 18.710712000000001
#
# number of rings (size 3 to 8) (size 9 to 14) (size 15 to 20)
#    0.000    2.750    0.000    2.625    0.000    4.500 
#    0.000    8.750    0.000    1.500    0.000    0.000 
#    0.000    0.000    0.000    0.000    0.000    0.000 
#
# Total GULP energy -396505.430485 kJ/mol
# GULP energy per Si atom -12390.794703 kJ/mol
# Density = 1.866813 g / cm^3
# Si number density = 18.710712 Si / 1000 Ang^3
#
#
#
# Elastic Constant Matrix: (Units=GPa)
#
#
# Indices 1 2 3 4 5 6 
#
# 1 38.4479 11.9338 19.8009 0.0000 0.0000 0.0000
# 2 11.9338 43.5910 11.7036 0.0000 0.0000 0.0000
# 3 19.8009 11.7036 99.7269 0.0000 0.0000 0.0000
# 4 0.0000 0.0000 0.0000 8.4783 0.0000 0.0000
# 5 0.0000 0.0000 0.0000 0.0000 22.0671 0.0000
# 6 0.0000 0.0000 0.0000 0.0000 0.0000 24.1184
#
#
#
# Elastic Compliance Matrix: (Units=1/GPa)
#
#
# Indices 1 2 3 4 5 6 
#
# 1 0.030932 -0.007041 -0.005315 0.000000 0.000000 0.000000
# 2 -0.007041 0.025290 -0.001570 0.000000 0.000000 0.000000
# 3 -0.005315 -0.001570 0.011267 0.000000 0.000000 0.000000
# 4 0.000000 0.000000 0.000000 0.117948 0.000000 0.000000
# 5 0.000000 0.000000 0.000000 0.000000 0.045316 0.000000
# 6 0.000000 0.000000 0.000000 0.000000 0.000000 0.041462
#
#
# Mechanical properties :
#
#
# Convention : Reuss Voigt Hill
#
# Bulk Modulus (GPa) = 25.22950 29.84916 27.53933
# Shear Modulus (GPa) = 15.96019 20.15459 18.05739
#
# Velocity S-wave (km/s) = 2.92378 3.28559 3.10995
# Velocity P-wave (km/s) = 4.99112 5.51190 5.25796
#
# Compressibility (1/GPa) = 0.03963614
#
# Stress axis : x y z
#
# Youngs Moduli (GPa) = 32.32887 39.54184 88.75492
#
# Poissons Ratio (x) = 0.27842 0.47176
# Poissons Ratio (y) = 0.22763 0.13934
# Poissons Ratio (z) = 0.17184 0.06208
#
# Static dielectric constant tensor:
#      x y z
#    x 3.239800 0.000000 0.000000 
#    y 0.000000 3.130910 0.000000 
#    z 0.000000 0.000000 4.006810 
# 
# 
# High freq. dielectric constant tensor:
#      x y z
#    x 1.709220 0.000000 0.000000 
#    y 0.000000 1.680800 0.000000 
#    z 0.000000 0.000000 1.753660 
# 
# From -- ./inp_files/21320.got.cif
#   From: 2010.03.12/outbox.cif.g09.slc.cpg/sg46_11_cif.got.tgz:21320.got - 2010.04.14 02:56:35.
