data_PCOD8192737
_publ_section_title
;
Structure prediction by ZEFSAII (Michael W. Deem and Ramdas Pophale) SiO2 
 PCOD8192737
Probable space group: I M A 2
;
_chemical_formula_sum "Si O2"
_cell_formula_units_Z 64
_cell_length_a 8.874658
_cell_length_b 24.250147
_cell_length_c 14.419457
_cell_angle_alpha 90.000000
_cell_angle_beta 90.000000
_cell_angle_gamma 90.000000
_cell_volume 3103.236735
_symmetry_space_group_name_H-M "I M A 2"
_symmetry_group_IT_number 46
_symmetry_cell_setting 'orthorhombic'
loop_
_space_group_symop_operation_xyz
x,y,z
-x,-y,z
1/2-x,y,z
1/2+x,-y,z
1/2+x,1/2+y,1/2+z
1/2-x,1/2-y,1/2+z
-x,1/2+y,1/2+z
x,1/2-y,1/2+z
loop_
_atom_site_type_symbol
_atom_site_label
_atom_site_fract_x
_atom_site_fract_y
_atom_site_fract_z
Si Si1 0.073845 0.886320 0.892700
Si Si2 0.924600 0.113683 0.676084
Si Si3 0.572885 0.843519 0.185708
Si Si4 0.425610 0.055798 0.053910
Si Si5 0.427262 0.442806 0.013009
Si Si6 0.427210 0.648607 0.886400
Si Si7 0.074221 0.768142 0.880885
Si Si8 0.926302 0.263349 0.174396
O O1 0.250000 0.895414 0.911084
O O2 0.035018 0.892536 0.784015
O O3 0.016657 0.825050 0.927603
O O4 0.983348 0.931593 0.950101
O O5 0.750000 0.099783 0.659014
O O6 0.958723 0.175313 0.635713
O O7 0.024361 0.070941 0.618144
O O8 0.750000 0.840871 0.206318
O O9 0.529142 0.895060 0.122149
O O10 0.480847 0.851767 0.280517
O O11 0.518770 0.787908 0.129868
O O12 0.250000 0.046122 0.049281
O O13 0.500000 0.000000 0.091955
O O14 0.500000 0.500000 0.980602
O O15 0.250000 0.448553 0.007016
O O16 0.480847 0.395493 0.943812
O O17 0.250000 0.635083 0.890234
O O18 0.457490 0.709966 0.932900
O O19 0.250000 0.777955 0.865325
O O20 0.007529 0.763224 0.778367
O O21 0.750000 0.249291 0.165752
#
# Coordination Sequence:
#
# PCOD8192737 Si02
#       8
#     8   8   8   8   8   8   8   8
#     4   9  18  36  62  87 114 148 186 229 277 331
#     4   9  19  38  62  88 117 150 189 233 281 338
#     4  10  21  37  57  85 119 151 188 236 287 338
#     4  11  25  41  56  78 110 148 193 239 281 332
#     4  12  26  42  59  82 113 151 196 241 286 340
#     4  10  20  38  63  88 116 150 188 232 283 340
#     4   7  13  29  55  86 114 143 180 219 267 331
#     4   8  15  31  57  86 115 149 187 225 275 340
#
# _framework density 20.623629000000001
#
# number of rings (size 3 to 8) (size 9 to 14) (size 15 to 20)
#    0.000    2.500    0.000    4.500    0.000    5.000 
#    0.000   10.625    0.000    0.000    0.000    0.000 
#    0.000    0.000    0.000    0.000    0.000    0.000 
#
# Total GULP energy -396535.581218 kJ/mol
# GULP energy per Si atom -12391.736913 kJ/mol
# Density = 2.057669 g / cm^3
# Si number density = 20.623629 Si / 1000 Ang^3
#
#
#
# Elastic Constant Matrix: (Units=GPa)
#
#
# Indices 1 2 3 4 5 6 
#
# 1 80.4971 30.8468 12.9497 0.0000 0.0000 0.0000
# 2 30.8468 90.1671 1.6597 0.0000 0.0000 0.0000
# 3 12.9497 1.6597 32.9630 0.0001 0.0000 0.0000
# 4 0.0000 0.0000 0.0001 28.4938 0.0000 0.0000
# 5 0.0000 0.0000 0.0000 0.0000 28.3419 0.0000
# 6 0.0000 0.0000 0.0000 0.0000 0.0000 34.6213
#
#
#
# Elastic Compliance Matrix: (Units=1/GPa)
#
#
# Indices 1 2 3 4 5 6 
#
# 1 0.015317 -0.005134 -0.005759 0.000000 0.000000 0.000000
# 2 -0.005134 0.012822 0.001371 0.000000 0.000000 0.000000
# 3 -0.005759 0.001371 0.032530 0.000000 0.000000 0.000000
# 4 0.000000 0.000000 0.000000 0.035095 0.000000 0.000000
# 5 0.000000 0.000000 0.000000 0.000000 0.035283 0.000000
# 6 0.000000 0.000000 0.000000 0.000000 0.000000 0.028884
#
#
# Mechanical properties :
#
#
# Convention : Reuss Voigt Hill
#
# Bulk Modulus (GPa) = 24.02349 32.72661 28.37505
# Shear Modulus (GPa) = 25.92701 28.83614 27.38157
#
# Velocity S-wave (km/s) = 3.54948 3.74332 3.64769
# Velocity P-wave (km/s) = 5.33594 5.88100 5.61509
#
# Compressibility (1/GPa) = 0.04162593
#
# Stress axis : x y z
#
# Youngs Moduli (GPa) = 65.28888 77.99325 30.74055
#
# Poissons Ratio (x) = 0.40041 0.17703
# Poissons Ratio (y) = 0.33519 -0.04215
# Poissons Ratio (z) = 0.37598 -0.10695
#
# Static dielectric constant tensor:
#      x y z
#    x 3.491850 0.000000 0.000000 
#    y 0.000000 4.126230 0.000000 
#    z 0.000000 0.000000 3.521520 
# 
# 
# High freq. dielectric constant tensor:
#      x y z
#    x 1.786690 0.000000 0.000000 
#    y 0.000000 1.822910 0.000000 
#    z 0.000000 0.000000 1.792100 
# 
# From -- ./inp_files/14508.got.cif
#   From: 2010.03.12/outbox.cif.g09.slc.cpg/sg46_8_cif.got.tgz:14508.got - 2010.04.14 02:56:35.
