data_PCOD8192657
_publ_section_title
;
Structure prediction by ZEFSAII (Michael W. Deem and Ramdas Pophale) SiO2 
 PCOD8192657
Probable space group: I M A 2
;
_chemical_formula_sum "Si O2"
_cell_formula_units_Z 64
_cell_length_a 8.497858
_cell_length_b 33.071744
_cell_length_c 11.474405
_cell_angle_alpha 90.000000
_cell_angle_beta 90.000000
_cell_angle_gamma 90.000000
_cell_volume 3224.755127
_symmetry_space_group_name_H-M "I M A 2"
_symmetry_group_IT_number 46
_symmetry_cell_setting 'orthorhombic'
loop_
_space_group_symop_operation_xyz
x,y,z
-x,-y,z
1/2-x,y,z
1/2+x,-y,z
1/2+x,1/2+y,1/2+z
1/2-x,1/2-y,1/2+z
-x,1/2+y,1/2+z
x,1/2-y,1/2+z
loop_
_atom_site_type_symbol
_atom_site_label
_atom_site_fract_x
_atom_site_fract_y
_atom_site_fract_z
Si Si1 0.569905 0.895296 0.447960
Si Si2 0.935046 0.121973 0.914388
Si Si3 0.425660 0.727776 0.045583
Si Si4 0.932169 0.042835 0.286064
Si Si5 0.935313 0.652793 0.171026
Si Si6 0.573682 0.175091 0.321421
Si Si7 0.566830 0.810248 0.079803
Si Si8 0.435891 0.045191 0.039963
O O1 0.750000 0.909653 0.449872
O O2 0.460299 0.931144 0.402016
O O3 0.512169 0.880639 0.575181
O O4 0.549401 0.859315 0.356175
O O5 0.750000 0.120723 0.895092
O O6 0.016248 0.136203 0.795779
O O7 0.993269 0.077102 0.948227
O O8 0.977265 0.154067 0.013556
O O9 0.250000 0.741275 0.083757
O O10 0.486455 0.695983 0.142530
O O11 0.538626 0.766128 0.025731
O O12 0.421240 0.708977 0.918588
O O13 0.750000 0.039870 0.254971
O O14 0.000000 0.000000 0.320079
O O15 0.018842 0.059786 0.170490
O O16 0.750000 0.659505 0.165113
O O17 0.750000 0.157110 0.302408
O O18 0.506517 0.195096 0.206504
O O19 0.750000 0.820994 0.080486
O O20 0.250000 0.044794 0.025878
O O21 0.500000 0.000000 0.015047
#
# Coordination Sequence:
#
# PCOD8192657 Si02
#       8
#     8   8   8   8   8   8   8   8
#     4  10  20  37  60  85 116 151 191 237 292 352
#     4  12  25  42  63  89 122 161 207 254 305 365
#     4  10  22  40  61  85 116 155 197 244 301 359
#     4  11  21  35  58  89 123 156 195 242 298 355
#     4  10  22  41  63  87 118 158 202 249 302 361
#     4  10  21  38  59  83 112 147 192 238 291 348
#     4  12  25  39  59  86 119 155 199 250 300 356
#     4  11  22  40  64  92 126 161 202 250 308 366
#
# _framework density 19.846468000000002
#
# number of rings (size 3 to 8) (size 9 to 14) (size 15 to 20)
#    0.000    1.250    0.000    7.500    1.750    3.000 
#    0.000    0.625    0.000    3.000    0.000    0.000 
#    0.000    0.000    0.000    0.000    0.000    0.000 
#
# Total GULP energy -396852.923035 kJ/mol
# GULP energy per Si atom -12401.653845 kJ/mol
# Density = 1.980130 g / cm^3
# Si number density = 19.846468 Si / 1000 Ang^3
#
#
#
# Elastic Constant Matrix: (Units=GPa)
#
#
# Indices 1 2 3 4 5 6 
#
# 1 62.0278 8.6465 16.2169 -0.0003 -0.0003 -0.0001
# 2 8.6465 89.7197 36.5013 -0.0016 -0.0006 -0.0002
# 3 16.2169 36.5013 61.7962 0.0017 -0.0023 0.0007
# 4 -0.0003 -0.0016 0.0017 25.8254 -0.0012 0.0002
# 5 -0.0003 -0.0006 -0.0023 -0.0012 28.9937 -0.0001
# 6 -0.0001 -0.0002 0.0007 0.0002 -0.0001 36.0487
#
#
#
# Elastic Compliance Matrix: (Units=1/GPa)
#
#
# Indices 1 2 3 4 5 6 
#
# 1 0.017313 0.000237 -0.004683 0.000001 0.000000 0.000000
# 2 0.000237 0.014675 -0.008730 0.000002 0.000000 0.000000
# 3 -0.004683 -0.008730 0.022568 -0.000002 0.000002 -0.000001
# 4 0.000001 0.000002 -0.000002 0.038722 0.000002 0.000000
# 5 0.000000 0.000000 0.000002 0.000002 0.034490 0.000000
# 6 0.000000 0.000000 -0.000001 0.000000 0.000000 0.027740
#
#
# Mechanical properties :
#
#
# Convention : Reuss Voigt Hill
#
# Bulk Modulus (GPa) = 35.45767 37.36367 36.41067
# Shear Modulus (GPa) = 26.14214 28.31881 27.23047
#
# Velocity S-wave (km/s) = 3.63329 3.78152 3.70815
# Velocity P-wave (km/s) = 5.95868 6.15904 6.05969
#
# Compressibility (1/GPa) = 0.02820264
#
# Stress axis : x y z
#
# Youngs Moduli (GPa) = 57.75929 68.14432 44.31073
#
# Poissons Ratio (x) = -0.01614 0.20752
# Poissons Ratio (y) = -0.01368 0.38684
# Poissons Ratio (z) = 0.27051 0.59491
#
# Static dielectric constant tensor:
#      x y z
#    x 3.867960 0.000000 -0.000010 
#    y 0.000000 3.688360 0.000000 
#    z -0.000010 0.000000 3.614210 
# 
# 
# High freq. dielectric constant tensor:
#      x y z
#    x 1.792450 0.000000 0.000000 
#    y 0.000000 1.775650 0.000000 
#    z 0.000000 0.000000 1.769800 
# 
# From -- ./inp_files/9735.got.cif
#   From: 2010.03.12/outbox.cif.g09.slc.cpg/sg46_5_cif.got.tgz:9735.got - 2010.04.14 02:56:35.
