data_PCOD8192665
_publ_section_title
;
Structure prediction by ZEFSAII (Michael W. Deem and Ramdas Pophale) SiO2 
 PCOD8192665
Probable space group: I M A 2
;
_chemical_formula_sum "Si O2"
_cell_formula_units_Z 48
_cell_length_a 31.978969
_cell_length_b 9.055855
_cell_length_c 8.056801
_cell_angle_alpha 90.000000
_cell_angle_beta 90.000000
_cell_angle_gamma 90.000000
_cell_volume 2333.224644
_symmetry_space_group_name_H-M "I M A 2"
_symmetry_group_IT_number 46
_symmetry_cell_setting 'orthorhombic'
loop_
_space_group_symop_operation_xyz
x,y,z
-x,-y,z
1/2-x,y,z
1/2+x,-y,z
1/2+x,1/2+y,1/2+z
1/2-x,1/2-y,1/2+z
-x,1/2+y,1/2+z
x,1/2-y,1/2+z
loop_
_atom_site_type_symbol
_atom_site_label
_atom_site_fract_x
_atom_site_fract_y
_atom_site_fract_z
Si Si1 0.164407 0.614514 0.023460
Si Si2 0.382135 0.128818 0.714380
Si Si3 0.202291 0.611825 0.684417
Si Si4 0.125951 0.054395 0.088374
Si Si5 0.082617 0.825700 0.320941
Si Si6 0.045527 0.948075 0.623981
O O1 0.153869 0.466268 0.124173
O O2 0.186239 0.722051 0.154633
O O3 0.197235 0.575387 0.879096
O O4 0.123215 0.692182 0.941572
O O5 0.372608 0.300957 0.702964
O O6 0.425966 0.094147 0.624605
O O7 0.388960 0.089077 0.905467
O O8 0.250000 0.591582 0.628346
O O9 0.173590 0.502704 0.577290
O O10 0.094297 0.937102 0.172054
O O11 0.044681 0.886904 0.435020
O O12 0.067129 0.670530 0.247766
O O13 0.000000 0.000000 0.682701
#
# Coordination Sequence:
#
# PCOD8192665 Si02
#       6
#     8   8   8   8   8   8
#     4  10  20  37  61  84 115 153 196 236 286 351
#     4  11  22  40  62  86 114 155 197 236 290 353
#     4  11  21  36  58  88 117 151 195 244 289 338
#     4  11  22  40  63  84 116 157 196 235 288 356
#     4  10  21  40  61  84 118 157 194 232 286 352
#     4  11  23  39  61  90 119 151 195 245 289 336
#
# _framework density 20.572386999999999
#
# number of rings (size 3 to 8) (size 9 to 14) (size 15 to 20)
#    0.000    1.333    0.000   10.500    0.000    2.667 
#    0.000    6.667    0.000    0.000    0.000    0.000 
#    0.000    0.000    0.000    0.000    0.000    0.000 
#
# Total GULP energy -297585.731763 kJ/mol
# GULP energy per Si atom -12399.405490 kJ/mol
# Density = 2.052556 g / cm^3
# Si number density = 20.572387 Si / 1000 Ang^3
#
#
#
# Elastic Constant Matrix: (Units=GPa)
#
#
# Indices 1 2 3 4 5 6 
#
# 1 95.7373 46.1675 5.3059 0.0000 0.0000 0.0000
# 2 46.1675 94.8693 8.3748 0.0000 0.0000 0.0000
# 3 5.3059 8.3748 84.4156 0.0000 0.0000 0.0000
# 4 0.0000 0.0000 0.0000 35.4305 0.0000 0.0000
# 5 0.0000 0.0000 0.0000 0.0000 23.4412 0.0000
# 6 0.0000 0.0000 0.0000 0.0000 0.0000 13.3581
#
#
#
# Elastic Compliance Matrix: (Units=1/GPa)
#
#
# Indices 1 2 3 4 5 6 
#
# 1 0.013651 -0.006626 -0.000201 0.000000 0.000000 0.000000
# 2 -0.006626 0.013850 -0.000958 0.000000 0.000000 0.000000
# 3 -0.000201 -0.000958 0.011954 0.000000 0.000000 0.000000
# 4 0.000000 0.000000 0.000000 0.028224 0.000000 0.000000
# 5 0.000000 0.000000 0.000000 0.000000 0.042660 0.000000
# 6 0.000000 0.000000 0.000000 0.000000 0.000000 0.074861
#
#
# Mechanical properties :
#
#
# Convention : Reuss Voigt Hill
#
# Bulk Modulus (GPa) = 41.86379 43.85763 42.86071
# Shear Modulus (GPa) = 23.95432 28.79088 26.37260
#
# Velocity S-wave (km/s) = 3.41602 3.74504 3.58431
# Velocity P-wave (km/s) = 5.99605 6.32972 6.16514
#
# Compressibility (1/GPa) = 0.02388699
#
# Stress axis : x y z
#
# Youngs Moduli (GPa) = 73.25210 72.20377 83.65562
#
# Poissons Ratio (x) = 0.47840 0.01679
# Poissons Ratio (y) = 0.48535 0.08011
# Poissons Ratio (z) = 0.01470 0.06914
#
# Static dielectric constant tensor:
#      x y z
#    x 3.572130 0.000000 0.000000 
#    y 0.000000 3.773360 0.000000 
#    z 0.000000 0.000000 3.907360 
# 
# 
# High freq. dielectric constant tensor:
#      x y z
#    x 1.778920 0.000000 0.000000 
#    y 0.000000 1.803100 0.000000 
#    z 0.000000 0.000000 1.821940 
# 
# From -- ./inp_files/8396.got.cif
#   From: 2010.03.12/outbox.cif.g09.slc.cpg/sg46_5_cif.got.tgz:8396.got - 2010.04.14 02:56:35.
