data_PCOD8192312
_publ_section_title
;
Structure prediction by ZEFSAII (Michael W. Deem and Ramdas Pophale) SiO2 
 PCOD8192312
Probable space group: I M A 2
;
_chemical_formula_sum "Si O2"
_cell_formula_units_Z 64
_cell_length_a 8.959637
_cell_length_b 29.746791
_cell_length_c 14.352260
_cell_angle_alpha 90.000000
_cell_angle_beta 90.000000
_cell_angle_gamma 90.000000
_cell_volume 3825.170783
_symmetry_space_group_name_H-M "I M A 2"
_symmetry_group_IT_number 46
_symmetry_cell_setting 'orthorhombic'
loop_
_space_group_symop_operation_xyz
x,y,z
-x,-y,z
1/2-x,y,z
1/2+x,-y,z
1/2+x,1/2+y,1/2+z
1/2-x,1/2-y,1/2+z
-x,1/2+y,1/2+z
x,1/2-y,1/2+z
loop_
_atom_site_type_symbol
_atom_site_label
_atom_site_fract_x
_atom_site_fract_y
_atom_site_fract_z
Si Si1 0.425664 0.213868 0.044210
Si Si2 0.581301 0.323970 0.244774
Si Si3 0.924578 0.046828 0.644976
Si Si4 0.079334 0.297797 0.922867
Si Si5 0.924619 0.867714 0.914145
Si Si6 0.923050 0.453599 0.361644
Si Si7 0.922130 0.866410 0.579254
Si Si8 0.582711 0.280167 0.740120
O O1 0.250000 0.219449 0.056705
O O2 0.496103 0.211143 0.145414
O O3 0.486949 0.256338 0.984482
O O4 0.469544 0.167230 0.994431
O O5 0.750000 0.344015 0.250760
O O6 0.472361 0.347918 0.315804
O O7 0.513095 0.331964 0.143511
O O8 0.582762 0.271814 0.266642
O O9 0.750000 0.044203 0.622095
O O10 0.001692 0.084768 0.581665
O O11 0.953385 0.058494 0.753341
O O12 0.000000 0.000000 0.617709
O O13 0.250000 0.286096 0.898488
O O14 0.992286 0.305511 0.826758
O O15 0.066318 0.345155 0.976610
O O16 0.750000 0.877279 0.912798
O O17 0.009412 0.914939 0.928017
O O18 0.750000 0.458586 0.382922
O O19 0.000000 0.500000 0.389166
O O20 0.750000 0.870035 0.611296
O O21 0.750000 0.298478 0.727728
#
# Coordination Sequence:
#
# PCOD8192312 Si02
#       8
#     8   8   8   8   8   8   8   8
#     4  10  21  36  53  74 101 138 178 214 255 305
#     4  11  21  31  46  72 105 138 172 213 258 301
#     4  10  20  33  50  74 105 137 170 209 257 306
#     4  10  21  36  53  74 101 138 178 214 255 305
#     4  11  21  33  52  75 101 138 178 213 254 304
#     4  10  20  33  50  74 105 137 170 209 257 306
#     4  11  21  33  52  75 101 138 178 213 254 304
#     4  11  23  35  51  74 103 138 175 221 263 297
#
# _framework density 16.731278
#
# number of rings (size 3 to 8) (size 9 to 14) (size 15 to 20)
#    0.000    1.500    3.750    2.250    0.000    4.500 
#    0.000    0.000    0.000    0.000    0.000    0.875 
#    0.000    0.000    0.000    0.000    0.000    0.000 
#
# Total GULP energy -396870.102123 kJ/mol
# GULP energy per Si atom -12402.190691 kJ/mol
# Density = 1.669320 g / cm^3
# Si number density = 16.731278 Si / 1000 Ang^3
#
#
#
# Elastic Constant Matrix: (Units=GPa)
#
#
# Indices 1 2 3 4 5 6 
#
# 1 73.3754 53.1889 29.7875 -0.0004 0.0000 -0.0001
# 2 53.1889 102.7874 35.5334 -0.0002 0.0000 -0.0001
# 3 29.7875 35.5334 77.3400 -0.0005 0.0002 -0.0002
# 4 -0.0004 -0.0002 -0.0005 19.5916 0.0004 0.0000
# 5 0.0000 0.0000 0.0002 0.0004 19.9950 0.0002
# 6 -0.0001 -0.0001 -0.0002 0.0000 0.0002 30.2546
#
#
#
# Elastic Compliance Matrix: (Units=1/GPa)
#
#
# Indices 1 2 3 4 5 6 
#
# 1 0.022803 -0.010418 -0.003996 0.000000 0.000000 0.000000
# 2 -0.010418 0.016326 -0.003488 0.000000 0.000000 0.000000
# 3 -0.003996 -0.003488 0.016072 0.000000 0.000000 0.000000
# 4 0.000000 0.000000 0.000000 0.051042 -0.000001 0.000000
# 5 0.000000 0.000000 0.000000 -0.000001 0.050013 0.000000
# 6 0.000000 0.000000 0.000000 0.000000 0.000000 0.033053
#
#
# Mechanical properties :
#
#
# Convention : Reuss Voigt Hill
#
# Bulk Modulus (GPa) = 51.55852 54.50250 53.03051
# Shear Modulus (GPa) = 21.59104 22.96778 22.27941
#
# Velocity S-wave (km/s) = 3.59619 3.70908 3.65307
# Velocity P-wave (km/s) = 6.93729 7.14065 7.03971
#
# Compressibility (1/GPa) = 0.01939543
#
# Stress axis : x y z
#
# Youngs Moduli (GPa) = 43.85424 61.25284 62.22177
#
# Poissons Ratio (x) = 0.63815 0.24863
# Poissons Ratio (y) = 0.45689 0.21704
# Poissons Ratio (z) = 0.17524 0.21366
#
# Static dielectric constant tensor:
#      x y z
#    x 3.294440 0.000000 0.000000 
#    y 0.000000 3.194720 0.000000 
#    z 0.000000 0.000000 2.877300 
# 
# 
# High freq. dielectric constant tensor:
#      x y z
#    x 1.660010 0.000000 0.000000 
#    y 0.000000 1.639540 0.000000 
#    z 0.000000 0.000000 1.612730 
# 
# From -- ./inp_files/9676.got.cif
#   From: 2010.03.12/outbox.cif.g09.slc.cpg/sg46_5_cif.got.tgz:9676.got - 2010.04.14 02:56:35.
