data_PCOD8192551
_publ_section_title
;
Structure prediction by ZEFSAII (Michael W. Deem and Ramdas Pophale) SiO2 
 PCOD8192551
Probable space group: I M A 2
;
_chemical_formula_sum "Si O2"
_cell_formula_units_Z 64
_cell_length_a 8.525190
_cell_length_b 20.354081
_cell_length_c 19.539295
_cell_angle_alpha 90.000000
_cell_angle_beta 90.000000
_cell_angle_gamma 90.000000
_cell_volume 3390.505515
_symmetry_space_group_name_H-M "I M A 2"
_symmetry_group_IT_number 46
_symmetry_cell_setting 'orthorhombic'
loop_
_space_group_symop_operation_xyz
x,y,z
-x,-y,z
1/2-x,y,z
1/2+x,-y,z
1/2+x,1/2+y,1/2+z
1/2-x,1/2-y,1/2+z
-x,1/2+y,1/2+z
x,1/2-y,1/2+z
loop_
_atom_site_type_symbol
_atom_site_label
_atom_site_fract_x
_atom_site_fract_y
_atom_site_fract_z
Si Si1 0.935401 0.568526 0.952460
Si Si2 0.432968 0.070025 0.795490
Si Si3 0.934738 0.816975 0.550449
Si Si4 0.935402 0.931474 0.298131
Si Si5 0.566822 0.177342 0.696478
Si Si6 0.065262 0.316975 0.700142
Si Si7 0.566822 0.177342 0.054113
Si Si8 0.067032 0.429975 0.455102
O O1 0.750000 0.565927 0.954713
O O2 0.997328 0.580120 0.875296
O O3 0.000000 0.500000 0.981846
O O4 0.998516 0.627182 0.999584
O O5 0.250000 0.072821 0.778355
O O6 0.522538 0.126684 0.755371
O O7 0.466688 0.081474 0.875296
O O8 0.500000 0.000000 0.771600
O O9 0.750000 0.805377 0.542745
O O10 0.972481 0.839447 0.627500
O O11 0.022919 0.750374 0.529444
O O12 0.750000 0.934073 0.295878
O O13 0.998516 0.872818 0.251007
O O14 0.000000 0.000000 0.268745
O O15 0.750000 0.173417 0.680562
O O16 0.522919 0.250374 0.721147
O O17 0.250000 0.305377 0.707846
O O18 0.027519 0.339447 0.623091
O O19 0.750000 0.173416 0.070029
O O20 0.522538 0.126684 0.995220
O O21 0.250000 0.427179 0.472236
O O22 0.000000 0.500000 0.478991
#
# Coordination Sequence:
#
# PCOD8192551 Si02
#       8
#     8   8   8   8   8   8   8   8
#     4   9  19  35  55  79 106 137 174 217 264 314
#     4  10  21  38  59  82 109 141 178 221 269 322
#     4  10  20  36  56  78 108 144 183 225 269 317
#     4   9  19  35  55  79 106 137 174 217 264 314
#     4  11  22  36  55  80 110 142 180 223 269 322
#     4  10  20  36  56  78 108 144 183 225 269 317
#     4  11  22  36  55  80 110 142 180 223 269 322
#     4  10  21  38  59  82 109 141 178 221 269 322
#
# _framework density 18.876241
#
# number of rings (size 3 to 8) (size 9 to 14) (size 15 to 20)
#    0.000    2.000    0.000    5.250    0.000    5.500 
#    0.000    5.000    0.000    0.000    0.000    0.000 
#    0.000    0.000    0.000    0.000    0.000    0.000 
#
# Total GULP energy -396916.822778 kJ/mol
# GULP energy per Si atom -12403.650712 kJ/mol
# Density = 1.883328 g / cm^3
# Si number density = 18.876241 Si / 1000 Ang^3
#
#
#
# Elastic Constant Matrix: (Units=GPa)
#
#
# Indices 1 2 3 4 5 6 
#
# 1 53.8199 28.7858 15.3833 0.0000 0.0000 0.0000
# 2 28.7858 148.5471 81.8963 0.0000 0.0000 0.0000
# 3 15.3833 81.8963 77.6655 0.0000 0.0000 0.0000
# 4 0.0000 0.0000 0.0000 44.0193 0.0000 0.0000
# 5 0.0000 0.0000 0.0000 0.0000 23.9599 0.0000
# 6 0.0000 0.0000 0.0000 0.0000 0.0000 36.1865
#
#
#
# Elastic Compliance Matrix: (Units=1/GPa)
#
#
# Indices 1 2 3 4 5 6 
#
# 1 0.020732 -0.004189 0.000310 0.000000 0.000000 0.000000
# 2 -0.004189 0.016926 -0.017018 0.000000 0.000000 0.000000
# 3 0.000310 -0.017018 0.030760 0.000000 0.000000 0.000000
# 4 0.000000 0.000000 0.000000 0.022717 0.000000 0.000000
# 5 0.000000 0.000000 0.000000 0.000000 0.041736 0.000000
# 6 0.000000 0.000000 0.000000 0.000000 0.000000 0.027635
#
#
# Mechanical properties :
#
#
# Convention : Reuss Voigt Hill
#
# Bulk Modulus (GPa) = 37.55939 59.12925 48.34432
# Shear Modulus (GPa) = 23.67709 31.09763 27.38736
#
# Velocity S-wave (km/s) = 3.54550 4.06328 3.81319
# Velocity P-wave (km/s) = 6.05819 7.30797 6.71223
#
# Compressibility (1/GPa) = 0.02662450
#
# Stress axis : x y z
#
# Youngs Moduli (GPa) = 48.23443 59.08037 32.50997
#
# Poissons Ratio (x) = 0.24747 -0.01009
# Poissons Ratio (y) = 0.20204 0.55327
# Poissons Ratio (z) = -0.01497 1.00546
#
# Static dielectric constant tensor:
#      x y z
#    x 3.479300 0.000000 0.000000 
#    y 0.000000 3.595330 0.000000 
#    z 0.000000 0.000000 3.509200 
# 
# 
# High freq. dielectric constant tensor:
#      x y z
#    x 1.741130 0.000000 0.000000 
#    y 0.000000 1.742180 0.000000 
#    z 0.000000 0.000000 1.729000 
# 
# From -- ./inp_files/21328.got.cif
#   From: 2010.03.12/outbox.cif.g09.slc.cpg/sg46_11_cif.got.tgz:21328.got - 2010.04.14 02:56:35.
