data_PCOD8192449
_publ_section_title
;
Structure prediction by ZEFSAII (Michael W. Deem and Ramdas Pophale) SiO2 
 PCOD8192449
Probable space group: I M A 2
;
_chemical_formula_sum "Si O2"
_cell_formula_units_Z 64
_cell_length_a 9.920021
_cell_length_b 29.213659
_cell_length_c 11.956837
_cell_angle_alpha 90.000000
_cell_angle_beta 90.000000
_cell_angle_gamma 90.000000
_cell_volume 3465.092687
_symmetry_space_group_name_H-M "I M A 2"
_symmetry_group_IT_number 46
_symmetry_cell_setting 'orthorhombic'
loop_
_space_group_symop_operation_xyz
x,y,z
-x,-y,z
1/2-x,y,z
1/2+x,-y,z
1/2+x,1/2+y,1/2+z
1/2-x,1/2-y,1/2+z
-x,1/2+y,1/2+z
x,1/2-y,1/2+z
loop_
_atom_site_type_symbol
_atom_site_label
_atom_site_fract_x
_atom_site_fract_y
_atom_site_fract_z
Si Si1 0.399879 0.606452 0.967760
Si Si2 0.096050 0.361459 0.405262
Si Si3 0.591044 0.544743 0.824750
Si Si4 0.474299 0.811226 0.325270
Si Si5 0.095051 0.862031 0.712631
Si Si6 0.596646 0.619755 0.650477
Si Si7 0.897958 0.739718 0.471520
Si Si8 0.897507 0.239670 0.660002
O O1 0.250000 0.585069 0.945699
O O2 0.522247 0.576535 0.918913
O O3 0.396057 0.657391 0.914691
O O4 0.426697 0.609171 0.099794
O O5 0.250000 0.377519 0.384220
O O6 0.039662 0.380577 0.524239
O O7 0.084429 0.306535 0.400606
O O8 0.000909 0.382851 0.309009
O O9 0.500000 0.500000 0.816135
O O10 0.750000 0.535447 0.854561
O O11 0.581137 0.569594 0.704841
O O12 0.525766 0.842910 0.226185
O O13 0.590386 0.784032 0.391842
O O14 0.382347 0.772212 0.268826
O O15 0.250000 0.864471 0.752658
O O16 0.048432 0.809990 0.693644
O O17 0.750000 0.635687 0.642996
O O18 0.750000 0.741269 0.526478
O O19 0.004419 0.737879 0.570679
O O20 0.750000 0.234660 0.604846
#
# Coordination Sequence:
#
# PCOD8192449 Si02
#       8
#     8   8   8   8   8   8   8   8
#     4  10  21  37  56  81 113 146 184 229 277 328
#     4  10  20  35  52  75 106 148 192 233 271 318
#     4  10  21  39  65  92 115 138 167 215 277 341
#     4  11  19  33  51  77 107 147 195 236 283 321
#     4  10  21  36  51  74 109 152 192 233 272 315
#     4   9  19  35  54  79 112 142 176 224 276 326
#     4  11  22  32  48  71 103 148 195 241 278 319
#     4  11  22  33  47  69 104 149 194 238 278 320
#
# _framework density 18.469923999999999
#
# number of rings (size 3 to 8) (size 9 to 14) (size 15 to 20)
#    0.000    1.750    3.750    1.125    0.000    3.000 
#    0.000    1.250    0.000    0.750    0.000    3.500 
#    0.000    0.000    0.000    0.000    0.000    0.000 
#
# Total GULP energy -396636.053798 kJ/mol
# GULP energy per Si atom -12394.876681 kJ/mol
# Density = 1.842789 g / cm^3
# Si number density = 18.469924 Si / 1000 Ang^3
#
#
#
# Elastic Constant Matrix: (Units=GPa)
#
#
# Indices 1 2 3 4 5 6 
#
# 1 107.8404 29.4253 57.4484 0.0000 0.0001 0.0000
# 2 29.4253 64.2600 21.2676 0.0002 -0.0001 0.0000
# 3 57.4484 21.2676 115.3013 0.0012 0.0008 0.0002
# 4 0.0000 0.0002 0.0012 14.8464 -0.0001 0.0000
# 5 0.0001 -0.0001 0.0008 -0.0001 31.0234 0.0001
# 6 0.0000 0.0000 0.0002 0.0000 0.0001 23.3468
#
#
#
# Elastic Compliance Matrix: (Units=1/GPa)
#
#
# Indices 1 2 3 4 5 6 
#
# 1 0.013635 -0.004255 -0.006009 0.000001 0.000000 0.000000
# 2 -0.004255 0.017901 -0.001182 0.000000 0.000000 0.000000
# 3 -0.006009 -0.001182 0.011885 -0.000001 0.000000 0.000000
# 4 0.000001 0.000000 -0.000001 0.067356 0.000000 0.000000
# 5 0.000000 0.000000 0.000000 0.000000 0.032234 0.000000
# 6 0.000000 0.000000 0.000000 0.000000 0.000000 0.042832
#
#
# Mechanical properties :
#
#
# Convention : Reuss Voigt Hill
#
# Bulk Modulus (GPa) = 48.70956 55.96493 52.33725
# Shear Modulus (GPa) = 23.19348 25.79402 24.49375
#
# Velocity S-wave (km/s) = 3.54749 3.74109 3.64557
# Velocity P-wave (km/s) = 6.57337 7.00195 6.79104
#
# Compressibility (1/GPa) = 0.02052985
#
# Stress axis : x y z
#
# Youngs Moduli (GPa) = 73.34127 55.86177 84.14142
#
# Poissons Ratio (x) = 0.23769 0.50558
# Poissons Ratio (y) = 0.31206 0.09945
# Poissons Ratio (z) = 0.44069 0.06603
#
# Static dielectric constant tensor:
#      x y z
#    x 3.481220 0.000000 0.000000 
#    y 0.000000 3.166520 0.000000 
#    z 0.000000 0.000000 3.485100 
# 
# 
# High freq. dielectric constant tensor:
#      x y z
#    x 1.718840 0.000000 0.000000 
#    y 0.000000 1.682180 0.000000 
#    z 0.000000 0.000000 1.718730 
# 
# From -- ./inp_files/9787.got.cif
#   From: 2010.03.12/outbox.cif.g09.slc.cpg/sg46_5_cif.got.tgz:9787.got - 2010.04.14 02:56:35.
