data_PCOD8192097
_publ_section_title
;
Structure prediction by ZEFSAII (Michael W. Deem and Ramdas Pophale) SiO2 
 PCOD8192097
Probable space group: I M A 2
;
_chemical_formula_sum "Si O2"
_cell_formula_units_Z 64
_cell_length_a 8.707132
_cell_length_b 24.888593
_cell_length_c 15.202277
_cell_angle_alpha 90.000000
_cell_angle_beta 90.000000
_cell_angle_gamma 90.000000
_cell_volume 3294.459066
_symmetry_space_group_name_H-M "I M A 2"
_symmetry_group_IT_number 46
_symmetry_cell_setting 'orthorhombic'
loop_
_space_group_symop_operation_xyz
x,y,z
-x,-y,z
1/2-x,y,z
1/2+x,-y,z
1/2+x,1/2+y,1/2+z
1/2-x,1/2-y,1/2+z
-x,1/2+y,1/2+z
x,1/2-y,1/2+z
loop_
_atom_site_type_symbol
_atom_site_label
_atom_site_fract_x
_atom_site_fract_y
_atom_site_fract_z
Si Si1 0.068200 0.558250 0.131670
Si Si2 0.427303 0.602870 0.319300
Si Si3 0.930463 0.140121 0.483561
Si Si4 0.571680 0.220862 0.771692
Si Si5 0.430180 0.267152 0.086703
Si Si6 0.931098 0.648033 0.617867
Si Si7 0.068152 0.329858 0.811882
Si Si8 0.568796 0.943091 0.990720
O O1 0.250000 0.555423 0.128865
O O2 0.013175 0.582684 0.224381
O O3 0.000000 0.500000 0.116089
O O4 0.007646 0.596305 0.052991
O O5 0.250000 0.587092 0.332806
O O6 0.451300 0.666873 0.328644
O O7 0.526583 0.572542 0.391685
O O8 0.750000 0.135559 0.470180
O O9 0.973744 0.199531 0.516128
O O10 0.013042 0.130632 0.389612
O O11 0.750000 0.228376 0.746261
O O12 0.472514 0.213412 0.684006
O O13 0.510220 0.271593 0.826664
O O14 0.250000 0.276116 0.070667
O O15 0.478761 0.204955 0.075470
O O16 0.750000 0.642705 0.617519
O O17 0.988558 0.645034 0.719073
O O18 0.002357 0.600304 0.559253
O O19 0.250000 0.321973 0.813284
O O20 0.750000 0.946157 0.998505
O O21 0.500000 0.000000 0.017481
#
# Coordination Sequence:
#
# PCOD8192097 Si02
#       8
#     8   8   8   8   8   8   8   8
#     4  10  22  40  59  81 116 155 196 240 289 348
#     4  10  21  38  57  84 118 155 192 234 286 348
#     4  11  22  38  57  85 121 157 194 244 299 349
#     4  10  19  35  56  84 122 157 189 232 290 349
#     4  10  19  34  57  86 116 152 195 236 284 348
#     4   8  19  39  59  81 113 148 189 241 291 338
#     4  10  21  38  59  85 117 154 198 245 292 353
#     4  11  23  40  60  84 113 150 195 246 294 345
#
# _framework density 19.426556999999999
#
# number of rings (size 3 to 8) (size 9 to 14) (size 15 to 20)
#    0.000    2.000    1.250    3.000    1.750    3.500 
#    0.000    7.500    0.000    3.000    0.000    0.000 
#    0.000    0.000    0.000    0.000    0.000    0.000 
#
# Total GULP energy -396840.436139 kJ/mol
# GULP energy per Si atom -12401.263629 kJ/mol
# Density = 1.938234 g / cm^3
# Si number density = 19.426557 Si / 1000 Ang^3
#
#
#
# Elastic Constant Matrix: (Units=GPa)
#
#
# Indices 1 2 3 4 5 6 
#
# 1 39.6833 36.4122 18.7383 0.0002 0.0000 0.0000
# 2 36.4122 132.5571 71.4545 0.0002 0.0000 0.0000
# 3 18.7383 71.4545 117.8129 0.0012 0.0000 -0.0001
# 4 0.0002 0.0002 0.0012 24.2270 0.0001 0.0000
# 5 0.0000 0.0000 0.0000 0.0001 29.6278 0.0000
# 6 0.0000 0.0000 -0.0001 0.0000 0.0000 30.1000
#
#
#
# Elastic Compliance Matrix: (Units=1/GPa)
#
#
# Indices 1 2 3 4 5 6 
#
# 1 0.033703 -0.009462 0.000378 0.000000 0.000000 0.000000
# 2 -0.009462 0.013865 -0.006904 0.000000 0.000000 0.000000
# 3 0.000378 -0.006904 0.012615 -0.000001 0.000000 0.000000
# 4 0.000000 0.000000 -0.000001 0.041276 0.000000 0.000000
# 5 0.000000 0.000000 0.000000 0.000000 0.033752 0.000000
# 6 0.000000 0.000000 0.000000 0.000000 0.000000 0.033223
#
#
# Mechanical properties :
#
#
# Convention : Reuss Voigt Hill
#
# Bulk Modulus (GPa) = 35.45182 60.36259 47.90720
# Shear Modulus (GPa) = 23.83096 27.68751 25.75924
#
# Velocity S-wave (km/s) = 3.50626 3.77933 3.64535
# Velocity P-wave (km/s) = 5.88902 7.08407 6.51401
#
# Compressibility (1/GPa) = 0.02820730
#
# Stress axis : x y z
#
# Youngs Moduli (GPa) = 29.67126 72.12635 79.26892
#
# Poissons Ratio (x) = 0.68243 -0.02997
# Poissons Ratio (y) = 0.28074 0.54728
# Poissons Ratio (z) = -0.01122 0.49797
#
# Static dielectric constant tensor:
#      x y z
#    x 3.411080 0.000000 0.000000 
#    y 0.000000 4.803470 0.000000 
#    z 0.000000 0.000000 3.704270 
# 
# 
# High freq. dielectric constant tensor:
#      x y z
#    x 1.748700 0.000000 0.000000 
#    y 0.000000 1.749770 0.000000 
#    z 0.000000 0.000000 1.757860 
# 
# From -- ./inp_files/14432.got.cif
#   From: 2010.03.12/outbox.cif.g09.slc.cpg/sg46_8_cif.got.tgz:14432.got - 2010.04.14 02:56:35.
