data_PCOD8192331
_publ_section_title
;
Structure prediction by ZEFSAII (Michael W. Deem and Ramdas Pophale) SiO2 
 PCOD8192331
Probable space group: I M A 2
;
_chemical_formula_sum "Si O2"
_cell_formula_units_Z 48
_cell_length_a 13.786446
_cell_length_b 11.767285
_cell_length_c 14.061146
_cell_angle_alpha 90.000000
_cell_angle_beta 90.000000
_cell_angle_gamma 90.000000
_cell_volume 2281.126206
_symmetry_space_group_name_H-M "I M A 2"
_symmetry_group_IT_number 46
_symmetry_cell_setting 'orthorhombic'
loop_
_space_group_symop_operation_xyz
x,y,z
-x,-y,z
1/2-x,y,z
1/2+x,-y,z
1/2+x,1/2+y,1/2+z
1/2-x,1/2-y,1/2+z
-x,1/2+y,1/2+z
x,1/2-y,1/2+z
loop_
_atom_site_type_symbol
_atom_site_label
_atom_site_fract_x
_atom_site_fract_y
_atom_site_fract_z
Si Si1 0.482354 0.871537 0.940630
Si Si2 0.136437 0.230913 0.348645
Si Si3 0.636110 0.543192 0.984832
Si Si4 0.365063 0.805118 0.552115
Si Si5 0.639859 0.398166 0.255701
Si Si6 0.639263 0.857191 0.673944
O O1 0.586259 0.813087 0.925515
O O2 0.426016 0.859023 0.841714
O O3 0.500000 0.000000 0.974521
O O4 0.420772 0.808044 0.021561
O O5 0.250000 0.259295 0.355548
O O6 0.115631 0.100787 0.382386
O O7 0.098514 0.253339 0.239985
O O8 0.750000 0.534491 0.008373
O O9 0.597144 0.413620 0.988024
O O10 0.588736 0.620375 0.071141
O O11 0.250000 0.786947 0.539652
O O12 0.391920 0.830139 0.661466
O O13 0.750000 0.369042 0.282096
O O14 0.625939 0.531974 0.239664
O O15 0.750000 0.829451 0.652538
#
# Coordination Sequence:
#
# PCOD8192331 Si02
#       6
#     8   8   8   8   8   8
#     4  12  23  34  57  92 121 156 199 251 304 362
#     4  10  20  33  51  80 118 153 191 242 301 355
#     4   8  16  33  57  82 108 147 197 242 292 352
#     4   9  20  39  64  89 116 153 200 253 304 361
#     4   9  18  37  62  85 111 151 201 248 296 354
#     4   8  14  29  54  80 104 139 189 236 282 346
#
# _framework density 21.042238999999999
#
# number of rings (size 3 to 8) (size 9 to 14) (size 15 to 20)
#    0.000    2.667    1.667    2.500    0.000    2.667 
#    0.000    0.000    7.333    0.000    0.000    0.000 
#    0.000    0.000    0.000    0.000    0.000    0.000 
#
# Total GULP energy -297376.249502 kJ/mol
# GULP energy per Si atom -12390.677063 kJ/mol
# Density = 2.099435 g / cm^3
# Si number density = 21.042239 Si / 1000 Ang^3
#
#
#
# Elastic Constant Matrix: (Units=GPa)
#
#
# Indices 1 2 3 4 5 6 
#
# 1 35.9357 34.3386 35.8570 0.0000 0.0000 0.0000
# 2 34.3386 125.3744 61.6213 0.0000 0.0000 0.0000
# 3 35.8570 61.6213 89.3302 0.0000 0.0000 0.0000
# 4 0.0000 0.0000 0.0000 38.5028 0.0000 0.0000
# 5 0.0000 0.0000 0.0000 0.0000 26.1339 0.0000
# 6 0.0000 0.0000 0.0000 0.0000 0.0000 22.8419
#
#
#
# Elastic Compliance Matrix: (Units=1/GPa)
#
#
# Indices 1 2 3 4 5 6 
#
# 1 0.048948 -0.005673 -0.015735 0.000000 0.000000 0.000000
# 2 -0.005673 0.012725 -0.006501 0.000000 0.000000 0.000000
# 3 -0.015735 -0.006501 0.021995 0.000000 0.000000 0.000000
# 4 0.000000 0.000000 0.000000 0.025972 0.000000 0.000000
# 5 0.000000 0.000000 0.000000 0.000000 0.038265 0.000000
# 6 0.000000 0.000000 0.000000 0.000000 0.000000 0.043779
#
#
# Mechanical properties :
#
#
# Convention : Reuss Voigt Hill
#
# Bulk Modulus (GPa) = 35.90478 57.14156 46.52317
# Shear Modulus (GPa) = 19.47163 25.41728 22.44445
#
# Velocity S-wave (km/s) = 3.04527 3.47928 3.26949
# Velocity P-wave (km/s) = 5.42818 6.58446 6.03408
#
# Compressibility (1/GPa) = 0.02785144
#
# Stress axis : x y z
#
# Youngs Moduli (GPa) = 20.42973 78.58563 45.46575
#
# Poissons Ratio (x) = 0.44581 0.71538
# Poissons Ratio (y) = 0.11590 0.29556
# Poissons Ratio (z) = 0.32145 0.51087
#
# Static dielectric constant tensor:
#      x y z
#    x 3.844040 0.000000 0.000000 
#    y 0.000000 3.691220 0.000000 
#    z 0.000000 0.000000 3.799080 
# 
# 
# High freq. dielectric constant tensor:
#      x y z
#    x 1.836140 0.000000 0.000000 
#    y 0.000000 1.794450 0.000000 
#    z 0.000000 0.000000 1.807770 
# 
# From -- ./inp_files/15856.got.cif
#   From: 2010.03.12/outbox.cif.g09.slc.cpg/sg46_8_cif.got.tgz:15856.got - 2010.04.14 02:56:35.
