data_PCOD8192660
_publ_section_title
;
Structure prediction by ZEFSAII (Michael W. Deem and Ramdas Pophale) SiO2 
 PCOD8192660
Probable space group: I M A 2
;
_chemical_formula_sum "Si O2"
_cell_formula_units_Z 64
_cell_length_a 8.906458
_cell_length_b 32.633440
_cell_length_c 11.678343
_cell_angle_alpha 90.000000
_cell_angle_beta 90.000000
_cell_angle_gamma 90.000000
_cell_volume 3394.291273
_symmetry_space_group_name_H-M "I M A 2"
_symmetry_group_IT_number 46
_symmetry_cell_setting 'orthorhombic'
loop_
_space_group_symop_operation_xyz
x,y,z
-x,-y,z
1/2-x,y,z
1/2+x,-y,z
1/2+x,1/2+y,1/2+z
1/2-x,1/2-y,1/2+z
-x,1/2+y,1/2+z
x,1/2-y,1/2+z
loop_
_atom_site_type_symbol
_atom_site_label
_atom_site_fract_x
_atom_site_fract_y
_atom_site_fract_z
Si Si1 0.574795 0.727461 0.847080
Si Si2 0.428260 0.956440 0.860192
Si Si3 0.084940 0.811541 0.541852
Si Si4 0.927993 0.622557 0.464415
Si Si5 0.925894 0.187646 0.798988
Si Si6 0.574523 0.854950 0.218941
Si Si7 0.927662 0.042387 0.599793
Si Si8 0.415138 0.604144 0.913646
O O1 0.750000 0.738135 0.836757
O O2 0.473270 0.765672 0.815173
O O3 0.526453 0.690304 0.762610
O O4 0.537291 0.717179 0.979667
O O5 0.250000 0.959054 0.876458
O O6 0.494149 0.920937 0.940357
O O7 0.473137 0.945310 0.729270
O O8 0.500000 0.000000 0.895632
O O9 0.250000 0.789998 0.545902
O O10 0.032734 0.823270 0.668744
O O11 0.098829 0.852251 0.470563
O O12 0.750000 0.617013 0.456450
O O13 0.979692 0.638197 0.589413
O O14 0.979365 0.657132 0.376496
O O15 0.750000 0.181831 0.825638
O O16 0.750000 0.859283 0.230372
O O17 0.508545 0.891541 0.296979
O O18 0.750000 0.039380 0.591688
O O19 0.992584 0.074479 0.507207
O O20 0.000000 0.000000 0.564120
O O21 0.250000 0.587458 0.881052
#
# Coordination Sequence:
#
# PCOD8192660 Si02
#       8
#     8   8   8   8   8   8   8   8
#     4  10  21  37  56  79 109 145 184 230 286 339
#     4  10  20  37  60  87 119 153 189 235 288 342
#     4   9  19  36  55  77 104 137 179 226 274 328
#     4  11  23  39  58  84 115 152 195 238 286 343
#     4  11  23  37  56  83 112 144 186 234 282 337
#     4   9  21  39  56  77 109 147 187 232 280 334
#     4   9  18  32  53  83 115 143 176 223 277 332
#     4   9  17  33  56  78 104 139 179 222 270 325
#
# _framework density 18.855187000000001
#
# number of rings (size 3 to 8) (size 9 to 14) (size 15 to 20)
#    0.000    2.250    0.000    2.250    1.750    5.500 
#    0.000    3.125    0.000    1.500    0.000    0.000 
#    0.000    0.000    0.000    0.000    0.000    0.000 
#
# Total GULP energy -396730.021290 kJ/mol
# GULP energy per Si atom -12397.813165 kJ/mol
# Density = 1.881227 g / cm^3
# Si number density = 18.855187 Si / 1000 Ang^3
#
#
#
# Elastic Constant Matrix: (Units=GPa)
#
#
# Indices 1 2 3 4 5 6 
#
# 1 49.8392 37.8873 41.3376 -0.0001 0.0002 0.0000
# 2 37.8873 83.1549 47.2198 -0.0024 -0.0008 -0.0006
# 3 41.3376 47.2198 126.5183 -0.0094 -0.0014 -0.0011
# 4 -0.0001 -0.0024 -0.0094 17.9677 -0.0010 -0.0008
# 5 0.0002 -0.0008 -0.0014 -0.0010 28.9314 -0.0010
# 6 0.0000 -0.0006 -0.0011 -0.0008 -0.0010 33.6462
#
#
#
# Elastic Compliance Matrix: (Units=1/GPa)
#
#
# Indices 1 2 3 4 5 6 
#
# 1 0.034922 -0.011968 -0.006943 -0.000005 -0.000001 0.000000
# 2 -0.011968 0.019362 -0.003316 0.000001 0.000000 0.000000
# 3 -0.006943 -0.003316 0.011410 0.000005 0.000001 0.000000
# 4 -0.000005 0.000001 0.000005 0.055655 0.000002 0.000001
# 5 -0.000001 0.000000 0.000001 0.000002 0.034564 0.000001
# 6 0.000000 0.000000 0.000000 0.000001 0.000001 0.029721
#
#
# Mechanical properties :
#
#
# Convention : Reuss Voigt Hill
#
# Bulk Modulus (GPa) = 47.08379 56.93352 52.00866
# Shear Modulus (GPa) = 21.08205 24.98024 23.03115
#
# Velocity S-wave (km/s) = 3.34743 3.64379 3.49875
# Velocity P-wave (km/s) = 6.32186 6.92558 6.63059
#
# Compressibility (1/GPa) = 0.02123873
#
# Stress axis : x y z
#
# Youngs Moduli (GPa) = 28.63558 51.64822 87.64189
#
# Poissons Ratio (x) = 0.61815 0.60851
# Poissons Ratio (y) = 0.34272 0.29060
# Poissons Ratio (z) = 0.19882 0.17126
#
# Static dielectric constant tensor:
#      x y z
#    x 3.399830 -0.000010 0.000000 
#    y -0.000010 3.457260 0.000000 
#    z 0.000000 0.000000 3.704930 
# 
# 
# High freq. dielectric constant tensor:
#      x y z
#    x 1.733180 0.000000 0.000000 
#    y 0.000000 1.726850 0.000000 
#    z 0.000000 0.000000 1.734470 
# 
# From -- ./inp_files/9769.got.cif
#   From: 2010.03.12/outbox.cif.g09.slc.cpg/sg46_5_cif.got.tgz:9769.got - 2010.04.14 02:56:35.
