data_PCOD8192822
_publ_section_title
;
Structure prediction by ZEFSAII (Michael W. Deem and Ramdas Pophale) SiO2 
 PCOD8192822
Probable space group: I M A 2
;
_chemical_formula_sum "Si O2"
_cell_formula_units_Z 48
_cell_length_a 25.855041
_cell_length_b 18.270518
_cell_length_c 5.086165
_cell_angle_alpha 90.000000
_cell_angle_beta 90.000000
_cell_angle_gamma 90.000000
_cell_volume 2402.628013
_symmetry_space_group_name_H-M "I M A 2"
_symmetry_group_IT_number 46
_symmetry_cell_setting 'orthorhombic'
loop_
_space_group_symop_operation_xyz
x,y,z
-x,-y,z
1/2-x,y,z
1/2+x,-y,z
1/2+x,1/2+y,1/2+z
1/2-x,1/2-y,1/2+z
-x,1/2+y,1/2+z
x,1/2-y,1/2+z
loop_
_atom_site_type_symbol
_atom_site_label
_atom_site_fract_x
_atom_site_fract_y
_atom_site_fract_z
Si Si1 0.310416 0.296095 0.692020
Si Si2 0.808774 0.490545 0.268925
Si Si3 0.578887 0.204758 0.423134
Si Si4 0.958519 0.795543 0.438438
Si Si5 0.876293 0.914016 0.454193
Si Si6 0.143251 0.563106 0.783459
O O1 0.250000 0.313360 0.708594
O O2 0.326900 0.264008 0.410538
O O3 0.339674 0.371335 0.748994
O O4 0.750000 0.513865 0.330232
O O5 0.831141 0.438678 0.497339
O O6 0.842895 0.564935 0.218202
O O7 0.811532 0.441073 0.004250
O O8 0.593257 0.231406 0.715353
O O9 0.518620 0.184484 0.431099
O O10 0.609272 0.134024 0.330238
O O11 0.943141 0.766029 0.151495
O O12 0.927726 0.868710 0.516838
O O13 0.892813 0.990458 0.315125
#
# Coordination Sequence:
#
# PCOD8192822 Si02
#       6
#     8   8   8   8   8   8
#     4  10  21  33  49  75 110 156 200 234 273 331
#     4  10  22  38  59  88 120 157 198 243 303 357
#     4  10  21  42  66  88 118 155 198 250 314 377
#     4  10  22  37  61  88 122 164 202 246 298 353
#     4  10  23  35  59  86 123 156 199 246 292 350
#     4  10  23  37  63  90 114 164 195 254 306 362
#
# _framework density 19.978124000000001
#
# number of rings (size 3 to 8) (size 9 to 14) (size 15 to 20)
#    1.000    1.000    0.000    3.000    4.667    0.667 
#    0.000    0.000    3.667   10.000    0.000    0.000 
#    0.000    0.000    0.000    0.000    0.000    0.000 
#
# Total GULP energy -297437.592289 kJ/mol
# GULP energy per Si atom -12393.233012 kJ/mol
# Density = 1.993265 g / cm^3
# Si number density = 19.978124 Si / 1000 Ang^3
#
#
#
# Elastic Constant Matrix: (Units=GPa)
#
#
# Indices 1 2 3 4 5 6 
#
# 1 74.5225 54.2766 30.5634 0.0000 0.0000 0.0000
# 2 54.2766 104.0393 14.0449 0.0000 0.0000 0.0000
# 3 30.5634 14.0449 93.3827 0.0000 0.0000 0.0000
# 4 0.0000 0.0000 0.0000 25.4849 0.0000 0.0000
# 5 0.0000 0.0000 0.0000 0.0000 23.5943 0.0000
# 6 0.0000 0.0000 0.0000 0.0000 0.0000 29.9184
#
#
#
# Elastic Compliance Matrix: (Units=1/GPa)
#
#
# Indices 1 2 3 4 5 6 
#
# 1 0.024811 -0.012093 -0.006302 0.000000 0.000000 0.000000
# 2 -0.012093 0.015705 0.001596 0.000000 0.000000 0.000000
# 3 -0.006302 0.001596 0.012531 0.000000 0.000000 0.000000
# 4 0.000000 0.000000 0.000000 0.039239 0.000000 0.000000
# 5 0.000000 0.000000 0.000000 0.000000 0.042383 0.000000
# 6 0.000000 0.000000 0.000000 0.000000 0.000000 0.033424
#
#
# Mechanical properties :
#
#
# Convention : Reuss Voigt Hill
#
# Bulk Modulus (GPa) = 51.41482 52.19046 51.80264
# Shear Modulus (GPa) = 24.01839 27.33682 25.67761
#
# Velocity S-wave (km/s) = 3.47109 3.70312 3.58898
# Velocity P-wave (km/s) = 6.46962 6.66818 6.56965
#
# Compressibility (1/GPa) = 0.01944965
#
# Stress axis : x y z
#
# Youngs Moduli (GPa) = 40.30505 63.67348 79.80175
#
# Poissons Ratio (x) = 0.77000 0.50288
# Poissons Ratio (y) = 0.48741 -0.12735
# Poissons Ratio (z) = 0.25399 -0.10161
#
# Static dielectric constant tensor:
#      x y z
#    x 3.449790 0.000000 0.000000 
#    y 0.000000 3.375180 0.000000 
#    z 0.000000 0.000000 3.819670 
# 
# 
# High freq. dielectric constant tensor:
#      x y z
#    x 1.761570 0.000000 0.000000 
#    y 0.000000 1.761970 0.000000 
#    z 0.000000 0.000000 1.795520 
# 
# From -- ./inp_files/2341.got.cif
#   From: 2010.03.12/outbox.cif.g09.slc.cpg/sg46_2_cif.got.tgz:2341.got - 2010.04.14 02:56:35.
