data_PCOD8192059
_publ_section_title
;
Structure prediction by ZEFSAII (Michael W. Deem and Ramdas Pophale) SiO2 
 PCOD8192059
Probable space group: I M A 2
;
_chemical_formula_sum "Si O2"
_cell_formula_units_Z 64
_cell_length_a 12.787353
_cell_length_b 31.063816
_cell_length_c 8.386362
_cell_angle_alpha 90.000000
_cell_angle_beta 90.000000
_cell_angle_gamma 90.000000
_cell_volume 3331.264097
_symmetry_space_group_name_H-M "I M A 2"
_symmetry_group_IT_number 46
_symmetry_cell_setting 'orthorhombic'
loop_
_space_group_symop_operation_xyz
x,y,z
-x,-y,z
1/2-x,y,z
1/2+x,-y,z
1/2+x,1/2+y,1/2+z
1/2-x,1/2-y,1/2+z
-x,1/2+y,1/2+z
x,1/2-y,1/2+z
loop_
_atom_site_type_symbol
_atom_site_label
_atom_site_fract_x
_atom_site_fract_y
_atom_site_fract_z
Si Si1 0.368232 0.994592 0.975570
Si Si2 0.487682 0.435984 0.321437
Si Si3 0.129685 0.022612 0.329429
Si Si4 0.533875 0.888254 0.344120
Si Si5 0.629537 0.719876 0.346403
Si Si6 0.373056 0.132802 0.008424
Si Si7 0.624711 0.063442 0.503418
Si Si8 0.375163 0.305413 0.005896
O O1 0.250000 0.980984 0.959118
O O2 0.433193 0.950155 0.964552
O O3 0.400507 0.025460 0.825076
O O4 0.393025 0.019193 0.140329
O O5 0.425675 0.391936 0.359529
O O6 0.557269 0.431169 0.164170
O O7 0.250000 0.022340 0.366259
O O8 0.088274 0.067329 0.400679
O O9 0.084986 0.980506 0.418687
O O10 0.410873 0.897098 0.385015
O O11 0.575981 0.849543 0.449268
O O12 0.559210 0.879026 0.161540
O O13 0.750000 0.728429 0.311250
O O14 0.615876 0.683838 0.482862
O O15 0.581710 0.765430 0.400847
O O16 0.579803 0.703245 0.182444
O O17 0.250000 0.119814 0.028085
O O18 0.750000 0.065824 0.533183
O O19 0.250000 0.309432 0.999767
#
# Coordination Sequence:
#
# PCOD8192059 Si02
#       8
#     8   8   8   8   8   8   8   8
#     4  10  21  37  56  79 111 153 197 242 292 342
#     4  11  22  36  57  81 114 153 199 243 292 342
#     4  10  21  38  57  81 114 150 193 244 295 349
#     4  12  22  35  60  85 113 153 199 243 290 353
#     4   9  19  34  54  82 124 159 185 230 288 359
#     4  11  21  37  60  91 122 154 195 239 292 357
#     4  11  26  43  57  80 115 158 206 252 297 345
#     4  10  19  34  55  87 123 157 191 231 292 360
#
# _framework density 19.211928
#
# number of rings (size 3 to 8) (size 9 to 14) (size 15 to 20)
#    0.000    1.500    1.250    4.500    5.250    2.000 
#    0.000    3.125    0.000    0.000    0.000    8.750 
#    0.000    0.000    0.000    0.000    0.000    0.000 
#
# Total GULP energy -396493.414079 kJ/mol
# GULP energy per Si atom -12390.419190 kJ/mol
# Density = 1.916820 g / cm^3
# Si number density = 19.211928 Si / 1000 Ang^3
#
#
#
# Elastic Constant Matrix: (Units=GPa)
#
#
# Indices 1 2 3 4 5 6 
#
# 1 73.3871 43.7328 37.6076 -0.0009 0.0010 0.0003
# 2 43.7328 126.7149 46.0035 -0.0214 0.0079 0.0022
# 3 37.6076 46.0035 92.7876 -0.0454 0.0303 0.0073
# 4 -0.0009 -0.0214 -0.0454 30.6437 0.0080 0.0017
# 5 0.0010 0.0079 0.0303 0.0080 31.5705 -0.0036
# 6 0.0003 0.0022 0.0073 0.0017 -0.0036 25.1369
#
#
#
# Elastic Compliance Matrix: (Units=1/GPa)
#
#
# Indices 1 2 3 4 5 6 
#
# 1 0.019199 -0.004635 -0.005483 -0.000011 0.000006 0.000002
# 2 -0.004635 0.010743 -0.003448 0.000002 0.000001 0.000000
# 3 -0.005483 -0.003448 0.014709 0.000019 -0.000013 -0.000004
# 4 -0.000011 0.000002 0.000019 0.032633 -0.000008 -0.000002
# 5 0.000006 0.000001 -0.000013 -0.000008 0.031675 0.000005
# 6 0.000002 0.000000 -0.000004 -0.000002 0.000005 0.039782
#
#
# Mechanical properties :
#
#
# Convention : Reuss Voigt Hill
#
# Bulk Modulus (GPa) = 57.08271 60.84191 58.96231
# Shear Modulus (GPa) = 27.51593 28.50661 28.01127
#
# Velocity S-wave (km/s) = 3.78859 3.85619 3.82254
# Velocity P-wave (km/s) = 6.99389 7.18084 7.08798
#
# Compressibility (1/GPa) = 0.01751844
#
# Stress axis : x y z
#
# Youngs Moduli (GPa) = 52.08735 93.08246 67.98542
#
# Poissons Ratio (x) = 0.43146 0.37278
# Poissons Ratio (y) = 0.24144 0.23439
# Poissons Ratio (z) = 0.28560 0.32092
#
# Static dielectric constant tensor:
#      x y z
#    x 3.504190 0.000000 0.000000 
#    y 0.000000 3.685090 0.000000 
#    z 0.000000 0.000000 3.703630 
# 
# 
# High freq. dielectric constant tensor:
#      x y z
#    x 1.723910 0.000000 0.000000 
#    y 0.000000 1.743140 0.000000 
#    z 0.000000 0.000000 1.755810 
# 
# From -- ./inp_files/6200.got.cif
#   From: 2010.03.12/outbox.cif.g09.slc.cpg/sg46_4_cif.got.tgz:6200.got - 2010.04.14 02:56:35.
