data_PCOD8192618
_publ_section_title
;
Structure prediction by ZEFSAII (Michael W. Deem and Ramdas Pophale) SiO2 
 PCOD8192618
Probable space group: I M A 2
;
_chemical_formula_sum "Si O2"
_cell_formula_units_Z 64
_cell_length_a 17.016922
_cell_length_b 9.111636
_cell_length_c 19.960463
_cell_angle_alpha 90.000000
_cell_angle_beta 90.000000
_cell_angle_gamma 90.000000
_cell_volume 3094.909691
_symmetry_space_group_name_H-M "I M A 2"
_symmetry_group_IT_number 46
_symmetry_cell_setting 'orthorhombic'
loop_
_space_group_symop_operation_xyz
x,y,z
-x,-y,z
1/2-x,y,z
1/2+x,-y,z
1/2+x,1/2+y,1/2+z
1/2-x,1/2-y,1/2+z
-x,1/2+y,1/2+z
x,1/2-y,1/2+z
loop_
_atom_site_type_symbol
_atom_site_label
_atom_site_fract_x
_atom_site_fract_y
_atom_site_fract_z
Si Si1 0.082317 0.589113 0.897910
Si Si2 0.598486 0.636130 0.294854
Si Si3 0.340525 0.298838 0.914120
Si Si4 0.920660 0.312096 0.276288
Si Si5 0.340355 0.177143 0.179619
Si Si6 0.842472 0.353120 0.658516
Si Si7 0.842375 0.639548 0.059774
Si Si8 0.658255 0.183635 0.527997
O O1 0.150346 0.467204 0.889877
O O2 0.089633 0.691621 0.833661
O O3 0.000000 0.500000 0.903716
O O4 0.101539 0.691174 0.962837
O O5 0.605574 0.688563 0.371556
O O6 0.623377 0.465308 0.293463
O O7 0.511983 0.657242 0.266453
O O8 0.653654 0.741937 0.250781
O O9 0.250000 0.252035 0.907261
O O10 0.372946 0.290152 0.990176
O O11 0.886688 0.259696 0.206155
O O12 0.250000 0.156666 0.161550
O O13 0.381865 0.276527 0.122324
O O14 0.377069 0.014110 0.176595
O O15 0.750000 0.339034 0.672952
O O16 0.860391 0.314025 0.580581
O O17 0.750000 0.660924 0.061203
O O18 0.862425 0.468220 0.065694
O O19 0.750000 0.188054 0.505811
#
# Coordination Sequence:
#
# PCOD8192618 Si02
#       8
#     8   8   8   8   8   8   8   8
#     4  11  21  39  63  89 126 165 202 255 312 373
#     4  11  23  40  56  81 119 158 203 251 297 366
#     4  10  20  37  62  89 116 156 202 245 296 366
#     4  11  25  40  57  85 119 161 201 252 311 364
#     4  10  20  36  61  88 115 154 197 245 301 360
#     4  10  22  39  61  89 122 154 200 255 307 367
#     4   8  16  32  55  82 112 146 189 237 289 345
#     4   9  19  38  61  88 122 159 203 254 301 366
#
# _framework density 20.679117000000002
#
# number of rings (size 3 to 8) (size 9 to 14) (size 15 to 20)
#    0.000    2.000    1.250    3.000    0.000    5.000 
#    6.750    1.250    0.000    0.000    0.000    0.000 
#    0.000    0.000    0.000    0.000    0.000    0.000 
#
# Total GULP energy -396682.357274 kJ/mol
# GULP energy per Si atom -12396.323665 kJ/mol
# Density = 2.063205 g / cm^3
# Si number density = 20.679117 Si / 1000 Ang^3
#
#
#
# Elastic Constant Matrix: (Units=GPa)
#
#
# Indices 1 2 3 4 5 6 
#
# 1 36.0818 -1.3698 9.8712 0.0000 0.0000 0.0000
# 2 -1.3698 77.5925 27.4697 0.0000 0.0000 0.0000
# 3 9.8712 27.4697 88.2533 0.0000 0.0000 0.0000
# 4 0.0000 0.0000 0.0000 42.9194 0.0000 0.0000
# 5 0.0000 0.0000 0.0000 0.0000 23.7947 0.0000
# 6 0.0000 0.0000 0.0000 0.0000 0.0000 25.2767
#
#
#
# Elastic Compliance Matrix: (Units=1/GPa)
#
#
# Indices 1 2 3 4 5 6 
#
# 1 0.028825 0.001855 -0.003801 0.000000 0.000000 0.000000
# 2 0.001855 0.014603 -0.004753 0.000000 0.000000 0.000000
# 3 -0.003801 -0.004753 0.013236 0.000000 0.000000 0.000000
# 4 0.000000 0.000000 0.000000 0.023299 0.000000 0.000000
# 5 0.000000 0.000000 0.000000 0.000000 0.042026 0.000000
# 6 0.000000 0.000000 0.000000 0.000000 0.000000 0.039562
#
#
# Mechanical properties :
#
#
# Convention : Reuss Voigt Hill
#
# Bulk Modulus (GPa) = 23.11348 30.42999 26.77174
# Shear Modulus (GPa) = 26.40300 29.46194 27.93247
#
# Velocity S-wave (km/s) = 3.57710 3.77864 3.67925
# Velocity P-wave (km/s) = 5.31624 5.81247 5.56988
#
# Compressibility (1/GPa) = 0.04326480
#
# Stress axis : x y z
#
# Youngs Moduli (GPa) = 34.69190 68.47813 75.55391
#
# Poissons Ratio (x) = -0.12700 0.28721
# Poissons Ratio (y) = -0.06434 0.35910
# Poissons Ratio (z) = 0.13188 0.32547
#
# Static dielectric constant tensor:
#      x y z
#    x 3.496050 0.000000 0.000000 
#    y 0.000000 3.989200 0.000000 
#    z 0.000000 0.000000 3.837860 
# 
# 
# High freq. dielectric constant tensor:
#      x y z
#    x 1.783920 0.000000 0.000000 
#    y 0.000000 1.810030 0.000000 
#    z 0.000000 0.000000 1.815250 
# 
# From -- ./inp_files/22224.got.cif
#   From: 2010.03.12/outbox.cif.g09.slc.cpg/sg46_12_cif.got.tgz:22224.got - 2010.04.14 02:56:35.
