data_PCOD8192396
_publ_section_title
;
Structure prediction by ZEFSAII (Michael W. Deem and Ramdas Pophale) SiO2 
 PCOD8192396
Probable space group: I M A 2
;
_chemical_formula_sum "Si O2"
_cell_formula_units_Z 56
_cell_length_a 8.777591
_cell_length_b 23.850163
_cell_length_c 13.352232
_cell_angle_alpha 90.000000
_cell_angle_beta 90.000000
_cell_angle_gamma 90.000000
_cell_volume 2795.249393
_symmetry_space_group_name_H-M "I M A 2"
_symmetry_group_IT_number 46
_symmetry_cell_setting 'orthorhombic'
loop_
_space_group_symop_operation_xyz
x,y,z
-x,-y,z
1/2-x,y,z
1/2+x,-y,z
1/2+x,1/2+y,1/2+z
1/2-x,1/2-y,1/2+z
-x,1/2+y,1/2+z
x,1/2-y,1/2+z
loop_
_atom_site_type_symbol
_atom_site_label
_atom_site_fract_x
_atom_site_fract_y
_atom_site_fract_z
Si Si1 0.571711 0.270096 0.518560
Si Si2 0.428297 0.439370 0.606171
Si Si3 0.930017 0.667066 0.922785
Si Si4 0.570904 0.338037 0.714531
Si Si5 0.073080 0.941273 0.745518
Si Si6 0.927810 0.870483 0.910634
Si Si7 0.927204 0.058840 0.512683
O O1 0.750000 0.260950 0.504338
O O2 0.488447 0.210799 0.505837
O O3 0.530939 0.293393 0.628189
O O4 0.513725 0.312997 0.434507
O O5 0.500000 0.500000 0.618346
O O6 0.250000 0.442382 0.627870
O O7 0.503473 0.398725 0.687744
O O8 0.463509 0.416853 0.494995
O O9 0.750000 0.666935 0.921054
O O10 0.994011 0.685272 0.814822
O O11 0.989850 0.605615 0.948202
O O12 0.750000 0.344286 0.730137
O O13 0.250000 0.943171 0.773855
O O14 0.045585 0.928731 0.629361
O O15 0.990407 0.891896 0.805057
O O16 0.000000 0.000000 0.777574
O O17 0.750000 0.857433 0.902606
O O18 0.750000 0.057983 0.485607
O O19 0.000000 0.000000 0.481528
#
# Coordination Sequence:
#
# PCOD8192396 Si02
#       7
#     8   8   8   8   8   8   8
#     4  10  22  41  63  86 115 151 192 238 286 338
#     4  10  20  34  54  83 118 155 196 240 289 342
#     4  12  25  41  64  90 117 151 189 232 285 343
#     4  10  22  41  63  86 115 150 191 239 287 338
#     4  10  20  34  55  83 117 156 197 242 290 342
#     4  10  20  34  55  84 119 156 195 241 290 343
#     4  10  22  41  62  86 117 151 192 240 287 338
#
# _framework density 20.033988999999998
#
# number of rings (size 3 to 8) (size 9 to 14) (size 15 to 20)
#    0.000    1.714    0.000    4.286    0.000    8.000 
#    0.000    4.286    0.000    0.000    0.000    0.000 
#    0.000    0.000    0.000    0.000    0.000    0.000 
#
# Total GULP energy -347395.102760 kJ/mol
# GULP energy per Si atom -12406.967956 kJ/mol
# Density = 1.998839 g / cm^3
# Si number density = 20.033989 Si / 1000 Ang^3
#
#
#
# Elastic Constant Matrix: (Units=GPa)
#
#
# Indices 1 2 3 4 5 6 
#
# 1 128.7213 63.0697 51.9134 0.0002 0.0000 0.0000
# 2 63.0697 128.0024 52.2316 -0.0001 0.0000 0.0000
# 3 51.9134 52.2316 80.0046 -0.0003 0.0000 0.0001
# 4 0.0002 -0.0001 -0.0003 27.2576 0.0001 0.0000
# 5 0.0000 0.0000 0.0000 0.0001 33.7435 0.0000
# 6 0.0000 0.0000 0.0001 0.0000 0.0000 42.1792
#
#
#
# Elastic Compliance Matrix: (Units=1/GPa)
#
#
# Indices 1 2 3 4 5 6 
#
# 1 0.011632 -0.003614 -0.005188 0.000000 0.000000 0.000000
# 2 -0.003614 0.011772 -0.005340 0.000000 0.000000 0.000000
# 3 -0.005188 -0.005340 0.019352 0.000000 0.000000 0.000000
# 4 0.000000 0.000000 0.000000 0.036687 0.000000 0.000000
# 5 0.000000 0.000000 0.000000 0.000000 0.029635 0.000000
# 6 0.000000 0.000000 0.000000 0.000000 0.000000 0.023708
#
#
# Mechanical properties :
#
#
# Convention : Reuss Voigt Hill
#
# Bulk Modulus (GPa) = 69.10413 74.57307 71.83860
# Shear Modulus (GPa) = 30.13920 31.93696 31.03808
#
# Velocity S-wave (km/s) = 3.88287 3.99700 3.94035
# Velocity P-wave (km/s) = 7.39396 7.65542 7.52582
#
# Compressibility (1/GPa) = 0.01447091
#
# Stress axis : x y z
#
# Youngs Moduli (GPa) = 85.96956 84.94450 51.67342
#
# Poissons Ratio (x) = 0.30702 0.26809
# Poissons Ratio (y) = 0.31072 0.27596
# Poissons Ratio (z) = 0.44602 0.45364
#
# Static dielectric constant tensor:
#      x y z
#    x 3.757750 0.000000 0.000000 
#    y 0.000000 3.570570 0.000000 
#    z 0.000000 0.000000 3.628870 
# 
# 
# High freq. dielectric constant tensor:
#      x y z
#    x 1.799270 0.000000 0.000000 
#    y 0.000000 1.783650 0.000000 
#    z 0.000000 0.000000 1.779550 
# 
# From -- ./inp_files/14207.got.cif
#   From: 2010.03.12/outbox.cif.g09.slc.cpg/sg46_8_cif.got.tgz:14207.got - 2010.04.14 02:56:35.
