data_PCOD8192534
_publ_section_title
;
Structure prediction by ZEFSAII (Michael W. Deem and Ramdas Pophale) SiO2 
 PCOD8192534
Probable space group: I M A 2
;
_chemical_formula_sum "Si O2"
_cell_formula_units_Z 48
_cell_length_a 8.936463
_cell_length_b 22.892013
_cell_length_c 11.659050
_cell_angle_alpha 90.000000
_cell_angle_beta 90.000000
_cell_angle_gamma 90.000000
_cell_volume 2385.134148
_symmetry_space_group_name_H-M "I M A 2"
_symmetry_group_IT_number 46
_symmetry_cell_setting 'orthorhombic'
loop_
_space_group_symop_operation_xyz
x,y,z
-x,-y,z
1/2-x,y,z
1/2+x,-y,z
1/2+x,1/2+y,1/2+z
1/2-x,1/2-y,1/2+z
-x,1/2+y,1/2+z
x,1/2-y,1/2+z
loop_
_atom_site_type_symbol
_atom_site_label
_atom_site_fract_x
_atom_site_fract_y
_atom_site_fract_z
Si Si1 0.073022 0.731138 0.092690
Si Si2 0.571811 0.936590 0.227364
Si Si3 0.415742 0.642480 0.911302
Si Si4 0.427245 0.639800 0.543953
Si Si5 0.071279 0.853297 0.785841
Si Si6 0.088775 0.945357 0.617247
O O1 0.250000 0.722883 0.085908
O O2 0.029471 0.798902 0.103641
O O3 0.009600 0.700809 0.208714
O O4 0.015634 0.701223 0.972121
O O5 0.750000 0.943473 0.227620
O O6 0.524700 0.886669 0.318386
O O7 0.513515 0.913614 0.104271
O O8 0.500000 0.000000 0.254880
O O9 0.250000 0.654138 0.855087
O O10 0.393873 0.598550 0.014350
O O11 0.250000 0.627325 0.547798
O O12 0.489164 0.646488 0.414675
O O13 0.250000 0.850420 0.785462
O O14 0.013732 0.913008 0.726061
O O15 0.250000 0.968693 0.655872
O O16 0.000000 0.000000 0.571545
#
# Coordination Sequence:
#
# PCOD8192534 Si02
#       6
#     8   8   8   8   8   8
#     4   8  16  31  58  91 117 145 188 236 282 341
#     4  12  26  42  58  81 116 157 200 246 293 348
#     4   9  18  35  59  88 116 145 185 237 286 339
#     4  10  20  35  60  86 113 151 192 237 284 342
#     4   8  16  31  50  81 114 140 179 230 278 330
#     4   9  17  30  50  77 110 140 177 226 275 326
#
# _framework density 20.124654
#
# number of rings (size 3 to 8) (size 9 to 14) (size 15 to 20)
#    0.000    2.667    0.000    4.000    2.333    2.667 
#    0.000    3.333    0.000    2.000    0.000    0.000 
#    0.000    0.000    0.000    0.000    0.000    0.000 
#
# Total GULP energy -297341.335207 kJ/mol
# GULP energy per Si atom -12389.222300 kJ/mol
# Density = 2.007885 g / cm^3
# Si number density = 20.124654 Si / 1000 Ang^3
#
#
#
# Elastic Constant Matrix: (Units=GPa)
#
#
# Indices 1 2 3 4 5 6 
#
# 1 67.3672 26.1353 23.5807 0.0000 0.0003 0.0000
# 2 26.1353 67.6154 9.0504 0.0000 0.0021 0.0000
# 3 23.5807 9.0504 97.0429 0.0001 0.0199 0.0000
# 4 0.0000 0.0000 0.0001 14.1332 0.0033 0.0000
# 5 0.0003 0.0021 0.0199 0.0033 623.4059 0.0014
# 6 0.0000 0.0000 0.0000 0.0000 0.0014 19.7163
#
#
#
# Elastic Compliance Matrix: (Units=1/GPa)
#
#
# Indices 1 2 3 4 5 6 
#
# 1 0.018848 -0.006757 -0.003950 0.000000 0.000000 0.000000
# 2 -0.006757 0.017399 0.000019 0.000000 0.000000 0.000000
# 3 -0.003950 0.000019 0.011263 0.000000 0.000000 0.000000
# 4 0.000000 0.000000 0.000000 0.070755 0.000000 0.000000
# 5 0.000000 0.000000 0.000000 0.000000 0.001604 0.000000
# 6 0.000000 0.000000 0.000000 0.000000 0.000000 0.050719
#
#
# Mechanical properties :
#
#
# Convention : Reuss Voigt Hill
#
# Bulk Modulus (GPa) = 38.26316 38.83982 38.55149
# Shear Modulus (GPa) = 24.91609 143.00169 83.95889
#
# Velocity S-wave (km/s) = 3.52246 8.43873 6.46606
# Velocity P-wave (km/s) = 5.96641 10.69070 8.65705
#
# Compressibility (1/GPa) = 0.02613480
#
# Stress axis : x y z
#
# Youngs Moduli (GPa) = 53.05664 57.47601 88.78874
#
# Poissons Ratio (x) = 0.38834 0.35069
# Poissons Ratio (y) = 0.35848 -0.00170
# Poissons Ratio (z) = 0.20956 -0.00110
#
# Static dielectric constant tensor:
#      x y z
#    x -4.755870 0.000010 -0.000050 
#    y 0.000010 3.962530 0.000000 
#    z -0.000050 0.000000 4.005580 
# 
# 
# High freq. dielectric constant tensor:
#      x y z
#    x 1.726540 0.000000 0.000000 
#    y 0.000000 1.791740 0.000000 
#    z 0.000000 0.000000 1.793490 
# 
# From -- ./inp_files/9308.got.cif
#   From: 2010.03.12/outbox.cif.g09.slc.cpg/sg46_5_cif.got.tgz:9308.got - 2010.04.14 02:56:35.
