data_PCOD8192382
_publ_section_title
;
Structure prediction by ZEFSAII (Michael W. Deem and Ramdas Pophale) SiO2 
 PCOD8192382
Probable space group: I M A 2
;
_chemical_formula_sum "Si O2"
_cell_formula_units_Z 56
_cell_length_a 8.814293
_cell_length_b 20.724839
_cell_length_c 14.813528
_cell_angle_alpha 90.000000
_cell_angle_beta 90.000000
_cell_angle_gamma 90.000000
_cell_volume 2706.058314
_symmetry_space_group_name_H-M "I M A 2"
_symmetry_group_IT_number 46
_symmetry_cell_setting 'orthorhombic'
loop_
_space_group_symop_operation_xyz
x,y,z
-x,-y,z
1/2-x,y,z
1/2+x,-y,z
1/2+x,1/2+y,1/2+z
1/2-x,1/2-y,1/2+z
-x,1/2+y,1/2+z
x,1/2-y,1/2+z
loop_
_atom_site_type_symbol
_atom_site_label
_atom_site_fract_x
_atom_site_fract_y
_atom_site_fract_z
Si Si1 0.417743 0.561714 0.160120
Si Si2 0.072673 0.141436 0.988229
Si Si3 0.070805 0.310854 0.116256
Si Si4 0.571526 0.298277 0.743009
Si Si5 0.428294 0.931469 0.150611
Si Si6 0.084994 0.559473 0.366906
Si Si7 0.070977 0.771926 0.447590
O O1 0.500000 0.500000 0.112652
O O2 0.250000 0.573984 0.116088
O O3 0.527114 0.623315 0.165753
O O4 0.390683 0.544081 0.263355
O O5 0.250000 0.140674 0.003242
O O6 0.020957 0.121526 0.886954
O O7 0.010562 0.212807 0.999053
O O8 0.995115 0.090427 0.055044
O O9 0.250000 0.304247 0.103493
O O10 0.013765 0.249476 0.174630
O O11 0.986636 0.324673 0.019367
O O12 0.750000 0.284068 0.733936
O O13 0.534312 0.373258 0.721090
O O14 0.515031 0.285717 0.845913
O O15 0.250000 0.941955 0.142653
O O16 0.500000 0.000000 0.182410
O O17 0.250000 0.569933 0.412350
O O18 0.000000 0.500000 0.414891
O O19 0.250000 0.762776 0.449304
#
# Coordination Sequence:
#
# PCOD8192382 Si02
#       7
#     8   8   8   8   8   8   8
#     4  10  21  38  60  86 120 161 206 254 312 374
#     4  12  23  36  56  88 122 158 203 256 318 380
#     4  12  24  39  63  94 127 163 206 259 318 380
#     4  10  23  43  67  92 124 170 217 266 324 385
#     4  11  23  41  64  90 125 169 215 268 327 389
#     4  10  20  34  53  80 115 156 196 242 299 364
#     4  11  23  41  64  90 121 161 212 263 317 380
#
# _framework density 20.694306000000001
#
# number of rings (size 3 to 8) (size 9 to 14) (size 15 to 20)
#    0.000    1.143    1.429    5.571    0.000    6.857 
#    0.000    0.714    0.000    1.714    0.000    0.000 
#    0.000    0.000    0.000    0.000    0.000    0.000 
#
# Total GULP energy -346965.828995 kJ/mol
# GULP energy per Si atom -12391.636750 kJ/mol
# Density = 2.064720 g / cm^3
# Si number density = 20.694306 Si / 1000 Ang^3
#
#
#
# Elastic Constant Matrix: (Units=GPa)
#
#
# Indices 1 2 3 4 5 6 
#
# 1 139.8862 58.2401 50.6785 0.0000 0.0000 0.0000
# 2 58.2401 122.0619 33.2698 -0.0001 0.0000 0.0000
# 3 50.6785 33.2698 96.8408 -0.0001 0.0000 0.0000
# 4 0.0000 -0.0001 -0.0001 21.6849 0.0000 0.0000
# 5 0.0000 0.0000 0.0000 0.0000 19.7401 0.0000
# 6 0.0000 0.0000 0.0000 0.0000 0.0000 37.9044
#
#
#
# Elastic Compliance Matrix: (Units=1/GPa)
#
#
# Indices 1 2 3 4 5 6 
#
# 1 0.010173 -0.003755 -0.004034 0.000000 0.000000 0.000000
# 2 -0.003755 0.010425 -0.001617 0.000000 0.000000 0.000000
# 3 -0.004034 -0.001617 0.012993 0.000000 0.000000 0.000000
# 4 0.000000 0.000000 0.000000 0.046115 0.000000 0.000000
# 5 0.000000 0.000000 0.000000 0.000000 0.050658 0.000000
# 6 0.000000 0.000000 0.000000 0.000000 0.000000 0.026382
#
#
# Mechanical properties :
#
#
# Convention : Reuss Voigt Hill
#
# Bulk Modulus (GPa) = 67.65731 71.46286 69.56009
# Shear Modulus (GPa) = 27.70344 30.30591 29.00468
#
# Velocity S-wave (km/s) = 3.66279 3.83097 3.74783
# Velocity P-wave (km/s) = 7.11707 7.36044 7.23978
#
# Compressibility (1/GPa) = 0.01478037
#
# Stress axis : x y z
#
# Youngs Moduli (GPa) = 98.29694 95.92696 76.96658
#
# Poissons Ratio (x) = 0.36016 0.31048
# Poissons Ratio (y) = 0.36906 0.12442
# Poissons Ratio (z) = 0.39653 0.15507
#
# Static dielectric constant tensor:
#      x y z
#    x 3.994440 0.000000 0.000000 
#    y 0.000000 3.912810 0.000000 
#    z 0.000000 0.000000 3.674510 
# 
# 
# High freq. dielectric constant tensor:
#      x y z
#    x 1.821480 0.000000 0.000000 
#    y 0.000000 1.814010 0.000000 
#    z 0.000000 0.000000 1.791630 
# 
# From -- ./inp_files/14168.got.cif
#   From: 2010.03.12/outbox.cif.g09.slc.cpg/sg46_8_cif.got.tgz:14168.got - 2010.04.14 02:56:35.
