data_PCOD8192753
_publ_section_title
;
Structure prediction by ZEFSAII (Michael W. Deem and Ramdas Pophale) SiO2 
 PCOD8192753
Probable space group: I M A 2
;
_chemical_formula_sum "Si O2"
_cell_formula_units_Z 64
_cell_length_a 13.579147
_cell_length_b 18.099650
_cell_length_c 11.834194
_cell_angle_alpha 90.000000
_cell_angle_beta 90.000000
_cell_angle_gamma 90.000000
_cell_volume 2908.582261
_symmetry_space_group_name_H-M "I M A 2"
_symmetry_group_IT_number 46
_symmetry_cell_setting 'orthorhombic'
loop_
_space_group_symop_operation_xyz
x,y,z
-x,-y,z
1/2-x,y,z
1/2+x,-y,z
1/2+x,1/2+y,1/2+z
1/2-x,1/2-y,1/2+z
-x,1/2+y,1/2+z
x,1/2-y,1/2+z
loop_
_atom_site_type_symbol
_atom_site_label
_atom_site_fract_x
_atom_site_fract_y
_atom_site_fract_z
Si Si1 0.531355 0.280850 0.489400
Si Si2 0.133077 0.298974 0.637758
Si Si3 0.363888 0.598609 0.146099
Si Si4 0.132384 0.892054 0.157417
Si Si5 0.525341 0.679586 0.256356
Si Si6 0.137400 0.636955 0.906483
Si Si7 0.633192 0.541931 0.549987
Si Si8 0.865889 0.539556 0.291885
O O1 0.422014 0.257037 0.534220
O O2 0.590640 0.323110 0.587675
O O3 0.514698 0.333402 0.382182
O O4 0.588744 0.211980 0.443426
O O5 0.250000 0.287335 0.634670
O O6 0.083125 0.258683 0.746403
O O7 0.101176 0.385318 0.622802
O O8 0.250000 0.617033 0.174712
O O9 0.430486 0.671596 0.172789
O O10 0.406335 0.532224 0.223994
O O11 0.374608 0.579392 0.011776
O O12 0.250000 0.890517 0.148213
O O13 0.093994 0.891194 0.287461
O O14 0.089291 0.968480 0.107271
O O15 0.600721 0.613480 0.227444
O O16 0.250000 0.655622 0.884316
O O17 0.750000 0.540322 0.551112
O O18 0.595805 0.541922 0.420857
O O19 0.750000 0.535944 0.285719
#
# Coordination Sequence:
#
# PCOD8192753 Si02
#       8
#     8   8   8   8   8   8   8   8
#     4  12  23  40  64  95 128 169 217 269 325 385
#     4  11  24  42  63  92 129 169 216 273 328 387
#     4  10  22  39  62  95 133 168 209 266 330 390
#     4  10  22  41  68  98 131 171 214 267 332 394
#     4  12  23  39  66  93 132 167 220 267 333 389
#     4  10  22  41  64  94 135 170 208 264 324 401
#     4   9  19  40  66  95 127 165 218 273 326 385
#     4  10  20  38  66  96 127 167 218 276 327 386
#
# _framework density 22.003848000000001
#
# number of rings (size 3 to 8) (size 9 to 14) (size 15 to 20)
#    0.000    1.500    2.500    2.625    0.000    3.000 
#    0.000    1.250    2.750    3.000    0.000    0.000 
#    0.000    0.000    0.000    0.000    0.000    0.000 
#
# Total GULP energy -396541.592162 kJ/mol
# GULP energy per Si atom -12391.924755 kJ/mol
# Density = 2.195377 g / cm^3
# Si number density = 22.003848 Si / 1000 Ang^3
#
#
#
# Elastic Constant Matrix: (Units=GPa)
#
#
# Indices 1 2 3 4 5 6 
#
# 1 43.3809 42.9201 49.1478 0.0000 0.0000 0.0000
# 2 42.9201 129.8942 57.6553 0.0000 0.0000 0.0000
# 3 49.1478 57.6553 142.2710 0.0001 0.0000 0.0000
# 4 0.0000 0.0000 0.0001 38.3186 0.0000 0.0000
# 5 0.0000 0.0000 0.0000 0.0000 23.2617 0.0000
# 6 0.0000 0.0000 0.0000 0.0000 0.0000 34.1429
#
#
#
# Elastic Compliance Matrix: (Units=1/GPa)
#
#
# Indices 1 2 3 4 5 6 
#
# 1 0.046651 -0.010073 -0.012034 0.000000 0.000000 0.000000
# 2 -0.010073 0.011562 -0.001206 0.000000 0.000000 0.000000
# 3 -0.012034 -0.001206 0.011674 0.000000 0.000000 0.000000
# 4 0.000000 0.000000 0.000000 0.026097 0.000000 0.000000
# 5 0.000000 0.000000 0.000000 0.000000 0.042989 0.000000
# 6 0.000000 0.000000 0.000000 0.000000 0.000000 0.029289
#
#
# Mechanical properties :
#
#
# Convention : Reuss Voigt Hill
#
# Bulk Modulus (GPa) = 42.98739 68.33251 55.65995
# Shear Modulus (GPa) = 22.45754 30.19949 26.32851
#
# Velocity S-wave (km/s) = 3.19818 3.70870 3.46286
# Velocity P-wave (km/s) = 5.76338 7.03288 6.42954
#
# Compressibility (1/GPa) = 0.02326263
#
# Stress axis : x y z
#
# Youngs Moduli (GPa) = 21.43564 86.48846 85.65707
#
# Poissons Ratio (x) = 0.87124 1.03076
# Poissons Ratio (y) = 0.21593 0.10328
# Poissons Ratio (z) = 0.25795 0.10428
#
# Static dielectric constant tensor:
#      x y z
#    x 4.039040 0.000000 0.000000 
#    y 0.000000 3.947430 0.000000 
#    z 0.000000 0.000000 4.360000 
# 
# 
# High freq. dielectric constant tensor:
#      x y z
#    x 1.879980 0.000000 0.000000 
#    y 0.000000 1.856060 0.000000 
#    z 0.000000 0.000000 1.865610 
# 
# From -- ./inp_files/11304.got.cif
#   From: 2010.03.12/outbox.cif.g09.slc.cpg/sg46_6_cif.got.tgz:11304.got - 2010.04.14 02:56:35.
