data_PCOD8192422
_publ_section_title
;
Structure prediction by ZEFSAII (Michael W. Deem and Ramdas Pophale) SiO2 
 PCOD8192422
Probable space group: I M A 2
;
_chemical_formula_sum "Si O2"
_cell_formula_units_Z 48
_cell_length_a 8.577227
_cell_length_b 9.525981
_cell_length_c 30.707317
_cell_angle_alpha 90.000000
_cell_angle_beta 90.000000
_cell_angle_gamma 90.000000
_cell_volume 2508.987441
_symmetry_space_group_name_H-M "I M A 2"
_symmetry_group_IT_number 46
_symmetry_cell_setting 'orthorhombic'
loop_
_space_group_symop_operation_xyz
x,y,z
-x,-y,z
1/2-x,y,z
1/2+x,-y,z
1/2+x,1/2+y,1/2+z
1/2-x,1/2-y,1/2+z
-x,1/2+y,1/2+z
x,1/2-y,1/2+z
loop_
_atom_site_type_symbol
_atom_site_label
_atom_site_fract_x
_atom_site_fract_y
_atom_site_fract_z
Si Si1 0.433226 0.656051 0.761450
Si Si2 0.934819 0.344688 0.181851
Si Si3 0.069970 0.347289 0.848423
Si Si4 0.433002 0.646778 0.514952
Si Si5 0.065734 0.348380 0.608515
Si Si6 0.932091 0.845146 0.444097
O O1 0.500000 0.500000 0.755895
O O2 0.250000 0.645402 0.759567
O O3 0.496116 0.754700 0.722914
O O4 0.484875 0.727631 0.807576
O O5 0.750000 0.350369 0.179960
O O6 0.000000 0.500000 0.186135
O O7 0.997756 0.273824 0.138227
O O8 0.250000 0.358673 0.836323
O O9 0.045700 0.275150 0.895806
O O10 0.000000 0.500000 0.852631
O O11 0.500000 0.500000 0.497720
O O12 0.250000 0.634070 0.523809
O O13 0.517405 0.689974 0.559501
O O14 0.467031 0.759821 0.478267
O O15 0.250000 0.352689 0.612729
O O16 0.000000 0.500000 0.622792
O O17 0.750000 0.846513 0.456928
O O18 0.000000 0.000000 0.444641
#
# Coordination Sequence:
#
# PCOD8192422 Si02
#       6
#     8   8   8   8   8   8
#     4  10  20  34  56  82 109 142 184 227 270 322
#     4  11  24  40  57  82 113 146 182 226 278 330
#     4   9  17  30  52  79 109 142 181 226 270 317
#     4  11  22  38  59  83 112 146 183 227 274 326
#     4  11  22  39  62  85 110 143 183 227 270 324
#     4  10  20  35  55  83 114 147 186 229 275 325
#
# _framework density 19.131222999999999
#
# number of rings (size 3 to 8) (size 9 to 14) (size 15 to 20)
#    0.000    1.667    0.000    7.500    0.000    6.667 
#    0.000    4.167    0.000    2.000    0.000    0.000 
#    0.000    0.000    0.000    0.000    0.000    0.000 
#
# Total GULP energy -297557.714606 kJ/mol
# GULP energy per Si atom -12398.238109 kJ/mol
# Density = 1.908768 g / cm^3
# Si number density = 19.131223 Si / 1000 Ang^3
#
#
#
# Elastic Constant Matrix: (Units=GPa)
#
#
# Indices 1 2 3 4 5 6 
#
# 1 87.6196 31.8114 27.4274 0.0000 0.0000 0.0000
# 2 31.8114 95.7624 67.3730 0.0000 0.0000 0.0000
# 3 27.4274 67.3730 115.9073 0.0000 0.0000 0.0000
# 4 0.0000 0.0000 0.0000 24.3451 0.0000 0.0000
# 5 0.0000 0.0000 0.0000 0.0000 76.4028 0.0000
# 6 0.0000 0.0000 0.0000 0.0000 0.0000 31.0467
#
#
#
# Elastic Compliance Matrix: (Units=1/GPa)
#
#
# Indices 1 2 3 4 5 6 
#
# 1 0.013041 -0.003656 -0.000961 0.000000 0.000000 0.000000
# 2 -0.003656 0.018693 -0.010000 0.000000 0.000000 0.000000
# 3 -0.000961 -0.010000 0.014668 0.000000 0.000000 0.000000
# 4 0.000000 0.000000 0.000000 0.041076 0.000000 0.000000
# 5 0.000000 0.000000 0.000000 0.000000 0.013089 0.000000
# 6 0.000000 0.000000 0.000000 0.000000 0.000000 0.032210
#
#
# Mechanical properties :
#
#
# Convention : Reuss Voigt Hill
#
# Bulk Modulus (GPa) = 58.25074 61.39032 59.82053
# Shear Modulus (GPa) = 29.80940 37.87075 33.84008
#
# Velocity S-wave (km/s) = 3.95163 4.45401 4.21032
# Velocity P-wave (km/s) = 7.16482 7.65570 7.41432
#
# Compressibility (1/GPa) = 0.01716717
#
# Stress axis : x y z
#
# Youngs Moduli (GPa) = 76.68039 53.49695 68.17696
#
# Poissons Ratio (x) = 0.19560 0.06550
# Poissons Ratio (y) = 0.28036 0.68178
# Poissons Ratio (z) = 0.07367 0.53498
#
# Static dielectric constant tensor:
#      x y z
#    x 3.557840 0.000000 0.000000 
#    y 0.000000 3.234250 0.000000 
#    z 0.000000 0.000000 4.059930 
# 
# 
# High freq. dielectric constant tensor:
#      x y z
#    x 1.764490 0.000000 0.000000 
#    y 0.000000 1.714070 0.000000 
#    z 0.000000 0.000000 1.764860 
# 
# From -- ./inp_files/24992.got.cif
#   From: 2010.03.12/outbox.cif.g09.slc.cpg/sg46_13_cif.got.tgz:24992.got - 2010.04.14 02:56:35.
