data_PCOD8192661
_publ_section_title
;
Structure prediction by ZEFSAII (Michael W. Deem and Ramdas Pophale) SiO2 
 PCOD8192661
Probable space group: I M A 2
;
_chemical_formula_sum "Si O2"
_cell_formula_units_Z 56
_cell_length_a 8.891157
_cell_length_b 20.602843
_cell_length_c 15.255661
_cell_angle_alpha 90.000000
_cell_angle_beta 90.000000
_cell_angle_gamma 90.000000
_cell_volume 2794.579454
_symmetry_space_group_name_H-M "I M A 2"
_symmetry_group_IT_number 46
_symmetry_cell_setting 'orthorhombic'
loop_
_space_group_symop_operation_xyz
x,y,z
-x,-y,z
1/2-x,y,z
1/2+x,-y,z
1/2+x,1/2+y,1/2+z
1/2-x,1/2-y,1/2+z
-x,1/2+y,1/2+z
x,1/2-y,1/2+z
loop_
_atom_site_type_symbol
_atom_site_label
_atom_site_fract_x
_atom_site_fract_y
_atom_site_fract_z
Si Si1 0.584188 0.311030 0.637580
Si Si2 0.916223 0.250961 0.961133
Si Si3 0.073335 0.697403 0.271590
Si Si4 0.574238 0.563850 0.685770
Si Si5 0.922027 0.632115 0.013051
Si Si6 0.923995 0.061111 0.371353
Si Si7 0.927728 0.570696 0.198092
O O1 0.750000 0.329564 0.676647
O O2 0.603470 0.304353 0.533525
O O3 0.526624 0.248577 0.694898
O O4 0.466548 0.369404 0.639882
O O5 0.750000 0.283607 0.947412
O O6 0.975120 0.225034 0.867083
O O7 0.043259 0.291801 0.015275
O O8 0.250000 0.683138 0.267649
O O9 0.991020 0.627846 0.260054
O O10 0.500000 0.500000 0.640861
O O11 0.750000 0.552786 0.685413
O O12 0.514056 0.571691 0.783311
O O13 0.750000 0.617837 0.987333
O O14 0.967372 0.592730 0.099368
O O15 0.042743 0.619552 0.935796
O O16 0.750000 0.050823 0.351853
O O17 0.000000 0.000000 0.421032
O O18 0.750000 0.565173 0.212616
O O19 0.000000 0.500000 0.217696
#
# Coordination Sequence:
#
# PCOD8192661 Si02
#       7
#     8   8   8   8   8   8   8
#     4  10  20  37  60  88 122 157 198 249 303 367
#     4  10  21  37  61  90 118 157 203 250 307 367
#     4  10  21  39  63  90 122 161 206 255 310 370
#     4  11  22  37  58  84 117 156 199 247 303 365
#     4  11  22  36  56  87 120 155 200 251 306 368
#     4  11  21  34  53  79 114 152 191 235 292 358
#     4  11  24  40  61  88 123 166 212 261 318 375
#
# _framework density 20.038795
#
# number of rings (size 3 to 8) (size 9 to 14) (size 15 to 20)
#    0.000    1.429    1.429    5.571    0.000    5.714 
#    0.000    0.714    0.000    0.000    0.000    0.000 
#    0.000    0.000    0.000    0.000    0.000    0.000 
#
# Total GULP energy -346876.646855 kJ/mol
# GULP energy per Si atom -12388.451673 kJ/mol
# Density = 1.999319 g / cm^3
# Si number density = 20.038795 Si / 1000 Ang^3
#
#
#
# Elastic Constant Matrix: (Units=GPa)
#
#
# Indices 1 2 3 4 5 6 
#
# 1 112.2595 46.6362 29.8883 0.0000 0.0000 0.0000
# 2 46.6362 108.9319 35.0739 0.0000 0.0000 0.0000
# 3 29.8883 35.0739 94.9802 -0.0001 0.0000 0.0000
# 4 0.0000 0.0000 -0.0001 30.0682 0.0000 0.0000
# 5 0.0000 0.0000 0.0000 0.0000 20.4301 0.0000
# 6 0.0000 0.0000 0.0000 0.0000 0.0000 40.1848
#
#
#
# Elastic Compliance Matrix: (Units=1/GPa)
#
#
# Indices 1 2 3 4 5 6 
#
# 1 0.011154 -0.004137 -0.001982 0.000000 0.000000 0.000000
# 2 -0.004137 0.011953 -0.003112 0.000000 0.000000 0.000000
# 3 -0.001982 -0.003112 0.012302 0.000000 0.000000 0.000000
# 4 0.000000 0.000000 0.000000 0.033258 0.000000 0.000000
# 5 0.000000 0.000000 0.000000 0.000000 0.048947 0.000000
# 6 0.000000 0.000000 0.000000 0.000000 0.000000 0.024885
#
#
# Mechanical properties :
#
#
# Convention : Reuss Voigt Hill
#
# Bulk Modulus (GPa) = 59.01116 59.92982 59.47049
# Shear Modulus (GPa) = 30.00995 31.77485 30.89240
#
# Velocity S-wave (km/s) = 3.87407 3.98636 3.93062
# Velocity P-wave (km/s) = 7.03730 7.15262 7.09520
#
# Compressibility (1/GPa) = 0.01694595
#
# Stress axis : x y z
#
# Youngs Moduli (GPa) = 89.65049 83.65871 81.29057
#
# Poissons Ratio (x) = 0.34611 0.16114
# Poissons Ratio (y) = 0.37090 0.25299
# Poissons Ratio (z) = 0.17771 0.26036
#
# Static dielectric constant tensor:
#      x y z
#    x 4.627330 0.000000 0.000000 
#    y 0.000000 3.900340 0.000000 
#    z 0.000000 0.000000 3.479410 
# 
# 
# High freq. dielectric constant tensor:
#      x y z
#    x 1.785130 0.000000 0.000000 
#    y 0.000000 1.785460 0.000000 
#    z 0.000000 0.000000 1.767100 
# 
# From -- ./inp_files/14178.got.cif
#   From: 2010.03.12/outbox.cif.g09.slc.cpg/sg46_8_cif.got.tgz:14178.got - 2010.04.14 02:56:35.
