data_PCOD8192479
_publ_section_title
;
Structure prediction by ZEFSAII (Michael W. Deem and Ramdas Pophale) SiO2 
 PCOD8192479
Probable space group: I M A 2
;
_chemical_formula_sum "Si O2"
_cell_formula_units_Z 40
_cell_length_a 8.603269
_cell_length_b 9.730058
_cell_length_c 25.201452
_cell_angle_alpha 90.000000
_cell_angle_beta 90.000000
_cell_angle_gamma 90.000000
_cell_volume 2109.621268
_symmetry_space_group_name_H-M "I M A 2"
_symmetry_group_IT_number 46
_symmetry_cell_setting 'orthorhombic'
loop_
_space_group_symop_operation_xyz
x,y,z
-x,-y,z
1/2-x,y,z
1/2+x,-y,z
1/2+x,1/2+y,1/2+z
1/2-x,1/2-y,1/2+z
-x,1/2+y,1/2+z
x,1/2-y,1/2+z
loop_
_atom_site_type_symbol
_atom_site_label
_atom_site_fract_x
_atom_site_fract_y
_atom_site_fract_z
Si Si1 0.566525 0.356500 0.100820
Si Si2 0.565619 0.152739 0.311030
Si Si3 0.434836 0.853960 0.012518
Si Si4 0.934309 0.850489 0.899011
Si Si5 0.433263 0.644838 0.219670
O O1 0.500000 0.500000 0.080751
O O2 0.750000 0.364165 0.100884
O O3 0.506952 0.244544 0.059325
O O4 0.505123 0.322212 0.160221
O O5 0.750000 0.147842 0.316665
O O6 0.495235 0.232593 0.360641
O O7 0.511888 0.232128 0.257787
O O8 0.500000 0.000000 0.308587
O O9 0.250000 0.857814 0.006053
O O10 0.500000 0.000000 0.029659
O O11 0.509758 0.806391 0.957324
O O12 0.750000 0.858347 0.897023
O O13 0.000000 0.000000 0.882785
O O14 0.500000 0.500000 0.240456
O O15 0.250000 0.630525 0.220534
#
# Coordination Sequence:
#
# PCOD8192479 Si02
#       5
#     8   8   8   8   8
#     4   9  19  35  55  80 109 141 178 220 265 317
#     4  11  23  38  56  81 112 143 180 225 274 324
#     4  10  20  35  55  80 110 142 180 222 266 318
#     4  11  22  38  59  81 108 143 184 225 270 324
#     4   9  19  36  57  80 107 141 180 220 264 319
#
# _framework density 18.960747999999999
#
# number of rings (size 3 to 8) (size 9 to 14) (size 15 to 20)
#    0.000    2.000    0.000    4.800    0.000    6.400 
#    0.000    2.000    0.000    0.000    0.000    0.000 
#    0.000    0.000    0.000    0.000    0.000    0.000 
#
# Total GULP energy -248021.678997 kJ/mol
# GULP energy per Si atom -12401.083950 kJ/mol
# Density = 1.891759 g / cm^3
# Si number density = 18.960748 Si / 1000 Ang^3
#
#
#
# Elastic Constant Matrix: (Units=GPa)
#
#
# Indices 1 2 3 4 5 6 
#
# 1 80.7635 55.0253 49.0850 0.0000 0.0000 0.0000
# 2 55.0253 173.0312 119.5067 0.0000 0.0000 0.0000
# 3 49.0850 119.5067 142.7298 0.0000 0.0000 0.0000
# 4 0.0000 0.0000 0.0000 44.7625 0.0000 0.0000
# 5 0.0000 0.0000 0.0000 0.0000 89.1338 0.0000
# 6 0.0000 0.0000 0.0000 0.0000 0.0000 34.8809
#
#
#
# Elastic Compliance Matrix: (Units=1/GPa)
#
#
# Indices 1 2 3 4 5 6 
#
# 1 0.016333 -0.003117 -0.003007 0.000000 0.000000 0.000000
# 2 -0.003117 0.014299 -0.010901 0.000000 0.000000 0.000000
# 3 -0.003007 -0.010901 0.017167 0.000000 0.000000 0.000000
# 4 0.000000 0.000000 0.000000 0.022340 0.000000 0.000000
# 5 0.000000 0.000000 0.000000 0.000000 0.011219 0.000000
# 6 0.000000 0.000000 0.000000 0.000000 0.000000 0.028669
#
#
# Mechanical properties :
#
#
# Convention : Reuss Voigt Hill
#
# Bulk Modulus (GPa) = 72.72668 93.75094 83.23881
# Shear Modulus (GPa) = 33.63344 45.28261 39.45802
#
# Velocity S-wave (km/s) = 4.21627 4.89225 4.56679
# Velocity P-wave (km/s) = 7.88304 9.02576 8.47368
#
# Compressibility (1/GPa) = 0.01375011
#
# Stress axis : x y z
#
# Youngs Moduli (GPa) = 61.22501 69.93289 58.24977
#
# Poissons Ratio (x) = 0.21800 0.17515
# Poissons Ratio (y) = 0.19086 0.63497
# Poissons Ratio (z) = 0.18410 0.76232
#
# Static dielectric constant tensor:
#      x y z
#    x 3.486500 0.000000 0.000000 
#    y 0.000000 3.479300 0.000000 
#    z 0.000000 0.000000 3.853310 
# 
# 
# High freq. dielectric constant tensor:
#      x y z
#    x 1.742410 0.000000 0.000000 
#    y 0.000000 1.736140 0.000000 
#    z 0.000000 0.000000 1.749350 
# 
# From -- ./inp_files/22730.got.cif
#   From: 2010.03.12/outbox.cif.g09.slc.cpg/sg46_12_cif.got.tgz:22730.got - 2010.04.14 02:56:35.
