data_PCOD8192731
_publ_section_title
;
Structure prediction by ZEFSAII (Michael W. Deem and Ramdas Pophale) SiO2 
 PCOD8192731
Probable space group: I M A 2
;
_chemical_formula_sum "Si O2"
_cell_formula_units_Z 48
_cell_length_a 8.870735
_cell_length_b 27.603250
_cell_length_c 9.773572
_cell_angle_alpha 90.000000
_cell_angle_beta 90.000000
_cell_angle_gamma 90.000000
_cell_volume 2393.167746
_symmetry_space_group_name_H-M "I M A 2"
_symmetry_group_IT_number 46
_symmetry_cell_setting 'orthorhombic'
loop_
_space_group_symop_operation_xyz
x,y,z
-x,-y,z
1/2-x,y,z
1/2+x,-y,z
1/2+x,1/2+y,1/2+z
1/2-x,1/2-y,1/2+z
-x,1/2+y,1/2+z
x,1/2-y,1/2+z
loop_
_atom_site_type_symbol
_atom_site_label
_atom_site_fract_x
_atom_site_fract_y
_atom_site_fract_z
Si Si1 0.071643 0.789706 0.097630
Si Si2 0.929311 0.203603 0.788271
Si Si3 0.072493 0.447504 0.922531
Si Si4 0.924759 0.547779 0.412235
Si Si5 0.928903 0.399352 0.173203
Si Si6 0.422183 0.385913 0.663824
O O1 0.250000 0.787686 0.093004
O O2 0.007765 0.744851 0.186125
O O3 0.024164 0.838434 0.176156
O O4 0.006617 0.788052 0.942261
O O5 0.750000 0.204843 0.793222
O O6 0.985784 0.152409 0.729264
O O7 0.250000 0.452394 0.946420
O O8 0.031672 0.426381 0.773939
O O9 0.000000 0.500000 0.940314
O O10 0.002853 0.408764 0.026859
O O11 0.750000 0.538451 0.381533
O O12 0.949202 0.591884 0.515008
O O13 0.000000 0.500000 0.477051
O O14 0.012827 0.558787 0.273044
O O15 0.750000 0.401594 0.160794
O O16 0.250000 0.370108 0.685609
#
# Coordination Sequence:
#
# PCOD8192731 Si02
#       6
#     8   8   8   8   8   8
#     4  10  20  38  62  89 120 155 198 246 294 350
#     4   9  20  36  60  91 119 151 196 246 293 348
#     4  11  24  42  61  87 121 159 202 248 298 353
#     4  11  22  38  61  87 117 154 195 245 298 354
#     4  11  22  39  61  89 121 157 200 243 296 355
#     4  10  23  41  60  87 122 156 197 246 299 356
#
# _framework density 20.057098
#
# number of rings (size 3 to 8) (size 9 to 14) (size 15 to 20)
#    0.000    1.667    1.667    2.500    2.333    2.000 
#    0.000    2.500    0.000    0.000    0.000    0.000 
#    0.000    0.000    0.000    0.000    0.000    0.000 
#
# Total GULP energy -297682.263152 kJ/mol
# GULP energy per Si atom -12403.427631 kJ/mol
# Density = 2.001145 g / cm^3
# Si number density = 20.057098 Si / 1000 Ang^3
#
#
#
# Elastic Constant Matrix: (Units=GPa)
#
#
# Indices 1 2 3 4 5 6 
#
# 1 65.8349 37.6025 36.4554 -0.0026 0.0018 -0.0002
# 2 37.6025 127.9497 40.9648 -0.0049 -0.0024 -0.0008
# 3 36.4554 40.9648 103.8882 -0.0213 -0.0067 -0.0026
# 4 -0.0026 -0.0049 -0.0213 36.6917 -0.0031 -0.0008
# 5 0.0018 -0.0024 -0.0067 -0.0031 28.0438 -0.0012
# 6 -0.0002 -0.0008 -0.0026 -0.0008 -0.0012 30.6764
#
#
#
# Elastic Compliance Matrix: (Units=1/GPa)
#
#
# Indices 1 2 3 4 5 6 
#
# 1 0.020740 -0.004309 -0.005579 -0.000002 -0.000003 0.000000
# 2 -0.004309 0.009840 -0.002368 0.000000 0.000001 0.000000
# 3 -0.005579 -0.002368 0.012517 0.000007 0.000003 0.000001
# 4 -0.000002 0.000000 0.000007 0.027254 0.000003 0.000001
# 5 -0.000003 0.000001 0.000003 0.000003 0.035658 0.000001
# 6 0.000000 0.000000 0.000001 0.000001 0.000001 0.032598
#
#
# Mechanical properties :
#
#
# Convention : Reuss Voigt Hill
#
# Bulk Modulus (GPa) = 53.80534 58.63536 56.22035
# Shear Modulus (GPa) = 29.53081 31.25905 30.39493
#
# Velocity S-wave (km/s) = 3.84127 3.95207 3.89706
# Velocity P-wave (km/s) = 6.82335 7.07975 6.95273
#
# Compressibility (1/GPa) = 0.01858552
#
# Stress axis : x y z
#
# Youngs Moduli (GPa) = 48.21639 101.62512 79.89065
#
# Poissons Ratio (x) = 0.43791 0.44569
# Poissons Ratio (y) = 0.20777 0.18918
# Poissons Ratio (z) = 0.26898 0.24065
#
# Static dielectric constant tensor:
#      x y z
#    x 3.434880 0.000000 0.000000 
#    y 0.000000 3.661860 0.000000 
#    z 0.000000 0.000000 3.817940 
# 
# 
# High freq. dielectric constant tensor:
#      x y z
#    x 1.765270 0.000000 0.000000 
#    y 0.000000 1.792420 0.000000 
#    z 0.000000 0.000000 1.793180 
# 
# From -- ./inp_files/3892.got.cif
#   From: 2010.03.12/outbox.cif.g09.slc.cpg/sg46_2_cif.got.tgz:3892.got - 2010.04.14 02:56:35.
