data_PCOD8192215
_publ_section_title
;
Structure prediction by ZEFSAII (Michael W. Deem and Ramdas Pophale) SiO2 
 PCOD8192215
Probable space group: I M A 2
;
_chemical_formula_sum "Si O2"
_cell_formula_units_Z 64
_cell_length_a 8.807639
_cell_length_b 23.886407
_cell_length_c 15.311676
_cell_angle_alpha 90.000000
_cell_angle_beta 90.000000
_cell_angle_gamma 90.000000
_cell_volume 3221.314033
_symmetry_space_group_name_H-M "I M A 2"
_symmetry_group_IT_number 46
_symmetry_cell_setting 'orthorhombic'
loop_
_space_group_symop_operation_xyz
x,y,z
-x,-y,z
1/2-x,y,z
1/2+x,-y,z
1/2+x,1/2+y,1/2+z
1/2-x,1/2-y,1/2+z
-x,1/2+y,1/2+z
x,1/2-y,1/2+z
loop_
_atom_site_type_symbol
_atom_site_label
_atom_site_fract_x
_atom_site_fract_y
_atom_site_fract_z
Si Si1 0.925537 0.368634 0.350160
Si Si2 0.428209 0.249995 0.608964
Si Si3 0.570430 0.439609 0.517886
Si Si4 0.923350 0.250004 0.425455
Si Si5 0.429413 0.369252 0.170995
Si Si6 0.425534 0.868627 0.350160
Si Si7 0.070429 0.560389 0.017876
Si Si8 0.929412 0.869241 0.170998
O O1 0.750000 0.380099 0.329019
O O2 0.978683 0.402759 0.434847
O O3 0.957708 0.303397 0.366124
O O4 0.025354 0.388227 0.268188
O O5 0.250000 0.249992 0.620306
O O6 0.466717 0.249998 0.507459
O O7 0.493557 0.193637 0.653640
O O8 0.493550 0.306351 0.653648
O O9 0.500000 0.500000 0.504473
O O10 0.750000 0.443967 0.526651
O O11 0.506047 0.411963 0.604830
O O12 0.750000 0.250009 0.459984
O O13 0.957683 0.196611 0.366117
O O14 0.250000 0.372681 0.158668
O O15 0.506041 0.411980 0.104832
O O16 0.250000 0.880102 0.329021
O O17 0.478687 0.902747 0.434852
O O18 0.525357 0.888218 0.268190
O O19 0.250000 0.556031 0.026640
O O20 0.000000 0.500000 0.004435
O O21 0.750000 0.872672 0.158667
#
# Coordination Sequence:
#
# PCOD8192215 Si02
#       8
#     8   8   8   8   8   8   8   8
#     4  10  22  39  62  91 122 159 202 249 302 359
#     4  10  21  36  58  91 127 161 197 243 301 362
#     4  11  24  43  65  88 119 158 206 256 304 357
#     4  10  19  36  62  91 121 159 201 247 301 358
#     4  11  23  39  62  92 126 163 201 245 302 361
#     4  10  22  39  62  91 122 159 202 249 302 359
#     4  11  24  43  65  88 119 158 206 256 304 357
#     4  11  23  39  62  92 126 163 201 245 302 361
#
# _framework density 19.867667000000001
#
# number of rings (size 3 to 8) (size 9 to 14) (size 15 to 20)
#    0.000    1.500    2.500    2.250    0.000    5.000 
#    0.000    2.500    0.000    0.000    0.000    0.000 
#    0.000    0.000    0.000    0.000    0.000    0.000 
#
# Total GULP energy -396956.172142 kJ/mol
# GULP energy per Si atom -12404.880379 kJ/mol
# Density = 1.982245 g / cm^3
# Si number density = 19.867667 Si / 1000 Ang^3
#
#
#
# Elastic Constant Matrix: (Units=GPa)
#
#
# Indices 1 2 3 4 5 6 
#
# 1 54.9287 40.2103 38.5003 0.0001 0.0000 0.0000
# 2 40.2103 134.9859 53.1745 0.0000 0.0000 0.0000
# 3 38.5003 53.1745 136.2795 0.0000 0.0002 0.0002
# 4 0.0001 0.0000 0.0000 9.9467 0.0000 0.0000
# 5 0.0000 0.0000 0.0002 0.0000 37.4122 -0.0001
# 6 0.0000 0.0000 0.0002 0.0000 -0.0001 22.0131
#
#
#
# Elastic Compliance Matrix: (Units=1/GPa)
#
#
# Indices 1 2 3 4 5 6 
#
# 1 0.025975 -0.005727 -0.005104 0.000000 0.000000 0.000000
# 2 -0.005727 0.010016 -0.002290 0.000000 0.000000 0.000000
# 3 -0.005104 -0.002290 0.009673 0.000000 0.000000 0.000000
# 4 0.000000 0.000000 0.000000 0.100536 0.000000 0.000000
# 5 0.000000 0.000000 0.000000 0.000000 0.026729 0.000000
# 6 0.000000 0.000000 0.000000 0.000000 0.000000 0.045427
#
#
# Mechanical properties :
#
#
# Convention : Reuss Voigt Hill
#
# Bulk Modulus (GPa) = 51.48584 65.55156 58.51870
# Shear Modulus (GPa) = 19.91442 26.82831 23.37137
#
# Velocity S-wave (km/s) = 3.16943 3.67870 3.43352
# Velocity P-wave (km/s) = 6.27410 7.14909 6.72584
#
# Compressibility (1/GPa) = 0.01942281
#
# Stress axis : x y z
#
# Youngs Moduli (GPa) = 38.49834 99.83590 103.37723
#
# Poissons Ratio (x) = 0.57178 0.52759
# Poissons Ratio (y) = 0.22049 0.23676
# Poissons Ratio (z) = 0.19648 0.22865
#
# Static dielectric constant tensor:
#      x y z
#    x 3.525840 0.000000 0.000000 
#    y 0.000000 3.778010 0.000000 
#    z 0.000000 0.000000 3.552180 
# 
# 
# High freq. dielectric constant tensor:
#      x y z
#    x 1.771630 0.000000 0.000000 
#    y 0.000000 1.780010 0.000000 
#    z 0.000000 0.000000 1.783560 
# 
# From -- ./inp_files/14468.got.cif
#   From: 2010.03.12/outbox.cif.g09.slc.cpg/sg46_8_cif.got.tgz:14468.got - 2010.04.14 02:56:35.
