data_PCOD8192121
_publ_section_title
;
Structure prediction by ZEFSAII (Michael W. Deem and Ramdas Pophale) SiO2 
 PCOD8192121
Probable space group: I M A 2
;
_chemical_formula_sum "Si O2"
_cell_formula_units_Z 48
_cell_length_a 13.957733
_cell_length_b 21.336689
_cell_length_c 8.961643
_cell_angle_alpha 90.000000
_cell_angle_beta 90.000000
_cell_angle_gamma 90.000000
_cell_volume 2668.883106
_symmetry_space_group_name_H-M "I M A 2"
_symmetry_group_IT_number 46
_symmetry_cell_setting 'orthorhombic'
loop_
_space_group_symop_operation_xyz
x,y,z
-x,-y,z
1/2-x,y,z
1/2+x,-y,z
1/2+x,1/2+y,1/2+z
1/2-x,1/2-y,1/2+z
-x,1/2+y,1/2+z
x,1/2-y,1/2+z
loop_
_atom_site_type_symbol
_atom_site_label
_atom_site_fract_x
_atom_site_fract_y
_atom_site_fract_z
Si Si1 0.355863 0.665632 0.359560
Si Si2 0.859407 0.437027 0.766202
Si Si3 0.140342 0.422014 0.725864
Si Si4 0.930400 0.247641 0.608783
Si Si5 0.518651 0.431966 0.484754
Si Si6 0.003462 0.336152 0.860502
O O1 0.250000 0.634105 0.363686
O O2 0.363631 0.711971 0.500323
O O3 0.361853 0.704117 0.206742
O O4 0.445989 0.616705 0.358622
O O5 0.750000 0.416300 0.785523
O O6 0.875331 0.510437 0.805226
O O7 0.889729 0.431611 0.594095
O O8 0.922008 0.390599 0.868284
O O9 0.250000 0.411437 0.680047
O O10 0.076210 0.412728 0.576670
O O11 0.106535 0.370180 0.846128
O O12 0.991540 0.292928 0.714456
O O13 0.002280 0.204849 0.510187
O O14 0.500000 0.500000 0.411291
#
# Coordination Sequence:
#
# PCOD8192121 Si02
#       6
#     8   8   8   8   8   8
#     4  11  20  34  53  79 107 135 166 204 255 313
#     4   9  16  28  52  79 101 127 166 212 258 306
#     4   9  17  32  55  78  98 131 177 218 252 289
#     4  10  22  33  51  73 107 139 168 198 251 309
#     4   9  17  30  49  75 105 135 167 209 254 297
#     4  10  19  35  51  74 105 135 169 211 252 301
#
# _framework density 17.985050999999999
#
# number of rings (size 3 to 8) (size 9 to 14) (size 15 to 20)
#    0.000    2.333    3.333    2.500    0.000    4.000 
#    0.000    2.500    0.000    1.000    0.000    0.000 
#    0.000    0.000    0.000    0.000    0.000    0.000 
#
# Total GULP energy -297411.199674 kJ/mol
# GULP energy per Si atom -12392.133320 kJ/mol
# Density = 1.794412 g / cm^3
# Si number density = 17.985051 Si / 1000 Ang^3
#
#
#
# Elastic Constant Matrix: (Units=GPa)
#
#
# Indices 1 2 3 4 5 6 
#
# 1 119.6602 61.5833 25.3487 0.0000 0.0000 0.0000
# 2 61.5833 105.8836 37.5921 0.0000 0.0000 0.0000
# 3 25.3487 37.5921 69.0115 0.0001 0.0001 0.0000
# 4 0.0000 0.0000 0.0001 13.7365 0.0000 0.0000
# 5 0.0000 0.0000 0.0001 0.0000 12.9411 0.0000
# 6 0.0000 0.0000 0.0000 0.0000 0.0000 25.2245
#
#
#
# Elastic Compliance Matrix: (Units=1/GPa)
#
#
# Indices 1 2 3 4 5 6 
#
# 1 0.011958 -0.006689 -0.000749 0.000000 0.000000 0.000000
# 2 -0.006689 0.015451 -0.005959 0.000000 0.000000 0.000000
# 3 -0.000749 -0.005959 0.018011 0.000000 0.000000 0.000000
# 4 0.000000 0.000000 0.000000 0.072799 0.000000 0.000000
# 5 0.000000 0.000000 0.000000 0.000000 0.077273 0.000000
# 6 0.000000 0.000000 0.000000 0.000000 0.000000 0.039644
#
#
# Mechanical properties :
#
#
# Convention : Reuss Voigt Hill
#
# Bulk Modulus (GPa) = 53.68825 60.40038 57.04432
# Shear Modulus (GPa) = 18.64703 21.71583 20.18143
#
# Velocity S-wave (km/s) = 3.22344 3.47859 3.35344
# Velocity P-wave (km/s) = 6.61593 7.05625 6.83963
#
# Compressibility (1/GPa) = 0.01862605
#
# Stress axis : x y z
#
# Youngs Moduli (GPa) = 83.62440 64.72228 55.52027
#
# Poissons Ratio (x) = 0.43295 0.04156
# Poissons Ratio (y) = 0.55939 0.33086
# Poissons Ratio (z) = 0.06260 0.38570
#
# Static dielectric constant tensor:
#      x y z
#    x 3.181600 0.000000 0.000000 
#    y 0.000000 3.704180 0.000000 
#    z 0.000000 0.000000 3.050120 
# 
# 
# High freq. dielectric constant tensor:
#      x y z
#    x 1.681010 0.000000 0.000000 
#    y 0.000000 1.711530 0.000000 
#    z 0.000000 0.000000 1.654740 
# 
# From -- ./inp_files/5805.got.cif
#   From: 2010.03.12/outbox.cif.g09.slc.cpg/sg46_3_cif.got.tgz:5805.got - 2010.04.14 02:56:35.
