data_PCOD8192346
_publ_section_title
;
Structure prediction by ZEFSAII (Michael W. Deem and Ramdas Pophale) SiO2 
 PCOD8192346
Probable space group: I M A 2
;
_chemical_formula_sum "Si O2"
_cell_formula_units_Z 48
_cell_length_a 11.190432
_cell_length_b 24.394857
_cell_length_c 9.413863
_cell_angle_alpha 90.000000
_cell_angle_beta 90.000000
_cell_angle_gamma 90.000000
_cell_volume 2569.880937
_symmetry_space_group_name_H-M "I M A 2"
_symmetry_group_IT_number 46
_symmetry_cell_setting 'orthorhombic'
loop_
_space_group_symop_operation_xyz
x,y,z
-x,-y,z
1/2-x,y,z
1/2+x,-y,z
1/2+x,1/2+y,1/2+z
1/2-x,1/2-y,1/2+z
-x,1/2+y,1/2+z
x,1/2-y,1/2+z
loop_
_atom_site_type_symbol
_atom_site_label
_atom_site_fract_x
_atom_site_fract_y
_atom_site_fract_z
Si Si1 0.614389 0.865030 0.668440
Si Si2 0.114441 0.365709 0.605366
Si Si3 0.996049 0.711156 0.397049
Si Si4 0.750000 0.179189 0.303249
Si Si5 0.750000 0.284086 0.476405
Si Si6 0.389125 0.458270 0.392586
Si Si7 0.998891 0.841354 0.382840
O O1 0.750000 0.852867 0.619739
O O2 0.572376 0.814579 0.765041
O O3 0.606698 0.921981 0.750930
O O4 0.527368 0.869005 0.533457
O O5 0.250000 0.357333 0.565771
O O6 0.052056 0.310981 0.546624
O O7 0.073843 0.421622 0.528393
O O8 0.092844 0.369003 0.772958
O O9 0.981131 0.776153 0.391586
O O10 0.134078 0.691054 0.398726
O O11 0.750000 0.219745 0.438951
O O12 0.630965 0.142904 0.324159
O O13 0.750000 0.208154 0.147743
O O14 0.500000 0.500000 0.379450
O O15 0.250000 0.481817 0.407736
#
# Coordination Sequence:
#
# PCOD8192346 Si02
#       7
#     8   8   8   4   4   8   8
#     4  10  22  37  56  85 117 148 187 234 282 334
#     4  10  20  35  56  82 114 148 186 234 285 329
#     4  10  20  33  53  78 118 159 195 223 265 331
#     4  10  22  34  50  74 118 158 204 238 266 314
#     4  10  20  34  50  72 110 166 196 238 272 306
#     4   9  20  43  64  84 110 141 187 243 297 352
#     4  11  21  34  53  82 121 154 189 228 275 336
#
# _framework density 18.677907999999999
#
# number of rings (size 3 to 8) (size 9 to 14) (size 15 to 20)
#    0.000    2.000    1.667    3.000    7.000    4.000 
#    9.000    0.833    0.000    0.000    0.000    0.000 
#    0.000    0.000    0.000    0.000    0.000    0.000 
#
# Total GULP energy -297398.965022 kJ/mol
# GULP energy per Si atom -12391.623543 kJ/mol
# Density = 1.863540 g / cm^3
# Si number density = 18.677908 Si / 1000 Ang^3
#
#
#
# Elastic Constant Matrix: (Units=GPa)
#
#
# Indices 1 2 3 4 5 6 
#
# 1 103.2672 48.8532 27.5750 0.0004 0.0000 0.0000
# 2 48.8532 60.7385 25.3364 0.0008 0.0000 0.0000
# 3 27.5750 25.3364 95.3988 0.0014 -0.0004 0.0002
# 4 0.0004 0.0008 0.0014 7.8544 -0.0001 0.0000
# 5 0.0000 0.0000 -0.0004 -0.0001 32.3936 0.0000
# 6 0.0000 0.0000 0.0002 0.0000 0.0000 28.3009
#
#
#
# Elastic Compliance Matrix: (Units=1/GPa)
#
#
# Indices 1 2 3 4 5 6 
#
# 1 0.015782 -0.012135 -0.001339 0.000001 0.000000 0.000000
# 2 -0.012135 0.027846 -0.003888 -0.000001 0.000000 0.000000
# 3 -0.001339 -0.003888 0.011902 -0.000002 0.000000 0.000000
# 4 0.000001 -0.000001 -0.000002 0.127318 0.000000 0.000000
# 5 0.000000 0.000000 0.000000 0.000000 0.030870 0.000000
# 6 0.000000 0.000000 0.000000 0.000000 0.000000 0.035335
#
#
# Mechanical properties :
#
#
# Convention : Reuss Voigt Hill
#
# Bulk Modulus (GPa) = 48.06234 51.43708 49.74971
# Shear Modulus (GPa) = 17.19914 24.21912 20.70913
#
# Velocity S-wave (km/s) = 3.03781 3.60484 3.33340
# Velocity P-wave (km/s) = 6.17190 6.70263 6.44274
#
# Compressibility (1/GPa) = 0.02080631
#
# Stress axis : x y z
#
# Youngs Moduli (GPa) = 63.36314 35.91119 84.02052
#
# Poissons Ratio (x) = 0.43579 0.11249
# Poissons Ratio (y) = 0.76893 0.32666
# Poissons Ratio (z) = 0.08483 0.13962
#
# Static dielectric constant tensor:
#      x y z
#    x 3.905600 0.000000 0.000000 
#    y 0.000000 3.058210 0.000000 
#    z 0.000000 0.000000 3.565540 
# 
# 
# High freq. dielectric constant tensor:
#      x y z
#    x 1.748550 0.000000 0.000000 
#    y 0.000000 1.674140 0.000000 
#    z 0.000000 0.000000 1.733540 
# 
# From -- ./inp_files/4728.got.cif
#   From: 2010.03.12/outbox.cif.g09.slc.cpg/sg46_3_cif.got.tgz:4728.got - 2010.04.14 02:56:35.
