data_PCOD8192924
_publ_section_title
;
Structure prediction by ZEFSAII (Michael W. Deem and Ramdas Pophale) SiO2 
 PCOD8192924
Probable space group: I M A 2
;
_chemical_formula_sum "Si O2"
_cell_formula_units_Z 40
_cell_length_a 8.463686
_cell_length_b 13.521439
_cell_length_c 18.354157
_cell_angle_alpha 90.000000
_cell_angle_beta 90.000000
_cell_angle_gamma 90.000000
_cell_volume 2100.472008
_symmetry_space_group_name_H-M "I M A 2"
_symmetry_group_IT_number 46
_symmetry_cell_setting 'orthorhombic'
loop_
_space_group_symop_operation_xyz
x,y,z
-x,-y,z
1/2-x,y,z
1/2+x,-y,z
1/2+x,1/2+y,1/2+z
1/2-x,1/2-y,1/2+z
-x,1/2+y,1/2+z
x,1/2-y,1/2+z
loop_
_atom_site_type_symbol
_atom_site_label
_atom_site_fract_x
_atom_site_fract_y
_atom_site_fract_z
Si Si1 0.066353 0.390550 0.618300
Si Si2 0.064455 0.395311 0.331302
Si Si3 0.066222 0.895565 0.399803
Si Si4 0.565752 0.197392 0.975320
Si Si5 0.564117 0.287795 0.758002
O O1 0.250000 0.393828 0.638176
O O2 0.000000 0.500000 0.612305
O O3 0.041556 0.335470 0.542226
O O4 0.972770 0.331042 0.679500
O O5 0.250000 0.399084 0.346343
O O6 0.000000 0.500000 0.303145
O O7 0.973457 0.368864 0.405503
O O8 0.025229 0.316213 0.268275
O O9 0.250000 0.908496 0.392896
O O10 0.022994 0.811722 0.458851
O O11 0.001069 0.863569 0.320200
O O12 0.000000 0.000000 0.426152
O O13 0.750000 0.183655 0.994480
O O14 0.750000 0.268825 0.766989
#
# Coordination Sequence:
#
# PCOD8192924 Si02
#       5
#     8   8   8   8   8
#     4  12  24  38  57  83 112 146 183 227 281 335
#     4  11  21  36  58  84 112 146 185 229 277 330
#     4   9  19  34  56  81 108 141 179 221 269 320
#     4  10  21  38  56  80 112 147 186 231 277 328
#     4  10  21  38  57  82 113 146 184 228 274 329
#
# _framework density 19.043340000000001
#
# number of rings (size 3 to 8) (size 9 to 14) (size 15 to 20)
#    0.000    1.600    0.000    7.200    0.000    6.400 
#    0.000    1.000    0.000    2.400    0.000    0.000 
#    0.000    0.000    0.000    0.000    0.000    0.000 
#
# Total GULP energy -248074.900690 kJ/mol
# GULP energy per Si atom -12403.745035 kJ/mol
# Density = 1.900000 g / cm^3
# Si number density = 19.043340 Si / 1000 Ang^3
#
#
#
# Elastic Constant Matrix: (Units=GPa)
#
#
# Indices 1 2 3 4 5 6 
#
# 1 69.9689 34.2900 8.6532 0.0000 0.0000 0.0000
# 2 34.2900 154.9171 44.5007 0.0000 0.0000 0.0000
# 3 8.6532 44.5007 81.3666 0.0000 0.0000 0.0000
# 4 0.0000 0.0000 0.0000 69.0295 0.0000 0.0000
# 5 0.0000 0.0000 0.0000 0.0000 30.9453 0.0000
# 6 0.0000 0.0000 0.0000 0.0000 0.0000 28.6708
#
#
#
# Elastic Compliance Matrix: (Units=1/GPa)
#
#
# Indices 1 2 3 4 5 6 
#
# 1 0.016036 -0.003630 0.000280 0.000000 0.000000 0.000000
# 2 -0.003630 0.008480 -0.004252 0.000000 0.000000 0.000000
# 3 0.000280 -0.004252 0.014586 0.000000 0.000000 0.000000
# 4 0.000000 0.000000 0.000000 0.014487 0.000000 0.000000
# 5 0.000000 0.000000 0.000000 0.000000 0.032315 0.000000
# 6 0.000000 0.000000 0.000000 0.000000 0.000000 0.034879
#
#
# Mechanical properties :
#
#
# Convention : Reuss Voigt Hill
#
# Bulk Modulus (GPa) = 41.84413 53.46003 47.65208
# Shear Modulus (GPa) = 34.73378 40.31635 37.52507
#
# Velocity S-wave (km/s) = 4.27539 4.60617 4.44386
# Velocity P-wave (km/s) = 6.81122 7.51151 7.16992
#
# Compressibility (1/GPa) = 0.02389821
#
# Stress axis : x y z
#
# Youngs Moduli (GPa) = 62.35810 117.92637 68.56057
#
# Poissons Ratio (x) = 0.42807 -0.01919
# Poissons Ratio (y) = 0.22636 0.29150
# Poissons Ratio (z) = -0.01745 0.50139
#
# Static dielectric constant tensor:
#      x y z
#    x 3.516270 0.000000 0.000000 
#    y 0.000000 1.552730 0.000000 
#    z 0.000000 0.000000 3.331020 
# 
# 
# High freq. dielectric constant tensor:
#      x y z
#    x 1.751060 0.000000 0.000000 
#    y 0.000000 1.750380 0.000000 
#    z 0.000000 0.000000 1.724750 
# 
# From -- ./inp_files/17962.got.cif
#   From: 2010.03.12/outbox.cif.g09.slc.cpg/sg46_9_cif.got.tgz:17962.got - 2010.04.14 02:56:35.
