data_PCOD8192455
_publ_section_title
;
Structure prediction by ZEFSAII (Michael W. Deem and Ramdas Pophale) SiO2 
 PCOD8192455
Probable space group: I M A 2
;
_chemical_formula_sum "Si O2"
_cell_formula_units_Z 40
_cell_length_a 8.626326
_cell_length_b 20.854672
_cell_length_c 12.444262
_cell_angle_alpha 90.000000
_cell_angle_beta 90.000000
_cell_angle_gamma 90.000000
_cell_volume 2238.712770
_symmetry_space_group_name_H-M "I M A 2"
_symmetry_group_IT_number 46
_symmetry_cell_setting 'orthorhombic'
loop_
_space_group_symop_operation_xyz
x,y,z
-x,-y,z
1/2-x,y,z
1/2+x,-y,z
1/2+x,1/2+y,1/2+z
1/2-x,1/2-y,1/2+z
-x,1/2+y,1/2+z
x,1/2-y,1/2+z
loop_
_atom_site_type_symbol
_atom_site_label
_atom_site_fract_x
_atom_site_fract_y
_atom_site_fract_z
Si Si1 0.429197 0.341551 0.798020
Si Si2 0.932085 0.429963 0.624077
Si Si3 0.070379 0.800315 0.509514
Si Si4 0.072907 0.197563 0.726399
Si Si5 0.931520 0.665406 0.460277
O O1 0.250000 0.360804 0.787089
O O2 0.532347 0.391672 0.732972
O O3 0.477149 0.342587 0.922968
O O4 0.462419 0.271523 0.751222
O O5 0.750000 0.432662 0.604233
O O6 0.000000 0.500000 0.637601
O O7 0.013022 0.397813 0.521007
O O8 0.250000 0.807145 0.483682
O O9 0.033697 0.827024 0.628766
O O10 0.021850 0.726094 0.507351
O O11 0.250000 0.188411 0.691353
O O12 0.034678 0.156530 0.833305
O O13 0.750000 0.677956 0.480539
#
# Coordination Sequence:
#
# PCOD8192455 Si02
#       5
#     8   8   8   8   8
#     4  10  20  35  54  76 108 144 182 222 270 323
#     4  12  24  38  57  80 109 144 184 226 269 322
#     4  11  20  30  51  81 113 142 176 223 273 324
#     4   9  18  32  53  77 108 144 176 218 274 326
#     4  10  20  35  53  76 108 144 183 222 270 322
#
# _framework density 17.867408999999999
#
# number of rings (size 3 to 8) (size 9 to 14) (size 15 to 20)
#    0.000    1.600    2.000    6.000    0.000    4.000 
#    0.000    0.000    0.000    1.200    0.000    2.800 
#    0.000    0.000    0.000    0.000    0.000    0.000 
#
# Total GULP energy -248057.768645 kJ/mol
# GULP energy per Si atom -12402.888432 kJ/mol
# Density = 1.782674 g / cm^3
# Si number density = 17.867409 Si / 1000 Ang^3
#
#
#
# Elastic Constant Matrix: (Units=GPa)
#
#
# Indices 1 2 3 4 5 6 
#
# 1 70.1539 9.1446 32.5154 0.0001 0.0000 0.0000
# 2 9.1446 55.6575 31.8761 -0.0001 0.0000 0.0000
# 3 32.5154 31.8761 133.0568 -0.0007 0.0002 0.0001
# 4 0.0001 -0.0001 -0.0007 49.7581 0.0001 0.0000
# 5 0.0000 0.0000 0.0002 0.0001 31.1902 0.0000
# 6 0.0000 0.0000 0.0001 0.0000 0.0000 24.9014
#
#
#
# Elastic Compliance Matrix: (Units=1/GPa)
#
#
# Indices 1 2 3 4 5 6 
#
# 1 0.016085 -0.000454 -0.003822 0.000000 0.000000 0.000000
# 2 -0.000454 0.020837 -0.004881 0.000000 0.000000 0.000000
# 3 -0.003822 -0.004881 0.009619 0.000000 0.000000 0.000000
# 4 0.000000 0.000000 0.000000 0.020097 0.000000 0.000000
# 5 0.000000 0.000000 0.000000 0.000000 0.032061 0.000000
# 6 0.000000 0.000000 0.000000 0.000000 0.000000 0.040158
#
#
# Mechanical properties :
#
#
# Convention : Reuss Voigt Hill
#
# Bulk Modulus (GPa) = 35.42673 45.10449 40.26561
# Shear Modulus (GPa) = 30.01550 33.52542 31.77046
#
# Velocity S-wave (km/s) = 4.10311 4.33638 4.22135
# Velocity P-wave (km/s) = 6.50522 7.09726 6.80768
#
# Compressibility (1/GPa) = 0.02822728
#
# Stress axis : x y z
#
# Youngs Moduli (GPa) = 62.16980 47.99152 103.96199
#
# Poissons Ratio (x) = 0.02178 0.39734
# Poissons Ratio (y) = 0.02822 0.50743
# Poissons Ratio (z) = 0.23761 0.23424
#
# Static dielectric constant tensor:
#      x y z
#    x 3.364500 0.000000 0.000000 
#    y 0.000000 2.908220 0.000000 
#    z 0.000000 0.000000 3.600160 
# 
# 
# High freq. dielectric constant tensor:
#      x y z
#    x 1.703390 0.000000 0.000000 
#    y 0.000000 1.640340 0.000000 
#    z 0.000000 0.000000 1.709860 
# 
# From -- ./inp_files/9040.got.cif
#   From: 2010.03.12/outbox.cif.g09.slc.cpg/sg46_5_cif.got.tgz:9040.got - 2010.04.14 02:56:35.
