data_PCOD8192630
_publ_section_title
;
Structure prediction by ZEFSAII (Michael W. Deem and Ramdas Pophale) SiO2 
 PCOD8192630
Probable space group: I M A 2
;
_chemical_formula_sum "Si O2"
_cell_formula_units_Z 48
_cell_length_a 7.766100
_cell_length_b 33.439776
_cell_length_c 9.470748
_cell_angle_alpha 90.000000
_cell_angle_beta 90.000000
_cell_angle_gamma 90.000000
_cell_volume 2459.521475
_symmetry_space_group_name_H-M "I M A 2"
_symmetry_group_IT_number 46
_symmetry_cell_setting 'orthorhombic'
loop_
_space_group_symop_operation_xyz
x,y,z
-x,-y,z
1/2-x,y,z
1/2+x,-y,z
1/2+x,1/2+y,1/2+z
1/2-x,1/2-y,1/2+z
-x,1/2+y,1/2+z
x,1/2-y,1/2+z
loop_
_atom_site_type_symbol
_atom_site_label
_atom_site_fract_x
_atom_site_fract_y
_atom_site_fract_z
Si Si1 0.750000 0.773474 0.712780
Si Si2 0.947839 0.136184 0.356410
Si Si3 0.052496 0.904327 0.633033
Si Si4 0.941629 0.955239 0.868572
Si Si5 0.044572 0.382861 0.548233
Si Si6 0.750000 0.801457 0.395686
Si Si7 0.551950 0.172266 0.810986
O O1 0.750000 0.777111 0.542910
O O2 0.750000 0.727395 0.759885
O O3 0.575966 0.791536 0.779231
O O4 0.750000 0.151026 0.378549
O O5 0.989074 0.100347 0.467436
O O6 0.970883 0.116424 0.204875
O O7 0.076837 0.172552 0.384217
O O8 0.250000 0.913176 0.663754
O O9 0.994950 0.862947 0.705311
O O10 0.954469 0.941830 0.703999
O O11 0.750000 0.954365 0.921541
O O12 0.034107 0.922068 0.968094
O O13 0.000000 0.000000 0.892507
O O14 0.250000 0.381453 0.549377
O O15 0.973629 0.343200 0.470832
O O16 0.750000 0.185943 0.787608
#
# Coordination Sequence:
#
# PCOD8192630 Si02
#       7
#     4   8   8   8   8   4   8
#     4  12  26  42  62  90 124 166 196 268 320 366
#     4  11  23  41  64  90 119 163 212 257 306 370
#     4   9  19  36  61  86 111 155 208 251 298 357
#     4  10  21  35  59  91 126 160 197 248 309 365
#     4  10  20  36  63  91 120 163 205 251 303 367
#     4  12  28  42  64  88 132 158 208 268 312 374
#     4  10  20  38  63  86 115 158 208 249 302 372
#
# _framework density 19.515991
#
# number of rings (size 3 to 8) (size 9 to 14) (size 15 to 20)
#    0.000    1.667    3.333    1.000    4.667    2.667 
#    0.000    0.833    0.000    2.000    0.000    0.000 
#    0.000    0.000    0.000    0.000    0.000    0.000 
#
# Total GULP energy -297511.013222 kJ/mol
# GULP energy per Si atom -12396.292218 kJ/mol
# Density = 1.947157 g / cm^3
# Si number density = 19.515991 Si / 1000 Ang^3
#
#
#
# Elastic Constant Matrix: (Units=GPa)
#
#
# Indices 1 2 3 4 5 6 
#
# 1 98.2936 35.8709 24.3424 0.0089 0.0008 0.0009
# 2 35.8709 79.2615 37.3150 0.0082 0.0006 0.0008
# 3 24.3424 37.3150 143.8133 -0.0104 -0.0001 -0.0005
# 4 0.0089 0.0082 -0.0104 30.5306 -0.0023 -0.0027
# 5 0.0008 0.0006 -0.0001 -0.0023 28.0454 -0.0006
# 6 0.0009 0.0008 -0.0005 -0.0027 -0.0006 26.3301
#
#
#
# Elastic Compliance Matrix: (Units=1/GPa)
#
#
# Indices 1 2 3 4 5 6 
#
# 1 0.012252 -0.005204 -0.000723 -0.000002 0.000000 0.000000
# 2 -0.005204 0.016583 -0.003422 -0.000004 0.000000 0.000000
# 3 -0.000723 -0.003422 0.007964 0.000004 0.000000 0.000000
# 4 -0.000002 -0.000004 0.000004 0.032754 0.000003 0.000003
# 5 0.000000 0.000000 0.000000 0.000003 0.035657 0.000001
# 6 0.000000 0.000000 0.000000 0.000003 0.000001 0.037979
#
#
# Mechanical properties :
#
#
# Convention : Reuss Voigt Hill
#
# Bulk Modulus (GPa) = 55.25041 57.38057 56.31549
# Shear Modulus (GPa) = 29.77601 31.90388 30.83994
#
# Velocity S-wave (km/s) = 3.91029 4.04760 3.97954
# Velocity P-wave (km/s) = 6.98276 7.16308 7.07349
#
# Compressibility (1/GPa) = 0.01809941
#
# Stress axis : x y z
#
# Youngs Moduli (GPa) = 81.61949 60.30407 125.56873
#
# Poissons Ratio (x) = 0.31383 0.09085
# Poissons Ratio (y) = 0.42476 0.42967
# Poissons Ratio (z) = 0.05905 0.20635
#
# Static dielectric constant tensor:
#      x y z
#    x 3.669440 -0.000020 0.000000 
#    y -0.000020 2.634990 0.000040 
#    z 0.000000 0.000040 3.781750 
# 
# 
# High freq. dielectric constant tensor:
#      x y z
#    x 1.772440 0.000000 0.000000 
#    y 0.000000 1.729820 0.000000 
#    z 0.000000 0.000000 1.766400 
# 
# From -- ./inp_files/3972.got.cif
#   From: 2010.03.12/outbox.cif.g09.slc.cpg/sg46_2_cif.got.tgz:3972.got - 2010.04.14 02:56:35.
