data_PCOD8192391
_publ_section_title
;
Structure prediction by ZEFSAII (Michael W. Deem and Ramdas Pophale) SiO2 
 PCOD8192391
Probable space group: I M A 2
;
_chemical_formula_sum "Si O2"
_cell_formula_units_Z 48
_cell_length_a 9.626885
_cell_length_b 12.465197
_cell_length_c 23.278421
_cell_angle_alpha 90.000000
_cell_angle_beta 90.000000
_cell_angle_gamma 90.000000
_cell_volume 2793.434218
_symmetry_space_group_name_H-M "I M A 2"
_symmetry_group_IT_number 46
_symmetry_cell_setting 'orthorhombic'
loop_
_space_group_symop_operation_xyz
x,y,z
-x,-y,z
1/2-x,y,z
1/2+x,-y,z
1/2+x,1/2+y,1/2+z
1/2-x,1/2-y,1/2+z
-x,1/2+y,1/2+z
x,1/2-y,1/2+z
loop_
_atom_site_type_symbol
_atom_site_label
_atom_site_fract_x
_atom_site_fract_y
_atom_site_fract_z
Si Si1 0.250000 0.071627 0.008201
Si Si2 0.000000 0.000000 0.805894
Si Si3 0.411006 0.094865 0.605863
Si Si4 0.750000 0.342845 0.480619
Si Si5 0.912692 0.168138 0.713014
Si Si6 0.496405 0.802529 0.052478
Si Si7 0.593284 0.104636 0.172587
Si Si8 0.250000 0.007980 0.886734
O O1 0.390745 0.110981 0.035756
O O2 0.250000 0.946096 0.022604
O O3 0.250000 0.092287 0.939522
O O4 0.952131 0.105280 0.770900
O O5 0.879123 0.964309 0.847744
O O6 0.250000 0.063539 0.616267
O O7 0.485210 0.118687 0.666033
O O8 0.419548 0.193708 0.562685
O O9 0.500000 0.000000 0.576566
O O10 0.888936 0.279612 0.499847
O O11 0.750000 0.385052 0.414029
O O12 0.750000 0.147953 0.697570
O O13 0.939683 0.297314 0.717432
O O14 0.422082 0.843225 0.109894
O O15 0.750000 0.064081 0.180641
O O16 0.500000 0.000000 0.184363
#
# Coordination Sequence:
#
# PCOD8192391 Si02
#       8
#     4   4   8   4   8   8   8   4
#     4  10  20  36  50  80 114 136 179 229 273 334
#     4  12  20  40  56  82 112 150 186 242 282 336
#     4  11  23  35  53  81 110 148 192 226 264 348
#     4  10  20  34  54  80 112 142 171 229 279 336
#     4  10  22  37  56  77 115 150 184 232 287 327
#     4  11  20  34  54  78 114 154 176 218 288 331
#     4  10  21  34  51  83 112 148 187 216 265 352
#     4  10  24  34  58  84 110 140 198 230 288 328
#
# _framework density 17.183150999999999
#
# number of rings (size 3 to 8) (size 9 to 14) (size 15 to 20)
#    0.500    1.000    3.333    3.000    4.667    0.667 
#    0.000    0.000    0.000    0.000    0.000    7.000 
#    0.000    0.000    0.000    0.000    0.000    0.000 
#
# Total GULP energy -297382.404357 kJ/mol
# GULP energy per Si atom -12390.933515 kJ/mol
# Density = 1.714404 g / cm^3
# Si number density = 17.183151 Si / 1000 Ang^3
#
#
#
# Elastic Constant Matrix: (Units=GPa)
#
#
# Indices 1 2 3 4 5 6 
#
# 1 131.1303 35.3305 23.1386 0.0000 0.0000 0.0000
# 2 35.3305 88.1046 24.4604 0.0000 0.0000 0.0000
# 3 23.1386 24.4604 51.0174 0.0000 0.0000 0.0000
# 4 0.0000 0.0000 0.0000 16.5866 0.0000 0.0000
# 5 0.0000 0.0000 0.0000 0.0000 31.0211 0.0000
# 6 0.0000 0.0000 0.0000 0.0000 0.0000 32.2295
#
#
#
# Elastic Compliance Matrix: (Units=1/GPa)
#
#
# Indices 1 2 3 4 5 6 
#
# 1 0.008854 -0.002810 -0.002669 0.000000 0.000000 0.000000
# 2 -0.002810 0.013985 -0.005431 0.000000 0.000000 0.000000
# 3 -0.002669 -0.005431 0.023415 0.000000 0.000000 0.000000
# 4 0.000000 0.000000 0.000000 0.060289 0.000000 0.000000
# 5 0.000000 0.000000 0.000000 0.000000 0.032236 0.000000
# 6 0.000000 0.000000 0.000000 0.000000 0.000000 0.031027
#
#
# Mechanical properties :
#
#
# Convention : Reuss Voigt Hill
#
# Bulk Modulus (GPa) = 40.92317 48.45681 44.68999
# Shear Modulus (GPa) = 25.02885 28.45565 26.74225
#
# Velocity S-wave (km/s) = 3.82067 4.07384 3.94929
# Velocity P-wave (km/s) = 6.58263 7.09856 6.84546
#
# Compressibility (1/GPa) = 0.02443603
#
# Stress axis : x y z
#
# Youngs Moduli (GPa) = 112.94501 71.50773 42.70734
#
# Poissons Ratio (x) = 0.20091 0.11397
# Poissons Ratio (y) = 0.31733 0.23193
# Poissons Ratio (z) = 0.30140 0.38833
#
# Static dielectric constant tensor:
#      x y z
#    x 3.265730 0.000000 0.000000 
#    y 0.000000 3.347720 0.000000 
#    z 0.000000 0.000000 3.000870 
# 
# 
# High freq. dielectric constant tensor:
#      x y z
#    x 1.686780 0.000000 0.000000 
#    y 0.000000 1.652990 0.000000 
#    z 0.000000 0.000000 1.628240 
# 
# From -- ./inp_files/22960.got.cif
#   From: 2010.03.12/outbox.cif.g09.slc.cpg/sg46_12_cif.got.tgz:22960.got - 2010.04.14 02:56:35.
