data_PCOD8192626
_publ_section_title
;
Structure prediction by ZEFSAII (Michael W. Deem and Ramdas Pophale) SiO2 
 PCOD8192626
Probable space group: I M A 2
;
_chemical_formula_sum "Si O2"
_cell_formula_units_Z 64
_cell_length_a 16.855216
_cell_length_b 11.272157
_cell_length_c 16.397535
_cell_angle_alpha 90.000000
_cell_angle_beta 90.000000
_cell_angle_gamma 90.000000
_cell_volume 3115.443776
_symmetry_space_group_name_H-M "I M A 2"
_symmetry_group_IT_number 46
_symmetry_cell_setting 'orthorhombic'
loop_
_space_group_symop_operation_xyz
x,y,z
-x,-y,z
1/2-x,y,z
1/2+x,-y,z
1/2+x,1/2+y,1/2+z
1/2-x,1/2-y,1/2+z
-x,1/2+y,1/2+z
x,1/2-y,1/2+z
loop_
_atom_site_type_symbol
_atom_site_label
_atom_site_fract_x
_atom_site_fract_y
_atom_site_fract_z
Si Si1 0.883246 0.157664 0.548120
Si Si2 0.584206 0.946474 0.107460
Si Si3 0.657389 0.539380 0.936702
Si Si4 0.842877 0.049801 0.267746
Si Si5 0.338109 0.000089 0.685361
Si Si6 0.432497 0.170931 0.578334
Si Si7 0.658881 0.394419 0.484386
Si Si8 0.155174 0.809732 0.811587
O O1 0.855580 0.293040 0.551757
O O2 0.975251 0.141018 0.570601
O O3 0.862440 0.096565 0.461816
O O4 0.827586 0.090803 0.611420
O O5 0.582192 0.806851 0.097683
O O6 0.500000 0.000000 0.129263
O O7 0.639552 0.987962 0.181790
O O8 0.614158 0.991174 0.019135
O O9 0.750000 0.570389 0.946246
O O10 0.630007 0.539309 0.841438
O O11 0.609491 0.632036 0.993467
O O12 0.750000 0.066978 0.276194
O O13 0.879768 0.183754 0.278108
O O14 0.250000 0.051344 0.706046
O O15 0.397338 0.104151 0.657626
O O16 0.374465 0.922254 0.758704
O O17 0.750000 0.428432 0.473365
O O18 0.621670 0.342772 0.401166
O O19 0.250000 0.805135 0.812233
#
# Coordination Sequence:
#
# PCOD8192626 Si02
#       8
#     8   8   8   8   8   8   8   8
#     4  11  19  36  63  90 122 155 198 255 308 359
#     4  12  26  43  57  88 129 167 206 251 307 376
#     4  10  20  38  66  96 120 156 209 259 306 370
#     4  10  21  40  66  92 120 157 210 263 307 362
#     4  10  20  36  62  92 120 157 202 250 303 367
#     4  11  24  40  58  86 133 166 203 249 308 372
#     4  11  21  39  67  90 117 157 202 260 312 361
#     4   9  19  37  64  98 120 143 203 267 308 356
#
# _framework density 20.542819000000001
#
# number of rings (size 3 to 8) (size 9 to 14) (size 15 to 20)
#    0.000    1.500    2.500    4.875    0.000    4.000 
#    2.250    1.250    0.000    0.000    0.000    0.000 
#    0.000    0.000    0.000    0.000    0.000    0.000 
#
# Total GULP energy -396598.826700 kJ/mol
# GULP energy per Si atom -12393.713334 kJ/mol
# Density = 2.049606 g / cm^3
# Si number density = 20.542819 Si / 1000 Ang^3
#
#
#
# Elastic Constant Matrix: (Units=GPa)
#
#
# Indices 1 2 3 4 5 6 
#
# 1 38.7613 8.4340 7.2317 0.0000 0.0000 0.0000
# 2 8.4340 115.0514 41.9405 0.0000 0.0000 0.0000
# 3 7.2317 41.9405 88.0990 0.0000 0.0000 0.0000
# 4 0.0000 0.0000 0.0000 23.4377 0.0000 0.0000
# 5 0.0000 0.0000 0.0000 0.0000 8.2332 0.0000
# 6 0.0000 0.0000 0.0000 0.0000 0.0000 24.3637
#
#
#
# Elastic Compliance Matrix: (Units=1/GPa)
#
#
# Indices 1 2 3 4 5 6 
#
# 1 0.026381 -0.001385 -0.001506 0.000000 0.000000 0.000000
# 2 -0.001385 0.010590 -0.004928 0.000000 0.000000 0.000000
# 3 -0.001506 -0.004928 0.013820 0.000000 0.000000 0.000000
# 4 0.000000 0.000000 0.000000 0.042666 0.000000 0.000000
# 5 0.000000 0.000000 0.000000 0.000000 0.121459 0.000000
# 6 0.000000 0.000000 0.000000 0.000000 0.000000 0.041045
#
#
# Mechanical properties :
#
#
# Convention : Reuss Voigt Hill
#
# Bulk Modulus (GPa) = 28.44643 39.68046 34.06345
# Shear Modulus (GPa) = 17.64812 23.49398 20.57105
#
# Velocity S-wave (km/s) = 2.93420 3.38547 3.16788
# Velocity P-wave (km/s) = 5.03556 5.88556 5.47707
#
# Compressibility (1/GPa) = 0.03515379
#
# Stress axis : x y z
#
# Youngs Moduli (GPa) = 37.90567 94.43247 72.35706
#
# Poissons Ratio (x) = 0.13077 0.10899
# Poissons Ratio (y) = 0.05249 0.35655
# Poissons Ratio (z) = 0.05710 0.46533
#
# Static dielectric constant tensor:
#      x y z
#    x 3.528910 0.000000 0.000000 
#    y 0.000000 3.717010 0.000000 
#    z 0.000000 0.000000 3.952890 
# 
# 
# High freq. dielectric constant tensor:
#      x y z
#    x 1.787830 0.000000 0.000000 
#    y 0.000000 1.796930 0.000000 
#    z 0.000000 0.000000 1.807230 
# 
# From -- ./inp_files/19675.got.cif
#   From: 2010.03.12/outbox.cif.g09.slc.cpg/sg46_10_cif.got.tgz:19675.got - 2010.04.14 02:56:35.
