data_PCOD8192335
_publ_section_title
;
Structure prediction by ZEFSAII (Michael W. Deem and Ramdas Pophale) SiO2 
 PCOD8192335
Probable space group: I M A 2
;
_chemical_formula_sum "Si O2"
_cell_formula_units_Z 64
_cell_length_a 8.812024
_cell_length_b 14.705545
_cell_length_c 27.283007
_cell_angle_alpha 90.000000
_cell_angle_beta 90.000000
_cell_angle_gamma 90.000000
_cell_volume 3535.485254
_symmetry_space_group_name_H-M "I M A 2"
_symmetry_group_IT_number 46
_symmetry_cell_setting 'orthorhombic'
loop_
_space_group_symop_operation_xyz
x,y,z
-x,-y,z
1/2-x,y,z
1/2+x,-y,z
1/2+x,1/2+y,1/2+z
1/2-x,1/2-y,1/2+z
-x,1/2+y,1/2+z
x,1/2-y,1/2+z
loop_
_atom_site_type_symbol
_atom_site_label
_atom_site_fract_x
_atom_site_fract_y
_atom_site_fract_z
Si Si1 0.425821 0.719740 0.523610
Si Si2 0.571381 0.285278 0.792725
Si Si3 0.428109 0.592424 0.980092
Si Si4 0.069241 0.095130 0.375440
Si Si5 0.426567 0.908645 0.827398
Si Si6 0.428806 0.907707 0.937436
Si Si7 0.071132 0.405246 0.712612
Si Si8 0.926686 0.906370 0.099683
O O1 0.250000 0.699359 0.533033
O O2 0.457116 0.827482 0.519229
O O3 0.480702 0.673831 0.472864
O O4 0.517158 0.680380 0.569404
O O5 0.750000 0.305142 0.797095
O O6 0.485910 0.327400 0.838943
O O7 0.536769 0.177370 0.793012
O O8 0.505434 0.323504 0.742213
O O9 0.500000 0.500000 0.001980
O O10 0.250000 0.578813 0.969752
O O11 0.508788 0.618334 0.929370
O O12 0.250000 0.089289 0.375598
O O13 0.000000 0.000000 0.356912
O O14 0.250000 0.927235 0.830333
O O15 0.489615 0.888909 0.882396
O O16 0.500000 0.000000 0.804981
O O17 0.250000 0.917842 0.937629
O O18 0.500000 0.000000 0.958649
O O19 0.250000 0.407392 0.722557
O O20 0.030077 0.388602 0.656058
O O21 0.000000 0.500000 0.731029
O O22 0.750000 0.917759 0.092380
O O23 0.000000 0.000000 0.080436
#
# Coordination Sequence:
#
# PCOD8192335 Si02
#       8
#     8   8   8   8   8   8   8   8
#     4  10  20  33  52  75 102 135 171 210 253 300
#     4  11  21  34  53  76 102 135 172 212 256 305
#     4  10  20  35  52  73 103 138 174 215 256 298
#     4  11  21  33  50  74 105 140 174 211 252 301
#     4   9  19  34  51  71 100 135 170 207 248 291
#     4   9  17  30  46  69 100 132 163 198 239 287
#     4  10  21  37  55  78 105 133 164 205 254 307
#     4  10  21  36  55  78 106 134 164 204 253 307
#
# _framework density 18.102181999999999
#
# number of rings (size 3 to 8) (size 9 to 14) (size 15 to 20)
#    0.000    2.000    0.000    4.875    0.000    7.000 
#    0.000    2.500    0.000    0.750    0.000    0.000 
#    0.000    0.000    0.000    0.000    0.000    0.000 
#
# Total GULP energy -396854.366014 kJ/mol
# GULP energy per Si atom -12401.698938 kJ/mol
# Density = 1.806098 g / cm^3
# Si number density = 18.102182 Si / 1000 Ang^3
#
#
#
# Elastic Constant Matrix: (Units=GPa)
#
#
# Indices 1 2 3 4 5 6 
#
# 1 93.7270 57.0093 41.8085 0.0000 0.0000 0.0000
# 2 57.0093 134.8650 61.6072 0.0000 0.0000 0.0000
# 3 41.8085 61.6072 74.2576 0.0000 0.0000 0.0000
# 4 0.0000 0.0000 0.0000 29.3328 0.0000 0.0000
# 5 0.0000 0.0000 0.0000 0.0000 28.8474 0.0000
# 6 0.0000 0.0000 0.0000 0.0000 0.0000 32.7401
#
#
#
# Elastic Compliance Matrix: (Units=1/GPa)
#
#
# Indices 1 2 3 4 5 6 
#
# 1 0.015567 -0.004149 -0.005322 0.000000 0.000000 0.000000
# 2 -0.004149 0.013046 -0.008487 0.000000 0.000000 0.000000
# 3 -0.005322 -0.008487 0.023505 0.000000 0.000000 0.000000
# 4 0.000000 0.000000 0.000000 0.034092 0.000000 0.000000
# 5 0.000000 0.000000 0.000000 0.000000 0.034665 0.000000
# 6 0.000000 0.000000 0.000000 0.000000 0.000000 0.030544
#
#
# Mechanical properties :
#
#
# Convention : Reuss Voigt Hill
#
# Bulk Modulus (GPa) = 61.72817 69.29993 65.51405
# Shear Modulus (GPa) = 25.94236 27.67904 26.81070
#
# Velocity S-wave (km/s) = 3.78975 3.91454 3.85265
# Velocity P-wave (km/s) = 7.30229 7.66794 7.48735
#
# Compressibility (1/GPa) = 0.01620006
#
# Stress axis : x y z
#
# Youngs Moduli (GPa) = 64.23801 76.65333 42.54500
#
# Poissons Ratio (x) = 0.31805 0.22644
# Poissons Ratio (y) = 0.26654 0.36109
# Poissons Ratio (z) = 0.34189 0.65057
#
# Static dielectric constant tensor:
#      x y z
#    x 3.395290 0.000000 0.000000 
#    y 0.000000 3.370210 0.000000 
#    z 0.000000 0.000000 3.197740 
# 
# 
# High freq. dielectric constant tensor:
#      x y z
#    x 1.709730 0.000000 0.000000 
#    y 0.000000 1.701980 0.000000 
#    z 0.000000 0.000000 1.677260 
# 
# From -- ./inp_files/23215.got.cif
#   From: 2010.03.12/outbox.cif.g09.slc.cpg/sg46_12_cif.got.tgz:23215.got - 2010.04.14 02:56:35.
