data_PCOD8192727
_publ_section_title
;
Structure prediction by ZEFSAII (Michael W. Deem and Ramdas Pophale) SiO2 
 PCOD8192727
Probable space group: I M A 2
;
_chemical_formula_sum "Si O2"
_cell_formula_units_Z 64
_cell_length_a 18.404965
_cell_length_b 13.275963
_cell_length_c 12.981140
_cell_angle_alpha 90.000000
_cell_angle_beta 90.000000
_cell_angle_gamma 90.000000
_cell_volume 3171.858926
_symmetry_space_group_name_H-M "I M A 2"
_symmetry_group_IT_number 46
_symmetry_cell_setting 'orthorhombic'
loop_
_space_group_symop_operation_xyz
x,y,z
-x,-y,z
1/2-x,y,z
1/2+x,-y,z
1/2+x,1/2+y,1/2+z
1/2-x,1/2-y,1/2+z
-x,1/2+y,1/2+z
x,1/2-y,1/2+z
loop_
_atom_site_type_symbol
_atom_site_label
_atom_site_fract_x
_atom_site_fract_y
_atom_site_fract_z
Si Si1 0.834030 0.880914 0.016500
Si Si2 0.170056 0.568372 0.645515
Si Si3 0.937291 0.280779 0.992736
Si Si4 0.413775 0.880178 0.843552
Si Si5 0.415812 0.393581 0.316871
Si Si6 0.169452 0.800136 0.654004
Si Si7 0.538226 0.099307 0.287521
Si Si8 0.937361 0.759234 0.148021
O O1 0.750000 0.854462 0.001207
O O2 0.866627 0.818562 0.111186
O O3 0.846781 0.999444 0.044277
O O4 0.876980 0.843579 0.915013
O O5 0.250000 0.534932 0.688069
O O6 0.173642 0.685201 0.617451
O O7 0.109352 0.555440 0.731911
O O8 0.907415 0.168108 0.958871
O O9 0.943638 0.335707 0.885595
O O10 0.880463 0.345148 0.062690
O O11 0.013965 0.278204 0.052074
O O12 0.498522 0.886767 0.823316
O O13 0.371245 0.808256 0.763176
O O14 0.383555 0.992481 0.821894
O O15 0.400432 0.333106 0.211576
O O16 0.250000 0.849077 0.658798
O O17 0.489092 0.167337 0.213238
O O18 0.500000 0.000000 0.328569
#
# Coordination Sequence:
#
# PCOD8192727 Si02
#       8
#     8   8   8   8   8   8   8   8
#     4  11  24  40  65  94 122 164 214 265 321 369
#     4  10  20  38  61  91 128 161 201 259 319 373
#     4  12  21  39  61  95 125 162 211 251 315 374
#     4  11  22  38  64  94 121 164 209 260 304 377
#     4  11  23  39  66  94 123 161 214 261 309 367
#     4  11  23  39  61  92 132 166 200 256 323 378
#     4  12  23  37  64  94 123 164 211 259 309 374
#     4  12  22  42  64  92 126 164 209 264 307 371
#
# _framework density 20.177444000000001
#
# number of rings (size 3 to 8) (size 9 to 14) (size 15 to 20)
#    0.000    0.750    7.500    0.750    0.000    3.000 
#    0.000    0.000    0.000    0.000    0.000    0.000 
#    0.000    0.000    0.000    0.000    0.000    0.000 
#
# Total GULP energy -396460.188803 kJ/mol
# GULP energy per Si atom -12389.380900 kJ/mol
# Density = 2.013152 g / cm^3
# Si number density = 20.177444 Si / 1000 Ang^3
#
#
#
# Elastic Constant Matrix: (Units=GPa)
#
#
# Indices 1 2 3 4 5 6 
#
# 1 89.0114 30.6663 39.1145 0.0000 0.0000 0.0000
# 2 30.6663 61.5293 31.2470 0.0000 0.0000 0.0000
# 3 39.1145 31.2470 102.4619 0.0000 0.0000 0.0000
# 4 0.0000 0.0000 0.0000 21.6649 0.0000 0.0000
# 5 0.0000 0.0000 0.0000 0.0000 27.9846 0.0000
# 6 0.0000 0.0000 0.0000 0.0000 0.0000 20.4977
#
#
#
# Elastic Compliance Matrix: (Units=1/GPa)
#
#
# Indices 1 2 3 4 5 6 
#
# 1 0.014853 -0.005352 -0.004038 0.000000 0.000000 0.000000
# 2 -0.005352 0.021159 -0.004410 0.000000 0.000000 0.000000
# 3 -0.004038 -0.004410 0.012646 0.000000 0.000000 0.000000
# 4 0.000000 0.000000 0.000000 0.046158 0.000000 0.000000
# 5 0.000000 0.000000 0.000000 0.000000 0.035734 0.000000
# 6 0.000000 0.000000 0.000000 0.000000 0.000000 0.048786
#
#
# Mechanical properties :
#
#
# Convention : Reuss Voigt Hill
#
# Bulk Modulus (GPa) = 47.48584 50.56203 49.02393
# Shear Modulus (GPa) = 23.36948 24.16108 23.76528
#
# Velocity S-wave (km/s) = 3.40692 3.46414 3.43565
# Velocity P-wave (km/s) = 6.24991 6.41198 6.33146
#
# Compressibility (1/GPa) = 0.02105891
#
# Stress axis : x y z
#
# Youngs Moduli (GPa) = 67.32751 47.26053 79.07681
#
# Poissons Ratio (x) = 0.25294 0.31930
# Poissons Ratio (y) = 0.36034 0.34870
# Poissons Ratio (z) = 0.27186 0.20840
#
# Static dielectric constant tensor:
#      x y z
#    x 3.911250 0.000000 0.000000 
#    y 0.000000 4.043320 0.000000 
#    z 0.000000 0.000000 3.693960 
# 
# 
# High freq. dielectric constant tensor:
#      x y z
#    x 1.787350 0.000000 0.000000 
#    y 0.000000 1.775200 0.000000 
#    z 0.000000 0.000000 1.787510 
# 
# From -- ./inp_files/11971.got.cif
#   From: 2010.03.12/outbox.cif.g09.slc.cpg/sg46_6_cif.got.tgz:11971.got - 2010.04.14 02:56:35.
