data_PCOD8192848
_publ_section_title
;
Structure prediction by ZEFSAII (Michael W. Deem and Ramdas Pophale) SiO2 
 PCOD8192848
Probable space group: I M A 2
;
_chemical_formula_sum "Si O2"
_cell_formula_units_Z 48
_cell_length_a 9.170603
_cell_length_b 18.528839
_cell_length_c 14.951384
_cell_angle_alpha 90.000000
_cell_angle_beta 90.000000
_cell_angle_gamma 90.000000
_cell_volume 2540.548537
_symmetry_space_group_name_H-M "I M A 2"
_symmetry_group_IT_number 46
_symmetry_cell_setting 'orthorhombic'
loop_
_space_group_symop_operation_xyz
x,y,z
-x,-y,z
1/2-x,y,z
1/2+x,-y,z
1/2+x,1/2+y,1/2+z
1/2-x,1/2-y,1/2+z
-x,1/2+y,1/2+z
x,1/2-y,1/2+z
loop_
_atom_site_type_symbol
_atom_site_label
_atom_site_fract_x
_atom_site_fract_y
_atom_site_fract_z
Si Si1 0.420523 0.426833 0.595800
Si Si2 0.079721 0.574946 0.061819
Si Si3 0.579932 0.341007 0.239271
Si Si4 0.918482 0.694046 0.730917
Si Si5 0.416496 0.316467 0.935533
Si Si6 0.419371 0.347657 0.417398
O O1 0.500000 0.500000 0.620107
O O2 0.250000 0.438798 0.608424
O O3 0.477987 0.366758 0.664386
O O4 0.458999 0.403408 0.495162
O O5 0.250000 0.563877 0.044298
O O6 0.048464 0.600368 0.162784
O O7 0.000000 0.500000 0.043540
O O8 0.023582 0.634812 0.992996
O O9 0.750000 0.328040 0.253783
O O10 0.508533 0.265789 0.210818
O O11 0.511749 0.370804 0.331131
O O12 0.750000 0.712590 0.711656
O O13 0.939658 0.665201 0.831330
O O14 0.250000 0.331370 0.964961
O O15 0.458009 0.232768 0.951199
O O16 0.250000 0.350169 0.390162
#
# Coordination Sequence:
#
# PCOD8192848 Si02
#       6
#     8   8   8   8   8   8
#     4  10  21  36  54  79 111 145 179 215 260 315
#     4  11  24  38  53  77 109 144 179 218 267 318
#     4  10  21  36  56  82 107 135 177 226 269 309
#     4   9  19  37  59  81 107 141 178 215 262 320
#     4   9  18  35  59  82 103 134 178 223 265 313
#     4   9  19  36  58  81 106 141 179 215 263 319
#
# _framework density 18.893557000000001
#
# number of rings (size 3 to 8) (size 9 to 14) (size 15 to 20)
#    0.000    2.333    0.000    3.000    0.000    9.333 
#    0.000    5.000    0.000    0.000    0.000    0.000 
#    0.000    0.000    0.000    0.000    0.000    0.000 
#
# Total GULP energy -297685.216501 kJ/mol
# GULP energy per Si atom -12403.550688 kJ/mol
# Density = 1.885055 g / cm^3
# Si number density = 18.893557 Si / 1000 Ang^3
#
#
#
# Elastic Constant Matrix: (Units=GPa)
#
#
# Indices 1 2 3 4 5 6 
#
# 1 71.6450 22.9773 28.8840 0.0000 0.0000 0.0000
# 2 22.9773 41.6641 10.1120 0.0000 0.0000 0.0000
# 3 28.8840 10.1120 44.9063 0.0000 0.0000 0.0000
# 4 0.0000 0.0000 0.0000 18.4994 0.0000 0.0000
# 5 0.0000 0.0000 0.0000 0.0000 30.4806 0.0000
# 6 0.0000 0.0000 0.0000 0.0000 0.0000 32.8758
#
#
#
# Elastic Compliance Matrix: (Units=1/GPa)
#
#
# Indices 1 2 3 4 5 6 
#
# 1 0.021656 -0.009057 -0.011890 0.000000 0.000000 0.000000
# 2 -0.009057 0.029177 -0.000744 0.000000 0.000000 0.000000
# 3 -0.011890 -0.000744 0.030084 0.000000 0.000000 0.000000
# 4 0.000000 0.000000 0.000000 0.054056 0.000000 0.000000
# 5 0.000000 0.000000 0.000000 0.000000 0.032808 0.000000
# 6 0.000000 0.000000 0.000000 0.000000 0.000000 0.030418
#
#
# Mechanical properties :
#
#
# Convention : Reuss Voigt Hill
#
# Bulk Modulus (GPa) = 26.64252 31.35134 28.99693
# Shear Modulus (GPa) = 19.67794 22.78732 21.23263
#
# Velocity S-wave (km/s) = 3.23075 3.47665 3.35595
# Velocity P-wave (km/s) = 5.29613 5.72239 5.51338
#
# Compressibility (1/GPa) = 0.03753398
#
# Stress axis : x y z
#
# Youngs Moduli (GPa) = 46.17692 34.27337 33.24063
#
# Poissons Ratio (x) = 0.31043 0.39522
# Poissons Ratio (y) = 0.41824 0.02474
# Poissons Ratio (z) = 0.54903 0.02551
#
# Static dielectric constant tensor:
#      x y z
#    x 3.400230 0.000000 0.000000 
#    y 0.000000 3.369040 0.000000 
#    z 0.000000 0.000000 3.574160 
# 
# 
# High freq. dielectric constant tensor:
#      x y z
#    x 1.730400 0.000000 0.000000 
#    y 0.000000 1.728630 0.000000 
#    z 0.000000 0.000000 1.744600 
# 
# From -- ./inp_files/13885.got.cif
#   From: 2010.03.12/outbox.cif.g09.slc.cpg/sg46_7_cif.got.tgz:13885.got - 2010.04.14 02:56:35.
