data_PCOD8192207
_publ_section_title
;
Structure prediction by ZEFSAII (Michael W. Deem and Ramdas Pophale) SiO2 
 PCOD8192207
Probable space group: I M A 2
;
_chemical_formula_sum "Si O2"
_cell_formula_units_Z 60
_cell_length_a 9.749356
_cell_length_b 30.258090
_cell_length_c 10.607344
_cell_angle_alpha 90.000000
_cell_angle_beta 90.000000
_cell_angle_gamma 90.000000
_cell_volume 3129.133505
_symmetry_space_group_name_H-M "I M A 2"
_symmetry_group_IT_number 46
_symmetry_cell_setting 'orthorhombic'
loop_
_space_group_symop_operation_xyz
x,y,z
-x,-y,z
1/2-x,y,z
1/2+x,-y,z
1/2+x,1/2+y,1/2+z
1/2-x,1/2-y,1/2+z
-x,1/2+y,1/2+z
x,1/2-y,1/2+z
loop_
_atom_site_type_symbol
_atom_site_label
_atom_site_fract_x
_atom_site_fract_y
_atom_site_fract_z
Si Si1 0.594925 0.071184 0.050340
Si Si2 0.087019 0.720905 0.757296
Si Si3 0.895481 0.573422 0.896767
Si Si4 0.592645 0.389416 0.083562
Si Si5 0.593748 0.039350 0.779408
Si Si6 0.411260 0.791302 0.546557
Si Si7 0.000000 0.000000 0.237351
Si Si8 0.906991 0.860251 0.173361
O O1 0.750000 0.090687 0.044792
O O2 0.485088 0.110333 0.068857
O O3 0.590003 0.034379 0.158271
O O4 0.554816 0.045872 0.923894
O O5 0.250000 0.710589 0.746991
O O6 0.044562 0.762124 0.667687
O O7 0.997734 0.682739 0.695303
O O8 0.045343 0.727364 0.906507
O O9 0.750000 0.575922 0.969944
O O10 0.895295 0.527340 0.822965
O O11 0.904413 0.614548 0.803865
O O12 0.022158 0.576206 0.989772
O O13 0.750000 0.386900 0.043328
O O14 0.570717 0.412032 0.218963
O O15 0.526593 0.340340 0.073115
O O16 0.750000 0.024000 0.759416
O O17 0.500000 0.000000 0.722513
O O18 0.250000 0.795019 0.547688
O O19 0.750000 0.849521 0.128964
#
# Coordination Sequence:
#
# PCOD8192207 Si02
#       8
#     8   8   8   8   8   8   4   8
#     4  10  20  36  58  82 112 153 193 235 285 336
#     4  10  19  36  61  87 113 149 190 237 290 348
#     4  10  21  35  54  80 110 144 185 231 278 329
#     4  10  21  38  57  81 113 148 187 233 280 337
#     4  10  22  38  57  82 113 151 192 234 280 336
#     4   9  19  35  59  87 112 143 189 238 284 339
#     4  10  20  34  54  82 112 142 190 240 282 324
#     4  10  21  36  56  85 116 147 185 235 283 337
#
# _framework density 19.174636
#
# number of rings (size 3 to 8) (size 9 to 14) (size 15 to 20)
#    0.000    2.133    2.000    0.800    0.933    5.333 
#    0.000    5.333    0.000    0.000    0.000    0.000 
#    0.000    0.000    0.000    0.000    0.000    0.000 
#
# Total GULP energy -371734.606652 kJ/mol
# GULP energy per Si atom -12391.153555 kJ/mol
# Density = 1.913099 g / cm^3
# Si number density = 19.174636 Si / 1000 Ang^3
#
#
#
# Elastic Constant Matrix: (Units=GPa)
#
#
# Indices 1 2 3 4 5 6 
#
# 1 87.3744 46.1565 36.1525 0.0000 0.0004 0.0000
# 2 46.1565 118.4540 64.0781 0.0014 0.0002 -0.0003
# 3 36.1525 64.0781 87.7940 0.0001 0.0006 -0.0007
# 4 0.0000 0.0014 0.0001 14.3743 -0.0005 -0.0002
# 5 0.0004 0.0002 0.0006 -0.0005 26.2602 0.0001
# 6 0.0000 -0.0003 -0.0007 -0.0002 0.0001 22.7860
#
#
#
# Elastic Compliance Matrix: (Units=1/GPa)
#
#
# Indices 1 2 3 4 5 6 
#
# 1 0.014918 -0.004114 -0.003140 0.000000 0.000000 0.000000
# 2 -0.004114 0.015084 -0.009316 -0.000001 0.000000 0.000000
# 3 -0.003140 -0.009316 0.019482 0.000001 0.000000 0.000000
# 4 0.000000 -0.000001 0.000001 0.069569 0.000001 0.000001
# 5 0.000000 0.000000 0.000000 0.000001 0.038080 0.000000
# 6 0.000000 0.000000 0.000000 0.000001 0.000000 0.043887
#
#
# Mechanical properties :
#
#
# Convention : Reuss Voigt Hill
#
# Bulk Modulus (GPa) = 61.18076 65.15518 63.16797
# Shear Modulus (GPa) = 20.86741 22.49979 21.68360
#
# Velocity S-wave (km/s) = 3.30249 3.42923 3.36646
# Velocity P-wave (km/s) = 6.82043 7.05217 6.93727
#
# Compressibility (1/GPa) = 0.01634501
#
# Stress axis : x y z
#
# Youngs Moduli (GPa) = 67.03497 66.29343 51.32819
#
# Poissons Ratio (x) = 0.27274 0.16118
# Poissons Ratio (y) = 0.27579 0.47815
# Poissons Ratio (z) = 0.21050 0.61756
#
# Static dielectric constant tensor:
#      x y z
#    x 3.470110 0.000000 0.000000 
#    y 0.000000 3.696160 0.000000 
#    z 0.000000 0.000000 3.587350 
# 
# 
# High freq. dielectric constant tensor:
#      x y z
#    x 1.732580 0.000000 0.000000 
#    y 0.000000 1.743930 0.000000 
#    z 0.000000 0.000000 1.739950 
# 
# From -- ./inp_files/9523.got.cif
#   From: 2010.03.12/outbox.cif.g09.slc.cpg/sg46_5_cif.got.tgz:9523.got - 2010.04.14 02:56:35.
