data_PCOD8192563
_publ_section_title
;
Structure prediction by ZEFSAII (Michael W. Deem and Ramdas Pophale) SiO2 
 PCOD8192563
Probable space group: I M A 2
;
_chemical_formula_sum "Si O2"
_cell_formula_units_Z 64
_cell_length_a 9.091302
_cell_length_b 24.065473
_cell_length_c 14.651280
_cell_angle_alpha 90.000000
_cell_angle_beta 90.000000
_cell_angle_gamma 90.000000
_cell_volume 3205.502020
_symmetry_space_group_name_H-M "I M A 2"
_symmetry_group_IT_number 46
_symmetry_cell_setting 'orthorhombic'
loop_
_space_group_symop_operation_xyz
x,y,z
-x,-y,z
1/2-x,y,z
1/2+x,-y,z
1/2+x,1/2+y,1/2+z
1/2-x,1/2-y,1/2+z
-x,1/2+y,1/2+z
x,1/2-y,1/2+z
loop_
_atom_site_type_symbol
_atom_site_label
_atom_site_fract_x
_atom_site_fract_y
_atom_site_fract_z
Si Si1 0.575726 0.557656 0.811600
Si Si2 0.075820 0.385238 0.194559
Si Si3 0.075424 0.556541 0.355989
Si Si4 0.580316 0.155322 0.984984
Si Si5 0.923499 0.881251 0.490342
Si Si6 0.412244 0.261430 0.980992
Si Si7 0.921681 0.152708 0.198158
Si Si8 0.087548 0.239713 0.697132
O O1 0.500000 0.500000 0.785280
O O2 0.750000 0.552850 0.797798
O O3 0.534434 0.572022 0.916681
O O4 0.514025 0.604858 0.746135
O O5 0.250000 0.395930 0.204399
O O6 0.035147 0.322196 0.224615
O O7 0.985207 0.427331 0.256706
O O8 0.019614 0.397542 0.091046
O O9 0.250000 0.549226 0.351532
O O10 0.024574 0.601787 0.430224
O O11 0.000000 0.500000 0.388558
O O12 0.750000 0.165120 0.968362
O O13 0.504869 0.210053 0.942235
O O14 0.544677 0.146403 0.091078
O O15 0.750000 0.871910 0.498288
O O16 0.986641 0.821173 0.456682
O O17 0.250000 0.256238 0.937748
O O18 0.404350 0.257571 0.089121
O O19 0.750000 0.146259 0.220745
O O20 0.976060 0.213173 0.234149
O O21 0.250000 0.251894 0.737532
#
# Coordination Sequence:
#
# PCOD8192563 Si02
#       8
#     8   8   8   8   8   8   8   8
#     4  11  23  39  56  77 107 142 184 228 269 317
#     4   9  18  36  60  84 111 143 178 217 264 317
#     4  11  24  40  55  76 106 141 185 229 270 318
#     4   9  20  37  55  78 110 142 173 218 271 319
#     4   8  17  35  58  82 110 142 175 215 262 316
#     4   8  14  29  55  83 107 136 175 213 257 318
#     4  10  20  36  57  81 110 143 179 221 269 318
#     4   8  15  30  54  83 112 141 174 213 262 321
#
# _framework density 19.965671
#
# number of rings (size 3 to 8) (size 9 to 14) (size 15 to 20)
#    0.000    2.750    0.000    2.625    0.000    4.000 
#    0.000   10.625    0.000    0.000    0.000    0.000 
#    0.000    0.000    0.000    0.000    0.000    0.000 
#
# Total GULP energy -396694.460984 kJ/mol
# GULP energy per Si atom -12396.701906 kJ/mol
# Density = 1.992023 g / cm^3
# Si number density = 19.965671 Si / 1000 Ang^3
#
#
#
# Elastic Constant Matrix: (Units=GPa)
#
#
# Indices 1 2 3 4 5 6 
#
# 1 62.1474 25.9141 10.8392 0.0000 0.0000 0.0000
# 2 25.9141 77.0218 -2.8052 0.0000 0.0000 0.0000
# 3 10.8392 -2.8052 28.5059 0.0001 0.0000 0.0000
# 4 0.0000 0.0000 0.0001 31.4210 0.0000 0.0000
# 5 0.0000 0.0000 0.0000 0.0000 18.3817 0.0000
# 6 0.0000 0.0000 0.0000 0.0000 0.0000 33.8293
#
#
#
# Elastic Compliance Matrix: (Units=1/GPa)
#
#
# Indices 1 2 3 4 5 6 
#
# 1 0.020601 -0.007243 -0.008546 0.000000 0.000000 0.000000
# 2 -0.007243 0.015576 0.004287 0.000000 0.000000 0.000000
# 3 -0.008546 0.004287 0.038752 0.000000 0.000000 0.000000
# 4 0.000000 0.000000 0.000000 0.031826 0.000000 0.000000
# 5 0.000000 0.000000 0.000000 0.000000 0.054402 0.000000
# 6 0.000000 0.000000 0.000000 0.000000 0.000000 0.029560
#
#
# Mechanical properties :
#
#
# Convention : Reuss Voigt Hill
#
# Bulk Modulus (GPa) = 19.25837 26.17458 22.71648
# Shear Modulus (GPa) = 21.64217 25.64153 23.64185
#
# Velocity S-wave (km/s) = 3.29594 3.58757 3.44484
# Velocity P-wave (km/s) = 4.91436 5.50447 5.21777
#
# Compressibility (1/GPa) = 0.05192546
#
# Stress axis : x y z
#
# Youngs Moduli (GPa) = 48.54047 64.20020 25.80509
#
# Poissons Ratio (x) = 0.46498 0.22054
# Poissons Ratio (y) = 0.35156 -0.11062
# Poissons Ratio (z) = 0.41484 -0.27521
#
# Static dielectric constant tensor:
#      x y z
#    x 3.539690 0.000000 0.000000 
#    y 0.000000 3.908800 0.000000 
#    z 0.000000 0.000000 3.605590 
# 
# 
# High freq. dielectric constant tensor:
#      x y z
#    x 1.760520 0.000000 0.000000 
#    y 0.000000 1.783780 0.000000 
#    z 0.000000 0.000000 1.774520 
# 
# From -- ./inp_files/14532.got.cif
#   From: 2010.03.12/outbox.cif.g09.slc.cpg/sg46_8_cif.got.tgz:14532.got - 2010.04.14 02:56:35.
