data_PCOD8192400
_publ_section_title
;
Structure prediction by ZEFSAII (Michael W. Deem and Ramdas Pophale) SiO2 
 PCOD8192400
Probable space group: I M A 2
;
_chemical_formula_sum "Si O2"
_cell_formula_units_Z 40
_cell_length_a 20.569538
_cell_length_b 19.346214
_cell_length_c 5.303939
_cell_angle_alpha 90.000000
_cell_angle_beta 90.000000
_cell_angle_gamma 90.000000
_cell_volume 2110.663722
_symmetry_space_group_name_H-M "I M A 2"
_symmetry_group_IT_number 46
_symmetry_cell_setting 'orthorhombic'
loop_
_space_group_symop_operation_xyz
x,y,z
-x,-y,z
1/2-x,y,z
1/2+x,-y,z
1/2+x,1/2+y,1/2+z
1/2-x,1/2-y,1/2+z
-x,1/2+y,1/2+z
x,1/2-y,1/2+z
loop_
_atom_site_type_symbol
_atom_site_label
_atom_site_fract_x
_atom_site_fract_y
_atom_site_fract_z
Si Si1 0.676083 0.058949 0.041360
Si Si2 0.872483 0.931313 0.288153
Si Si3 0.572598 0.974788 0.797009
Si Si4 0.826708 0.286120 0.655533
Si Si5 0.324458 0.218061 0.277412
O O1 0.750000 0.061540 0.934525
O O2 0.671486 0.000730 0.261859
O O3 0.655351 0.132932 0.152936
O O4 0.625004 0.038032 0.820420
O O5 0.911287 0.930587 0.549647
O O6 0.827143 0.864563 0.279647
O O7 0.922443 0.927953 0.050192
O O8 0.500000 0.000000 0.766650
O O9 0.750000 0.274903 0.656447
O O10 0.856534 0.251728 0.908280
O O11 0.250000 0.242370 0.275922
O O12 0.358546 0.249540 0.026639
#
# Coordination Sequence:
#
# PCOD8192400 Si02
#       5
#     8   8   8   8   8
#     4   9  21  35  59  89 113 141 189 241 280 334
#     4  10  21  36  59  83 112 149 198 237 278 342
#     4  10  22  38  59  84 112 154 191 239 290 342
#     4   9  18  31  49  76 113 145 170 215 282 336
#     4  10  20  34  54  84 122 155 186 236 302 350
#
# _framework density 18.951384999999998
#
# number of rings (size 3 to 8) (size 9 to 14) (size 15 to 20)
#    1.200    1.200    0.000    2.400    2.800    1.600 
#    0.000    0.000    0.000    7.200    0.000    0.000 
#    0.000    0.000    0.000    0.000    0.000    0.000 
#
# Total GULP energy -247805.100637 kJ/mol
# GULP energy per Si atom -12390.255032 kJ/mol
# Density = 1.890825 g / cm^3
# Si number density = 18.951385 Si / 1000 Ang^3
#
#
#
# Elastic Constant Matrix: (Units=GPa)
#
#
# Indices 1 2 3 4 5 6 
#
# 1 53.8311 14.7215 10.0438 0.0000 0.0000 0.0000
# 2 14.7215 141.7894 57.9123 0.0000 0.0000 0.0000
# 3 10.0438 57.9123 161.1419 0.0000 0.0000 0.0000
# 4 0.0000 0.0000 0.0000 24.3813 0.0000 0.0000
# 5 0.0000 0.0000 0.0000 0.0000 3.4130 0.0000
# 6 0.0000 0.0000 0.0000 0.0000 0.0000 10.7920
#
#
#
# Elastic Compliance Matrix: (Units=1/GPa)
#
#
# Indices 1 2 3 4 5 6 
#
# 1 0.019163 -0.001760 -0.000562 0.000000 0.000000 0.000000
# 2 -0.001760 0.008428 -0.002919 0.000000 0.000000 0.000000
# 3 -0.000562 -0.002919 0.007290 0.000000 0.000000 0.000000
# 4 0.000000 0.000000 0.000000 0.041015 0.000000 0.000000
# 5 0.000000 0.000000 0.000000 0.000000 0.292994 0.000000
# 6 0.000000 0.000000 0.000000 0.000000 0.000000 0.092661
#
#
# Mechanical properties :
#
#
# Convention : Reuss Voigt Hill
#
# Bulk Modulus (GPa) = 40.98663 58.01308 49.49985
# Shear Modulus (GPa) = 10.41309 25.98960 18.20134
#
# Velocity S-wave (km/s) = 2.34661 3.70724 3.10243
# Velocity P-wave (km/s) = 5.38668 7.00020 6.24576
#
# Compressibility (1/GPa) = 0.02439820
#
# Stress axis : x y z
#
# Youngs Moduli (GPa) = 52.18447 118.65576 137.17760
#
# Poissons Ratio (x) = 0.20885 0.07707
# Poissons Ratio (y) = 0.09185 0.40044
# Poissons Ratio (z) = 0.02932 0.34637
#
# Static dielectric constant tensor:
#      x y z
#    x 2.971950 0.000000 0.000000 
#    y 0.000000 3.335890 0.000000 
#    z 0.000000 0.000000 3.825850 
# 
# 
# High freq. dielectric constant tensor:
#      x y z
#    x 1.681870 0.000000 0.000000 
#    y 0.000000 1.733220 0.000000 
#    z 0.000000 0.000000 1.748020 
# 
# From -- ./inp_files/1989.got.cif
#   From: 2010.03.12/outbox.cif.g09.slc.cpg/sg46_1_cif.got.tgz:1989.got - 2010.04.14 02:56:35.
