data_PCOD8192271
_publ_section_title
;
Structure prediction by ZEFSAII (Michael W. Deem and Ramdas Pophale) SiO2 
 PCOD8192271
Probable space group: I M A 2
;
_chemical_formula_sum "Si O2"
_cell_formula_units_Z 40
_cell_length_a 9.270729
_cell_length_b 20.377969
_cell_length_c 12.535129
_cell_angle_alpha 90.000000
_cell_angle_beta 90.000000
_cell_angle_gamma 90.000000
_cell_volume 2368.119375
_symmetry_space_group_name_H-M "I M A 2"
_symmetry_group_IT_number 46
_symmetry_cell_setting 'orthorhombic'
loop_
_space_group_symop_operation_xyz
x,y,z
-x,-y,z
1/2-x,y,z
1/2+x,-y,z
1/2+x,1/2+y,1/2+z
1/2-x,1/2-y,1/2+z
-x,1/2+y,1/2+z
x,1/2-y,1/2+z
loop_
_atom_site_type_symbol
_atom_site_label
_atom_site_fract_x
_atom_site_fract_y
_atom_site_fract_z
Si Si1 0.582815 0.668958 0.222120
Si Si2 0.914045 0.156272 0.379863
Si Si3 0.085478 0.807710 0.922474
Si Si4 0.917899 0.567667 0.038373
Si Si5 0.916237 0.203872 0.156170
O O1 0.750000 0.683821 0.237697
O O2 0.514546 0.654172 0.338333
O O3 0.554969 0.606646 0.147598
O O4 0.512366 0.731815 0.167449
O O5 0.750000 0.135461 0.406365
O O6 0.944028 0.230057 0.418119
O O7 0.944193 0.152716 0.252267
O O8 0.022901 0.107404 0.437092
O O9 0.250000 0.823349 0.891770
O O10 0.049035 0.831153 0.043074
O O11 0.750000 0.554675 0.018137
O O12 0.000000 0.500000 0.049845
O O13 0.750000 0.227771 0.158639
#
# Coordination Sequence:
#
# PCOD8192271 Si02
#       5
#     8   8   8   8   8
#     4  10  20  31  46  73 104 130 164 208 253 295
#     4   9  17  30  50  74 101 130 165 205 244 294
#     4   9  17  30  51  75 102 134 164 198 244 302
#     4  11  23  36  51  71  99 135 172 210 249 293
#     4   9  17  31  51  75 102 133 164 199 246 300
#
# _framework density 16.891038999999999
#
# number of rings (size 3 to 8) (size 9 to 14) (size 15 to 20)
#    0.000    2.400    2.000    2.400    0.000    6.400 
#    0.000    0.000    0.000    1.200    0.000    2.800 
#    0.000    0.000    0.000    0.000    0.000    0.000 
#
# Total GULP energy -247970.977924 kJ/mol
# GULP energy per Si atom -12398.548896 kJ/mol
# Density = 1.685259 g / cm^3
# Si number density = 16.891039 Si / 1000 Ang^3
#
#
#
# Elastic Constant Matrix: (Units=GPa)
#
#
# Indices 1 2 3 4 5 6 
#
# 1 117.7230 58.6324 76.2260 0.0000 0.0000 0.0000
# 2 58.6324 64.6098 43.5657 0.0002 0.0000 0.0000
# 3 76.2260 43.5657 157.5340 0.0001 0.0000 0.0000
# 4 0.0000 0.0002 0.0001 17.2266 0.0000 0.0000
# 5 0.0000 0.0000 0.0000 0.0000 29.0267 0.0000
# 6 0.0000 0.0000 0.0000 0.0000 0.0000 24.0051
#
#
#
# Elastic Compliance Matrix: (Units=1/GPa)
#
#
# Indices 1 2 3 4 5 6 
#
# 1 0.018515 -0.013228 -0.005301 0.000000 0.000000 0.000000
# 2 -0.013228 0.028476 -0.001474 0.000000 0.000000 0.000000
# 3 -0.005301 -0.001474 0.009320 0.000000 0.000000 0.000000
# 4 0.000000 0.000000 0.000000 0.058050 0.000000 0.000000
# 5 0.000000 0.000000 0.000000 0.000000 0.034451 0.000000
# 6 0.000000 0.000000 0.000000 0.000000 0.000000 0.041658
#
#
# Mechanical properties :
#
#
# Convention : Reuss Voigt Hill
#
# Bulk Modulus (GPa) = 61.32966 77.41276 69.37121
# Shear Modulus (GPa) = 21.19450 24.81453 23.00452
#
# Velocity S-wave (km/s) = 3.54613 3.83703 3.69445
# Velocity P-wave (km/s) = 7.29071 8.09695 7.70439
#
# Compressibility (1/GPa) = 0.01630532
#
# Stress axis : x y z
#
# Youngs Moduli (GPa) = 54.01076 35.11777 107.29141
#
# Poissons Ratio (x) = 0.46453 0.56872
# Poissons Ratio (y) = 0.71444 0.15819
# Poissons Ratio (z) = 0.28629 0.05178
#
# Static dielectric constant tensor:
#      x y z
#    x 3.221040 0.000000 0.000000 
#    y 0.000000 2.738710 0.000000 
#    z 0.000000 0.000000 3.579690 
# 
# 
# High freq. dielectric constant tensor:
#      x y z
#    x 1.657550 0.000000 0.000000 
#    y 0.000000 1.598330 0.000000 
#    z 0.000000 0.000000 1.671200 
# 
# From -- ./inp_files/9033.got.cif
#   From: 2010.03.12/outbox.cif.g09.slc.cpg/sg46_5_cif.got.tgz:9033.got - 2010.04.14 02:56:35.
