data_PCOD8192648
_publ_section_title
;
Structure prediction by ZEFSAII (Michael W. Deem and Ramdas Pophale) SiO2 
 PCOD8192648
Probable space group: I M A 2
;
_chemical_formula_sum "Si O2"
_cell_formula_units_Z 40
_cell_length_a 17.046628
_cell_length_b 12.772694
_cell_length_c 8.567822
_cell_angle_alpha 90.000000
_cell_angle_beta 90.000000
_cell_angle_gamma 90.000000
_cell_volume 1865.483564
_symmetry_space_group_name_H-M "I M A 2"
_symmetry_group_IT_number 46
_symmetry_cell_setting 'orthorhombic'
loop_
_space_group_symop_operation_xyz
x,y,z
-x,-y,z
1/2-x,y,z
1/2+x,-y,z
1/2+x,1/2+y,1/2+z
1/2-x,1/2-y,1/2+z
-x,1/2+y,1/2+z
x,1/2-y,1/2+z
loop_
_atom_site_type_symbol
_atom_site_label
_atom_site_fract_x
_atom_site_fract_y
_atom_site_fract_z
Si Si1 0.519163 0.881110 0.252110
Si Si2 0.343121 0.877884 0.709809
Si Si3 0.158875 0.110504 0.738264
Si Si4 0.341943 0.314629 0.571589
Si Si5 0.568066 0.262560 0.480372
O O1 0.611306 0.876682 0.206895
O O2 0.499576 0.805887 0.397578
O O3 0.469775 0.841181 0.103728
O O4 0.500000 0.000000 0.295399
O O5 0.250000 0.871271 0.725734
O O6 0.370078 0.816358 0.557609
O O7 0.374637 0.997207 0.693113
O O8 0.382534 0.832195 0.862975
O O9 0.250000 0.100236 0.768983
O O10 0.140475 0.190802 0.598032
O O11 0.124198 0.153210 0.902425
O O12 0.250000 0.339678 0.595303
#
# Coordination Sequence:
#
# PCOD8192648 Si02
#       5
#     8   8   8   8   8
#     4  11  23  40  59  86 120 154 191 238 294 345
#     4  10  20  39  61  85 116 156 198 240 287 344
#     4   9  19  34  58  87 116 148 190 238 285 331
#     4  10  20  37  59  86 116 153 195 237 282 345
#     4  10  23  38  58  86 117 153 195 243 292 343
#
# _framework density 21.442160999999999
#
# number of rings (size 3 to 8) (size 9 to 14) (size 15 to 20)
#    0.000    2.000    0.000    3.000    0.000    3.200 
#    0.000   11.000    0.000    0.000    0.000    0.000 
#    0.000    0.000    0.000    0.000    0.000    0.000 
#
# Total GULP energy -247981.523400 kJ/mol
# GULP energy per Si atom -12399.076170 kJ/mol
# Density = 2.139336 g / cm^3
# Si number density = 21.442161 Si / 1000 Ang^3
#
#
#
# Elastic Constant Matrix: (Units=GPa)
#
#
# Indices 1 2 3 4 5 6 
#
# 1 60.8402 13.2897 -10.4155 0.0000 0.0000 0.0000
# 2 13.2897 118.8153 1.2663 0.0000 0.0000 0.0000
# 3 -10.4155 1.2663 20.6424 0.0000 0.0000 0.0000
# 4 0.0000 0.0000 0.0000 27.3576 0.0000 0.0000
# 5 0.0000 0.0000 0.0000 0.0000 26.8130 0.0000
# 6 0.0000 0.0000 0.0000 0.0000 0.0000 28.9694
#
#
#
# Elastic Compliance Matrix: (Units=1/GPa)
#
#
# Indices 1 2 3 4 5 6 
#
# 1 0.018535 -0.002174 0.009486 0.000000 0.000000 0.000000
# 2 -0.002174 0.008677 -0.001629 0.000000 0.000000 0.000000
# 3 0.009486 -0.001629 0.053330 0.000000 0.000000 0.000000
# 4 0.000000 0.000000 0.000000 0.036553 0.000000 0.000000
# 5 0.000000 0.000000 0.000000 0.000000 0.037295 0.000000
# 6 0.000000 0.000000 0.000000 0.000000 0.000000 0.034519
#
#
# Mechanical properties :
#
#
# Convention : Reuss Voigt Hill
#
# Bulk Modulus (GPa) = 10.88064 23.17545 17.02805
# Shear Modulus (GPa) = 24.01754 29.70516 26.86135
#
# Velocity S-wave (km/s) = 3.35043 3.72608 3.54324
# Velocity P-wave (km/s) = 4.47802 5.41696 4.96971
#
# Compressibility (1/GPa) = 0.09190632
#
# Stress axis : x y z
#
# Youngs Moduli (GPa) = 53.95102 115.24727 18.75117
#
# Poissons Ratio (x) = 0.25058 -0.17787
# Poissons Ratio (y) = 0.11731 0.03055
# Poissons Ratio (z) = -0.51176 0.18778
#
# Static dielectric constant tensor:
#      x y z
#    x 3.826260 0.000000 0.000000 
#    y 0.000000 4.125720 0.000000 
#    z 0.000000 0.000000 3.906400 
# 
# 
# High freq. dielectric constant tensor:
#      x y z
#    x 1.842500 0.000000 0.000000 
#    y 0.000000 1.846320 0.000000 
#    z 0.000000 0.000000 1.843870 
# 
# From -- ./inp_files/6365.got.cif
#   From: 2010.03.12/outbox.cif.g09.slc.cpg/sg46_4_cif.got.tgz:6365.got - 2010.04.14 02:56:35.
