data_PCOD8192686
_publ_section_title
;
Structure prediction by ZEFSAII (Michael W. Deem and Ramdas Pophale) SiO2 
 PCOD8192686
Probable space group: I M A 2
;
_chemical_formula_sum "Si O2"
_cell_formula_units_Z 64
_cell_length_a 8.729065
_cell_length_b 15.442029
_cell_length_c 23.644281
_cell_angle_alpha 90.000000
_cell_angle_beta 90.000000
_cell_angle_gamma 90.000000
_cell_volume 3187.118441
_symmetry_space_group_name_H-M "I M A 2"
_symmetry_group_IT_number 46
_symmetry_cell_setting 'orthorhombic'
loop_
_space_group_symop_operation_xyz
x,y,z
-x,-y,z
1/2-x,y,z
1/2+x,-y,z
1/2+x,1/2+y,1/2+z
1/2-x,1/2-y,1/2+z
-x,1/2+y,1/2+z
x,1/2-y,1/2+z
loop_
_atom_site_type_symbol
_atom_site_label
_atom_site_fract_x
_atom_site_fract_y
_atom_site_fract_z
Si Si1 0.929816 0.088028 0.610250
Si Si2 0.568900 0.409384 0.374842
Si Si3 0.929998 0.649198 0.996912
Si Si4 0.429187 0.750576 0.184189
Si Si5 0.070027 0.587604 0.605447
Si Si6 0.069256 0.348390 0.491127
Si Si7 0.569688 0.910466 0.374211
Si Si8 0.430334 0.255061 0.305136
O O1 0.750000 0.079750 0.611127
O O2 0.984781 0.168249 0.648070
O O3 0.982563 0.099516 0.546008
O O4 0.000000 0.000000 0.635746
O O5 0.500000 0.500000 0.353525
O O6 0.750000 0.415499 0.374466
O O7 0.512499 0.390213 0.437751
O O8 0.516580 0.336545 0.331117
O O9 0.750000 0.640130 0.007143
O O10 0.980751 0.748873 0.996119
O O11 0.982926 0.606011 0.938431
O O12 0.250000 0.744881 0.199688
O O13 0.467339 0.835657 0.148448
O O14 0.531781 0.753279 0.239560
O O15 0.250000 0.579106 0.594498
O O16 0.000000 0.500000 0.632253
O O17 0.984733 0.601820 0.546445
O O18 0.250000 0.358118 0.482885
O O19 0.750000 0.916913 0.369601
O O20 0.509431 0.831792 0.335733
O O21 0.500000 0.000000 0.351494
O O22 0.250000 0.267354 0.314817
#
# Coordination Sequence:
#
# PCOD8192686 Si02
#       8
#     8   8   8   8   8   8   8   8
#     4  11  23  40  62  91 125 159 203 250 303 366
#     4  12  25  42  66  94 127 165 206 252 311 372
#     4  10  20  37  62  91 126 161 199 247 304 364
#     4  10  24  44  63  87 122 162 210 260 308 368
#     4  11  23  41  63  92 127 164 209 256 309 370
#     4  11  21  38  64  94 129 163 203 252 310 373
#     4  10  22  40  61  91 125 160 201 248 302 363
#     4  11  24  44  66  90 123 162 210 261 311 366
#
# _framework density 20.080835
#
# number of rings (size 3 to 8) (size 9 to 14) (size 15 to 20)
#    0.000    1.250    2.500    3.375    0.000    6.000 
#    0.000    3.750    0.000    0.000    0.000    0.000 
#    0.000    0.000    0.000    0.000    0.000    0.000 
#
# Total GULP energy -397004.350519 kJ/mol
# GULP energy per Si atom -12406.385954 kJ/mol
# Density = 2.003513 g / cm^3
# Si number density = 20.080835 Si / 1000 Ang^3
#
#
#
# Elastic Constant Matrix: (Units=GPa)
#
#
# Indices 1 2 3 4 5 6 
#
# 1 80.2455 51.9051 35.4794 0.0000 0.0000 0.0000
# 2 51.9051 177.2316 55.3267 0.0000 0.0000 0.0000
# 3 35.4794 55.3267 108.8295 0.0000 0.0000 0.0000
# 4 0.0000 0.0000 0.0000 18.0879 0.0000 0.0000
# 5 0.0000 0.0000 0.0000 0.0000 36.8489 0.0000
# 6 0.0000 0.0000 0.0000 0.0000 0.0000 36.3029
#
#
#
# Elastic Compliance Matrix: (Units=1/GPa)
#
#
# Indices 1 2 3 4 5 6 
#
# 1 0.016397 -0.003725 -0.003452 0.000000 0.000000 0.000000
# 2 -0.003725 0.007553 -0.002625 0.000000 0.000000 0.000000
# 3 -0.003452 -0.002625 0.011649 0.000000 0.000000 0.000000
# 4 0.000000 0.000000 0.000000 0.055286 0.000000 0.000000
# 5 0.000000 0.000000 0.000000 0.000000 0.027138 0.000000
# 6 0.000000 0.000000 0.000000 0.000000 0.000000 0.027546
#
#
# Mechanical properties :
#
#
# Convention : Reuss Voigt Hill
#
# Bulk Modulus (GPa) = 62.52130 72.41432 67.46781
# Shear Modulus (GPa) = 29.32485 33.15429 31.23957
#
# Velocity S-wave (km/s) = 3.82559 4.06771 3.94850
# Velocity P-wave (km/s) = 7.12151 7.62898 7.37961
#
# Compressibility (1/GPa) = 0.01599455
#
# Stress axis : x y z
#
# Youngs Moduli (GPa) = 60.98598 132.40299 85.84555
#
# Poissons Ratio (x) = 0.49314 0.29635
# Poissons Ratio (y) = 0.22714 0.22538
# Poissons Ratio (z) = 0.21053 0.34761
#
# Static dielectric constant tensor:
#      x y z
#    x 3.580810 0.000000 0.000000 
#    y 0.000000 3.697340 0.000000 
#    z 0.000000 0.000000 3.619560 
# 
# 
# High freq. dielectric constant tensor:
#      x y z
#    x 1.785870 0.000000 0.000000 
#    y 0.000000 1.805970 0.000000 
#    z 0.000000 0.000000 1.779780 
# 
# From -- ./inp_files/23162.got.cif
#   From: 2010.03.12/outbox.cif.g09.slc.cpg/sg46_12_cif.got.tgz:23162.got - 2010.04.14 02:56:35.
