data_PCOD8192971
_publ_section_title
;
Structure prediction by ZEFSAII (Michael W. Deem and Ramdas Pophale) SiO2 
 PCOD8192971
Probable space group: I M A 2
;
_chemical_formula_sum "Si O2"
_cell_formula_units_Z 40
_cell_length_a 10.018004
_cell_length_b 10.761920
_cell_length_c 18.581906
_cell_angle_alpha 90.000000
_cell_angle_beta 90.000000
_cell_angle_gamma 90.000000
_cell_volume 2003.370244
_symmetry_space_group_name_H-M "I M A 2"
_symmetry_group_IT_number 46
_symmetry_cell_setting 'orthorhombic'
loop_
_space_group_symop_operation_xyz
x,y,z
-x,-y,z
1/2-x,y,z
1/2+x,-y,z
1/2+x,1/2+y,1/2+z
1/2-x,1/2-y,1/2+z
-x,1/2+y,1/2+z
x,1/2-y,1/2+z
loop_
_atom_site_type_symbol
_atom_site_label
_atom_site_fract_x
_atom_site_fract_y
_atom_site_fract_z
Si Si1 0.750000 0.121578 0.960871
Si Si2 0.000000 0.500000 0.397052
Si Si3 0.250000 0.806181 0.585347
Si Si4 0.250000 0.086830 0.542157
Si Si5 0.250000 0.818154 0.337641
Si Si6 0.023241 0.360022 0.151207
Si Si7 0.250000 0.396237 0.875264
Si Si8 0.967671 0.763328 0.800339
O O1 0.620689 0.036674 0.949302
O O2 0.750000 0.238517 0.909167
O O3 0.750000 0.180795 0.039307
O O4 0.046005 0.387726 0.346680
O O5 0.382336 0.797816 0.633028
O O6 0.250000 0.936826 0.541816
O O7 0.379820 0.142338 0.582093
O O8 0.250000 0.134147 0.460368
O O9 0.380669 0.783821 0.291991
O O10 0.250000 0.959015 0.361772
O O11 0.000000 0.500000 0.177472
O O12 0.086546 0.288050 0.219501
O O13 0.118027 0.341699 0.839123
#
# Coordination Sequence:
#
# PCOD8192971 Si02
#       8
#     4   4   4   4   4   8   4   8
#     4  10  21  39  61  91 126 156 203 253 302 369
#     4  10  22  38  62  96 122 160 206 248 314 354
#     4  10  21  38  66  84 125 161 197 255 313 353
#     4  10  23  36  60  97 125 151 205 255 307 355
#     4  10  23  37  62  92 126 159 206 246 309 369
#     4  10  21  39  63  92 122 157 208 258 305 351
#     4  12  24  38  63  96 126 161 203 253 309 366
#     4  11  22  40  66  90 125 160 206 260 302 363
#
# _framework density 19.966353000000002
#
# number of rings (size 3 to 8) (size 9 to 14) (size 15 to 20)
#    0.000    1.600    2.000    2.400    5.600    1.600 
#    0.000    0.000    8.800    0.000    0.000    0.000 
#    0.000    0.000    0.000    0.000    0.000    0.000 
#
# Total GULP energy -248024.046427 kJ/mol
# GULP energy per Si atom -12401.202321 kJ/mol
# Density = 1.992091 g / cm^3
# Si number density = 19.966353 Si / 1000 Ang^3
#
#
#
# Elastic Constant Matrix: (Units=GPa)
#
#
# Indices 1 2 3 4 5 6 
#
# 1 128.7641 64.7082 56.5022 0.0000 0.0000 0.0000
# 2 64.7082 93.5092 51.5297 0.0000 0.0000 0.0000
# 3 56.5022 51.5297 140.7576 0.0000 0.0000 0.0000
# 4 0.0000 0.0000 0.0000 16.7507 0.0000 0.0000
# 5 0.0000 0.0000 0.0000 0.0000 -56.0264 0.0000
# 6 0.0000 0.0000 0.0000 0.0000 0.0000 24.4655
#
#
#
# Elastic Compliance Matrix: (Units=1/GPa)
#
#
# Indices 1 2 3 4 5 6 
#
# 1 0.012481 -0.007361 -0.002315 0.000000 0.000000 0.000000
# 2 -0.007361 0.017738 -0.003539 0.000000 0.000000 0.000000
# 3 -0.002315 -0.003539 0.009329 0.000000 0.000000 0.000000
# 4 0.000000 0.000000 0.000000 0.059699 0.000000 0.000000
# 5 0.000000 0.000000 0.000000 0.000000 -0.017849 0.000000
# 6 0.000000 0.000000 0.000000 0.000000 0.000000 0.040874
#
#
# Mechanical properties :
#
#
# Convention : Reuss Voigt Hill
#
# Bulk Modulus (GPa) = 76.23030 78.72342 77.47686
# Shear Modulus (GPa) = 32.66343 9.72402 21.19372
#
# Velocity S-wave (km/s) = 4.04904 2.20925 3.26156
# Velocity P-wave (km/s) = 7.75383 6.78390 7.28503
#
# Compressibility (1/GPa) = 0.01311814
#
# Stress axis : x y z
#
# Youngs Moduli (GPa) = 80.11956 56.37557 107.18836
#
# Poissons Ratio (x) = 0.41499 0.24818
# Poissons Ratio (y) = 0.58977 0.37932
# Poissons Ratio (z) = 0.18551 0.19951
#
# Static dielectric constant tensor:
#      x y z
#    x 4.351200 0.000000 0.000000 
#    y 0.000000 3.544470 0.000000 
#    z 0.000000 0.000000 3.447170 
# 
# 
# High freq. dielectric constant tensor:
#      x y z
#    x 1.792620 0.000000 0.000000 
#    y 0.000000 1.767960 0.000000 
#    z 0.000000 0.000000 1.773330 
# 
# From -- ./inp_files/18820.got.cif
#   From: 2010.03.12/outbox.cif.g09.slc.cpg/sg46_10_cif.got.tgz:18820.got - 2010.04.14 02:56:35.
