data_PCOD8192830
_publ_section_title
;
Structure prediction by ZEFSAII (Michael W. Deem and Ramdas Pophale) SiO2 
 PCOD8192830
Probable space group: I M A 2
;
_chemical_formula_sum "Si O2"
_cell_formula_units_Z 64
_cell_length_a 14.279462
_cell_length_b 13.749908
_cell_length_c 18.355505
_cell_angle_alpha 90.000000
_cell_angle_beta 90.000000
_cell_angle_gamma 90.000000
_cell_volume 3603.943508
_symmetry_space_group_name_H-M "I M A 2"
_symmetry_group_IT_number 46
_symmetry_cell_setting 'orthorhombic'
loop_
_space_group_symop_operation_xyz
x,y,z
-x,-y,z
1/2-x,y,z
1/2+x,-y,z
1/2+x,1/2+y,1/2+z
1/2-x,1/2-y,1/2+z
-x,1/2+y,1/2+z
x,1/2-y,1/2+z
loop_
_atom_site_type_symbol
_atom_site_label
_atom_site_fract_x
_atom_site_fract_y
_atom_site_fract_z
Si Si1 0.145346 0.599438 0.517010
Si Si2 0.107671 0.476410 0.375815
Si Si3 0.476276 0.354934 0.171862
Si Si4 0.357672 0.425161 0.610554
Si Si5 0.854450 0.032064 0.717891
Si Si6 0.644016 0.749514 0.401126
Si Si7 0.021626 0.237259 0.032405
Si Si8 0.143730 0.307227 0.744568
O O1 0.250000 0.639623 0.529982
O O2 0.146983 0.531635 0.445829
O O3 0.111330 0.533948 0.586628
O O4 0.077726 0.691447 0.508951
O O5 0.159077 0.511916 0.303333
O O6 0.124126 0.362029 0.381387
O O7 0.000000 0.500000 0.365917
O O8 0.405135 0.444926 0.174797
O O9 0.578615 0.374915 0.206237
O O10 0.492462 0.324764 0.088434
O O11 0.431932 0.268810 0.217578
O O12 0.250000 0.411655 0.587678
O O13 0.413762 0.347274 0.563889
O O14 0.371439 0.406987 0.697767
O O15 0.750000 0.049663 0.685613
O O16 0.750000 0.760934 0.429641
O O17 0.571572 0.784467 0.462337
O O18 0.628345 0.819901 0.330947
O O19 0.250000 0.268408 0.730619
#
# Coordination Sequence:
#
# PCOD8192830 Si02
#       8
#     8   8   8   8   8   8   8   8
#     4  11  21  32  48  74 107 142 170 200 245 302
#     4  12  18  31  51  77 108 135 162 199 257 313
#     4  10  21  34  49  75 101 134 170 205 255 308
#     4   9  17  30  47  71 103 136 169 204 247 296
#     4  11  21  35  55  76 102 132 166 211 258 308
#     4  11  19  29  48  76 105 131 162 207 257 303
#     4  11  21  32  48  73 105 134 169 209 249 300
#     4   9  17  30  49  73 105 136 167 207 250 296
#
# _framework density 17.758324999999999
#
# number of rings (size 3 to 8) (size 9 to 14) (size 15 to 20)
#    0.000    1.500    5.000    2.250    0.000    2.000 
#    0.000    0.000    0.000    0.000   13.000    0.000 
#    0.000    0.000    0.000    0.000    0.000    0.000 
#
# Total GULP energy -396675.035749 kJ/mol
# GULP energy per Si atom -12396.094867 kJ/mol
# Density = 1.771791 g / cm^3
# Si number density = 17.758325 Si / 1000 Ang^3
#
#
#
# Elastic Constant Matrix: (Units=GPa)
#
#
# Indices 1 2 3 4 5 6 
#
# 1 100.3947 25.2968 34.8724 0.0000 0.0000 0.0000
# 2 25.2968 36.5297 36.9716 0.0000 0.0000 0.0000
# 3 34.8724 36.9716 119.7844 0.0000 0.0000 0.0000
# 4 0.0000 0.0000 0.0000 20.8750 0.0000 0.0000
# 5 0.0000 0.0000 0.0000 0.0000 20.6576 0.0000
# 6 0.0000 0.0000 0.0000 0.0000 0.0000 9.5528
#
#
#
# Elastic Compliance Matrix: (Units=1/GPa)
#
#
# Indices 1 2 3 4 5 6 
#
# 1 0.012220 -0.007070 -0.001375 0.000000 0.000000 0.000000
# 2 -0.007070 0.043902 -0.011492 0.000000 0.000000 0.000000
# 3 -0.001375 -0.011492 0.012296 0.000000 0.000000 0.000000
# 4 0.000000 0.000000 0.000000 0.047904 0.000000 0.000000
# 5 0.000000 0.000000 0.000000 0.000000 0.048408 0.000000
# 6 0.000000 0.000000 0.000000 0.000000 0.000000 0.104682
#
#
# Mechanical properties :
#
#
# Convention : Reuss Voigt Hill
#
# Bulk Modulus (GPa) = 35.03548 50.11004 42.57276
# Shear Modulus (GPa) = 15.68370 20.85493 18.26932
#
# Velocity S-wave (km/s) = 2.97505 3.43063 3.21093
# Velocity P-wave (km/s) = 5.61899 6.63109 6.14591
#
# Compressibility (1/GPa) = 0.02854249
#
# Stress axis : x y z
#
# Youngs Moduli (GPa) = 81.83347 22.77777 81.32864
#
# Poissons Ratio (x) = 0.16105 0.11185
# Poissons Ratio (y) = 0.57860 0.93464
# Poissons Ratio (z) = 0.11254 0.26177
#
# Static dielectric constant tensor:
#      x y z
#    x 3.477230 0.000000 0.000000 
#    y 0.000000 3.152610 0.000000 
#    z 0.000000 0.000000 3.626380 
# 
# 
# High freq. dielectric constant tensor:
#      x y z
#    x 1.702750 0.000000 0.000000 
#    y 0.000000 1.636100 0.000000 
#    z 0.000000 0.000000 1.687390 
# 
# From -- ./inp_files/19619.got.cif
#   From: 2010.03.12/outbox.cif.g09.slc.cpg/sg46_10_cif.got.tgz:19619.got - 2010.04.14 02:56:35.
