data_PCOD8192733
_publ_section_title
;
Structure prediction by ZEFSAII (Michael W. Deem and Ramdas Pophale) SiO2 
 PCOD8192733
Probable space group: I M A 2
;
_chemical_formula_sum "Si O2"
_cell_formula_units_Z 64
_cell_length_a 8.699991
_cell_length_b 30.713411
_cell_length_c 11.922694
_cell_angle_alpha 90.000000
_cell_angle_beta 90.000000
_cell_angle_gamma 90.000000
_cell_volume 3185.820133
_symmetry_space_group_name_H-M "I M A 2"
_symmetry_group_IT_number 46
_symmetry_cell_setting 'orthorhombic'
loop_
_space_group_symop_operation_xyz
x,y,z
-x,-y,z
1/2-x,y,z
1/2+x,-y,z
1/2+x,1/2+y,1/2+z
1/2-x,1/2-y,1/2+z
-x,1/2+y,1/2+z
x,1/2-y,1/2+z
loop_
_atom_site_type_symbol
_atom_site_label
_atom_site_fract_x
_atom_site_fract_y
_atom_site_fract_z
Si Si1 0.932317 0.372808 0.639650
Si Si2 0.569780 0.043925 0.271541
Si Si3 0.568045 0.954264 0.744014
Si Si4 0.074051 0.171236 0.493731
Si Si5 0.568752 0.375872 0.384206
Si Si6 0.073313 0.430701 0.995635
Si Si7 0.429646 0.301393 0.241318
Si Si8 0.570143 0.209214 0.281799
O O1 0.750000 0.373801 0.646640
O O2 0.000393 0.414570 0.705730
O O3 0.990263 0.374181 0.512157
O O4 0.990772 0.328723 0.699086
O O5 0.750000 0.042283 0.256229
O O6 0.528437 0.045463 0.402882
O O7 0.500000 0.000000 0.218142
O O8 0.750000 0.955583 0.749829
O O9 0.511547 0.916140 0.824250
O O10 0.511493 0.944963 0.617442
O O11 0.500000 0.000000 0.786348
O O12 0.250000 0.185143 0.470352
O O13 0.051303 0.120280 0.479930
O O14 0.022263 0.184234 0.617559
O O15 0.960361 0.195642 0.409609
O O16 0.750000 0.382592 0.377841
O O17 0.524398 0.330156 0.328909
O O18 0.250000 0.444498 0.979703
O O19 0.250000 0.309192 0.262828
O O20 0.471083 0.251313 0.254779
O O21 0.750000 0.218918 0.265514
#
# Coordination Sequence:
#
# PCOD8192733 Si02
#       8
#     8   8   8   8   8   8   8   8
#     4   9  22  42  61  86 122 157 200 252 301 357
#     4  11  22  39  61  89 121 157 198 247 301 359
#     4  11  23  41  62  91 125 161 202 252 305 364
#     4  10  21  40  64  91 125 160 199 251 305 361
#     4  11  23  42  65  90 121 162 206 254 306 363
#     4  10  20  38  62  90 123 156 197 247 300 358
#     4  11  24  43  63  92 127 162 204 253 306 364
#     4  11  23  41  64  93 124 160 205 253 304 365
#
# _framework density 20.089020000000001
#
# number of rings (size 3 to 8) (size 9 to 14) (size 15 to 20)
#    0.000    1.500    2.500    2.250    1.750    3.500 
#    0.000    5.625    0.000    0.000    0.000    0.000 
#    0.000    0.000    0.000    0.000    0.000    0.000 
#
# Total GULP energy -396960.473400 kJ/mol
# GULP energy per Si atom -12405.014794 kJ/mol
# Density = 2.004330 g / cm^3
# Si number density = 20.089020 Si / 1000 Ang^3
#
#
#
# Elastic Constant Matrix: (Units=GPa)
#
#
# Indices 1 2 3 4 5 6 
#
# 1 49.6614 22.1638 30.3076 0.0019 0.0002 0.0000
# 2 22.1638 128.0638 52.9934 0.0046 0.0001 0.0003
# 3 30.3076 52.9934 126.8702 0.0077 0.0010 0.0003
# 4 0.0019 0.0046 0.0077 44.4246 -0.0046 0.0014
# 5 0.0002 0.0001 0.0010 -0.0046 37.6696 -0.0002
# 6 0.0000 0.0003 0.0003 0.0014 -0.0002 33.3050
#
#
#
# Elastic Compliance Matrix: (Units=1/GPa)
#
#
# Indices 1 2 3 4 5 6 
#
# 1 0.024057 -0.002158 -0.004845 0.000000 0.000000 0.000000
# 2 -0.002158 0.009634 -0.003508 0.000000 0.000000 0.000000
# 3 -0.004845 -0.003508 0.010505 -0.000001 0.000000 0.000000
# 4 0.000000 0.000000 -0.000001 0.022510 0.000003 -0.000001
# 5 0.000000 0.000000 0.000000 0.000003 0.026547 0.000000
# 6 0.000000 0.000000 0.000000 -0.000001 0.000000 0.030025
#
#
# Mechanical properties :
#
#
# Convention : Reuss Voigt Hill
#
# Bulk Modulus (GPa) = 43.15679 57.28055 50.21867
# Shear Modulus (GPa) = 32.88914 36.35522 34.62218
#
# Velocity S-wave (km/s) = 4.05059 4.25868 4.15593
# Velocity P-wave (km/s) = 6.58830 7.26341 6.93407
#
# Compressibility (1/GPa) = 0.02317133
#
# Stress axis : x y z
#
# Youngs Moduli (GPa) = 41.56855 103.79914 95.19267
#
# Poissons Ratio (x) = 0.22405 0.46123
# Poissons Ratio (y) = 0.08972 0.33398
# Poissons Ratio (z) = 0.20141 0.36418
#
# Static dielectric constant tensor:
#      x y z
#    x 2.916850 -0.000070 -0.000010 
#    y -0.000070 3.759880 0.000010 
#    z -0.000010 0.000010 3.784830 
# 
# 
# High freq. dielectric constant tensor:
#      x y z
#    x 1.774410 0.000000 0.000000 
#    y 0.000000 1.801370 0.000000 
#    z 0.000000 0.000000 1.787430 
# 
# From -- ./inp_files/9762.got.cif
#   From: 2010.03.12/outbox.cif.g09.slc.cpg/sg46_5_cif.got.tgz:9762.got - 2010.04.14 02:56:35.
