data_PCOD8192210
_publ_section_title
;
Structure prediction by ZEFSAII (Michael W. Deem and Ramdas Pophale) SiO2 
 PCOD8192210
Probable space group: I M A 2
;
_chemical_formula_sum "Si O2"
_cell_formula_units_Z 56
_cell_length_a 14.598640
_cell_length_b 13.539009
_cell_length_c 12.725288
_cell_angle_alpha 90.000000
_cell_angle_beta 90.000000
_cell_angle_gamma 90.000000
_cell_volume 2515.167404
_symmetry_space_group_name_H-M "I M A 2"
_symmetry_group_IT_number 46
_symmetry_cell_setting 'orthorhombic'
loop_
_space_group_symop_operation_xyz
x,y,z
-x,-y,z
1/2-x,y,z
1/2+x,-y,z
1/2+x,1/2+y,1/2+z
1/2-x,1/2-y,1/2+z
-x,1/2+y,1/2+z
x,1/2-y,1/2+z
loop_
_atom_site_type_symbol
_atom_site_label
_atom_site_fract_x
_atom_site_fract_y
_atom_site_fract_z
Si Si1 0.851342 0.689914 0.583020
Si Si2 0.101268 0.107253 0.493542
Si Si3 0.539605 0.809074 0.282600
Si Si4 0.904357 0.060143 0.788789
Si Si5 0.349409 0.363951 0.356356
Si Si6 0.105423 0.897498 0.554232
Si Si7 0.646014 0.259977 0.871080
O O1 0.750000 0.660857 0.624603
O O2 0.846233 0.806624 0.555097
O O3 0.928863 0.657814 0.667015
O O4 0.878502 0.630435 0.478542
O O5 0.094556 0.127439 0.368901
O O6 0.002332 0.102836 0.543919
O O7 0.148854 0.000706 0.511123
O O8 0.571567 0.694498 0.293106
O O9 0.429437 0.818905 0.299084
O O10 0.877006 0.112194 0.678532
O O11 0.889736 0.146497 0.875524
O O12 0.833063 0.973330 0.812330
O O13 0.000000 0.000000 0.794538
O O14 0.250000 0.309525 0.346195
O O15 0.146887 0.805496 0.489073
O O16 0.750000 0.267722 0.825633
#
# Coordination Sequence:
#
# PCOD8192210 Si02
#       7
#     8   8   8   8   8   8   8
#     4  10  20  35  59  94 130 166 213 277 345 394
#     4   9  18  35  61  90 121 161 216 276 319 393
#     4  10  19  36  61  90 130 174 216 272 340 396
#     4  12  21  41  69  95 126 174 223 273 328 392
#     4  10  21  36  60  96 127 163 220 279 331 393
#     4  10  21  40  65  91 124 169 222 263 324 392
#     4  11  25  41  61  94 135 176 223 276 329 398
#
# _framework density 22.264918000000002
#
# number of rings (size 3 to 8) (size 9 to 14) (size 15 to 20)
#    0.000    1.714    2.857    2.571    0.000    2.286 
#    0.000    1.429    3.143    1.714    0.000    0.000 
#    0.000    0.000    0.000    0.000    0.000    0.000 
#
# Total GULP energy -346924.396044 kJ/mol
# GULP energy per Si atom -12390.157002 kJ/mol
# Density = 2.221424 g / cm^3
# Si number density = 22.264918 Si / 1000 Ang^3
#
#
#
# Elastic Constant Matrix: (Units=GPa)
#
#
# Indices 1 2 3 4 5 6 
#
# 1 116.2116 1.3309 37.7071 0.0000 0.0000 0.0000
# 2 1.3309 101.9108 42.7320 0.0000 0.0000 0.0000
# 3 37.7071 42.7320 122.4372 0.0000 0.0000 0.0000
# 4 0.0000 0.0000 0.0000 27.8897 0.0000 0.0000
# 5 0.0000 0.0000 0.0000 0.0000 18.3169 0.0000
# 6 0.0000 0.0000 0.0000 0.0000 0.0000 -9.0300
#
#
#
# Elastic Compliance Matrix: (Units=1/GPa)
#
#
# Indices 1 2 3 4 5 6 
#
# 1 0.009710 0.001320 -0.003451 0.000000 0.000000 0.000000
# 2 0.001320 0.011674 -0.004481 0.000000 0.000000 0.000000
# 3 -0.003451 -0.004481 0.010794 0.000000 0.000000 0.000000
# 4 0.000000 0.000000 0.000000 0.035855 0.000000 0.000000
# 5 0.000000 0.000000 0.000000 0.000000 0.054594 0.000000
# 6 0.000000 0.000000 0.000000 0.000000 0.000000 -0.110743
#
#
# Mechanical properties :
#
#
# Convention : Reuss Voigt Hill
#
# Bulk Modulus (GPa) = 52.75835 56.01110 54.38472
# Shear Modulus (GPa) = 159.09778 24.68797 91.89288
#
# Velocity S-wave (km/s) = 8.46238 3.33352 6.43134
# Velocity P-wave (km/s) = 10.91923 6.32675 8.92349
#
# Compressibility (1/GPa) = 0.01895435
#
# Stress axis : x y z
#
# Youngs Moduli (GPa) = 102.99046 85.65908 92.64224
#
# Poissons Ratio (x) = -0.11309 0.31972
# Poissons Ratio (y) = -0.13597 0.41513
# Poissons Ratio (z) = 0.35543 0.38384
#
# Static dielectric constant tensor:
#      x y z
#    x 3.987570 0.000000 0.000000 
#    y 0.000000 4.314630 0.000000 
#    z 0.000000 0.000000 3.925210 
# 
# 
# High freq. dielectric constant tensor:
#      x y z
#    x 1.879700 0.000000 0.000000 
#    y 0.000000 1.855560 0.000000 
#    z 0.000000 0.000000 1.863150 
# 
# From -- ./inp_files/11133.got.cif
#   From: 2010.03.12/outbox.cif.g09.slc.cpg/sg46_6_cif.got.tgz:11133.got - 2010.04.14 02:56:35.
