data_PCOD8192096
_publ_section_title
;
Structure prediction by ZEFSAII (Michael W. Deem and Ramdas Pophale) SiO2 
 PCOD8192096
Probable space group: I M A 2
;
_chemical_formula_sum "Si O2"
_cell_formula_units_Z 48
_cell_length_a 16.200548
_cell_length_b 9.307143
_cell_length_c 15.439761
_cell_angle_alpha 90.000000
_cell_angle_beta 90.000000
_cell_angle_gamma 90.000000
_cell_volume 2328.019777
_symmetry_space_group_name_H-M "I M A 2"
_symmetry_group_IT_number 46
_symmetry_cell_setting 'orthorhombic'
loop_
_space_group_symop_operation_xyz
x,y,z
-x,-y,z
1/2-x,y,z
1/2+x,-y,z
1/2+x,1/2+y,1/2+z
1/2-x,1/2-y,1/2+z
-x,1/2+y,1/2+z
x,1/2-y,1/2+z
loop_
_atom_site_type_symbol
_atom_site_label
_atom_site_fract_x
_atom_site_fract_y
_atom_site_fract_z
Si Si1 0.412731 0.435303 0.080620
Si Si2 0.652488 0.423141 0.741217
Si Si3 0.849414 0.620832 0.585369
Si Si4 0.153783 0.597075 0.239047
Si Si5 0.153408 0.585921 0.435328
Si Si6 0.155328 0.600486 0.929179
O O1 0.500000 0.500000 0.049779
O O2 0.403461 0.264835 0.083678
O O3 0.394816 0.492902 0.175867
O O4 0.349627 0.489561 0.007425
O O5 0.750000 0.431287 0.735083
O O6 0.618846 0.534210 0.670026
O O7 0.624097 0.259903 0.721430
O O8 0.619424 0.463165 0.838202
O O9 0.750000 0.650554 0.585936
O O10 0.881208 0.532232 0.501604
O O11 0.250000 0.581573 0.219245
O O12 0.133353 0.544039 0.336241
O O13 0.250000 0.591119 0.453161
O O14 0.115017 0.744768 0.453899
O O15 0.250000 0.634588 0.907609
#
# Coordination Sequence:
#
# PCOD8192096 Si02
#       6
#     8   8   8   8   8   8
#     4  12  25  36  46  72 112 150 185 218 256 312
#     4   8  16  32  60  88 103 124 174 227 271 322
#     4  10  19  34  57  86 111 136 173 224 272 316
#     4   9  17  35  59  80 103 137 174 218 271 324
#     4   8  16  32  60  88 103 124 174 227 271 322
#     4   9  17  35  59  80 103 137 174 218 271 324
#
# _framework density 20.618382
#
# number of rings (size 3 to 8) (size 9 to 14) (size 15 to 20)
#    0.000    2.667    0.000    4.500    0.000    4.000 
#    0.000   15.000    0.000    0.000    0.000    0.000 
#    0.000    0.000    0.000    0.000    0.000    0.000 
#
# Total GULP energy -297412.239929 kJ/mol
# GULP energy per Si atom -12392.176664 kJ/mol
# Density = 2.057145 g / cm^3
# Si number density = 20.618382 Si / 1000 Ang^3
#
#
#
# Elastic Constant Matrix: (Units=GPa)
#
#
# Indices 1 2 3 4 5 6 
#
# 1 24.5737 22.7458 13.1373 0.0000 0.0000 0.0000
# 2 22.7458 157.5519 93.0731 0.0000 0.0000 0.0000
# 3 13.1373 93.0731 149.4464 0.0000 0.0000 0.0000
# 4 0.0000 0.0000 0.0000 17.4235 0.0000 0.0000
# 5 0.0000 0.0000 0.0000 0.0000 2.6430 0.0000
# 6 0.0000 0.0000 0.0000 0.0000 0.0000 12.9866
#
#
#
# Elastic Compliance Matrix: (Units=1/GPa)
#
#
# Indices 1 2 3 4 5 6 
#
# 1 0.046973 -0.006870 0.000149 0.000000 0.000000 0.000000
# 2 -0.006870 0.011046 -0.006275 0.000000 0.000000 0.000000
# 3 0.000149 -0.006275 0.010587 0.000000 0.000000 0.000000
# 4 0.000000 0.000000 0.000000 0.057394 0.000000 0.000000
# 5 0.000000 0.000000 0.000000 0.000000 0.378364 0.000000
# 6 0.000000 0.000000 0.000000 0.000000 0.000000 0.077002
#
#
# Mechanical properties :
#
#
# Convention : Reuss Voigt Hill
#
# Bulk Modulus (GPa) = 23.46677 65.49828 44.48253
# Shear Modulus (GPa) = 8.04425 20.11834 14.08129
#
# Velocity S-wave (km/s) = 1.97736 3.12708 2.61616
# Velocity P-wave (km/s) = 4.07670 6.69881 5.54498
#
# Compressibility (1/GPa) = 0.04261345
#
# Stress axis : x y z
#
# Youngs Moduli (GPa) = 21.28895 90.52999 94.45966
#
# Poissons Ratio (x) = 0.62190 -0.01408
# Poissons Ratio (y) = 0.14624 0.59278
# Poissons Ratio (z) = -0.00317 0.56812
#
# Static dielectric constant tensor:
#      x y z
#    x 3.177860 0.000000 0.000000 
#    y 0.000000 3.761530 0.000000 
#    z 0.000000 0.000000 4.006700 
# 
# 
# High freq. dielectric constant tensor:
#      x y z
#    x 1.752220 0.000000 0.000000 
#    y 0.000000 1.802200 0.000000 
#    z 0.000000 0.000000 1.825970 
# 
# From -- ./inp_files/16527.got.cif
#   From: 2010.03.12/outbox.cif.g09.slc.cpg/sg46_9_cif.got.tgz:16527.got - 2010.04.14 02:56:35.
