data_PCOD8192536
_publ_section_title
;
Structure prediction by ZEFSAII (Michael W. Deem and Ramdas Pophale) SiO2 
 PCOD8192536
Probable space group: I M A 2
;
_chemical_formula_sum "Si O2"
_cell_formula_units_Z 64
_cell_length_a 16.813771
_cell_length_b 9.738745
_cell_length_c 19.934337
_cell_angle_alpha 90.000000
_cell_angle_beta 90.000000
_cell_angle_gamma 90.000000
_cell_volume 3264.148575
_symmetry_space_group_name_H-M "I M A 2"
_symmetry_group_IT_number 46
_symmetry_cell_setting 'orthorhombic'
loop_
_space_group_symop_operation_xyz
x,y,z
-x,-y,z
1/2-x,y,z
1/2+x,-y,z
1/2+x,1/2+y,1/2+z
1/2-x,1/2-y,1/2+z
-x,1/2+y,1/2+z
x,1/2-y,1/2+z
loop_
_atom_site_type_symbol
_atom_site_label
_atom_site_fract_x
_atom_site_fract_y
_atom_site_fract_z
Si Si1 0.084956 0.062424 0.470890
Si Si2 0.082746 0.171691 0.618390
Si Si3 0.841453 0.209682 0.461980
Si Si4 0.407006 0.772810 0.104925
Si Si5 0.657508 0.660715 0.438626
Si Si6 0.156626 0.588035 0.349888
Si Si7 0.158931 0.056874 0.084326
Si Si8 0.158304 0.940728 0.701092
O O1 0.092364 0.085528 0.550343
O O2 0.102452 0.204659 0.432646
O O3 0.151265 0.952524 0.447536
O O4 0.000000 0.000000 0.450546
O O5 0.142345 0.300306 0.621848
O O6 0.104499 0.068540 0.677929
O O7 0.994487 0.228836 0.627295
O O8 0.750000 0.250600 0.476353
O O9 0.894890 0.241540 0.526671
O O10 0.878040 0.294797 0.399344
O O11 0.346080 0.688003 0.150893
O O12 0.394469 0.935481 0.115728
O O13 0.750000 0.704861 0.438742
O O14 0.634846 0.563885 0.376461
O O15 0.638137 0.575001 0.505877
O O16 0.250000 0.609889 0.350391
O O17 0.124810 0.603773 0.274181
O O18 0.250000 0.014830 0.094412
O O19 0.250000 0.988521 0.705151
#
# Coordination Sequence:
#
# PCOD8192536 Si02
#       8
#     8   8   8   8   8   8   8   8
#     4  11  20  34  52  85 120 149 191 244 297 353
#     4  11  22  37  56  85 126 156 192 242 306 355
#     4  11  20  35  60  87 116 153 201 255 303 351
#     4  12  21  36  59  89 123 155 193 248 307 355
#     4   9  18  34  57  83 115 150 191 243 296 348
#     4   9  20  39  60  86 117 154 202 251 297 351
#     4  10  20  35  60  90 115 145 199 252 296 350
#     4  11  22  38  62  87 118 162 207 244 294 363
#
# _framework density 19.606952
#
# number of rings (size 3 to 8) (size 9 to 14) (size 15 to 20)
#    0.000    1.500    3.750    2.625    0.000    1.000 
#    0.000    4.375    0.000    3.000    0.000    0.000 
#    0.000    0.000    0.000    0.000    0.000    0.000 
#
# Total GULP energy -396836.399002 kJ/mol
# GULP energy per Si atom -12401.137469 kJ/mol
# Density = 1.956233 g / cm^3
# Si number density = 19.606952 Si / 1000 Ang^3
#
#
#
# Elastic Constant Matrix: (Units=GPa)
#
#
# Indices 1 2 3 4 5 6 
#
# 1 71.0786 44.1890 26.4987 0.0000 0.0000 0.0000
# 2 44.1890 140.6907 60.9585 0.0000 0.0000 0.0000
# 3 26.4987 60.9585 110.7818 0.0000 0.0000 0.0000
# 4 0.0000 0.0000 0.0000 28.2261 0.0000 0.0000
# 5 0.0000 0.0000 0.0000 0.0000 13.5225 0.0000
# 6 0.0000 0.0000 0.0000 0.0000 0.0000 36.3631
#
#
#
# Elastic Compliance Matrix: (Units=1/GPa)
#
#
# Indices 1 2 3 4 5 6 
#
# 1 0.017681 -0.004886 -0.001541 0.000000 0.000000 0.000000
# 2 -0.004886 0.010683 -0.004710 0.000000 0.000000 0.000000
# 3 -0.001541 -0.004710 0.011987 0.000000 0.000000 0.000000
# 4 0.000000 0.000000 0.000000 0.035428 0.000000 0.000000
# 5 0.000000 0.000000 0.000000 0.000000 0.073951 0.000000
# 6 0.000000 0.000000 0.000000 0.000000 0.000000 0.027500
#
#
# Mechanical properties :
#
#
# Convention : Reuss Voigt Hill
#
# Bulk Modulus (GPa) = 55.31539 65.09371 60.20455
# Shear Modulus (GPa) = 24.32752 28.34932 26.33842
#
# Velocity S-wave (km/s) = 3.52626 3.80660 3.66911
# Velocity P-wave (km/s) = 6.69722 7.25201 6.98013
#
# Compressibility (1/GPa) = 0.01807815
#
# Stress axis : x y z
#
# Youngs Moduli (GPa) = 56.55867 93.60718 83.42462
#
# Poissons Ratio (x) = 0.45733 0.12854
# Poissons Ratio (y) = 0.27633 0.39291
# Poissons Ratio (z) = 0.08715 0.44086
#
# Static dielectric constant tensor:
#      x y z
#    x 3.449160 0.000000 0.000000 
#    y 0.000000 3.851510 0.000000 
#    z 0.000000 0.000000 3.497860 
# 
# 
# High freq. dielectric constant tensor:
#      x y z
#    x 1.756180 0.000000 0.000000 
#    y 0.000000 1.779580 0.000000 
#    z 0.000000 0.000000 1.729680 
# 
# From -- ./inp_files/22220.got.cif
#   From: 2010.03.12/outbox.cif.g09.slc.cpg/sg46_12_cif.got.tgz:22220.got - 2010.04.14 02:56:35.
