data_PCOD8192860
_publ_section_title
;
Structure prediction by ZEFSAII (Michael W. Deem and Ramdas Pophale) SiO2 
 PCOD8192860
Probable space group: I M A 2
;
_chemical_formula_sum "Si O2"
_cell_formula_units_Z 64
_cell_length_a 9.014578
_cell_length_b 28.048606
_cell_length_c 12.602728
_cell_angle_alpha 90.000000
_cell_angle_beta 90.000000
_cell_angle_gamma 90.000000
_cell_volume 3186.553732
_symmetry_space_group_name_H-M "I M A 2"
_symmetry_group_IT_number 46
_symmetry_cell_setting 'orthorhombic'
loop_
_space_group_symop_operation_xyz
x,y,z
-x,-y,z
1/2-x,y,z
1/2+x,-y,z
1/2+x,1/2+y,1/2+z
1/2-x,1/2-y,1/2+z
-x,1/2+y,1/2+z
x,1/2-y,1/2+z
loop_
_atom_site_type_symbol
_atom_site_label
_atom_site_fract_x
_atom_site_fract_y
_atom_site_fract_z
Si Si1 0.424115 0.701817 0.195440
Si Si2 0.913838 0.681047 0.994037
Si Si3 0.087286 0.427813 0.056570
Si Si4 0.925716 0.383114 0.673662
Si Si5 0.426301 0.453386 0.828346
Si Si6 0.924631 0.704241 0.757544
Si Si7 0.075671 0.596004 0.256998
Si Si8 0.074754 0.949148 0.976310
O O1 0.250000 0.710383 0.208639
O O2 0.515591 0.742129 0.255374
O O3 0.474630 0.651150 0.245936
O O4 0.466824 0.705577 0.071295
O O5 0.750000 0.704523 0.008957
O O6 0.967223 0.685943 0.874021
O O7 0.903713 0.626358 0.022213
O O8 0.250000 0.446443 0.089223
O O9 0.982633 0.435462 0.158174
O O10 0.029272 0.455359 0.952722
O O11 0.750000 0.381104 0.688638
O O12 0.970101 0.411621 0.567474
O O13 0.001881 0.407629 0.774478
O O14 0.991717 0.329388 0.671212
O O15 0.500000 0.500000 0.774679
O O16 0.250000 0.452438 0.810850
O O17 0.750000 0.702783 0.734499
O O18 0.250000 0.593088 0.253410
O O19 0.015103 0.573424 0.366135
O O20 0.250000 0.957163 0.973454
O O21 0.000000 0.000000 0.998268
#
# Coordination Sequence:
#
# PCOD8192860 Si02
#       8
#     8   8   8   8   8   8   8   8
#     4  10  21  36  57  88 119 156 201 250 305 363
#     4   9  18  36  57  78 110 151 190 239 296 353
#     4   9  18  35  57  81 111 146 187 235 292 351
#     4  11  23  39  60  86 117 157 203 252 304 363
#     4  11  22  37  56  84 118 151 188 239 295 354
#     4  11  22  38  60  87 120 158 201 250 305 369
#     4   9  20  39  60  83 117 155 198 249 300 354
#     4  10  23  42  62  87 121 161 205 255 307 364
#
# _framework density 20.084392999999999
#
# number of rings (size 3 to 8) (size 9 to 14) (size 15 to 20)
#    0.000    2.000    1.250    1.875    0.000    6.500 
#    0.000    3.750    0.000    0.000    0.000    0.000 
#    0.000    0.000    0.000    0.000    0.000    0.000 
#
# Total GULP energy -396754.001665 kJ/mol
# GULP energy per Si atom -12398.562552 kJ/mol
# Density = 2.003868 g / cm^3
# Si number density = 20.084393 Si / 1000 Ang^3
#
#
#
# Elastic Constant Matrix: (Units=GPa)
#
#
# Indices 1 2 3 4 5 6 
#
# 1 71.8523 32.4087 38.2824 0.0005 0.0000 0.0003
# 2 32.4087 62.6628 26.6951 0.0009 0.0003 0.0004
# 3 38.2824 26.6951 94.0378 0.0041 0.0014 0.0016
# 4 0.0005 0.0009 0.0041 22.6263 0.0004 0.0004
# 5 0.0000 0.0003 0.0014 0.0004 31.7431 0.0003
# 6 0.0003 0.0004 0.0016 0.0004 0.0003 29.3399
#
#
#
# Elastic Compliance Matrix: (Units=1/GPa)
#
#
# Indices 1 2 3 4 5 6 
#
# 1 0.020901 -0.008174 -0.006189 0.000001 0.000000 0.000000
# 2 -0.008174 0.021350 -0.002733 0.000000 0.000000 0.000000
# 3 -0.006189 -0.002733 0.013929 -0.000002 -0.000001 -0.000001
# 4 0.000001 0.000000 -0.000002 0.044196 -0.000001 -0.000001
# 5 0.000000 0.000000 -0.000001 -0.000001 0.031503 0.000000
# 6 0.000000 0.000000 -0.000001 -0.000001 0.000000 0.034083
#
#
# Mechanical properties :
#
#
# Convention : Reuss Voigt Hill
#
# Bulk Modulus (GPa) = 45.47571 47.03615 46.25593
# Shear Modulus (GPa) = 24.09821 25.48632 24.79227
#
# Velocity S-wave (km/s) = 3.46764 3.56611 3.51722
# Velocity P-wave (km/s) = 6.22287 6.35817 6.29089
#
# Compressibility (1/GPa) = 0.02198976
#
# Stress axis : x y z
#
# Youngs Moduli (GPa) = 47.84379 46.83795 71.79120
#
# Poissons Ratio (x) = 0.38284 0.44428
# Poissons Ratio (y) = 0.39106 0.19623
# Poissons Ratio (z) = 0.29608 0.12802
#
# Static dielectric constant tensor:
#      x y z
#    x 3.662730 0.000000 0.000000 
#    y 0.000000 3.697130 0.000000 
#    z 0.000000 0.000000 3.832890 
# 
# 
# High freq. dielectric constant tensor:
#      x y z
#    x 1.782100 0.000000 0.000000 
#    y 0.000000 1.784560 0.000000 
#    z 0.000000 0.000000 1.783120 
# 
# From -- ./inp_files/9801.got.cif
#   From: 2010.03.12/outbox.cif.g09.slc.cpg/sg46_5_cif.got.tgz:9801.got - 2010.04.14 02:56:35.
