data_PCOD8192499
_publ_section_title
;
Structure prediction by ZEFSAII (Michael W. Deem and Ramdas Pophale) SiO2 
 PCOD8192499
Probable space group: I M A 2
;
_chemical_formula_sum "Si O2"
_cell_formula_units_Z 48
_cell_length_a 15.089372
_cell_length_b 18.483925
_cell_length_c 9.013831
_cell_angle_alpha 90.000000
_cell_angle_beta 90.000000
_cell_angle_gamma 90.000000
_cell_volume 2514.054999
_symmetry_space_group_name_H-M "I M A 2"
_symmetry_group_IT_number 46
_symmetry_cell_setting 'orthorhombic'
loop_
_space_group_symop_operation_xyz
x,y,z
-x,-y,z
1/2-x,y,z
1/2+x,-y,z
1/2+x,1/2+y,1/2+z
1/2-x,1/2-y,1/2+z
-x,1/2+y,1/2+z
x,1/2-y,1/2+z
loop_
_atom_site_type_symbol
_atom_site_label
_atom_site_fract_x
_atom_site_fract_y
_atom_site_fract_z
Si Si1 0.348971 0.557075 0.275210
Si Si2 0.406730 0.965965 0.093921
Si Si3 0.850584 0.595357 0.781415
Si Si4 0.004445 0.676366 0.276395
Si Si5 0.853432 0.908028 0.623343
Si Si6 0.002460 0.823914 0.124733
O O1 0.250000 0.582400 0.229848
O O2 0.345992 0.536694 0.448883
O O3 0.418388 0.619729 0.239105
O O4 0.377787 0.487413 0.181620
O O5 0.423999 0.885561 0.158515
O O6 0.500000 0.000000 0.042312
O O7 0.360983 0.013701 0.220406
O O8 0.750000 0.620804 0.764299
O O9 0.907796 0.652464 0.689638
O O10 0.880296 0.595421 0.951623
O O11 0.910613 0.651209 0.210435
O O12 0.034987 0.751047 0.202211
O O13 0.991755 0.688156 0.450230
O O14 0.750000 0.890449 0.649733
#
# Coordination Sequence:
#
# PCOD8192499 Si02
#       6
#     8   8   8   8   8   8
#     4  10  20  36  57  81 107 141 183 225 268 318
#     4   9  18  34  56  81 107 140 179 218 267 321
#     4  10  20  35  56  84 111 138 176 223 269 320
#     4  11  22  38  56  78 110 147 181 222 270 320
#     4  10  21  35  56  84 111 141 179 221 270 321
#     4  10  22  36  54  78 107 145 183 217 269 322
#
# _framework density 19.092659999999999
#
# number of rings (size 3 to 8) (size 9 to 14) (size 15 to 20)
#    0.000    2.000    0.000    5.000    0.000    8.000 
#    0.000    4.167    0.000    0.000    0.000    0.000 
#    0.000    0.000    0.000    0.000    0.000    0.000 
#
# Total GULP energy -297678.610049 kJ/mol
# GULP energy per Si atom -12403.275419 kJ/mol
# Density = 1.904920 g / cm^3
# Si number density = 19.092660 Si / 1000 Ang^3
#
#
#
# Elastic Constant Matrix: (Units=GPa)
#
#
# Indices 1 2 3 4 5 6 
#
# 1 53.6441 20.0306 15.9634 0.0000 0.0000 0.0000
# 2 20.0306 100.2168 31.2974 0.0000 0.0000 0.0000
# 3 15.9634 31.2974 80.9485 0.0000 0.0000 0.0000
# 4 0.0000 0.0000 0.0000 38.6704 0.0000 0.0000
# 5 0.0000 0.0000 0.0000 0.0000 27.8390 0.0000
# 6 0.0000 0.0000 0.0000 0.0000 0.0000 18.3761
#
#
#
# Elastic Compliance Matrix: (Units=1/GPa)
#
#
# Indices 1 2 3 4 5 6 
#
# 1 0.020697 -0.003255 -0.002823 0.000000 0.000000 0.000000
# 2 -0.003255 0.011861 -0.003944 0.000000 0.000000 0.000000
# 3 -0.002823 -0.003944 0.014435 0.000000 0.000000 0.000000
# 4 0.000000 0.000000 0.000000 0.025860 0.000000 0.000000
# 5 0.000000 0.000000 0.000000 0.000000 0.035921 0.000000
# 6 0.000000 0.000000 0.000000 0.000000 0.000000 0.054419
#
#
# Mechanical properties :
#
#
# Convention : Reuss Voigt Hill
#
# Bulk Modulus (GPa) = 37.10744 41.04357 39.07550
# Shear Modulus (GPa) = 26.01209 28.14496 27.07853
#
# Velocity S-wave (km/s) = 3.69509 3.84360 3.77008
# Velocity P-wave (km/s) = 6.13861 6.42194 6.28188
#
# Compressibility (1/GPa) = 0.02694877
#
# Stress axis : x y z
#
# Youngs Moduli (GPa) = 48.31639 84.31268 69.27587
#
# Poissons Ratio (x) = 0.27445 0.19556
# Poissons Ratio (y) = 0.15728 0.27321
# Poissons Ratio (z) = 0.13640 0.33251
#
# Static dielectric constant tensor:
#      x y z
#    x 3.402940 0.000000 0.000000 
#    y 0.000000 3.552760 0.000000 
#    z 0.000000 0.000000 3.533310 
# 
# 
# High freq. dielectric constant tensor:
#      x y z
#    x 1.738100 0.000000 0.000000 
#    y 0.000000 1.740260 0.000000 
#    z 0.000000 0.000000 1.749240 
# 
# From -- ./inp_files/5679.got.cif
#   From: 2010.03.12/outbox.cif.g09.slc.cpg/sg46_3_cif.got.tgz:5679.got - 2010.04.14 02:56:35.
