data_PCOD8192832
_publ_section_title
;
Structure prediction by ZEFSAII (Michael W. Deem and Ramdas Pophale) SiO2 
 PCOD8192832
Probable space group: I M A 2
;
_chemical_formula_sum "Si O2"
_cell_formula_units_Z 64
_cell_length_a 13.160709
_cell_length_b 18.850304
_cell_length_c 14.238149
_cell_angle_alpha 90.000000
_cell_angle_beta 90.000000
_cell_angle_gamma 90.000000
_cell_volume 3532.247922
_symmetry_space_group_name_H-M "I M A 2"
_symmetry_group_IT_number 46
_symmetry_cell_setting 'orthorhombic'
loop_
_space_group_symop_operation_xyz
x,y,z
-x,-y,z
1/2-x,y,z
1/2+x,-y,z
1/2+x,1/2+y,1/2+z
1/2-x,1/2-y,1/2+z
-x,1/2+y,1/2+z
x,1/2-y,1/2+z
loop_
_atom_site_type_symbol
_atom_site_label
_atom_site_fract_x
_atom_site_fract_y
_atom_site_fract_z
Si Si1 0.368704 0.822254 0.007530
Si Si2 0.131296 0.177745 0.496520
Si Si3 0.870264 0.398272 0.823181
Si Si4 0.629736 0.601728 0.680869
Si Si5 0.131077 0.548173 0.624487
Si Si6 0.368923 0.048173 0.379563
Si Si7 0.516533 0.241910 0.359153
Si Si8 0.016533 0.258090 0.644897
O O1 0.250000 0.806985 0.000235
O O2 0.390708 0.905343 0.031840
O O3 0.410857 0.770734 0.090045
O O4 0.422439 0.805849 0.908752
O O5 0.250000 0.193015 0.503815
O O6 0.109292 0.094657 0.472210
O O7 0.077561 0.194151 0.595299
O O8 0.089143 0.229266 0.414005
O O9 0.750000 0.389953 0.829725
O O10 0.908337 0.407072 0.715080
O O11 0.912719 0.467321 0.881734
O O12 0.917799 0.329327 0.869514
O O13 0.750000 0.610047 0.674325
O O14 0.587281 0.532679 0.622316
O O15 0.591663 0.592928 0.788970
O O16 0.582201 0.670673 0.634536
O O17 0.250000 0.537426 0.641834
O O18 0.250000 0.037426 0.362216
O O19 0.500000 0.265053 0.252025
#
# Coordination Sequence:
#
# PCOD8192832 Si02
#       8
#     8   8   8   8   8   8   8   8
#     4  10  21  35  48  71 109 144 177 219 265 318
#     4  10  21  35  48  71 109 144 177 219 265 318
#     4   9  16  29  50  77 107 139 167 208 264 316
#     4   9  16  29  50  77 107 139 167 208 264 316
#     4   8  15  29  49  74 108 140 169 205 261 317
#     4   8  15  29  49  74 108 140 169 205 261 317
#     4  11  21  32  51  78 104 139 181 222 263 321
#     4  11  21  32  51  78 104 139 181 222 263 321
#
# _framework density 18.118773999999998
#
# number of rings (size 3 to 8) (size 9 to 14) (size 15 to 20)
#    0.000    2.500    2.500    2.250    0.000    2.000 
#    0.000    0.000    0.000    0.000    0.000   14.000 
#    0.000   36.000    0.000    0.000    0.000    0.000 
#
# Total GULP energy -396695.612202 kJ/mol
# GULP energy per Si atom -12396.737881 kJ/mol
# Density = 1.807753 g / cm^3
# Si number density = 18.118774 Si / 1000 Ang^3
#
#
#
# Elastic Constant Matrix: (Units=GPa)
#
#
# Indices 1 2 3 4 5 6 
#
# 1 50.5506 33.3917 40.8739 0.0000 0.0000 0.0000
# 2 33.3917 96.6611 54.1823 0.0001 0.0000 0.0000
# 3 40.8739 54.1823 117.2836 -0.0003 0.0000 0.0000
# 4 0.0000 0.0001 -0.0003 35.9290 0.0000 0.0000
# 5 0.0000 0.0000 0.0000 0.0000 21.6826 0.0000
# 6 0.0000 0.0000 0.0000 0.0000 0.0000 22.7568
#
#
#
# Elastic Compliance Matrix: (Units=1/GPa)
#
#
# Indices 1 2 3 4 5 6 
#
# 1 0.029970 -0.006070 -0.007640 0.000000 0.000000 0.000000
# 2 -0.006070 0.015190 -0.004902 0.000000 0.000000 0.000000
# 3 -0.007640 -0.004902 0.013454 0.000000 0.000000 0.000000
# 4 0.000000 0.000000 0.000000 0.027833 0.000000 0.000000
# 5 0.000000 0.000000 0.000000 0.000000 0.046120 0.000000
# 6 0.000000 0.000000 0.000000 0.000000 0.000000 0.043943
#
#
# Mechanical properties :
#
#
# Convention : Reuss Voigt Hill
#
# Bulk Modulus (GPa) = 46.75444 57.93233 52.34339
# Shear Modulus (GPa) = 22.63841 25.14351 23.89096
#
# Velocity S-wave (km/s) = 3.53858 3.72923 3.63516
# Velocity P-wave (km/s) = 6.52349 7.11238 6.82429
#
# Compressibility (1/GPa) = 0.02138834
#
# Stress axis : x y z
#
# Youngs Moduli (GPa) = 33.36700 65.83193 74.32975
#
# Poissons Ratio (x) = 0.39963 0.56789
# Poissons Ratio (y) = 0.20255 0.36436
# Poissons Ratio (z) = 0.25493 0.32270
#
# Static dielectric constant tensor:
#      x y z
#    x 3.575030 0.000000 0.000000 
#    y 0.000000 3.357620 0.000000 
#    z 0.000000 0.000000 3.119400 
# 
# 
# High freq. dielectric constant tensor:
#      x y z
#    x 1.733790 0.000000 0.000000 
#    y 0.000000 1.686470 0.000000 
#    z 0.000000 0.000000 1.659310 
# 
# From -- ./inp_files/16177.got.cif
#   From: 2010.03.12/outbox.cif.g09.slc.cpg/sg46_9_cif.got.tgz:16177.got - 2010.04.14 02:56:35.
