data_PCOD8192957
_publ_section_title
;
Structure prediction by ZEFSAII (Michael W. Deem and Ramdas Pophale) SiO2 
 PCOD8192957
Probable space group: I M A 2
;
_chemical_formula_sum "Si O2"
_cell_formula_units_Z 48
_cell_length_a 8.651959
_cell_length_b 9.120347
_cell_length_c 29.886286
_cell_angle_alpha 90.000000
_cell_angle_beta 90.000000
_cell_angle_gamma 90.000000
_cell_volume 2358.293006
_symmetry_space_group_name_H-M "I M A 2"
_symmetry_group_IT_number 46
_symmetry_cell_setting 'orthorhombic'
loop_
_space_group_symop_operation_xyz
x,y,z
-x,-y,z
1/2-x,y,z
1/2+x,-y,z
1/2+x,1/2+y,1/2+z
1/2-x,1/2-y,1/2+z
-x,1/2+y,1/2+z
x,1/2-y,1/2+z
loop_
_atom_site_type_symbol
_atom_site_label
_atom_site_fract_x
_atom_site_fract_y
_atom_site_fract_z
Si Si1 0.428413 0.154131 0.917290
Si Si2 0.432226 0.655023 0.740597
Si Si3 0.430522 0.340601 0.004827
Si Si4 0.430669 0.652977 0.843493
Si Si5 0.566961 0.659168 0.165176
Si Si6 0.432804 0.659632 0.584808
O O1 0.250000 0.131848 0.907291
O O2 0.505297 0.213158 0.872146
O O3 0.500000 0.000000 0.931105
O O4 0.459329 0.264094 0.957658
O O5 0.500000 0.500000 0.723842
O O6 0.250000 0.654949 0.732410
O O7 0.476651 0.681568 0.792142
O O8 0.509911 0.787703 0.713668
O O9 0.500000 0.500000 0.000200
O O10 0.250000 0.344770 0.017813
O O11 0.525682 0.258619 0.042737
O O12 0.500000 0.500000 0.860816
O O13 0.250000 0.642508 0.850111
O O14 0.500000 0.500000 0.153939
O O15 0.750000 0.650347 0.163976
O O16 0.507585 0.775130 0.129242
O O17 0.500000 0.500000 0.575818
O O18 0.250000 0.651614 0.590982
#
# Coordination Sequence:
#
# PCOD8192957 Si02
#       6
#     8   8   8   8   8   8
#     4  11  24  40  61  88 122 160 202 249 300 356
#     4  10  21  39  62  90 121 158 201 248 300 357
#     4  11  24  42  64  92 123 159 200 246 298 355
#     4  10  21  38  62  89 121 158 201 249 300 357
#     4  12  25  42  63  89 122 160 201 248 299 356
#     4  12  25  43  66  92 123 159 199 246 297 355
#
# _framework density 20.353705999999999
#
# number of rings (size 3 to 8) (size 9 to 14) (size 15 to 20)
#    0.000    1.000    0.000    7.000    0.000    8.000 
#    0.000    0.000    0.000    0.000    0.000    0.000 
#    0.000    0.000    0.000    0.000    0.000    0.000 
#
# Total GULP energy -297793.641456 kJ/mol
# GULP energy per Si atom -12408.068394 kJ/mol
# Density = 2.030738 g / cm^3
# Si number density = 20.353706 Si / 1000 Ang^3
#
#
#
# Elastic Constant Matrix: (Units=GPa)
#
#
# Indices 1 2 3 4 5 6 
#
# 1 132.1583 48.4006 49.9414 0.0000 0.0000 0.0000
# 2 48.4006 128.6081 39.9888 0.0000 0.0008 0.0000
# 3 49.9414 39.9888 87.2649 0.0000 0.0003 0.0000
# 4 0.0000 0.0000 0.0000 73.5717 -0.0001 0.0000
# 5 0.0000 0.0008 0.0003 -0.0001 -265.3116 -0.0001
# 6 0.0000 0.0000 0.0000 0.0000 -0.0001 40.6845
#
#
#
# Elastic Compliance Matrix: (Units=1/GPa)
#
#
# Indices 1 2 3 4 5 6 
#
# 1 0.010238 -0.002369 -0.004774 0.000000 0.000000 0.000000
# 2 -0.002369 0.009616 -0.003051 0.000000 0.000000 0.000000
# 3 -0.004774 -0.003051 0.015589 0.000000 0.000000 0.000000
# 4 0.000000 0.000000 0.000000 0.013592 0.000000 0.000000
# 5 0.000000 0.000000 0.000000 0.000000 -0.003769 0.000000
# 6 0.000000 0.000000 0.000000 0.000000 0.000000 0.024579
#
#
# Mechanical properties :
#
#
# Convention : Reuss Voigt Hill
#
# Bulk Modulus (GPa) = 66.41571 69.41030 67.91301
# Shear Modulus (GPa) = 52.49300 -16.23104 18.13098
#
# Velocity S-wave (km/s) = 5.08393 -2.82698 2.98786
# Velocity P-wave (km/s) = 8.19533 4.84978 6.73364
#
# Compressibility (1/GPa) = 0.01505668
#
# Stress axis : x y z
#
# Youngs Moduli (GPa) = 97.67383 103.99799 64.14629
#
# Poissons Ratio (x) = 0.24634 0.30622
# Poissons Ratio (y) = 0.23136 0.19569
# Poissons Ratio (z) = 0.46628 0.31727
#
# Static dielectric constant tensor:
#      x y z
#    x 4.543280 0.000000 0.000000 
#    y 0.000000 3.698940 0.000000 
#    z 0.000000 0.000000 3.840580 
# 
# 
# High freq. dielectric constant tensor:
#      x y z
#    x 1.815220 0.000000 0.000000 
#    y 0.000000 1.805300 0.000000 
#    z 0.000000 0.000000 1.807680 
# 
# From -- ./inp_files/24983.got.cif
#   From: 2010.03.12/outbox.cif.g09.slc.cpg/sg46_13_cif.got.tgz:24983.got - 2010.04.14 02:56:35.
