data_PCOD8192788
_publ_section_title
;
Structure prediction by ZEFSAII (Michael W. Deem and Ramdas Pophale) SiO2 
 PCOD8192788
Probable space group: I M A 2
;
_chemical_formula_sum "Si O2"
_cell_formula_units_Z 40
_cell_length_a 10.278013
_cell_length_b 18.688994
_cell_length_c 10.012552
_cell_angle_alpha 90.000000
_cell_angle_beta 90.000000
_cell_angle_gamma 90.000000
_cell_volume 1923.268293
_symmetry_space_group_name_H-M "I M A 2"
_symmetry_group_IT_number 46
_symmetry_cell_setting 'orthorhombic'
loop_
_space_group_symop_operation_xyz
x,y,z
-x,-y,z
1/2-x,y,z
1/2+x,-y,z
1/2+x,1/2+y,1/2+z
1/2-x,1/2-y,1/2+z
-x,1/2+y,1/2+z
x,1/2-y,1/2+z
loop_
_atom_site_type_symbol
_atom_site_label
_atom_site_fract_x
_atom_site_fract_y
_atom_site_fract_z
Si Si1 0.750000 0.333635 0.467580
Si Si2 0.750000 0.573782 0.150081
Si Si3 0.994689 0.079416 0.033605
Si Si4 0.250000 0.180035 0.408859
Si Si5 0.750000 0.214359 0.265328
Si Si6 0.750000 0.649413 0.433026
Si Si7 0.515989 0.117244 0.325872
Si Si8 0.500000 0.000000 0.542823
O O1 0.623345 0.382214 0.460601
O O2 0.750000 0.293038 0.326792
O O3 0.750000 0.284821 0.603041
O O4 0.750000 0.609455 0.293100
O O5 0.750000 0.641206 0.051242
O O6 0.877868 0.524246 0.132845
O O7 0.124041 0.125198 0.013877
O O8 0.967695 0.071898 0.191114
O O9 0.000000 0.000000 0.972311
O O10 0.250000 0.265185 0.422862
O O11 0.375893 0.154887 0.327751
O O12 0.622913 0.178550 0.327241
O O13 0.543981 0.065837 0.450335
#
# Coordination Sequence:
#
# PCOD8192788 Si02
#       8
#     4   4   8   4   4   4   8   4
#     4  10  23  43  63  92 126 164 208 261 309 381
#     4  10  25  41  66  91 129 169 204 261 315 374
#     4  11  23  41  65  93 123 163 209 258 318 363
#     4  10  23  41  63  94 120 167 211 251 325 356
#     4  10  21  40  60  96 124 165 206 251 325 365
#     4  12  26  41  62  91 137 163 207 256 316 388
#     4  10  20  39  70  90 122 156 215 269 296 374
#     4  10  20  44  64  96 120 162 218 256 314 360
#
# _framework density 20.797930999999998
#
# number of rings (size 3 to 8) (size 9 to 14) (size 15 to 20)
#    0.000    1.600    1.000    3.000    4.200    0.000 
#   10.800    0.000    0.000    0.000    0.000    0.000 
#    0.000    0.000    0.000    0.000    0.000    0.000 
#
# Total GULP energy -248032.856721 kJ/mol
# GULP energy per Si atom -12401.642836 kJ/mol
# Density = 2.075059 g / cm^3
# Si number density = 20.797931 Si / 1000 Ang^3
#
#
#
# Elastic Constant Matrix: (Units=GPa)
#
#
# Indices 1 2 3 4 5 6 
#
# 1 143.8910 50.0147 17.4449 -0.0002 0.0005 0.0001
# 2 50.0147 140.0924 30.3784 -0.0002 0.0006 0.0001
# 3 17.4449 30.3784 61.7460 -0.0004 0.0007 -0.0001
# 4 -0.0002 -0.0002 -0.0004 18.8338 0.0011 0.0002
# 5 0.0005 0.0006 0.0007 0.0011 66.5484 -0.0014
# 6 0.0001 0.0001 -0.0001 0.0002 -0.0014 -2.7400
#
#
#
# Elastic Compliance Matrix: (Units=1/GPa)
#
#
# Indices 1 2 3 4 5 6 
#
# 1 0.007984 -0.002643 -0.000955 0.000000 0.000000 0.000000
# 2 -0.002643 0.008866 -0.003615 0.000000 0.000000 0.000000
# 3 -0.000955 -0.003615 0.018244 0.000000 0.000000 -0.000001
# 4 0.000000 0.000000 0.000000 0.053096 -0.000001 0.000004
# 5 0.000000 0.000000 0.000000 -0.000001 0.015027 -0.000008
# 6 0.000000 0.000000 -0.000001 0.000004 -0.000008 -0.364965
#
#
# Mechanical properties :
#
#
# Convention : Reuss Voigt Hill
#
# Bulk Modulus (GPa) = 48.38732 60.15614 54.27173
# Shear Modulus (GPa) = -20.79587 33.05455 6.12934
#
# Velocity S-wave (km/s) = -3.16555 3.99095 1.71857
# Velocity P-wave (km/s) = 3.15515 7.08688 5.48538
#
# Compressibility (1/GPa) = 0.02066657
#
# Stress axis : x y z
#
# Youngs Moduli (GPa) = 125.24559 112.79348 54.81300
#
# Poissons Ratio (x) = 0.29815 0.05236
# Poissons Ratio (y) = 0.33107 0.19815
# Poissons Ratio (z) = 0.11964 0.40775
#
# Static dielectric constant tensor:
#      x y z
#    x 3.808800 0.000000 0.000000 
#    y 0.000000 3.759880 0.000000 
#    z 0.000000 0.000000 3.609510 
# 
# 
# High freq. dielectric constant tensor:
#      x y z
#    x 1.832100 0.000000 0.000000 
#    y 0.000000 1.817570 0.000000 
#    z 0.000000 0.000000 1.810040 
# 
# From -- ./inp_files/4508.got.cif
#   From: 2010.03.12/outbox.cif.g09.slc.cpg/sg46_3_cif.got.tgz:4508.got - 2010.04.14 02:56:35.
