data_PCOD8192027
_publ_section_title
;
Structure prediction by ZEFSAII (Michael W. Deem and Ramdas Pophale) SiO2 
 PCOD8192027
Probable space group: I M A 2
;
_chemical_formula_sum "Si O2"
_cell_formula_units_Z 56
_cell_length_a 8.695391
_cell_length_b 18.349353
_cell_length_c 20.968006
_cell_angle_alpha 90.000000
_cell_angle_beta 90.000000
_cell_angle_gamma 90.000000
_cell_volume 3345.545981
_symmetry_space_group_name_H-M "I M A 2"
_symmetry_group_IT_number 46
_symmetry_cell_setting 'orthorhombic'
loop_
_space_group_symop_operation_xyz
x,y,z
-x,-y,z
1/2-x,y,z
1/2+x,-y,z
1/2+x,1/2+y,1/2+z
1/2-x,1/2-y,1/2+z
-x,1/2+y,1/2+z
x,1/2-y,1/2+z
loop_
_atom_site_type_symbol
_atom_site_label
_atom_site_fract_x
_atom_site_fract_y
_atom_site_fract_z
Si Si1 0.082084 0.213964 0.893720
Si Si2 0.930848 0.421538 0.077069
Si Si3 0.429877 0.575188 0.823733
Si Si4 0.418169 0.203216 0.261470
Si Si5 0.431459 0.153460 0.695939
Si Si6 0.566653 0.578207 0.325839
Si Si7 0.065774 0.357309 0.948841
O O1 0.250000 0.197169 0.922678
O O2 0.100503 0.252462 0.826075
O O3 0.999515 0.136166 0.878970
O O4 0.000573 0.273491 0.940222
O O5 0.750000 0.428192 0.067420
O O6 0.000000 0.500000 0.092489
O O7 0.969514 0.368649 0.135192
O O8 0.005270 0.389278 0.013945
O O9 0.500000 0.500000 0.797878
O O10 0.250000 0.567859 0.834369
O O11 0.463208 0.636798 0.770192
O O12 0.508375 0.592798 0.891173
O O13 0.250000 0.171441 0.242888
O O14 0.473456 0.261591 0.208542
O O15 0.250000 0.144045 0.682737
O O16 0.483915 0.102485 0.755022
O O17 0.500000 0.500000 0.343029
O O18 0.750000 0.577676 0.330113
O O19 0.250000 0.357087 0.947620
#
# Coordination Sequence:
#
# PCOD8192027 Si02
#       7
#     8   8   8   8   8   8   8
#     4   7  13  27  46  64  85 115 148 183 224 272
#     4  12  24  35  47  67  95 125 159 194 229 272
#     4  11  20  30  46  70  98 124 153 190 234 279
#     4   8  15  30  49  67  89 119 154 190 230 276
#     4   9  18  33  50  67  92 126 160 191 226 271
#     4   9  16  27  44  68  94 119 148 182 222 266
#     4  10  19  34  51  65  87 122 161 196 234 278
#
# _framework density 16.738672999999999
#
# number of rings (size 3 to 8) (size 9 to 14) (size 15 to 20)
#    0.000    2.571    0.000    6.429    0.000    2.286 
#    0.000    6.429    0.000    0.000    0.000    1.000 
#    0.000    2.286    0.000    0.000    0.000    0.000 
#
# Total GULP energy -346925.952739 kJ/mol
# GULP energy per Si atom -12390.212598 kJ/mol
# Density = 1.670058 g / cm^3
# Si number density = 16.738673 Si / 1000 Ang^3
#
#
#
# Elastic Constant Matrix: (Units=GPa)
#
#
# Indices 1 2 3 4 5 6 
#
# 1 77.0801 40.6350 23.5786 0.0000 0.0000 0.0000
# 2 40.6350 125.3926 40.6799 0.0000 0.0000 0.0000
# 3 23.5786 40.6799 53.0164 0.0000 0.0000 0.0000
# 4 0.0000 0.0000 0.0000 28.3991 0.0000 0.0000
# 5 0.0000 0.0000 0.0000 0.0000 19.8849 0.0000
# 6 0.0000 0.0000 0.0000 0.0000 0.0000 25.9757
#
#
#
# Elastic Compliance Matrix: (Units=1/GPa)
#
#
# Indices 1 2 3 4 5 6 
#
# 1 0.016340 -0.003911 -0.004266 0.000000 0.000000 0.000000
# 2 -0.003911 0.011554 -0.007126 0.000000 0.000000 0.000000
# 3 -0.004266 -0.007126 0.026227 0.000000 0.000000 0.000000
# 4 0.000000 0.000000 0.000000 0.035212 0.000000 0.000000
# 5 0.000000 0.000000 0.000000 0.000000 0.050289 0.000000
# 6 0.000000 0.000000 0.000000 0.000000 0.000000 0.038498
#
#
# Mechanical properties :
#
#
# Convention : Reuss Voigt Hill
#
# Bulk Modulus (GPa) = 42.52615 51.69736 47.11175
# Shear Modulus (GPa) = 23.08751 24.89163 23.98957
#
# Velocity S-wave (km/s) = 3.71791 3.86044 3.78985
# Velocity P-wave (km/s) = 6.62507 7.12901 6.88165
#
# Compressibility (1/GPa) = 0.02351495
#
# Stress axis : x y z
#
# Youngs Moduli (GPa) = 61.19772 86.54745 38.12803
#
# Poissons Ratio (x) = 0.33852 0.16266
# Poissons Ratio (y) = 0.23936 0.27171
# Poissons Ratio (z) = 0.26108 0.61676
#
# Static dielectric constant tensor:
#      x y z
#    x 3.014040 0.000000 0.000000 
#    y 0.000000 3.612490 0.000000 
#    z 0.000000 0.000000 2.968360 
# 
# 
# High freq. dielectric constant tensor:
#      x y z
#    x 1.633840 0.000000 0.000000 
#    y 0.000000 1.655290 0.000000 
#    z 0.000000 0.000000 1.604420 
# 
# From -- ./inp_files/21207.got.cif
#   From: 2010.03.12/outbox.cif.g09.slc.cpg/sg46_11_cif.got.tgz:21207.got - 2010.04.14 02:56:35.
