data_PCOD8192698
_publ_section_title
;
Structure prediction by ZEFSAII (Michael W. Deem and Ramdas Pophale) SiO2 
 PCOD8192698
Probable space group: I M A 2
;
_chemical_formula_sum "Si O2"
_cell_formula_units_Z 64
_cell_length_a 16.259738
_cell_length_b 11.346140
_cell_length_c 16.289597
_cell_angle_alpha 90.000000
_cell_angle_beta 90.000000
_cell_angle_gamma 90.000000
_cell_volume 3005.190598
_symmetry_space_group_name_H-M "I M A 2"
_symmetry_group_IT_number 46
_symmetry_cell_setting 'orthorhombic'
loop_
_space_group_symop_operation_xyz
x,y,z
-x,-y,z
1/2-x,y,z
1/2+x,-y,z
1/2+x,1/2+y,1/2+z
1/2-x,1/2-y,1/2+z
-x,1/2+y,1/2+z
x,1/2-y,1/2+z
loop_
_atom_site_type_symbol
_atom_site_label
_atom_site_fract_x
_atom_site_fract_y
_atom_site_fract_z
Si Si1 0.883996 0.161628 0.552760
Si Si2 0.846026 0.916452 0.109657
Si Si3 0.653711 0.534876 0.942446
Si Si4 0.905958 0.029758 0.272828
Si Si5 0.339712 0.987113 0.693979
Si Si6 0.426701 0.169138 0.591700
Si Si7 0.657098 0.393705 0.486260
Si Si8 0.151185 0.789544 0.819100
O O1 0.825817 0.085120 0.610587
O O2 0.849933 0.293092 0.555260
O O3 0.976577 0.155462 0.584659
O O4 0.872459 0.100258 0.463559
O O5 0.750000 0.883969 0.099407
O O6 0.902229 0.802058 0.110493
O O7 0.855210 0.991924 0.192553
O O8 0.878981 0.989708 0.029670
O O9 0.750000 0.556538 0.945741
O O10 0.622852 0.551739 0.849312
O O11 0.612359 0.625989 0.005873
O O12 0.891867 0.168848 0.290395
O O13 0.000000 0.000000 0.255000
O O14 0.250000 0.035572 0.721985
O O15 0.375976 0.895855 0.759533
O O16 0.399506 0.095728 0.672597
O O17 0.750000 0.421602 0.462044
O O18 0.613753 0.340231 0.405175
O O19 0.250000 0.769143 0.821622
#
# Coordination Sequence:
#
# PCOD8192698 Si02
#       8
#     8   8   8   8   8   8   8   8
#     4  11  20  35  64  92 125 158 207 266 321 364
#     4  11  25  44  64  90 130 177 213 255 325 400
#     4  11  21  40  67  93 122 165 214 262 318 383
#     4  12  25  40  64  97 131 161 210 274 327 376
#     4  10  20  37  64  93 121 163 211 260 312 373
#     4  11  24  40  62  91 134 167 213 259 318 392
#     4  10  21  39  66  93 123 162 211 268 321 378
#     4  10  21  40  68  97 124 158 214 271 317 376
#
# _framework density 21.296485000000001
#
# number of rings (size 3 to 8) (size 9 to 14) (size 15 to 20)
#    0.000    1.250    1.250    7.125    3.500    2.000 
#    2.250    0.000    2.750    0.000    0.000    0.000 
#    0.000    0.000    0.000    0.000    0.000    0.000 
#
# Total GULP energy -396597.497655 kJ/mol
# GULP energy per Si atom -12393.671802 kJ/mol
# Density = 2.124801 g / cm^3
# Si number density = 21.296485 Si / 1000 Ang^3
#
#
#
# Elastic Constant Matrix: (Units=GPa)
#
#
# Indices 1 2 3 4 5 6 
#
# 1 64.6204 4.8379 13.3840 0.0000 0.0000 0.0000
# 2 4.8379 111.7688 42.0403 0.0000 0.0000 0.0000
# 3 13.3840 42.0403 83.7875 0.0000 0.0000 0.0000
# 4 0.0000 0.0000 0.0000 28.7450 0.0000 0.0000
# 5 0.0000 0.0000 0.0000 0.0000 17.6802 0.0000
# 6 0.0000 0.0000 0.0000 0.0000 0.0000 13.7401
#
#
#
# Elastic Compliance Matrix: (Units=1/GPa)
#
#
# Indices 1 2 3 4 5 6 
#
# 1 0.016014 0.000332 -0.002724 0.000000 0.000000 0.000000
# 2 0.000332 0.011035 -0.005590 0.000000 0.000000 0.000000
# 3 -0.002724 -0.005590 0.015175 0.000000 0.000000 0.000000
# 4 0.000000 0.000000 0.000000 0.034789 0.000000 0.000000
# 5 0.000000 0.000000 0.000000 0.000000 0.056561 0.000000
# 6 0.000000 0.000000 0.000000 0.000000 0.000000 0.072779
#
#
# Mechanical properties :
#
#
# Convention : Reuss Voigt Hill
#
# Bulk Modulus (GPa) = 38.08215 42.30013 40.19114
# Shear Modulus (GPa) = 21.63830 25.36071 23.49950
#
# Velocity S-wave (km/s) = 3.19101 3.45460 3.32542
# Velocity P-wave (km/s) = 5.61226 5.98481 5.80153
#
# Compressibility (1/GPa) = 0.02625902
#
# Stress axis : x y z
#
# Youngs Moduli (GPa) = 62.44357 90.61872 65.89841
#
# Poissons Ratio (x) = -0.03005 0.17954
# Poissons Ratio (y) = -0.02071 0.36837
# Poissons Ratio (z) = 0.17013 0.50655
#
# Static dielectric constant tensor:
#      x y z
#    x 3.659240 0.000000 0.000000 
#    y 0.000000 3.858960 0.000000 
#    z 0.000000 0.000000 4.096830 
# 
# 
# High freq. dielectric constant tensor:
#      x y z
#    x 1.826170 0.000000 0.000000 
#    y 0.000000 1.831110 0.000000 
#    z 0.000000 0.000000 1.840250 
# 
# From -- ./inp_files/19673.got.cif
#   From: 2010.03.12/outbox.cif.g09.slc.cpg/sg46_10_cif.got.tgz:19673.got - 2010.04.14 02:56:35.
