data_PCOD8192550
_publ_section_title
;
Structure prediction by ZEFSAII (Michael W. Deem and Ramdas Pophale) SiO2 
 PCOD8192550
Probable space group: I M A 2
;
_chemical_formula_sum "Si O2"
_cell_formula_units_Z 56
_cell_length_a 14.546707
_cell_length_b 12.142840
_cell_length_c 17.059469
_cell_angle_alpha 90.000000
_cell_angle_beta 90.000000
_cell_angle_gamma 90.000000
_cell_volume 3013.356211
_symmetry_space_group_name_H-M "I M A 2"
_symmetry_group_IT_number 46
_symmetry_cell_setting 'orthorhombic'
loop_
_space_group_symop_operation_xyz
x,y,z
-x,-y,z
1/2-x,y,z
1/2+x,-y,z
1/2+x,1/2+y,1/2+z
1/2-x,1/2-y,1/2+z
-x,1/2+y,1/2+z
x,1/2-y,1/2+z
loop_
_atom_site_type_symbol
_atom_site_label
_atom_site_fract_x
_atom_site_fract_y
_atom_site_fract_z
Si Si1 0.489997 0.872628 0.246320
Si Si2 0.993351 0.625347 0.420273
Si Si3 0.851318 0.616836 0.133051
Si Si4 0.856112 0.299639 0.877356
Si Si5 0.641504 0.792735 0.794380
Si Si6 0.410388 0.570148 0.021714
Si Si7 0.499688 0.279650 0.581405
O O1 0.402419 0.834969 0.296281
O O2 0.587385 0.817473 0.269047
O O3 0.465998 0.845917 0.156570
O O4 0.500000 0.000000 0.259720
O O5 0.903729 0.671202 0.375903
O O6 0.977659 0.633652 0.513074
O O7 0.000000 0.500000 0.393853
O O8 0.087418 0.691373 0.403259
O O9 0.750000 0.662139 0.124687
O O10 0.875419 0.613222 0.226688
O O11 0.858128 0.499427 0.088931
O O12 0.907611 0.711089 0.091594
O O13 0.750000 0.267108 0.863232
O O14 0.858854 0.401451 0.940227
O O15 0.750000 0.768128 0.806822
O O16 0.500000 0.500000 0.998171
O O17 0.424160 0.689185 0.060172
#
# Coordination Sequence:
#
# PCOD8192550 Si02
#       7
#     8   8   8   8   8   8   8
#     4  10  20  36  56  77 106 142 178 218 265 318
#     4  10  21  37  56  77 105 141 178 219 267 319
#     4   9  17  31  53  80 106 136 174 219 266 313
#     4  10  21  36  53  79 109 138 177 223 266 316
#     4   9  20  36  55  81 109 136 176 223 266 315
#     4   9  17  32  54  79 107 140 175 217 267 313
#     4   9  19  34  52  75 105 139 177 217 261 314
#
# _framework density 18.583929000000001
#
# number of rings (size 3 to 8) (size 9 to 14) (size 15 to 20)
#    0.000    2.571    0.000    1.286    0.000    6.857 
#    0.000    5.000    0.000    6.857    0.000    0.000 
#    0.000    0.000    0.000    0.000    0.000    0.000 
#
# Total GULP energy -346913.704839 kJ/mol
# GULP energy per Si atom -12389.775173 kJ/mol
# Density = 1.854163 g / cm^3
# Si number density = 18.583929 Si / 1000 Ang^3
#
#
#
# Elastic Constant Matrix: (Units=GPa)
#
#
# Indices 1 2 3 4 5 6 
#
# 1 119.9400 30.1560 56.6167 0.0000 0.0000 0.0000
# 2 30.1560 88.4189 43.7582 0.0000 0.0000 0.0000
# 3 56.6167 43.7582 140.2210 0.0000 0.0000 0.0000
# 4 0.0000 0.0000 0.0000 20.0005 0.0000 0.0000
# 5 0.0000 0.0000 0.0000 0.0000 13.4832 0.0000
# 6 0.0000 0.0000 0.0000 0.0000 0.0000 9.3146
#
#
#
# Elastic Compliance Matrix: (Units=1/GPa)
#
#
# Indices 1 2 3 4 5 6 
#
# 1 0.010527 -0.001758 -0.003702 0.000000 0.000000 0.000000
# 2 -0.001758 0.013669 -0.003556 0.000000 0.000000 0.000000
# 3 -0.003702 -0.003556 0.009736 0.000000 0.000000 0.000000
# 4 0.000000 0.000000 0.000000 0.049999 0.000000 0.000000
# 5 0.000000 0.000000 0.000000 0.000000 0.074166 0.000000
# 6 0.000000 0.000000 0.000000 0.000000 0.000000 0.107358
#
#
# Mechanical properties :
#
#
# Convention : Reuss Voigt Hill
#
# Bulk Modulus (GPa) = 62.89137 67.73798 65.31467
# Shear Modulus (GPa) = 17.31378 23.09626 20.20502
#
# Velocity S-wave (km/s) = 3.05561 3.52917 3.30090
# Velocity P-wave (km/s) = 6.80913 7.28942 7.05337
#
# Compressibility (1/GPa) = 0.01590043
#
# Stress axis : x y z
#
# Youngs Moduli (GPa) = 94.99415 73.15707 102.71301
#
# Poissons Ratio (x) = 0.12863 0.38022
# Poissons Ratio (y) = 0.16703 0.36522
# Poissons Ratio (z) = 0.35164 0.26013
#
# Static dielectric constant tensor:
#      x y z
#    x 3.302330 0.000000 0.000000 
#    y 0.000000 3.332250 0.000000 
#    z 0.000000 0.000000 3.766270 
# 
# 
# High freq. dielectric constant tensor:
#      x y z
#    x 1.709490 0.000000 0.000000 
#    y 0.000000 1.711240 0.000000 
#    z 0.000000 0.000000 1.735040 
# 
# From -- ./inp_files/15946.got.cif
#   From: 2010.03.12/outbox.cif.g09.slc.cpg/sg46_8_cif.got.tgz:15946.got - 2010.04.14 02:56:35.
