data_PCOD8192393
_publ_section_title
;
Structure prediction by ZEFSAII (Michael W. Deem and Ramdas Pophale) SiO2 
 PCOD8192393
Probable space group: I M A 2
;
_chemical_formula_sum "Si O2"
_cell_formula_units_Z 64
_cell_length_a 8.789133
_cell_length_b 33.353355
_cell_length_c 11.753817
_cell_angle_alpha 90.000000
_cell_angle_beta 90.000000
_cell_angle_gamma 90.000000
_cell_volume 3445.597051
_symmetry_space_group_name_H-M "I M A 2"
_symmetry_group_IT_number 46
_symmetry_cell_setting 'orthorhombic'
loop_
_space_group_symop_operation_xyz
x,y,z
-x,-y,z
1/2-x,y,z
1/2+x,-y,z
1/2+x,1/2+y,1/2+z
1/2-x,1/2-y,1/2+z
-x,1/2+y,1/2+z
x,1/2-y,1/2+z
loop_
_atom_site_type_symbol
_atom_site_label
_atom_site_fract_x
_atom_site_fract_y
_atom_site_fract_z
Si Si1 0.926500 0.318755 0.237580
Si Si2 0.068818 0.542219 0.733547
Si Si3 0.927327 0.960204 0.988917
Si Si4 0.580712 0.109497 0.886321
Si Si5 0.428031 0.376652 0.800993
Si Si6 0.578395 0.331116 0.595606
Si Si7 0.076976 0.182956 0.499810
Si Si8 0.075583 0.271600 0.433621
O O1 0.750000 0.309933 0.258246
O O2 0.967539 0.363586 0.279204
O O3 0.016606 0.286322 0.311586
O O4 0.965129 0.316428 0.106008
O O5 0.250000 0.539683 0.738003
O O6 0.000000 0.500000 0.779870
O O7 0.014272 0.550005 0.605318
O O8 0.013092 0.580417 0.806373
O O9 0.750000 0.965541 0.014202
O O10 0.956963 0.925591 0.897034
O O11 0.000000 0.000000 0.935476
O O12 0.750000 0.091417 0.869823
O O13 0.576247 0.135732 0.999016
O O14 0.250000 0.384651 0.783986
O O15 0.481794 0.347452 0.700587
O O16 0.463824 0.354391 0.919253
O O17 0.750000 0.322425 0.637093
O O18 0.510505 0.290287 0.542762
O O19 0.250000 0.179593 0.543753
O O20 0.053086 0.223956 0.430751
O O21 0.250000 0.284320 0.446155
#
# Coordination Sequence:
#
# PCOD8192393 Si02
#       8
#     8   8   8   8   8   8   8   8
#     4  10  22  39  59  82 109 144 188 236 284 335
#     4  11  21  35  55  82 117 153 188 235 288 347
#     4  11  20  30  50  80 113 147 181 221 275 335
#     4   9  18  34  53  76 109 142 178 224 276 329
#     4  11  22  37  57  84 116 153 193 236 287 347
#     4  10  20  34  54  82 113 146 185 232 281 335
#     4  10  24  41  58  81 112 151 193 236 283 341
#     4  10  21  38  59  81 111 150 189 234 284 339
#
# _framework density 18.574428000000001
#
# number of rings (size 3 to 8) (size 9 to 14) (size 15 to 20)
#    0.000    1.750    1.250    5.250    1.750    4.500 
#    0.000    0.000    0.000    0.750    0.000    5.250 
#    0.000    0.000    0.000    0.000    0.000    0.000 
#
# Total GULP energy -396833.190340 kJ/mol
# GULP energy per Si atom -12401.037198 kJ/mol
# Density = 1.853215 g / cm^3
# Si number density = 18.574428 Si / 1000 Ang^3
#
#
#
# Elastic Constant Matrix: (Units=GPa)
#
#
# Indices 1 2 3 4 5 6 
#
# 1 125.1050 59.8836 35.7209 0.0003 -0.0001 -0.0001
# 2 59.8836 120.8954 37.8806 -0.0005 0.0005 0.0001
# 3 35.7209 37.8806 75.7033 0.0004 0.0013 0.0002
# 4 0.0003 -0.0005 0.0004 24.0403 0.0009 0.0002
# 5 -0.0001 0.0005 0.0013 0.0009 26.0518 0.0002
# 6 -0.0001 0.0001 0.0002 0.0002 0.0002 31.0640
#
#
#
# Elastic Compliance Matrix: (Units=1/GPa)
#
#
# Indices 1 2 3 4 5 6 
#
# 1 0.010997 -0.004532 -0.002921 0.000000 0.000000 0.000000
# 2 -0.004532 0.011677 -0.003705 0.000000 0.000000 0.000000
# 3 -0.002921 -0.003705 0.016442 0.000000 -0.000001 0.000000
# 4 0.000000 0.000000 0.000000 0.041597 -0.000002 0.000000
# 5 0.000000 0.000000 -0.000001 -0.000002 0.038385 0.000000
# 6 0.000000 0.000000 0.000000 0.000000 0.000000 0.032192
#
#
# Mechanical properties :
#
#
# Convention : Reuss Voigt Hill
#
# Bulk Modulus (GPa) = 59.52348 65.40820 62.46584
# Shear Modulus (GPa) = 27.90117 28.77913 28.34015
#
# Velocity S-wave (km/s) = 3.87993 3.94051 3.91034
# Velocity P-wave (km/s) = 7.22408 7.48291 7.35464
#
# Compressibility (1/GPa) = 0.01680009
#
# Stress axis : x y z
#
# Youngs Moduli (GPa) = 90.93798 85.63767 60.82128
#
# Poissons Ratio (x) = 0.38808 0.17767
# Poissons Ratio (y) = 0.41210 0.22533
# Poissons Ratio (z) = 0.26565 0.31727
#
# Static dielectric constant tensor:
#      x y z
#    x 3.548650 0.000000 0.000000 
#    y 0.000000 3.736810 0.000000 
#    z 0.000000 0.000000 3.167670 
# 
# 
# High freq. dielectric constant tensor:
#      x y z
#    x 1.735290 0.000000 0.000000 
#    y 0.000000 1.727760 0.000000 
#    z 0.000000 0.000000 1.687180 
# 
# From -- ./inp_files/9752.got.cif
#   From: 2010.03.12/outbox.cif.g09.slc.cpg/sg46_5_cif.got.tgz:9752.got - 2010.04.14 02:56:35.
