data_PCOD8192627
_publ_section_title
;
Structure prediction by ZEFSAII (Michael W. Deem and Ramdas Pophale) SiO2 
 PCOD8192627
Probable space group: I M A 2
;
_chemical_formula_sum "Si O2"
_cell_formula_units_Z 64
_cell_length_a 14.489066
_cell_length_b 9.059962
_cell_length_c 21.722600
_cell_angle_alpha 90.000000
_cell_angle_beta 90.000000
_cell_angle_gamma 90.000000
_cell_volume 2851.534117
_symmetry_space_group_name_H-M "I M A 2"
_symmetry_group_IT_number 46
_symmetry_cell_setting 'orthorhombic'
loop_
_space_group_symop_operation_xyz
x,y,z
-x,-y,z
1/2-x,y,z
1/2+x,-y,z
1/2+x,1/2+y,1/2+z
1/2-x,1/2-y,1/2+z
-x,1/2+y,1/2+z
x,1/2-y,1/2+z
loop_
_atom_site_type_symbol
_atom_site_label
_atom_site_fract_x
_atom_site_fract_y
_atom_site_fract_z
Si Si1 0.352137 0.340602 0.283800
Si Si2 0.521564 0.656302 0.530836
Si Si3 0.643739 0.558158 0.415520
Si Si4 0.854351 0.148789 0.490634
Si Si5 0.354893 0.755796 0.361241
Si Si6 0.524597 0.335480 0.746166
Si Si7 0.351296 0.393989 0.076625
Si Si8 0.402385 0.933599 0.690790
O O1 0.250000 0.283188 0.266624
O O2 0.365722 0.334300 0.356905
O O3 0.424840 0.239196 0.249669
O O4 0.364457 0.508094 0.257019
O O5 0.500000 0.500000 0.563713
O O6 0.581309 0.623964 0.469447
O O7 0.423385 0.726075 0.514397
O O8 0.576208 0.759040 0.579836
O O9 0.750000 0.547236 0.437936
O O10 0.609561 0.398348 0.391148
O O11 0.750000 0.193398 0.511377
O O12 0.857944 0.127769 0.417193
O O13 0.882269 0.990279 0.517983
O O14 0.250000 0.738568 0.335528
O O15 0.422665 0.824849 0.310836
O O16 0.500000 0.500000 0.724961
O O17 0.587435 0.245233 0.696185
O O18 0.250000 0.324819 0.066770
O O19 0.341681 0.505612 0.134734
O O20 0.500000 0.000000 0.674812
#
# Coordination Sequence:
#
# PCOD8192627 Si02
#       8
#     8   8   8   8   8   8   8   8
#     4  10  21  38  64  94 130 178 225 270 323 398
#     4  12  23  37  65  95 133 171 219 283 343 399
#     4  10  20  36  62  97 135 176 223 269 333 406
#     4  10  22  39  59  89 134 182 225 272 331 408
#     4  10  20  37  62  95 137 178 222 272 335 406
#     4  11  24  39  64 101 136 172 217 282 342 401
#     4  11  25  45  67  94 128 176 231 277 334 406
#     4  10  21  42  69  90 123 169 223 269 326 398
#
# _framework density 22.444057000000001
#
# number of rings (size 3 to 8) (size 9 to 14) (size 15 to 20)
#    0.000    1.500    2.500    2.625    0.000    3.500 
#    0.000    8.125    0.000    1.500    0.000    0.000 
#    0.000    0.000    0.000    0.000    0.000    0.000 
#
# Total GULP energy -396599.455435 kJ/mol
# GULP energy per Si atom -12393.732982 kJ/mol
# Density = 2.239297 g / cm^3
# Si number density = 22.444057 Si / 1000 Ang^3
#
#
#
# Elastic Constant Matrix: (Units=GPa)
#
#
# Indices 1 2 3 4 5 6 
#
# 1 102.5474 49.2225 18.6603 0.0000 0.0000 0.0000
# 2 49.2225 143.8572 41.8988 0.0000 0.0000 0.0000
# 3 18.6603 41.8988 71.3235 0.0000 0.0000 0.0000
# 4 0.0000 0.0000 0.0000 31.1132 0.0000 0.0000
# 5 0.0000 0.0000 0.0000 0.0000 25.7833 0.0000
# 6 0.0000 0.0000 0.0000 0.0000 0.0000 30.3537
#
#
#
# Elastic Compliance Matrix: (Units=1/GPa)
#
#
# Indices 1 2 3 4 5 6 
#
# 1 0.011711 -0.003758 -0.000857 0.000000 0.000000 0.000000
# 2 -0.003758 0.009592 -0.004652 0.000000 0.000000 0.000000
# 3 -0.000857 -0.004652 0.016977 0.000000 0.000000 0.000000
# 4 0.000000 0.000000 0.000000 0.032141 0.000000 0.000000
# 5 0.000000 0.000000 0.000000 0.000000 0.038785 0.000000
# 6 0.000000 0.000000 0.000000 0.000000 0.000000 0.032945
#
#
# Mechanical properties :
#
#
# Convention : Reuss Voigt Hill
#
# Bulk Modulus (GPa) = 50.63629 59.69903 55.16766
# Shear Modulus (GPa) = 29.89264 31.31312 30.60288
#
# Velocity S-wave (km/s) = 3.65344 3.73924 3.69659
# Velocity P-wave (km/s) = 6.35665 6.73048 6.54623
#
# Compressibility (1/GPa) = 0.01974868
#
# Stress axis : x y z
#
# Youngs Moduli (GPa) = 85.38900 104.25516 58.90219
#
# Poissons Ratio (x) = 0.39175 0.05045
# Poissons Ratio (y) = 0.32086 0.27399
# Poissons Ratio (z) = 0.07314 0.48495
#
# Static dielectric constant tensor:
#      x y z
#    x 4.180940 0.000000 0.000000 
#    y 0.000000 3.975580 0.000000 
#    z 0.000000 0.000000 3.975890 
# 
# 
# High freq. dielectric constant tensor:
#      x y z
#    x 1.900600 0.000000 0.000000 
#    y 0.000000 1.860370 0.000000 
#    z 0.000000 0.000000 1.871250 
# 
# From -- ./inp_files/23676.got.cif
#   From: 2010.03.12/outbox.cif.g09.slc.cpg/sg46_12_cif.got.tgz:23676.got - 2010.04.14 02:56:35.
