data_PCOD8192319
_publ_section_title
;
Structure prediction by ZEFSAII (Michael W. Deem and Ramdas Pophale) SiO2 
 PCOD8192319
Probable space group: I M A 2
;
_chemical_formula_sum "Si O2"
_cell_formula_units_Z 64
_cell_length_a 15.817317
_cell_length_b 14.158569
_cell_length_c 15.140252
_cell_angle_alpha 90.000000
_cell_angle_beta 90.000000
_cell_angle_gamma 90.000000
_cell_volume 3390.668128
_symmetry_space_group_name_H-M "I M A 2"
_symmetry_group_IT_number 46
_symmetry_cell_setting 'orthorhombic'
loop_
_space_group_symop_operation_xyz
x,y,z
-x,-y,z
1/2-x,y,z
1/2+x,-y,z
1/2+x,1/2+y,1/2+z
1/2-x,1/2-y,1/2+z
-x,1/2+y,1/2+z
x,1/2-y,1/2+z
loop_
_atom_site_type_symbol
_atom_site_label
_atom_site_fract_x
_atom_site_fract_y
_atom_site_fract_z
Si Si1 0.065414 0.417007 0.060400
Si Si2 0.845103 0.594824 0.241113
Si Si3 0.996241 0.776888 0.117974
Si Si4 0.065414 0.082993 0.363415
Si Si5 0.588929 0.449132 0.558686
Si Si6 0.588929 0.050868 0.865127
Si Si7 0.503759 0.723112 0.305840
Si Si8 0.345103 0.094823 0.182700
O O1 0.135435 0.418623 0.137180
O O2 0.018789 0.315723 0.059417
O O3 0.000000 0.500000 0.082633
O O4 0.104611 0.432187 0.961907
O O5 0.750000 0.633609 0.249825
O O6 0.850721 0.493140 0.290270
O O7 0.906991 0.668904 0.289178
O O8 0.035424 0.750002 0.211907
O O9 0.906989 0.831095 0.134634
O O10 0.068887 0.838701 0.071918
O O11 0.018791 0.184279 0.364400
O O12 0.135435 0.081375 0.286634
O O13 0.000000 0.000000 0.341182
O O14 0.500000 0.500000 0.565777
O O15 0.630279 0.463740 0.461906
O O16 0.649279 0.493139 0.633542
O O17 0.568889 0.161298 0.851893
O O18 0.500000 0.000000 0.858039
O O19 0.250000 0.133608 0.173988
#
# Coordination Sequence:
#
# PCOD8192319 Si02
#       8
#     8   8   8   8   8   8   8   8
#     4  10  20  34  53  75  99 133 175 211 243 287
#     4  10  20  33  50  77 109 133 158 200 256 311
#     4   9  17  31  53  76 100 131 167 207 250 295
#     4  10  20  34  53  75  99 133 175 211 243 287
#     4   9  17  31  51  73  98 131 170 208 245 289
#     4   9  17  31  51  73  98 131 170 208 245 289
#     4   9  17  31  53  76 100 131 167 207 250 295
#     4  10  20  33  50  77 109 133 158 200 256 311
#
# _framework density 18.875335
#
# number of rings (size 3 to 8) (size 9 to 14) (size 15 to 20)
#    0.000    2.500    0.000    4.500    0.000    6.500 
#    0.000    0.000    0.000    6.750    0.000    7.000 
#    0.000    0.000    0.000    0.000    0.000    0.000 
#
# Total GULP energy -396573.345780 kJ/mol
# GULP energy per Si atom -12392.917056 kJ/mol
# Density = 1.883237 g / cm^3
# Si number density = 18.875335 Si / 1000 Ang^3
#
#
#
# Elastic Constant Matrix: (Units=GPa)
#
#
# Indices 1 2 3 4 5 6 
#
# 1 30.2027 27.6859 18.1157 0.0000 0.0000 0.0000
# 2 27.6859 112.6598 30.1658 0.0000 0.0000 0.0000
# 3 18.1157 30.1658 108.5754 0.0000 0.0000 0.0000
# 4 0.0000 0.0000 0.0000 20.0122 0.0000 0.0000
# 5 0.0000 0.0000 0.0000 0.0000 11.7620 0.0000
# 6 0.0000 0.0000 0.0000 0.0000 0.0000 11.8281
#
#
#
# Elastic Compliance Matrix: (Units=1/GPa)
#
#
# Indices 1 2 3 4 5 6 
#
# 1 0.044925 -0.009759 -0.004784 0.000000 0.000000 0.000000
# 2 -0.009759 0.011710 -0.001625 0.000000 0.000000 0.000000
# 3 -0.004784 -0.001625 0.010460 0.000000 0.000000 0.000000
# 4 0.000000 0.000000 0.000000 0.049970 0.000000 0.000000
# 5 0.000000 0.000000 0.000000 0.000000 0.085019 0.000000
# 6 0.000000 0.000000 0.000000 0.000000 0.000000 0.084544
#
#
# Mechanical properties :
#
#
# Convention : Reuss Voigt Hill
#
# Bulk Modulus (GPa) = 28.77055 44.81920 36.79487
# Shear Modulus (GPa) = 15.12625 20.41850 17.77237
#
# Velocity S-wave (km/s) = 2.83393 3.29257 3.07182
# Velocity P-wave (km/s) = 5.09742 6.18475 5.66722
#
# Compressibility (1/GPa) = 0.03475777
#
# Stress axis : x y z
#
# Youngs Moduli (GPa) = 22.25916 85.39914 95.60293
#
# Poissons Ratio (x) = 0.83343 0.45740
# Poissons Ratio (y) = 0.21723 0.15536
# Poissons Ratio (z) = 0.10650 0.13877
#
# Static dielectric constant tensor:
#      x y z
#    x 2.960390 0.000000 0.000000 
#    y 0.000000 3.843780 0.000000 
#    z 0.000000 0.000000 3.687690 
# 
# 
# High freq. dielectric constant tensor:
#      x y z
#    x 1.674600 0.000000 0.000000 
#    y 0.000000 1.741600 0.000000 
#    z 0.000000 0.000000 1.749950 
# 
# From -- ./inp_files/16863.got.cif
#   From: 2010.03.12/outbox.cif.g09.slc.cpg/sg46_9_cif.got.tgz:16863.got - 2010.04.14 02:56:35.
