data_PCOD8192577
_publ_section_title
;
Structure prediction by ZEFSAII (Michael W. Deem and Ramdas Pophale) SiO2 
 PCOD8192577
Probable space group: I M A 2
;
_chemical_formula_sum "Si O2"
_cell_formula_units_Z 64
_cell_length_a 8.929303
_cell_length_b 14.781253
_cell_length_c 24.176285
_cell_angle_alpha 90.000000
_cell_angle_beta 90.000000
_cell_angle_gamma 90.000000
_cell_volume 3190.938085
_symmetry_space_group_name_H-M "I M A 2"
_symmetry_group_IT_number 46
_symmetry_cell_setting 'orthorhombic'
loop_
_space_group_symop_operation_xyz
x,y,z
-x,-y,z
1/2-x,y,z
1/2+x,-y,z
1/2+x,1/2+y,1/2+z
1/2-x,1/2-y,1/2+z
-x,1/2+y,1/2+z
x,1/2-y,1/2+z
loop_
_atom_site_type_symbol
_atom_site_label
_atom_site_fract_x
_atom_site_fract_y
_atom_site_fract_z
Si Si1 0.922831 0.238051 0.751030
Si Si2 0.421260 0.741179 0.124332
Si Si3 0.424680 0.402657 0.803552
Si Si4 0.074227 0.098094 0.831273
Si Si5 0.073966 0.402741 0.570550
Si Si6 0.927527 0.098536 0.533480
Si Si7 0.424175 0.403499 0.926234
Si Si8 0.577779 0.906337 0.950560
O O1 0.750000 0.244055 0.768413
O O2 0.942247 0.210274 0.687295
O O3 0.998596 0.335147 0.760652
O O4 0.003607 0.161423 0.785674
O O5 0.250000 0.764945 0.110821
O O6 0.516304 0.831623 0.115130
O O7 0.476817 0.659512 0.085387
O O8 0.500000 0.500000 0.797384
O O9 0.250000 0.412852 0.789539
O O10 0.445734 0.359853 0.865463
O O11 0.250000 0.087907 0.819565
O O12 0.047097 0.145669 0.892380
O O13 0.000000 0.000000 0.826975
O O14 0.250000 0.414391 0.578087
O O15 0.028349 0.362354 0.509193
O O16 0.000000 0.500000 0.580732
O O17 0.750000 0.088767 0.528762
O O18 0.992442 0.146960 0.477258
O O19 0.000000 0.000000 0.541612
O O20 0.500000 0.500000 0.922642
O O21 0.250000 0.411842 0.941315
O O22 0.750000 0.929242 0.956183
O O23 0.500000 0.000000 0.942596
#
# Coordination Sequence:
#
# PCOD8192577 Si02
#       8
#     8   8   8   8   8   8   8   8
#     4  11  24  41  58  79 110 149 195 239 278 326
#     4  10  24  42  56  77 110 147 191 237 275 322
#     4  10  21  38  60  86 115 147 183 227 280 335
#     4  10  20  37  60  86 117 149 184 228 279 333
#     4  10  20  36  60  86 113 146 182 223 275 331
#     4  10  20  36  58  83 112 145 182 226 277 330
#     4   9  17  31  54  84 115 143 176 220 272 333
#     4   8  16  31  53  83 114 142 175 218 270 330
#
# _framework density 20.056797
#
# number of rings (size 3 to 8) (size 9 to 14) (size 15 to 20)
#    0.000    2.250    0.000    3.000    0.000    6.500 
#    0.000    5.000    0.000    0.000    0.000    0.000 
#    0.000    0.000    0.000    0.000    0.000    0.000 
#
# Total GULP energy -396529.330599 kJ/mol
# GULP energy per Si atom -12391.541581 kJ/mol
# Density = 2.001115 g / cm^3
# Si number density = 20.056797 Si / 1000 Ang^3
#
#
#
# Elastic Constant Matrix: (Units=GPa)
#
#
# Indices 1 2 3 4 5 6 
#
# 1 96.3695 22.5695 28.8944 0.0000 0.0000 0.0000
# 2 22.5695 53.6825 12.1691 0.0000 0.0000 0.0000
# 3 28.8944 12.1691 72.4021 0.0000 0.0000 0.0000
# 4 0.0000 0.0000 0.0000 34.3746 0.0000 0.0000
# 5 0.0000 0.0000 0.0000 0.0000 31.1922 0.0000
# 6 0.0000 0.0000 0.0000 0.0000 0.0000 30.6284
#
#
#
# Elastic Compliance Matrix: (Units=1/GPa)
#
#
# Indices 1 2 3 4 5 6 
#
# 1 0.012696 -0.004355 -0.004335 0.000000 0.000000 0.000000
# 2 -0.004355 0.020860 -0.001768 0.000000 0.000000 0.000000
# 3 -0.004335 -0.001768 0.015839 0.000000 0.000000 0.000000
# 4 0.000000 0.000000 0.000000 0.029091 0.000000 0.000000
# 5 0.000000 0.000000 0.000000 0.000000 0.032059 0.000000
# 6 0.000000 0.000000 0.000000 0.000000 0.000000 0.032649
#
#
# Mechanical properties :
#
#
# Convention : Reuss Voigt Hill
#
# Bulk Modulus (GPa) = 35.11361 38.85779 36.98570
# Shear Modulus (GPa) = 28.80112 29.82712 29.31412
#
# Velocity S-wave (km/s) = 3.79354 3.86052 3.82718
# Velocity P-wave (km/s) = 6.06078 6.26797 6.16524
#
# Compressibility (1/GPa) = 0.02847898
#
# Stress axis : x y z
#
# Youngs Moduli (GPa) = 78.76217 47.93895 63.13580
#
# Poissons Ratio (x) = 0.20879 0.27369
# Poissons Ratio (y) = 0.34303 0.11162
# Poissons Ratio (z) = 0.34143 0.08475
#
# Static dielectric constant tensor:
#      x y z
#    x 3.749560 0.000000 0.000000 
#    y 0.000000 3.324780 0.000000 
#    z 0.000000 0.000000 4.171990 
# 
# 
# High freq. dielectric constant tensor:
#      x y z
#    x 1.794040 0.000000 0.000000 
#    y 0.000000 1.760780 0.000000 
#    z 0.000000 0.000000 1.795710 
# 
# From -- ./inp_files/23232.got.cif
#   From: 2010.03.12/outbox.cif.g09.slc.cpg/sg46_12_cif.got.tgz:23232.got - 2010.04.14 02:56:35.
