data_PCOD8192105
_publ_section_title
;
Structure prediction by ZEFSAII (Michael W. Deem and Ramdas Pophale) SiO2 
 PCOD8192105
Probable space group: I M A 2
;
_chemical_formula_sum "Si O2"
_cell_formula_units_Z 64
_cell_length_a 9.305719
_cell_length_b 14.161081
_cell_length_c 23.637608
_cell_angle_alpha 90.000000
_cell_angle_beta 90.000000
_cell_angle_gamma 90.000000
_cell_volume 3114.941302
_symmetry_space_group_name_H-M "I M A 2"
_symmetry_group_IT_number 46
_symmetry_cell_setting 'orthorhombic'
loop_
_space_group_symop_operation_xyz
x,y,z
-x,-y,z
1/2-x,y,z
1/2+x,-y,z
1/2+x,1/2+y,1/2+z
1/2-x,1/2-y,1/2+z
-x,1/2+y,1/2+z
x,1/2-y,1/2+z
loop_
_atom_site_type_symbol
_atom_site_label
_atom_site_fract_x
_atom_site_fract_y
_atom_site_fract_z
Si Si1 0.579721 0.903857 0.104110
Si Si2 0.413841 0.092009 0.772638
Si Si3 0.580328 0.693218 0.388668
Si Si4 0.094350 0.870835 0.382883
Si Si5 0.089918 0.586054 0.006197
Si Si6 0.088028 0.224399 0.210164
Si Si7 0.922554 0.303489 0.503456
Si Si8 0.094329 0.579721 0.762549
O O1 0.750000 0.921726 0.094493
O O2 0.554810 0.817436 0.148216
O O3 0.501236 0.871141 0.047397
O O4 0.500000 0.000000 0.124461
O O5 0.250000 0.062037 0.778075
O O6 0.463975 0.132791 0.833457
O O7 0.434610 0.163854 0.719321
O O8 0.500000 0.000000 0.755783
O O9 0.750000 0.685803 0.401849
O O10 0.539916 0.801226 0.375646
O O11 0.485164 0.662683 0.442869
O O12 0.250000 0.815390 0.386296
O O13 0.082344 0.933176 0.439080
O O14 0.101884 0.940882 0.329450
O O15 0.250000 0.576267 0.030636
O O16 0.034727 0.693723 0.016792
O O17 0.000000 0.500000 0.035153
O O18 0.250000 0.196858 0.228248
O O19 0.977052 0.180782 0.254463
O O20 0.750000 0.317092 0.505017
O O21 0.250000 0.576681 0.733553
O O22 0.000000 0.500000 0.731564
#
# Coordination Sequence:
#
# PCOD8192105 Si02
#       8
#     8   8   8   8   8   8   8   8
#     4  11  24  43  68  92 119 155 201 253 309 367
#     4  10  22  39  61  90 123 160 201 247 299 361
#     4  10  19  34  58  86 120 161 204 248 302 357
#     4   9  18  31  47  75 114 155 197 240 289 346
#     4   9  18  32  51  78 114 156 196 240 290 345
#     4  10  22  42  62  85 119 154 196 250 301 359
#     4  10  22  40  61  88 125 161 205 258 306 362
#     4  11  21  31  50  80 114 154 197 240 292 355
#
# _framework density 20.546135
#
# number of rings (size 3 to 8) (size 9 to 14) (size 15 to 20)
#    0.000    2.000    1.250    3.000    0.000    7.000 
#    0.000    1.875    0.000    3.000    0.000    0.000 
#    0.000    0.000    0.000    0.000    0.000    0.000 
#
# Total GULP energy -396446.530242 kJ/mol
# GULP energy per Si atom -12388.954070 kJ/mol
# Density = 2.049937 g / cm^3
# Si number density = 20.546135 Si / 1000 Ang^3
#
#
#
# Elastic Constant Matrix: (Units=GPa)
#
#
# Indices 1 2 3 4 5 6 
#
# 1 119.8201 59.9233 41.1635 0.0000 0.0000 0.0000
# 2 59.9233 103.3877 37.7136 0.0000 0.0000 0.0000
# 3 41.1635 37.7136 80.2242 0.0000 0.0000 0.0000
# 4 0.0000 0.0000 0.0000 17.8126 0.0000 0.0000
# 5 0.0000 0.0000 0.0000 0.0000 17.3608 0.0000
# 6 0.0000 0.0000 0.0000 0.0000 0.0000 39.8958
#
#
#
# Elastic Compliance Matrix: (Units=1/GPa)
#
#
# Indices 1 2 3 4 5 6 
#
# 1 0.012582 -0.005959 -0.003654 0.000000 0.000000 0.000000
# 2 -0.005959 0.014497 -0.003757 0.000000 0.000000 0.000000
# 3 -0.003654 -0.003757 0.016106 0.000000 0.000000 0.000000
# 4 0.000000 0.000000 0.000000 0.056140 0.000000 0.000000
# 5 0.000000 0.000000 0.000000 0.000000 0.057601 0.000000
# 6 0.000000 0.000000 0.000000 0.000000 0.000000 0.025065
#
#
# Mechanical properties :
#
#
# Convention : Reuss Voigt Hill
#
# Bulk Modulus (GPa) = 60.81505 64.55918 62.68711
# Shear Modulus (GPa) = 23.34117 25.98927 24.66522
#
# Velocity S-wave (km/s) = 3.37417 3.56043 3.46855
# Velocity P-wave (km/s) = 6.69653 6.95644 6.82772
#
# Compressibility (1/GPa) = 0.01644330
#
# Stress axis : x y z
#
# Youngs Moduli (GPa) = 79.48175 68.98039 62.08724
#
# Poissons Ratio (x) = 0.41107 0.22688
# Poissons Ratio (y) = 0.47365 0.23328
# Poissons Ratio (z) = 0.29044 0.25918
#
# Static dielectric constant tensor:
#      x y z
#    x 3.909980 0.000000 0.000000 
#    y 0.000000 3.520080 0.000000 
#    z 0.000000 0.000000 3.563280 
# 
# 
# High freq. dielectric constant tensor:
#      x y z
#    x 1.814640 0.000000 0.000000 
#    y 0.000000 1.786850 0.000000 
#    z 0.000000 0.000000 1.785900 
# 
# From -- ./inp_files/23228.got.cif
#   From: 2010.03.12/outbox.cif.g09.slc.cpg/sg46_12_cif.got.tgz:23228.got - 2010.04.14 02:56:35.
