data_PCOD8192629
_publ_section_title
;
Structure prediction by ZEFSAII (Michael W. Deem and Ramdas Pophale) SiO2 
 PCOD8192629
Probable space group: I M A 2
;
_chemical_formula_sum "Si O2"
_cell_formula_units_Z 64
_cell_length_a 13.650623
_cell_length_b 9.487105
_cell_length_c 23.258289
_cell_angle_alpha 90.000000
_cell_angle_beta 90.000000
_cell_angle_gamma 90.000000
_cell_volume 3012.062245
_symmetry_space_group_name_H-M "I M A 2"
_symmetry_group_IT_number 46
_symmetry_cell_setting 'orthorhombic'
loop_
_space_group_symop_operation_xyz
x,y,z
-x,-y,z
1/2-x,y,z
1/2+x,-y,z
1/2+x,1/2+y,1/2+z
1/2-x,1/2-y,1/2+z
-x,1/2+y,1/2+z
x,1/2-y,1/2+z
loop_
_atom_site_type_symbol
_atom_site_label
_atom_site_fract_x
_atom_site_fract_y
_atom_site_fract_z
Si Si1 0.365287 0.888783 0.918410
Si Si2 0.640686 0.753440 0.526691
Si Si3 0.022144 0.336491 0.921245
Si Si4 0.137421 0.335560 0.342508
Si Si5 0.142727 0.064206 0.634047
Si Si6 0.019381 0.162973 0.730105
Si Si7 0.633471 0.249244 0.651426
Si Si8 0.637336 0.054805 0.049061
O O1 0.250000 0.854652 0.914073
O O2 0.427797 0.752600 0.898908
O O3 0.392488 0.020600 0.876846
O O4 0.399547 0.916640 0.984113
O O5 0.750000 0.732726 0.497565
O O6 0.552290 0.794251 0.485359
O O7 0.647398 0.881945 0.569772
O O8 0.614081 0.609218 0.560513
O O9 0.117822 0.295890 0.884308
O O10 0.000000 0.500000 0.915564
O O11 0.250000 0.343837 0.323781
O O12 0.072492 0.290309 0.287911
O O13 0.250000 0.048260 0.661142
O O14 0.088372 0.175649 0.674412
O O15 0.098517 0.906675 0.631055
O O16 0.923920 0.260852 0.713456
O O17 0.000000 0.000000 0.741586
O O18 0.750000 0.268225 0.661816
O O19 0.591454 0.353471 0.601542
O O20 0.750000 0.094620 0.051186
#
# Coordination Sequence:
#
# PCOD8192629 Si02
#       8
#     8   8   8   8   8   8   8   8
#     4  10  22  40  63  91 125 170 223 268 321 389
#     4  10  21  38  60  87 126 169 211 257 317 389
#     4  12  26  39  61  93 131 168 215 265 342 395
#     4  11  23  45  70  92 122 167 225 281 326 386
#     4   9  19  34  53  84 120 160 207 256 317 381
#     4  10  20  36  63  90 123 162 220 267 325 384
#     4   9  19  35  58  90 128 162 204 261 319 382
#     4   9  18  35  58  87 123 166 207 256 316 379
#
# _framework density 21.247900999999999
#
# number of rings (size 3 to 8) (size 9 to 14) (size 15 to 20)
#    0.000    2.000    1.250    1.875    3.500    2.000 
#    0.000    1.875    0.000    1.500    0.000    0.000 
#    0.000    0.000    0.000    0.000    0.000    0.000 
#
# Total GULP energy -396424.771703 kJ/mol
# GULP energy per Si atom -12388.274116 kJ/mol
# Density = 2.119954 g / cm^3
# Si number density = 21.247901 Si / 1000 Ang^3
#
#
#
# Elastic Constant Matrix: (Units=GPa)
#
#
# Indices 1 2 3 4 5 6 
#
# 1 74.3272 46.3739 54.6062 0.0000 0.0000 0.0000
# 2 46.3739 118.0115 41.1864 0.0000 0.0000 0.0000
# 3 54.6062 41.1864 109.2844 0.0000 0.0000 0.0000
# 4 0.0000 0.0000 0.0000 23.9882 0.0000 0.0000
# 5 0.0000 0.0000 0.0000 0.0000 40.1958 0.0000
# 6 0.0000 0.0000 0.0000 0.0000 0.0000 24.3976
#
#
#
# Elastic Compliance Matrix: (Units=1/GPa)
#
#
# Indices 1 2 3 4 5 6 
#
# 1 0.024661 -0.006207 -0.009983 0.000000 0.000000 0.000000
# 2 -0.006207 0.011319 -0.001165 0.000000 0.000000 0.000000
# 3 -0.009983 -0.001165 0.014578 0.000000 0.000000 0.000000
# 4 0.000000 0.000000 0.000000 0.041687 0.000000 0.000000
# 5 0.000000 0.000000 0.000000 0.000000 0.024878 0.000000
# 6 0.000000 0.000000 0.000000 0.000000 0.000000 0.040988
#
#
# Mechanical properties :
#
#
# Convention : Reuss Voigt Hill
#
# Bulk Modulus (GPa) = 63.09622 65.10625 64.10124
# Shear Modulus (GPa) = 25.23947 28.34675 26.79311
#
# Velocity S-wave (km/s) = 3.45027 3.65649 3.55488
# Velocity P-wave (km/s) = 6.75516 6.96666 6.86173
#
# Compressibility (1/GPa) = 0.01584881
#
# Stress axis : x y z
#
# Youngs Moduli (GPa) = 40.55021 88.34583 68.59805
#
# Poissons Ratio (x) = 0.54832 0.68483
# Poissons Ratio (y) = 0.25168 0.07989
# Poissons Ratio (z) = 0.40482 0.10289
#
# Static dielectric constant tensor:
#      x y z
#    x 4.146620 0.000000 0.000000 
#    y 0.000000 3.607880 0.000000 
#    z 0.000000 0.000000 3.802630 
# 
# 
# High freq. dielectric constant tensor:
#      x y z
#    x 1.850070 0.000000 0.000000 
#    y 0.000000 1.806580 0.000000 
#    z 0.000000 0.000000 1.820240 
# 
# From -- ./inp_files/23648.got.cif
#   From: 2010.03.12/outbox.cif.g09.slc.cpg/sg46_12_cif.got.tgz:23648.got - 2010.04.14 02:56:35.
