data_PCOD8192364
_publ_section_title
;
Structure prediction by ZEFSAII (Michael W. Deem and Ramdas Pophale) SiO2 
 PCOD8192364
Probable space group: I M A 2
;
_chemical_formula_sum "Si O2"
_cell_formula_units_Z 64
_cell_length_a 27.422730
_cell_length_b 14.608304
_cell_length_c 8.729822
_cell_angle_alpha 90.000000
_cell_angle_beta 90.000000
_cell_angle_gamma 90.000000
_cell_volume 3497.162995
_symmetry_space_group_name_H-M "I M A 2"
_symmetry_group_IT_number 46
_symmetry_cell_setting 'orthorhombic'
loop_
_space_group_symop_operation_xyz
x,y,z
-x,-y,z
1/2-x,y,z
1/2+x,-y,z
1/2+x,1/2+y,1/2+z
1/2-x,1/2-y,1/2+z
-x,1/2+y,1/2+z
x,1/2-y,1/2+z
loop_
_atom_site_type_symbol
_atom_site_label
_atom_site_fract_x
_atom_site_fract_y
_atom_site_fract_z
Si Si1 0.567515 0.553111 0.318450
Si Si2 0.556836 0.845714 0.336110
Si Si3 0.545643 0.176852 0.492186
Si Si4 0.464840 0.859142 0.841073
Si Si5 0.695628 0.613496 0.023311
Si Si6 0.195336 0.276668 0.718682
Si Si7 0.102272 0.497749 0.992575
Si Si8 0.603247 0.811105 0.031383
O O1 0.567262 0.448449 0.374234
O O2 0.520747 0.613320 0.370804
O O3 0.573731 0.548679 0.136045
O O4 0.609096 0.606127 0.409568
O O5 0.500883 0.848707 0.388512
O O6 0.579199 0.947482 0.346443
O O7 0.559881 0.817646 0.158021
O O8 0.592149 0.782113 0.440220
O O9 0.534206 0.176977 0.669388
O O10 0.558839 0.280928 0.447631
O O11 0.590937 0.105604 0.468996
O O12 0.750000 0.572627 0.005856
O O13 0.686360 0.693145 0.894455
O O14 0.689611 0.666452 0.186756
O O15 0.659724 0.525791 0.009475
O O16 0.250000 0.306527 0.666864
O O17 0.154660 0.323104 0.614868
#
# Coordination Sequence:
#
# PCOD8192364 Si02
#       8
#     8   8   8   8   8   8   8   8
#     4  10  22  36  53  74 110 143 180 219 272 317
#     4  12  21  32  50  79 109 143 184 215 256 321
#     4  11  22  36  55  76 106 145 182 222 264 318
#     4  10  21  38  52  75 107 145 176 226 265 312
#     4  10  21  36  54  80 108 141 184 228 274 324
#     4  10  20  34  51  74 108 142 178 220 267 322
#     4  11  21  37  54  76 109 146 181 220 268 322
#     4  12  21  33  52  78 108 149 179 218 269 321
#
# _framework density 18.300547000000002
#
# number of rings (size 3 to 8) (size 9 to 14) (size 15 to 20)
#    0.000    1.250    5.000    1.875    1.750    1.000 
#    2.250    0.000    0.000    0.000    0.000    4.375 
#    0.000    0.000    0.000    0.000    0.000    0.000 
#
# Total GULP energy -396424.517510 kJ/mol
# GULP energy per Si atom -12388.266172 kJ/mol
# Density = 1.825889 g / cm^3
# Si number density = 18.300547 Si / 1000 Ang^3
#
#
#
# Elastic Constant Matrix: (Units=GPa)
#
#
# Indices 1 2 3 4 5 6 
#
# 1 76.0043 39.5950 4.2275 0.0000 0.0000 0.0000
# 2 39.5950 120.5357 35.5750 0.0000 0.0000 0.0000
# 3 4.2275 35.5750 58.3620 0.0000 0.0000 0.0000
# 4 0.0000 0.0000 0.0000 27.6352 0.0000 0.0000
# 5 0.0000 0.0000 0.0000 0.0000 19.7988 0.0000
# 6 0.0000 0.0000 0.0000 0.0000 0.0000 25.4888
#
#
#
# Elastic Compliance Matrix: (Units=1/GPa)
#
#
# Indices 1 2 3 4 5 6 
#
# 1 0.016172 -0.006056 0.002520 0.000000 0.000000 0.000000
# 2 -0.006056 0.012384 -0.007110 0.000000 0.000000 0.000000
# 3 0.002520 -0.007110 0.021286 0.000000 0.000000 0.000000
# 4 0.000000 0.000000 0.000000 0.036186 0.000000 0.000000
# 5 0.000000 0.000000 0.000000 0.000000 0.050508 0.000000
# 6 0.000000 0.000000 0.000000 0.000000 0.000000 0.039233
#
#
# Mechanical properties :
#
#
# Convention : Reuss Voigt Hill
#
# Bulk Modulus (GPa) = 35.02660 45.96631 40.49646
# Shear Modulus (GPa) = 24.20393 26.28485 25.24439
#
# Velocity S-wave (km/s) = 3.64067 3.79395 3.71810
# Velocity P-wave (km/s) = 6.07074 6.66063 6.37252
#
# Compressibility (1/GPa) = 0.02854973
#
# Stress axis : x y z
#
# Youngs Moduli (GPa) = 61.83536 80.74802 46.97928
#
# Poissons Ratio (x) = 0.48902 -0.11839
# Poissons Ratio (y) = 0.37448 0.33403
# Poissons Ratio (z) = -0.15583 0.57413
#
# Static dielectric constant tensor:
#      x y z
#    x 3.377110 0.000000 0.000000 
#    y 0.000000 3.384900 0.000000 
#    z 0.000000 0.000000 3.589470 
# 
# 
# High freq. dielectric constant tensor:
#      x y z
#    x 1.689150 0.000000 0.000000 
#    y 0.000000 1.686170 0.000000 
#    z 0.000000 0.000000 1.717180 
# 
# From -- ./inp_files/8539.got.cif
#   From: 2010.03.12/outbox.cif.g09.slc.cpg/sg46_5_cif.got.tgz:8539.got - 2010.04.14 02:56:35.
