data_PCOD8192559
_publ_section_title
;
Structure prediction by ZEFSAII (Michael W. Deem and Ramdas Pophale) SiO2 
 PCOD8192559
Probable space group: I M A 2
;
_chemical_formula_sum "Si O2"
_cell_formula_units_Z 60
_cell_length_a 19.479324
_cell_length_b 26.039846
_cell_length_c 5.436355
_cell_angle_alpha 90.000000
_cell_angle_beta 90.000000
_cell_angle_gamma 90.000000
_cell_volume 2757.529084
_symmetry_space_group_name_H-M "I M A 2"
_symmetry_group_IT_number 46
_symmetry_cell_setting 'orthorhombic'
loop_
_space_group_symop_operation_xyz
x,y,z
-x,-y,z
1/2-x,y,z
1/2+x,-y,z
1/2+x,1/2+y,1/2+z
1/2-x,1/2-y,1/2+z
-x,1/2+y,1/2+z
x,1/2-y,1/2+z
loop_
_atom_site_type_symbol
_atom_site_label
_atom_site_fract_x
_atom_site_fract_y
_atom_site_fract_z
Si Si1 0.673057 0.121784 0.560750
Si Si2 0.616341 0.274388 0.896464
Si Si3 0.438643 0.382657 0.379782
Si Si4 0.923250 0.440299 0.350586
Si Si5 0.175386 0.979733 0.242610
Si Si6 0.963143 0.733410 0.384020
Si Si7 0.000000 0.000000 0.477769
Si Si8 0.396100 0.076422 0.367703
O O1 0.750000 0.139639 0.636789
O O2 0.635015 0.165297 0.399657
O O3 0.626057 0.108950 0.797887
O O4 0.676632 0.068195 0.422509
O O5 0.648591 0.249208 0.145496
O O6 0.534767 0.265089 0.894966
O O7 0.500212 0.422592 0.410160
O O8 0.473757 0.327100 0.370577
O O9 0.390015 0.387529 0.622957
O O10 0.396280 0.391985 0.125634
O O11 0.889582 0.473941 0.564261
O O12 0.932553 0.480342 0.126809
O O13 0.250000 0.981148 0.107476
O O14 0.165683 0.034947 0.375303
O O15 0.922976 0.751954 0.136995
O O16 0.029991 0.048004 0.327717
#
# Coordination Sequence:
#
# PCOD8192559 Si02
#       8
#     8   8   8   8   8   8   4   8
#     4  11  25  40  59  84 119 167 220 264 300 363
#     4  10  23  40  60  81 111 157 207 265 312 356
#     4  11  24  36  66  91 125 159 210 261 319 383
#     4  11  21  37  57  85 117 162 212 259 310 363
#     4  11  24  40  61  87 127 174 215 259 307 374
#     4  10  20  36  58  88 117 156 191 249 315 367
#     4  10  20  36  56  84 116 158 204 266 314 368
#     4  11  22  41  57  93 123 162 206 256 316 380
#
# _framework density 21.758607999999999
#
# number of rings (size 3 to 8) (size 9 to 14) (size 15 to 20)
#    0.000    1.333    1.333    5.200    7.467    1.067 
#    0.000    0.000    0.000    0.000    0.000    0.000 
#    0.000   10.667    0.000    0.000    0.000    0.000 
#
# Total GULP energy -371688.168276 kJ/mol
# GULP energy per Si atom -12389.605609 kJ/mol
# Density = 2.170908 g / cm^3
# Si number density = 21.758608 Si / 1000 Ang^3
#
#
#
# Elastic Constant Matrix: (Units=GPa)
#
#
# Indices 1 2 3 4 5 6 
#
# 1 43.9566 26.4314 12.6984 0.0000 0.0000 0.0000
# 2 26.4314 94.9192 35.6539 0.0000 0.0000 0.0000
# 3 12.6984 35.6539 160.8145 0.0000 0.0000 0.0000
# 4 0.0000 0.0000 0.0000 33.3971 0.0000 0.0000
# 5 0.0000 0.0000 0.0000 0.0000 19.2398 0.0000
# 6 0.0000 0.0000 0.0000 0.0000 0.0000 11.3857
#
#
#
# Elastic Compliance Matrix: (Units=1/GPa)
#
#
# Indices 1 2 3 4 5 6 
#
# 1 0.027364 -0.007427 -0.000514 0.000000 0.000000 0.000000
# 2 -0.007427 0.013508 -0.002408 0.000000 0.000000 0.000000
# 3 -0.000514 -0.002408 0.006793 0.000000 0.000000 0.000000
# 4 0.000000 0.000000 0.000000 0.029943 0.000000 0.000000
# 5 0.000000 0.000000 0.000000 0.000000 0.051975 0.000000
# 6 0.000000 0.000000 0.000000 0.000000 0.000000 0.087829
#
#
# Mechanical properties :
#
#
# Convention : Reuss Voigt Hill
#
# Bulk Modulus (GPa) = 37.08332 49.91754 43.50043
# Shear Modulus (GPa) = 20.23477 27.79831 24.01654
#
# Velocity S-wave (km/s) = 3.05284 3.57820 3.32591
# Velocity P-wave (km/s) = 5.43199 6.32951 5.89785
#
# Compressibility (1/GPa) = 0.02696630
#
# Stress axis : x y z
#
# Youngs Moduli (GPa) = 36.54446 74.03040 147.21229
#
# Poissons Ratio (x) = 0.54980 0.07570
# Poissons Ratio (y) = 0.27140 0.35455
# Poissons Ratio (z) = 0.01879 0.17829
#
# Static dielectric constant tensor:
#      x y z
#    x 3.676900 0.000000 0.000000 
#    y 0.000000 3.860800 0.000000 
#    z 0.000000 0.000000 4.532050 
# 
# 
# High freq. dielectric constant tensor:
#      x y z
#    x 1.798700 0.000000 0.000000 
#    y 0.000000 1.852480 0.000000 
#    z 0.000000 0.000000 1.868510 
# 
# From -- ./inp_files/1815.got.cif
#   From: 2010.03.12/outbox.cif.g09.slc.cpg/sg46_1_cif.got.tgz:1815.got - 2010.04.14 02:56:35.
