data_PCOD8192889
_publ_section_title
;
Structure prediction by ZEFSAII (Michael W. Deem and Ramdas Pophale) SiO2 
 PCOD8192889
Probable space group: I M A 2
;
_chemical_formula_sum "Si O2"
_cell_formula_units_Z 40
_cell_length_a 15.565498
_cell_length_b 21.707878
_cell_length_c 5.035423
_cell_angle_alpha 90.000000
_cell_angle_beta 90.000000
_cell_angle_gamma 90.000000
_cell_volume 1701.438875
_symmetry_space_group_name_H-M "I M A 2"
_symmetry_group_IT_number 46
_symmetry_cell_setting 'orthorhombic'
loop_
_space_group_symop_operation_xyz
x,y,z
-x,-y,z
1/2-x,y,z
1/2+x,-y,z
1/2+x,1/2+y,1/2+z
1/2-x,1/2-y,1/2+z
-x,1/2+y,1/2+z
x,1/2-y,1/2+z
loop_
_atom_site_type_symbol
_atom_site_label
_atom_site_fract_x
_atom_site_fract_y
_atom_site_fract_z
Si Si1 0.750000 0.139112 0.718310
Si Si2 0.750000 0.054529 0.215589
Si Si3 0.928458 0.609137 0.221937
Si Si4 0.085231 0.031611 0.218833
Si Si5 0.925963 0.291581 0.238900
Si Si6 0.651966 0.780366 0.480607
O O1 0.750000 0.110483 0.424015
O O2 0.669854 0.183376 0.765279
O O3 0.750000 0.082379 0.922108
O O4 0.834931 0.013857 0.254628
O O5 0.891762 0.584234 0.502071
O O6 0.854862 0.650178 0.081035
O O7 0.013495 0.648946 0.269963
O O8 0.943553 0.555475 0.008269
O O9 0.000000 0.000000 0.097276
O O10 0.943247 0.239000 0.455066
O O11 0.750000 0.761754 0.433023
O O12 0.606565 0.765117 0.199077
#
# Coordination Sequence:
#
# PCOD8192889 Si02
#       6
#     4   4   8   8   8   8
#     4  12  24  45  68  98 134 173 218 280 338 396
#     4  12  26  45  70  94 136 177 226 282 334 378
#     4  12  24  41  67  90 132 166 219 262 322 379
#     4  12  26  44  65  95 127 173 225 272 323 386
#     4  12  24  42  69 102 135 173 216 269 339 410
#     4  10  21  37  58  87 122 156 196 244 301 368
#
# _framework density 23.509512000000001
#
# number of rings (size 3 to 8) (size 9 to 14) (size 15 to 20)
#    0.000    0.400    0.000    9.600    2.800    0.000 
#    0.000    0.000    0.000    0.000    0.000    0.000 
#    0.000    0.000    0.000    0.000    0.000    0.000 
#
# Total GULP energy -248044.416502 kJ/mol
# GULP energy per Si atom -12402.220825 kJ/mol
# Density = 2.345600 g / cm^3
# Si number density = 23.509512 Si / 1000 Ang^3
#
#
#
# Elastic Constant Matrix: (Units=GPa)
#
#
# Indices 1 2 3 4 5 6 
#
# 1 79.3720 14.5602 16.8461 0.0000 0.0000 0.0000
# 2 14.5602 70.0134 12.1478 0.0000 0.0000 0.0000
# 3 16.8461 12.1478 90.6842 0.0000 0.0000 0.0000
# 4 0.0000 0.0000 0.0000 31.7099 0.0000 0.0000
# 5 0.0000 0.0000 0.0000 0.0000 26.2549 0.0000
# 6 0.0000 0.0000 0.0000 0.0000 0.0000 -109.8237
#
#
#
# Elastic Compliance Matrix: (Units=1/GPa)
#
#
# Indices 1 2 3 4 5 6 
#
# 1 0.013508 -0.002430 -0.002184 0.000000 0.000000 0.000000
# 2 -0.002430 0.015060 -0.001566 0.000000 0.000000 0.000000
# 3 -0.002184 -0.001566 0.011643 0.000000 0.000000 0.000000
# 4 0.000000 0.000000 0.000000 0.031536 0.000000 0.000000
# 5 0.000000 0.000000 0.000000 0.000000 0.038088 0.000000
# 6 0.000000 0.000000 0.000000 0.000000 0.000000 -0.009105
#
#
# Mechanical properties :
#
#
# Convention : Reuss Voigt Hill
#
# Bulk Modulus (GPa) = 35.90547 36.35310 36.12929
# Shear Modulus (GPa) = 40.85856 2.72923 21.79390
#
# Velocity S-wave (km/s) = 4.17341 1.07862 3.04801
# Velocity P-wave (km/s) = 6.20717 4.12892 5.27148
#
# Compressibility (1/GPa) = 0.02785091
#
# Stress axis : x y z
#
# Youngs Moduli (GPa) = 74.02896 66.40059 85.89051
#
# Poissons Ratio (x) = 0.16137 0.18757
# Poissons Ratio (y) = 0.17991 0.13450
# Poissons Ratio (z) = 0.16167 0.10398
#
# Static dielectric constant tensor:
#      x y z
#    x 4.257300 0.000000 0.000000 
#    y 0.000000 4.213340 0.000000 
#    z 0.000000 0.000000 4.429190 
# 
# 
# High freq. dielectric constant tensor:
#      x y z
#    x 1.939050 0.000000 0.000000 
#    y 0.000000 1.934880 0.000000 
#    z 0.000000 0.000000 1.954460 
# 
# From -- ./inp_files/1648.got.cif
#   From: 2010.03.12/outbox.cif.g09.slc.cpg/sg46_1_cif.got.tgz:1648.got - 2010.04.14 02:56:35.
