data_PCOD8192334
_publ_section_title
;
Structure prediction by ZEFSAII (Michael W. Deem and Ramdas Pophale) SiO2 
 PCOD8192334
Probable space group: I M A 2
;
_chemical_formula_sum "Si O2"
_cell_formula_units_Z 64
_cell_length_a 15.847720
_cell_length_b 8.619231
_cell_length_c 23.834486
_cell_angle_alpha 90.000000
_cell_angle_beta 90.000000
_cell_angle_gamma 90.000000
_cell_volume 3255.675417
_symmetry_space_group_name_H-M "I M A 2"
_symmetry_group_IT_number 46
_symmetry_cell_setting 'orthorhombic'
loop_
_space_group_symop_operation_xyz
x,y,z
-x,-y,z
1/2-x,y,z
1/2+x,-y,z
1/2+x,1/2+y,1/2+z
1/2-x,1/2-y,1/2+z
-x,1/2+y,1/2+z
x,1/2-y,1/2+z
loop_
_atom_site_type_symbol
_atom_site_label
_atom_site_fract_x
_atom_site_fract_y
_atom_site_fract_z
Si Si1 0.477477 0.829782 0.771410
Si Si2 0.652543 0.708410 0.584246
Si Si3 0.846129 0.202988 0.459110
Si Si4 0.080510 0.104627 0.480328
Si Si5 0.059262 0.347461 0.382204
Si Si6 0.655864 0.114955 0.856342
Si Si7 0.652433 0.157568 0.074631
Si Si8 0.005133 0.680221 0.654785
O O1 0.537152 0.767750 0.822311
O O2 0.383585 0.842917 0.796308
O O3 0.482808 0.712911 0.720068
O O4 0.500000 0.000000 0.748368
O O5 0.750000 0.749269 0.601795
O O6 0.625538 0.807917 0.530754
O O7 0.646197 0.527511 0.569445
O O8 0.583959 0.752455 0.632530
O O9 0.750000 0.257485 0.458121
O O10 0.890739 0.281357 0.405075
O O11 0.884111 0.270390 0.516943
O O12 0.852690 0.017006 0.455029
O O13 0.054087 0.228443 0.433246
O O14 0.000000 0.000000 0.498711
O O15 0.150365 0.432008 0.374358
O O16 0.000000 0.500000 0.388432
O O17 0.750000 0.170119 0.849994
O O18 0.750000 0.207534 0.087229
O O19 0.589691 0.232456 0.121142
O O20 0.000000 0.500000 0.645469
#
# Coordination Sequence:
#
# PCOD8192334 Si02
#       8
#     8   8   8   8   8   8   8   8
#     4   9  20  37  53  75 105 137 182 230 273 325
#     4  10  22  39  57  79 111 152 192 229 277 345
#     4  10  20  33  51  82 116 140 171 221 278 329
#     4  12  22  32  54  84 114 143 181 233 288 334
#     4   9  20  37  55  76 107 146 187 221 264 334
#     4   9  18  35  58  79 106 145 184 222 270 337
#     4   9  19  37  59  83 113 150 190 228 275 345
#     4  10  21  36  57  80 106 145 191 236 283 333
#
# _framework density 19.657979999999998
#
# number of rings (size 3 to 8) (size 9 to 14) (size 15 to 20)
#    0.000    2.500    0.000    3.375    0.000    7.000 
#    0.000    3.125    0.000    0.000    0.000    0.000 
#    0.000    0.000    0.000    0.000    0.000    0.000 
#
# Total GULP energy -396423.083601 kJ/mol
# GULP energy per Si atom -12388.221363 kJ/mol
# Density = 1.961324 g / cm^3
# Si number density = 19.657980 Si / 1000 Ang^3
#
#
#
# Elastic Constant Matrix: (Units=GPa)
#
#
# Indices 1 2 3 4 5 6 
#
# 1 109.1656 28.8702 64.2215 0.0000 0.0000 0.0000
# 2 28.8702 49.5534 40.1455 0.0000 0.0000 0.0000
# 3 64.2215 40.1455 122.8019 0.0000 0.0000 0.0000
# 4 0.0000 0.0000 0.0000 35.0015 0.0000 0.0000
# 5 0.0000 0.0000 0.0000 0.0000 18.2738 0.0000
# 6 0.0000 0.0000 0.0000 0.0000 0.0000 25.5003
#
#
#
# Elastic Compliance Matrix: (Units=1/GPa)
#
#
# Indices 1 2 3 4 5 6 
#
# 1 0.013536 -0.002926 -0.006122 0.000000 0.000000 0.000000
# 2 -0.002926 0.028083 -0.007650 0.000000 0.000000 0.000000
# 3 -0.006122 -0.007650 0.013846 0.000000 0.000000 0.000000
# 4 0.000000 0.000000 0.000000 0.028570 0.000000 0.000000
# 5 0.000000 0.000000 0.000000 0.000000 0.054723 0.000000
# 6 0.000000 0.000000 0.000000 0.000000 0.000000 0.039215
#
#
# Mechanical properties :
#
#
# Convention : Reuss Voigt Hill
#
# Bulk Modulus (GPa) = 45.31615 60.88838 53.10226
# Shear Modulus (GPa) = 22.85955 25.64070 24.25013
#
# Velocity S-wave (km/s) = 3.41378 3.61548 3.51608
# Velocity P-wave (km/s) = 6.21618 6.96205 6.59966
#
# Compressibility (1/GPa) = 0.02206719
#
# Stress axis : x y z
#
# Youngs Moduli (GPa) = 73.87724 35.60875 72.22328
#
# Poissons Ratio (x) = 0.10420 0.44217
# Poissons Ratio (y) = 0.21618 0.55253
# Poissons Ratio (z) = 0.45230 0.27242
#
# Static dielectric constant tensor:
#      x y z
#    x 3.915860 0.000000 0.000000 
#    y 0.000000 3.534670 0.000000 
#    z 0.000000 0.000000 3.489260 
# 
# 
# High freq. dielectric constant tensor:
#      x y z
#    x 1.777200 0.000000 0.000000 
#    y 0.000000 1.754310 0.000000 
#    z 0.000000 0.000000 1.754290 
# 
# From -- ./inp_files/22244.got.cif
#   From: 2010.03.12/outbox.cif.g09.slc.cpg/sg46_12_cif.got.tgz:22244.got - 2010.04.14 02:56:35.
