data_PCOD8192457
_publ_section_title
;
Structure prediction by ZEFSAII (Michael W. Deem and Ramdas Pophale) SiO2 
 PCOD8192457
Probable space group: I M A 2
;
_chemical_formula_sum "Si O2"
_cell_formula_units_Z 64
_cell_length_a 8.857433
_cell_length_b 25.028418
_cell_length_c 15.397093
_cell_angle_alpha 90.000000
_cell_angle_beta 90.000000
_cell_angle_gamma 90.000000
_cell_volume 3413.343602
_symmetry_space_group_name_H-M "I M A 2"
_symmetry_group_IT_number 46
_symmetry_cell_setting 'orthorhombic'
loop_
_space_group_symop_operation_xyz
x,y,z
-x,-y,z
1/2-x,y,z
1/2+x,-y,z
1/2+x,1/2+y,1/2+z
1/2-x,1/2-y,1/2+z
-x,1/2+y,1/2+z
x,1/2-y,1/2+z
loop_
_atom_site_type_symbol
_atom_site_label
_atom_site_fract_x
_atom_site_fract_y
_atom_site_fract_z
Si Si1 0.427632 0.354282 0.041090
Si Si2 0.929572 0.831064 0.351050
Si Si3 0.427300 0.387444 0.345301
Si Si4 0.929519 0.942255 0.024164
Si Si5 0.073414 0.137005 0.168986
Si Si6 0.073740 0.264595 0.558814
Si Si7 0.071865 0.443635 0.169188
Si Si8 0.927942 0.279904 0.379477
O O1 0.250000 0.361496 0.041833
O O2 0.471230 0.296426 0.081147
O O3 0.498030 0.400703 0.100760
O O4 0.486749 0.357788 0.941159
O O5 0.750000 0.823854 0.352256
O O6 0.981652 0.867980 0.269272
O O7 0.999363 0.772711 0.337843
O O8 0.250000 0.375143 0.346802
O O9 0.481671 0.415177 0.434265
O O10 0.471571 0.426588 0.266600
O O11 0.513564 0.332014 0.328734
O O12 0.750000 0.946899 0.026799
O O13 0.997098 0.907198 0.104447
O O14 0.000000 0.000000 0.032623
O O15 0.250000 0.127658 0.164090
O O16 0.034292 0.197419 0.139409
O O17 0.250000 0.268238 0.532468
O O18 0.977238 0.286298 0.478963
O O19 0.250000 0.448205 0.158479
O O20 0.000000 0.500000 0.146372
O O21 0.750000 0.275751 0.371534
#
# Coordination Sequence:
#
# PCOD8192457 Si02
#       8
#     8   8   8   8   8   8   8   8
#     4   8  16  31  53  79 102 130 177 224 261 306
#     4   9  18  34  57  78 104 142 181 224 261 307
#     4  10  20  35  55  75 102 142 184 221 257 311
#     4  10  20  35  53  77 105 136 177 220 264 318
#     4   9  17  31  56  82 102 135 185 225 257 306
#     4   9  16  32  55  78 104 136 179 221 258 312
#     4  10  21  36  55  78 104 138 181 225 267 313
#     4  11  21  32  49  79 115 144 171 209 267 325
#
# _framework density 18.749942999999998
#
# number of rings (size 3 to 8) (size 9 to 14) (size 15 to 20)
#    0.000    2.500    1.250    2.250    1.750    1.000 
#    0.000    4.375    0.000    0.000    0.000    0.000 
#    0.000    0.000    0.000    0.000    0.000    0.000 
#
# Total GULP energy -396660.821208 kJ/mol
# GULP energy per Si atom -12395.650663 kJ/mol
# Density = 1.870727 g / cm^3
# Si number density = 18.749943 Si / 1000 Ang^3
#
#
#
# Elastic Constant Matrix: (Units=GPa)
#
#
# Indices 1 2 3 4 5 6 
#
# 1 30.8948 25.1436 22.9460 -0.0003 0.0000 0.0000
# 2 25.1436 139.1724 78.0063 -0.0003 0.0000 0.0000
# 3 22.9460 78.0063 132.8100 -0.0003 0.0002 0.0000
# 4 -0.0003 -0.0003 -0.0003 29.6685 0.0001 0.0000
# 5 0.0000 0.0000 0.0002 0.0001 9.4881 0.0000
# 6 0.0000 0.0000 0.0000 0.0000 0.0000 27.8765
#
#
#
# Elastic Compliance Matrix: (Units=1/GPa)
#
#
# Indices 1 2 3 4 5 6 
#
# 1 0.039258 -0.004906 -0.003901 0.000000 0.000000 0.000000
# 2 -0.004906 0.011325 -0.005804 0.000000 0.000000 0.000000
# 3 -0.003901 -0.005804 0.011613 0.000000 0.000000 0.000000
# 4 0.000000 0.000000 0.000000 0.033706 0.000000 0.000000
# 5 0.000000 0.000000 0.000000 0.000000 0.105396 0.000000
# 6 0.000000 0.000000 0.000000 0.000000 0.000000 0.035872
#
#
# Mechanical properties :
#
#
# Convention : Reuss Voigt Hill
#
# Bulk Modulus (GPa) = 30.32773 61.67433 46.00103
# Shear Modulus (GPa) = 18.02562 25.19204 21.60883
#
# Velocity S-wave (km/s) = 3.10396 3.66946 3.39849
# Velocity P-wave (km/s) = 5.39037 7.13567 6.32352
#
# Compressibility (1/GPa) = 0.03297312
#
# Stress axis : x y z
#
# Youngs Moduli (GPa) = 25.47244 88.30128 86.11322
#
# Poissons Ratio (x) = 0.43320 0.33595
# Poissons Ratio (y) = 0.12497 0.49981
# Poissons Ratio (z) = 0.09937 0.51251
#
# Static dielectric constant tensor:
#      x y z
#    x 3.033560 0.000000 0.000000 
#    y 0.000000 3.540010 0.000000 
#    z 0.000000 0.000000 3.793450 
# 
# 
# High freq. dielectric constant tensor:
#      x y z
#    x 1.686990 0.000000 0.000000 
#    y 0.000000 1.723910 0.000000 
#    z 0.000000 0.000000 1.733450 
# 
# From -- ./inp_files/14502.got.cif
#   From: 2010.03.12/outbox.cif.g09.slc.cpg/sg46_8_cif.got.tgz:14502.got - 2010.04.14 02:56:35.
