data_PCOD8192674
_publ_section_title
;
Structure prediction by ZEFSAII (Michael W. Deem and Ramdas Pophale) SiO2 
 PCOD8192674
Probable space group: I M A 2
;
_chemical_formula_sum "Si O2"
_cell_formula_units_Z 64
_cell_length_a 8.683476
_cell_length_b 24.881807
_cell_length_c 15.047990
_cell_angle_alpha 90.000000
_cell_angle_beta 90.000000
_cell_angle_gamma 90.000000
_cell_volume 3251.277356
_symmetry_space_group_name_H-M "I M A 2"
_symmetry_group_IT_number 46
_symmetry_cell_setting 'orthorhombic'
loop_
_space_group_symop_operation_xyz
x,y,z
-x,-y,z
1/2-x,y,z
1/2+x,-y,z
1/2+x,1/2+y,1/2+z
1/2-x,1/2-y,1/2+z
-x,1/2+y,1/2+z
x,1/2-y,1/2+z
loop_
_atom_site_type_symbol
_atom_site_label
_atom_site_fract_x
_atom_site_fract_y
_atom_site_fract_z
Si Si1 0.065780 0.148060 0.273750
Si Si2 0.566568 0.633270 0.142063
Si Si3 0.568623 0.441422 0.287816
Si Si4 0.930166 0.161915 0.463288
Si Si5 0.069532 0.391003 0.459463
Si Si6 0.422609 0.227676 0.945194
Si Si7 0.423832 0.235934 0.740187
Si Si8 0.568158 0.556852 0.640757
O O1 0.250000 0.150850 0.282137
O O2 0.001462 0.204518 0.232794
O O3 0.006250 0.100470 0.211070
O O4 0.998002 0.139500 0.371542
O O5 0.750000 0.631249 0.148443
O O6 0.500465 0.584139 0.198728
O O7 0.497287 0.689998 0.179859
O O8 0.509828 0.627505 0.041155
O O9 0.500000 0.500000 0.302379
O O10 0.750000 0.445393 0.277514
O O11 0.528678 0.405757 0.373545
O O12 0.750000 0.151696 0.465856
O O13 0.963146 0.225523 0.476323
O O14 0.250000 0.398520 0.437433
O O15 0.036883 0.329405 0.490133
O O16 0.015301 0.427954 0.541405
O O17 0.250000 0.246493 0.971174
O O18 0.433467 0.216074 0.840894
O O19 0.250000 0.240850 0.706434
O O20 0.500000 0.500000 0.668626
O O21 0.750000 0.554568 0.646056
#
# Coordination Sequence:
#
# PCOD8192674 Si02
#       8
#     8   8   8   8   8   8   8   8
#     4   9  19  39  61  84 111 154 204 248 295 355
#     4  11  21  38  63  89 117 157 203 249 298 355
#     4  12  25  41  61  87 123 162 201 247 296 357
#     4  11  23  37  55  87 125 158 193 246 308 361
#     4  10  20  37  61  89 119 159 203 245 292 352
#     4   9  17  34  58  84 116 157 200 235 280 351
#     4   8  15  30  57  85 109 142 192 240 282 342
#     4  10  22  38  61  87 116 151 200 251 295 347
#
# _framework density 19.684571999999999
#
# number of rings (size 3 to 8) (size 9 to 14) (size 15 to 20)
#    0.000    2.000    1.250    3.750    1.750    2.500 
#    0.000    1.250    0.000    1.500    0.000    0.000 
#    0.000    0.000    0.000    0.000    0.000    0.000 
#
# Total GULP energy -396775.203220 kJ/mol
# GULP energy per Si atom -12399.225101 kJ/mol
# Density = 1.963977 g / cm^3
# Si number density = 19.684572 Si / 1000 Ang^3
#
#
#
# Elastic Constant Matrix: (Units=GPa)
#
#
# Indices 1 2 3 4 5 6 
#
# 1 78.4795 23.3142 31.0493 -0.0002 0.0000 0.0000
# 2 23.3142 88.1323 28.7254 0.0000 0.0000 0.0000
# 3 31.0493 28.7254 80.2345 -0.0012 -0.0001 0.0001
# 4 -0.0002 0.0000 -0.0012 34.0032 0.0000 0.0001
# 5 0.0000 0.0000 -0.0001 0.0000 21.7694 -0.0001
# 6 0.0000 0.0000 0.0001 0.0001 -0.0001 29.5055
#
#
#
# Elastic Compliance Matrix: (Units=1/GPa)
#
#
# Indices 1 2 3 4 5 6 
#
# 1 0.015491 -0.002427 -0.005126 0.000000 0.000000 0.000000
# 2 -0.002427 0.013226 -0.003796 0.000000 0.000000 0.000000
# 3 -0.005126 -0.003796 0.015806 0.000001 0.000000 0.000000
# 4 0.000000 0.000000 0.000001 0.029409 0.000000 0.000000
# 5 0.000000 0.000000 0.000000 0.000000 0.045936 0.000000
# 6 0.000000 0.000000 0.000000 0.000000 0.000000 0.033892
#
#
# Mechanical properties :
#
#
# Convention : Reuss Voigt Hill
#
# Bulk Modulus (GPa) = 45.81834 45.89158 45.85496
# Shear Modulus (GPa) = 27.21341 27.97278 27.59309
#
# Velocity S-wave (km/s) = 3.72220 3.77377 3.74807
# Velocity P-wave (km/s) = 6.46528 6.50788 6.48662
#
# Compressibility (1/GPa) = 0.02182532
#
# Stress axis : x y z
#
# Youngs Moduli (GPa) = 64.55265 75.60945 63.26712
#
# Poissons Ratio (x) = 0.18353 0.32429
# Poissons Ratio (y) = 0.15669 0.24015
# Poissons Ratio (z) = 0.33088 0.28700
#
# Static dielectric constant tensor:
#      x y z
#    x 3.323990 0.000000 0.000000 
#    y 0.000000 3.800030 0.000000 
#    z 0.000000 0.000000 3.595010 
# 
# 
# High freq. dielectric constant tensor:
#      x y z
#    x 1.741730 0.000000 0.000000 
#    y 0.000000 1.765530 0.000000 
#    z 0.000000 0.000000 1.769600 
# 
# From -- ./inp_files/14511.got.cif
#   From: 2010.03.12/outbox.cif.g09.slc.cpg/sg46_8_cif.got.tgz:14511.got - 2010.04.14 02:56:35.
