data_PCOD8192019
_publ_section_title
;
Structure prediction by ZEFSAII (Michael W. Deem and Ramdas Pophale) SiO2 
 PCOD8192019
Probable space group: I M A 2
;
_chemical_formula_sum "Si O2"
_cell_formula_units_Z 48
_cell_length_a 9.099955
_cell_length_b 22.759074
_cell_length_c 11.454343
_cell_angle_alpha 90.000000
_cell_angle_beta 90.000000
_cell_angle_gamma 90.000000
_cell_volume 2372.269453
_symmetry_space_group_name_H-M "I M A 2"
_symmetry_group_IT_number 46
_symmetry_cell_setting 'orthorhombic'
loop_
_space_group_symop_operation_xyz
x,y,z
-x,-y,z
1/2-x,y,z
1/2+x,-y,z
1/2+x,1/2+y,1/2+z
1/2-x,1/2-y,1/2+z
-x,1/2+y,1/2+z
x,1/2-y,1/2+z
loop_
_atom_site_type_symbol
_atom_site_label
_atom_site_fract_x
_atom_site_fract_y
_atom_site_fract_z
Si Si1 0.081082 0.771635 0.110490
Si Si2 0.585909 0.641634 0.761118
Si Si3 0.087044 0.444510 0.546150
Si Si4 0.581113 0.359501 0.396650
Si Si5 0.421718 0.062715 0.473372
Si Si6 0.577868 0.840833 0.658379
O O1 0.250000 0.756228 0.136850
O O2 0.018372 0.803874 0.227006
O O3 0.988830 0.712826 0.083305
O O4 0.064431 0.810563 0.995606
O O5 0.750000 0.664579 0.794293
O O6 0.596880 0.601321 0.648898
O O7 0.518588 0.603780 0.867887
O O8 0.250000 0.462515 0.504281
O O9 0.000000 0.500000 0.595781
O O10 0.999070 0.419044 0.435890
O O11 0.750000 0.373936 0.370434
O O12 0.503152 0.337272 0.281115
O O13 0.250000 0.050806 0.453928
O O14 0.452819 0.097414 0.593591
O O15 0.500000 0.000000 0.476316
O O16 0.750000 0.830639 0.675787
#
# Coordination Sequence:
#
# PCOD8192019 Si02
#       6
#     8   8   8   8   8   8
#     4  10  22  39  61  90 119 151 198 251 307 359
#     4   9  19  37  60  89 121 155 197 244 300 360
#     4  10  19  33  57  86 117 153 194 241 296 352
#     4  10  22  40  59  84 117 151 197 248 297 356
#     4  10  23  41  61  89 122 162 205 247 299 360
#     4  11  24  40  60  86 120 160 201 245 301 366
#
# _framework density 20.233789000000002
#
# number of rings (size 3 to 8) (size 9 to 14) (size 15 to 20)
#    0.000    2.000    0.000    2.500    2.333    5.333 
#    0.000    1.667    0.000    0.000    0.000    0.000 
#    0.000    0.000    0.000    0.000    0.000    0.000 
#
# Total GULP energy -297626.823344 kJ/mol
# GULP energy per Si atom -12401.117639 kJ/mol
# Density = 2.018774 g / cm^3
# Si number density = 20.233789 Si / 1000 Ang^3
#
#
#
# Elastic Constant Matrix: (Units=GPa)
#
#
# Indices 1 2 3 4 5 6 
#
# 1 144.2028 53.1504 48.1531 0.0000 0.0000 0.0000
# 2 53.1504 86.0951 26.0539 -0.0002 0.0000 0.0000
# 3 48.1531 26.0539 77.0240 -0.0002 0.0002 0.0004
# 4 0.0000 -0.0002 -0.0002 22.9108 0.0000 0.0000
# 5 0.0000 0.0000 0.0002 0.0000 29.8658 0.0000
# 6 0.0000 0.0000 0.0004 0.0000 0.0000 39.8831
#
#
#
# Elastic Compliance Matrix: (Units=1/GPa)
#
#
# Indices 1 2 3 4 5 6 
#
# 1 0.010361 -0.004942 -0.004806 0.000000 0.000000 0.000000
# 2 -0.004942 0.015297 -0.002085 0.000000 0.000000 0.000000
# 3 -0.004806 -0.002085 0.016693 0.000000 0.000000 0.000000
# 4 0.000000 0.000000 0.000000 0.043647 0.000000 0.000000
# 5 0.000000 0.000000 0.000000 0.000000 0.033483 0.000000
# 6 0.000000 0.000000 0.000000 0.000000 0.000000 0.025073
#
#
# Mechanical properties :
#
#
# Convention : Reuss Voigt Hill
#
# Bulk Modulus (GPa) = 53.51727 62.44853 57.98290
# Shear Modulus (GPa) = 28.66194 30.52959 29.59576
#
# Velocity S-wave (km/s) = 3.76778 3.88860 3.82866
# Velocity P-wave (km/s) = 6.74055 7.14787 6.94720
#
# Compressibility (1/GPa) = 0.01868556
#
# Stress axis : x y z
#
# Youngs Moduli (GPa) = 96.51635 65.37302 59.90714
#
# Poissons Ratio (x) = 0.32307 0.28789
# Poissons Ratio (y) = 0.47698 0.12489
# Poissons Ratio (z) = 0.46383 0.13628
#
# Static dielectric constant tensor:
#      x y z
#    x 3.935840 0.000000 0.000000 
#    y 0.000000 3.730730 0.000000 
#    z 0.000000 0.000000 3.575510 
# 
# 
# High freq. dielectric constant tensor:
#      x y z
#    x 1.798270 0.000000 0.000000 
#    y 0.000000 1.790310 0.000000 
#    z 0.000000 0.000000 1.784900 
# 
# From -- ./inp_files/9297.got.cif
#   From: 2010.03.12/outbox.cif.g09.slc.cpg/sg46_5_cif.got.tgz:9297.got - 2010.04.14 02:56:35.
