data_PCOD8192801
_publ_section_title
;
Structure prediction by ZEFSAII (Michael W. Deem and Ramdas Pophale) SiO2 
 PCOD8192801
Probable space group: I M A 2
;
_chemical_formula_sum "Si O2"
_cell_formula_units_Z 56
_cell_length_a 19.012557
_cell_length_b 15.321927
_cell_length_c 8.431924
_cell_angle_alpha 90.000000
_cell_angle_beta 90.000000
_cell_angle_gamma 90.000000
_cell_volume 2456.295437
_symmetry_space_group_name_H-M "I M A 2"
_symmetry_group_IT_number 46
_symmetry_cell_setting 'orthorhombic'
loop_
_space_group_symop_operation_xyz
x,y,z
-x,-y,z
1/2-x,y,z
1/2+x,-y,z
1/2+x,1/2+y,1/2+z
1/2-x,1/2-y,1/2+z
-x,1/2+y,1/2+z
x,1/2-y,1/2+z
loop_
_atom_site_type_symbol
_atom_site_label
_atom_site_fract_x
_atom_site_fract_y
_atom_site_fract_z
Si Si1 0.750000 0.227584 0.488961
Si Si2 0.609535 0.184085 0.666372
Si Si3 0.393392 0.177130 0.213759
Si Si4 0.170114 0.513693 0.199334
Si Si5 0.168373 0.338618 0.376893
Si Si6 0.250000 0.618923 0.685102
Si Si7 0.366513 0.987288 0.335780
Si Si8 0.957071 0.329003 0.854112
O O1 0.680688 0.185877 0.564479
O O2 0.750000 0.333651 0.512567
O O3 0.750000 0.202480 0.304231
O O4 0.603676 0.264197 0.786981
O O5 0.542786 0.184903 0.544747
O O6 0.617276 0.091112 0.759601
O O7 0.340681 0.252277 0.271231
O O8 0.376846 0.086703 0.295601
O O9 0.472203 0.200585 0.267459
O O10 0.384215 0.167661 0.025714
O O11 0.250000 0.531022 0.253455
O O12 0.144535 0.422185 0.273800
O O13 0.167236 0.511798 0.008893
O O14 0.250000 0.345212 0.430074
O O15 0.183491 0.556477 0.704938
O O16 0.438458 0.930801 0.325249
#
# Coordination Sequence:
#
# PCOD8192801 Si02
#       8
#     4   8   8   8   8   4   8   8
#     4  12  18  40  62  99 141 170 220 267 319 389
#     4  11  20  38  65  97 135 178 214 264 326 398
#     4  12  26  46  65  91 132 172 229 288 335 409
#     4  10  20  40  66  99 133 162 216 279 339 397
#     4  11  26  45  69  98 123 173 229 292 348 386
#     4  12  22  38  66 105 135 180 220 277 343 387
#     4  11  22  40  67  96 133 175 221 271 337 403
#     4  11  24  41  63  94 134 181 216 261 341 406
#
# _framework density 22.798560999999999
#
# number of rings (size 3 to 8) (size 9 to 14) (size 15 to 20)
#    0.000    0.857    5.714    2.571    2.000    2.286 
#    2.571    3.571    0.000    0.000    0.000    0.000 
#    0.000    0.000    0.000    0.000    0.000    0.000 
#
# Total GULP energy -347118.329229 kJ/mol
# GULP energy per Si atom -12397.083187 kJ/mol
# Density = 2.274667 g / cm^3
# Si number density = 22.798561 Si / 1000 Ang^3
#
#
#
# Elastic Constant Matrix: (Units=GPa)
#
#
# Indices 1 2 3 4 5 6 
#
# 1 67.1963 32.1968 22.9081 0.0000 0.0000 0.0000
# 2 32.1968 171.3480 51.8659 0.0000 0.0000 0.0000
# 3 22.9081 51.8659 53.6684 0.0000 0.0000 0.0000
# 4 0.0000 0.0000 0.0000 42.8138 0.0000 0.0000
# 5 0.0000 0.0000 0.0000 0.0000 32.2897 0.0000
# 6 0.0000 0.0000 0.0000 0.0000 0.0000 31.3000
#
#
#
# Elastic Compliance Matrix: (Units=1/GPa)
#
#
# Indices 1 2 3 4 5 6 
#
# 1 0.017673 -0.001466 -0.006127 0.000000 0.000000 0.000000
# 2 -0.001466 0.008371 -0.007464 0.000000 0.000000 0.000000
# 3 -0.006127 -0.007464 0.028461 0.000000 0.000000 0.000000
# 4 0.000000 0.000000 0.000000 0.023357 0.000000 0.000000
# 5 0.000000 0.000000 0.000000 0.000000 0.030970 0.000000
# 6 0.000000 0.000000 0.000000 0.000000 0.000000 0.031949
#
#
# Mechanical properties :
#
#
# Convention : Reuss Voigt Hill
#
# Bulk Modulus (GPa) = 40.99771 56.23938 48.61855
# Shear Modulus (GPa) = 27.92913 33.63015 30.77964
#
# Velocity S-wave (km/s) = 3.50385 3.84487 3.67832
# Velocity P-wave (km/s) = 5.86438 6.66575 6.27786
#
# Compressibility (1/GPa) = 0.02439161
#
# Stress axis : x y z
#
# Youngs Moduli (GPa) = 56.58357 119.46203 35.13553
#
# Poissons Ratio (x) = 0.17517 0.21526
# Poissons Ratio (y) = 0.08297 0.26225
# Poissons Ratio (z) = 0.34666 0.89164
#
# Static dielectric constant tensor:
#      x y z
#    x 4.040400 0.000000 0.000000 
#    y 0.000000 4.502340 0.000000 
#    z 0.000000 0.000000 4.005790 
# 
# 
# High freq. dielectric constant tensor:
#      x y z
#    x 1.884060 0.000000 0.000000 
#    y 0.000000 1.921240 0.000000 
#    z 0.000000 0.000000 1.888890 
# 
# From -- ./inp_files/7446.got.cif
#   From: 2010.03.12/outbox.cif.g09.slc.cpg/sg46_4_cif.got.tgz:7446.got - 2010.04.14 02:56:35.
