data_PCOD8192144
_publ_section_title
;
Structure prediction by ZEFSAII (Michael W. Deem and Ramdas Pophale) SiO2 
 PCOD8192144
Probable space group: I M A 2
;
_chemical_formula_sum "Si O2"
_cell_formula_units_Z 56
_cell_length_a 17.112473
_cell_length_b 5.005917
_cell_length_c 30.943287
_cell_angle_alpha 90.000000
_cell_angle_beta 90.000000
_cell_angle_gamma 90.000000
_cell_volume 2650.713964
_symmetry_space_group_name_H-M "I M A 2"
_symmetry_group_IT_number 46
_symmetry_cell_setting 'orthorhombic'
loop_
_space_group_symop_operation_xyz
x,y,z
-x,-y,z
1/2-x,y,z
1/2+x,-y,z
1/2+x,1/2+y,1/2+z
1/2-x,1/2-y,1/2+z
-x,1/2+y,1/2+z
x,1/2-y,1/2+z
loop_
_atom_site_type_symbol
_atom_site_label
_atom_site_fract_x
_atom_site_fract_y
_atom_site_fract_z
Si Si1 0.589938 0.021661 0.383230
Si Si2 0.052756 0.766051 0.291605
Si Si3 0.341194 0.476973 0.527555
Si Si4 0.163867 0.640748 0.715687
Si Si5 0.591087 0.484981 0.071435
Si Si6 0.906569 0.511911 0.432053
Si Si7 0.837339 0.848261 0.659072
O O1 0.597179 0.108706 0.333142
O O2 0.630638 0.247186 0.411683
O O3 0.500000 0.000000 0.395459
O O4 0.626499 0.742262 0.399503
O O5 0.115869 0.722829 0.254528
O O6 0.000000 0.500000 0.302117
O O7 0.000000 0.000000 0.272336
O O8 0.250000 0.536766 0.527059
O O9 0.380987 0.683111 0.561456
O O10 0.375748 0.486838 0.480070
O O11 0.358514 0.175281 0.541020
O O12 0.250000 0.561893 0.733370
O O13 0.127670 0.377771 0.691787
O O14 0.170895 0.868715 0.680925
O O15 0.500000 0.500000 0.060359
O O16 0.604274 0.594968 0.119760
O O17 0.000000 0.500000 0.432537
O O18 0.750000 0.756185 0.643382
#
# Coordination Sequence:
#
# PCOD8192144 Si02
#       7
#     8   8   8   8   8   8   8
#     4   9  18  33  56  83 113 150 193 243 297 349
#     4  11  21  36  59  88 119 155 203 251 298 356
#     4  12  25  42  63  91 127 163 201 250 315 379
#     4  10  22  39  59  85 119 158 196 241 303 365
#     4  12  25  42  65  93 122 158 208 259 307 370
#     4  10  19  35  58  83 113 152 198 244 292 353
#     4  10  21  39  61  85 118 158 197 242 304 366
#
# _framework density 21.126384000000002
#
# number of rings (size 3 to 8) (size 9 to 14) (size 15 to 20)
#    0.000    1.429    0.000    7.286    0.000    4.000 
#    0.000    1.429    0.000    0.000    0.000    1.000 
#    0.000    0.000    0.000    0.000    0.000    0.000 
#
# Total GULP energy -346922.136651 kJ/mol
# GULP energy per Si atom -12390.076309 kJ/mol
# Density = 2.107830 g / cm^3
# Si number density = 21.126384 Si / 1000 Ang^3
#
#
#
# Elastic Constant Matrix: (Units=GPa)
#
#
# Indices 1 2 3 4 5 6 
#
# 1 41.6728 22.8824 29.5943 0.0000 0.0000 0.0000
# 2 22.8824 101.7782 32.4601 0.0000 0.0000 0.0000
# 3 29.5943 32.4601 119.6551 0.0000 0.0000 0.0000
# 4 0.0000 0.0000 0.0000 52.4387 0.0000 0.0000
# 5 0.0000 0.0000 0.0000 0.0000 -107.7322 0.0000
# 6 0.0000 0.0000 0.0000 0.0000 0.0000 22.6402
#
#
#
# Elastic Compliance Matrix: (Units=1/GPa)
#
#
# Indices 1 2 3 4 5 6 
#
# 1 0.031270 -0.004996 -0.006379 0.000000 0.000000 0.000000
# 2 -0.004996 0.011554 -0.001899 0.000000 0.000000 0.000000
# 3 -0.006379 -0.001899 0.010450 0.000000 0.000000 0.000000
# 4 0.000000 0.000000 0.000000 0.019070 0.000000 0.000000
# 5 0.000000 0.000000 0.000000 0.000000 -0.009282 0.000000
# 6 0.000000 0.000000 0.000000 0.000000 0.000000 0.044169
#
#
# Mechanical properties :
#
#
# Convention : Reuss Voigt Hill
#
# Bulk Modulus (GPa) = 37.41510 48.10885 42.76197
# Shear Modulus (GPa) = 35.04196 5.34729 20.19463
#
# Velocity S-wave (km/s) = 4.07711 1.59267 3.09511
# Velocity P-wave (km/s) = 6.31762 5.11893 5.74960
#
# Compressibility (1/GPa) = 0.02672718
#
# Stress axis : x y z
#
# Youngs Moduli (GPa) = 31.97999 86.54964 95.69307
#
# Poissons Ratio (x) = 0.43239 0.61039
# Poissons Ratio (y) = 0.15977 0.18170
# Poissons Ratio (z) = 0.20399 0.16434
#
# Static dielectric constant tensor:
#      x y z
#    x 3.843060 0.000000 0.000000 
#    y 0.000000 4.297120 0.000000 
#    z 0.000000 0.000000 3.772390 
# 
# 
# High freq. dielectric constant tensor:
#      x y z
#    x 1.795510 0.000000 0.000000 
#    y 0.000000 1.851930 0.000000 
#    z 0.000000 0.000000 1.833310 
# 
# From -- ./inp_files/25398.got.cif
#   From: 2010.03.12/outbox.cif.g09.slc.cpg/sg46_13_cif.got.tgz:25398.got - 2010.04.14 02:56:35.
