data_PCOD8192315
_publ_section_title
;
Structure prediction by ZEFSAII (Michael W. Deem and Ramdas Pophale) SiO2 
 PCOD8192315
Probable space group: I M A 2
;
_chemical_formula_sum "Si O2"
_cell_formula_units_Z 64
_cell_length_a 9.189206
_cell_length_b 16.469307
_cell_length_c 22.405884
_cell_angle_alpha 90.000000
_cell_angle_beta 90.000000
_cell_angle_gamma 90.000000
_cell_volume 3390.903229
_symmetry_space_group_name_H-M "I M A 2"
_symmetry_group_IT_number 46
_symmetry_cell_setting 'orthorhombic'
loop_
_space_group_symop_operation_xyz
x,y,z
-x,-y,z
1/2-x,y,z
1/2+x,-y,z
1/2+x,1/2+y,1/2+z
1/2-x,1/2-y,1/2+z
-x,1/2+y,1/2+z
x,1/2-y,1/2+z
loop_
_atom_site_type_symbol
_atom_site_label
_atom_site_fract_x
_atom_site_fract_y
_atom_site_fract_z
Si Si1 0.910183 0.929402 0.786580
Si Si2 0.418499 0.238724 0.457138
Si Si3 0.074519 0.082264 0.381572
Si Si4 0.581634 0.077459 0.128625
Si Si5 0.922605 0.917181 0.920266
Si Si6 0.084016 0.273045 0.586255
Si Si7 0.088627 0.269665 0.215764
Si Si8 0.580345 0.127255 0.262113
O O1 0.750000 0.963206 0.796163
O O2 0.970731 0.906415 0.851560
O O3 0.916728 0.858265 0.740391
O O4 0.000000 0.000000 0.755516
O O5 0.250000 0.242097 0.440239
O O6 0.481243 0.163046 0.417832
O O7 0.480893 0.330519 0.446767
O O8 0.448180 0.219368 0.527161
O O9 0.250000 0.073790 0.382946
O O10 0.018450 0.088068 0.313461
O O11 0.000000 0.000000 0.408674
O O12 0.750000 0.068682 0.115945
O O13 0.523101 0.151100 0.089364
O O14 0.547850 0.083947 0.199199
O O15 0.500000 0.000000 0.102922
O O16 0.750000 0.926297 0.930982
O O17 0.000000 0.000000 0.945988
O O18 0.250000 0.305301 0.583563
O O19 0.055301 0.220445 0.645497
O O20 0.250000 0.230563 0.225452
O O21 0.968313 0.219906 0.252137
O O22 0.750000 0.123271 0.280006
#
# Coordination Sequence:
#
# PCOD8192315 Si02
#       8
#     8   8   8   8   8   8   8   8
#     4   9  17  29  46  70  98 127 160 200 249 303
#     4   9  19  36  56  75 101 139 177 214 258 308
#     4  11  22  37  56  78 106 140 180 224 269 317
#     4  10  20  33  50  75 106 136 165 204 255 310
#     4   9  17  31  50  73 101 131 163 200 246 300
#     4   9  18  34  54  73  95 129 173 213 251 303
#     4   9  17  31  52  75 100 132 168 208 258 314
#     4  10  20  33  52  79 107 134 168 211 262 319
#
# _framework density 18.874027000000002
#
# number of rings (size 3 to 8) (size 9 to 14) (size 15 to 20)
#    0.000    2.500    0.000    2.250    0.000    5.500 
#    0.000    7.500    0.000    0.000    0.000    0.000 
#    0.000    0.000    0.000    0.000    0.000    0.000 
#
# Total GULP energy -396475.757674 kJ/mol
# GULP energy per Si atom -12389.867427 kJ/mol
# Density = 1.883107 g / cm^3
# Si number density = 18.874027 Si / 1000 Ang^3
#
#
#
# Elastic Constant Matrix: (Units=GPa)
#
#
# Indices 1 2 3 4 5 6 
#
# 1 63.5688 37.5467 24.2603 0.0000 0.0000 0.0000
# 2 37.5467 98.9994 37.4178 0.0000 0.0000 0.0000
# 3 24.2603 37.4178 68.9074 0.0000 0.0000 0.0000
# 4 0.0000 0.0000 0.0000 3.6520 0.0000 0.0000
# 5 0.0000 0.0000 0.0000 0.0000 18.6731 0.0000
# 6 0.0000 0.0000 0.0000 0.0000 0.0000 32.2818
#
#
#
# Elastic Compliance Matrix: (Units=1/GPa)
#
#
# Indices 1 2 3 4 5 6 
#
# 1 0.021063 -0.006525 -0.003873 0.000000 0.000000 0.000000
# 2 -0.006525 0.014731 -0.005702 0.000000 0.000000 0.000000
# 3 -0.003873 -0.005702 0.018972 0.000000 0.000000 0.000000
# 4 0.000000 0.000000 0.000000 0.273822 0.000000 0.000000
# 5 0.000000 0.000000 0.000000 0.000000 0.053553 0.000000
# 6 0.000000 0.000000 0.000000 0.000000 0.000000 0.030977
#
#
# Mechanical properties :
#
#
# Convention : Reuss Voigt Hill
#
# Bulk Modulus (GPa) = 44.31233 47.76947 46.04090
# Shear Modulus (GPa) = 11.04148 19.73811 15.38979
#
# Velocity S-wave (km/s) = 2.42132 3.23736 2.85861
# Velocity P-wave (km/s) = 5.59875 6.27205 5.94494
#
# Compressibility (1/GPa) = 0.02256708
#
# Stress axis : x y z
#
# Youngs Moduli (GPa) = 47.47749 67.88554 52.70966
#
# Poissons Ratio (x) = 0.44292 0.20412
# Poissons Ratio (y) = 0.30977 0.30054
# Poissons Ratio (z) = 0.18386 0.38708
#
# Static dielectric constant tensor:
#      x y z
#    x 3.607980 0.000000 0.000000 
#    y 0.000000 3.577570 0.000000 
#    z 0.000000 0.000000 3.436380 
# 
# 
# High freq. dielectric constant tensor:
#      x y z
#    x 1.719350 0.000000 0.000000 
#    y 0.000000 1.725930 0.000000 
#    z 0.000000 0.000000 1.728310 
# 
# From -- ./inp_files/23283.got.cif
#   From: 2010.03.12/outbox.cif.g09.slc.cpg/sg46_12_cif.got.tgz:23283.got - 2010.04.14 02:56:35.
