data_PCOD8192211
_publ_section_title
;
Structure prediction by ZEFSAII (Michael W. Deem and Ramdas Pophale) SiO2 
 PCOD8192211
Probable space group: I M A 2
;
_chemical_formula_sum "Si O2"
_cell_formula_units_Z 64
_cell_length_a 17.121637
_cell_length_b 14.508903
_cell_length_c 12.503730
_cell_angle_alpha 90.000000
_cell_angle_beta 90.000000
_cell_angle_gamma 90.000000
_cell_volume 3106.128723
_symmetry_space_group_name_H-M "I M A 2"
_symmetry_group_IT_number 46
_symmetry_cell_setting 'orthorhombic'
loop_
_space_group_symop_operation_xyz
x,y,z
-x,-y,z
1/2-x,y,z
1/2+x,-y,z
1/2+x,1/2+y,1/2+z
1/2-x,1/2-y,1/2+z
-x,1/2+y,1/2+z
x,1/2-y,1/2+z
loop_
_atom_site_type_symbol
_atom_site_label
_atom_site_fract_x
_atom_site_fract_y
_atom_site_fract_z
Si Si1 0.658049 0.583558 0.403840
Si Si2 0.156759 0.120759 0.148045
Si Si3 0.162977 0.039540 0.554509
Si Si4 0.663316 0.117224 0.834100
Si Si5 0.338158 0.694563 0.941583
Si Si6 0.570191 0.127532 0.633845
Si Si7 0.398913 0.181401 0.696663
Si Si8 0.339607 0.517757 0.823262
O O1 0.750000 0.598671 0.387334
O O2 0.632986 0.608168 0.524426
O O3 0.633056 0.477489 0.385958
O O4 0.612246 0.647068 0.318771
O O5 0.250000 0.133194 0.161356
O O6 0.111495 0.209264 0.194268
O O7 0.124102 0.033888 0.219141
O O8 0.250000 0.996800 0.568591
O O9 0.163938 0.137742 0.614245
O O10 0.096414 0.977922 0.611914
O O11 0.144356 0.046132 0.428023
O O12 0.750000 0.100894 0.787437
O O13 0.663329 0.197984 0.919567
O O14 0.607326 0.157459 0.744855
O O15 0.250000 0.661495 0.970839
O O16 0.369464 0.622862 0.848836
O O17 0.395887 0.690528 0.040809
O O18 0.479215 0.145354 0.645571
O O19 0.250000 0.525102 0.793907
#
# Coordination Sequence:
#
# PCOD8192211 Si02
#       8
#     8   8   8   8   8   8   8   8
#     4  10  22  39  61  90 121 158 209 257 305 366
#     4  10  22  39  60  89 124 165 205 251 306 366
#     4  10  19  36  62  88 113 151 204 258 302 357
#     4  10  20  37  63  89 117 155 202 257 308 363
#     4   9  19  37  64  94 119 155 204 257 311 368
#     4  11  22  37  57  88 121 156 198 255 312 362
#     4  12  24  36  57  88 123 165 204 246 308 367
#     4   8  17  35  60  89 118 146 194 254 306 353
#
# _framework density 20.604426
#
# number of rings (size 3 to 8) (size 9 to 14) (size 15 to 20)
#    0.000    2.000    1.250    3.375    1.750    2.000 
#    0.000    3.750    0.000    1.500    0.000    0.000 
#    0.000    0.000    0.000    0.000    0.000    0.000 
#
# Total GULP energy -396481.247611 kJ/mol
# GULP energy per Si atom -12390.038988 kJ/mol
# Density = 2.055753 g / cm^3
# Si number density = 20.604426 Si / 1000 Ang^3
#
#
#
# Elastic Constant Matrix: (Units=GPa)
#
#
# Indices 1 2 3 4 5 6 
#
# 1 71.5476 30.2459 43.1648 0.0000 0.0000 0.0000
# 2 30.2459 122.2906 58.7113 0.0000 0.0000 0.0000
# 3 43.1648 58.7113 137.8124 0.0000 0.0000 0.0000
# 4 0.0000 0.0000 0.0000 23.2659 0.0000 0.0000
# 5 0.0000 0.0000 0.0000 0.0000 -55.5540 0.0000
# 6 0.0000 0.0000 0.0000 0.0000 0.0000 15.5358
#
#
#
# Elastic Compliance Matrix: (Units=1/GPa)
#
#
# Indices 1 2 3 4 5 6 
#
# 1 0.017673 -0.002154 -0.004618 0.000000 0.000000 0.000000
# 2 -0.002154 0.010542 -0.003817 0.000000 0.000000 0.000000
# 3 -0.004618 -0.003817 0.010329 0.000000 0.000000 0.000000
# 4 0.000000 0.000000 0.000000 0.042981 0.000000 0.000000
# 5 0.000000 0.000000 0.000000 0.000000 -0.018000 0.000000
# 6 0.000000 0.000000 0.000000 0.000000 0.000000 0.064368
#
#
# Mechanical properties :
#
#
# Convention : Reuss Voigt Hill
#
# Bulk Modulus (GPa) = 57.57993 66.21052 61.89522
# Shear Modulus (GPa) = 32.28749 9.95143 21.11946
#
# Velocity S-wave (km/s) = 3.96285 2.20005 3.20503
# Velocity P-wave (km/s) = 6.99607 6.21752 6.61825
#
# Compressibility (1/GPa) = 0.01736716
#
# Stress axis : x y z
#
# Youngs Moduli (GPa) = 56.58261 94.85558 96.81875
#
# Poissons Ratio (x) = 0.20433 0.44709
# Poissons Ratio (y) = 0.12188 0.36952
# Poissons Ratio (z) = 0.26129 0.36203
#
# Static dielectric constant tensor:
#      x y z
#    x 3.594850 0.000000 0.000000 
#    y 0.000000 3.737330 0.000000 
#    z 0.000000 0.000000 3.795970 
# 
# 
# High freq. dielectric constant tensor:
#      x y z
#    x 1.777290 0.000000 0.000000 
#    y 0.000000 1.805950 0.000000 
#    z 0.000000 0.000000 1.807160 
# 
# From -- ./inp_files/11983.got.cif
#   From: 2010.03.12/outbox.cif.g09.slc.cpg/sg46_6_cif.got.tgz:11983.got - 2010.04.14 02:56:35.
