data_PCOD8192301
_publ_section_title
;
Structure prediction by ZEFSAII (Michael W. Deem and Ramdas Pophale) SiO2 
 PCOD8192301
Probable space group: I M A 2
;
_chemical_formula_sum "Si O2"
_cell_formula_units_Z 56
_cell_length_a 19.149510
_cell_length_b 14.482555
_cell_length_c 9.595540
_cell_angle_alpha 90.000000
_cell_angle_beta 90.000000
_cell_angle_gamma 90.000000
_cell_volume 2661.167876
_symmetry_space_group_name_H-M "I M A 2"
_symmetry_group_IT_number 46
_symmetry_cell_setting 'orthorhombic'
loop_
_space_group_symop_operation_xyz
x,y,z
-x,-y,z
1/2-x,y,z
1/2+x,-y,z
1/2+x,1/2+y,1/2+z
1/2-x,1/2-y,1/2+z
-x,1/2+y,1/2+z
x,1/2-y,1/2+z
loop_
_atom_site_type_symbol
_atom_site_label
_atom_site_fract_x
_atom_site_fract_y
_atom_site_fract_z
Si Si1 0.502796 0.600475 0.684420
Si Si2 0.668989 0.644272 0.295198
Si Si3 0.024522 0.640309 0.988503
Si Si4 0.899620 0.323163 0.477629
Si Si5 0.750000 0.137061 0.655443
Si Si6 0.606621 0.047930 0.725982
Si Si7 0.250000 0.718500 0.440009
Si Si8 0.393064 0.237609 0.067151
O O1 0.500000 0.500000 0.614386
O O2 0.494441 0.587295 0.848541
O O3 0.437280 0.655253 0.621975
O O4 0.575887 0.649411 0.648687
O O5 0.750000 0.613509 0.314192
O O6 0.615574 0.557937 0.275362
O O7 0.664318 0.711273 0.161630
O O8 0.643554 0.702863 0.427387
O O9 0.083485 0.715968 0.947257
O O10 0.052442 0.563994 0.099109
O O11 0.955512 0.690986 0.042063
O O12 0.923962 0.388900 0.350879
O O13 0.816975 0.336755 0.497294
O O14 0.682674 0.075151 0.673371
O O15 0.750000 0.178195 0.500104
O O16 0.750000 0.219565 0.771230
#
# Coordination Sequence:
#
# PCOD8192301 Si02
#       8
#     8   8   8   8   4   8   4   8
#     4  11  24  42  62  94 130 166 219 274 334 401
#     4  12  26  47  73  98 133 184 242 293 350 425
#     4  11  23  40  65  96 135 172 220 275 347 409
#     4  10  21  39  61  92 130 176 212 269 337 409
#     4  10  20  38  56  96 132 172 224 268 340 412
#     4  11  23  39  67 101 132 176 230 285 335 418
#     4  10  20  32  64  84 130 172 210 262 334 410
#     4  11  25  47  68  96 134 179 228 287 353 416
#
# _framework density 21.043392999999998
#
# number of rings (size 3 to 8) (size 9 to 14) (size 15 to 20)
#    0.000    1.143    3.571    3.000    6.000    0.000 
#    0.000    0.000    0.000    0.000    0.000    0.000 
#    0.000    0.000    0.000    0.000    0.000    0.000 
#
# Total GULP energy -347139.877058 kJ/mol
# GULP energy per Si atom -12397.852752 kJ/mol
# Density = 2.099550 g / cm^3
# Si number density = 21.043393 Si / 1000 Ang^3
#
#
#
# Elastic Constant Matrix: (Units=GPa)
#
#
# Indices 1 2 3 4 5 6 
#
# 1 89.1834 18.5600 29.2053 0.0000 0.0000 0.0000
# 2 18.5600 93.8697 30.4064 0.0000 0.0000 0.0000
# 3 29.2053 30.4064 108.6804 0.0000 0.0000 0.0000
# 4 0.0000 0.0000 0.0000 30.0538 0.0000 0.0000
# 5 0.0000 0.0000 0.0000 0.0000 20.0614 0.0000
# 6 0.0000 0.0000 0.0000 0.0000 0.0000 29.5845
#
#
#
# Elastic Compliance Matrix: (Units=1/GPa)
#
#
# Indices 1 2 3 4 5 6 
#
# 1 0.012489 -0.001520 -0.002931 0.000000 0.000000 0.000000
# 2 -0.001520 0.011900 -0.002921 0.000000 0.000000 0.000000
# 3 -0.002931 -0.002921 0.010806 0.000000 0.000000 0.000000
# 4 0.000000 0.000000 0.000000 0.033274 0.000000 0.000000
# 5 0.000000 0.000000 0.000000 0.000000 0.049847 0.000000
# 6 0.000000 0.000000 0.000000 0.000000 0.000000 0.033802
#
#
# Mechanical properties :
#
#
# Convention : Reuss Voigt Hill
#
# Bulk Modulus (GPa) = 48.89630 49.78633 49.34131
# Shear Modulus (GPa) = 28.78900 30.17738 29.48319
#
# Velocity S-wave (km/s) = 3.70277 3.79100 3.74714
# Velocity P-wave (km/s) = 6.44725 6.54771 6.49767
#
# Compressibility (1/GPa) = 0.02045144
#
# Stress axis : x y z
#
# Youngs Moduli (GPa) = 80.07079 84.03566 92.54052
#
# Poissons Ratio (x) = 0.12773 0.27122
# Poissons Ratio (y) = 0.12170 0.27030
# Poissons Ratio (z) = 0.23468 0.24545
#
# Static dielectric constant tensor:
#      x y z
#    x 3.868000 0.000000 0.000000 
#    y 0.000000 3.812880 0.000000 
#    z 0.000000 0.000000 3.780690 
# 
# 
# High freq. dielectric constant tensor:
#      x y z
#    x 1.825990 0.000000 0.000000 
#    y 0.000000 1.821820 0.000000 
#    z 0.000000 0.000000 1.826960 
# 
# From -- ./inp_files/7435.got.cif
#   From: 2010.03.12/outbox.cif.g09.slc.cpg/sg46_4_cif.got.tgz:7435.got - 2010.04.14 02:56:35.
