data_PCOD8192056
_publ_section_title
;
Structure prediction by ZEFSAII (Michael W. Deem and Ramdas Pophale) SiO2 
 PCOD8192056
Probable space group: I M A 2
;
_chemical_formula_sum "Si O2"
_cell_formula_units_Z 48
_cell_length_a 8.547001
_cell_length_b 9.524217
_cell_length_c 30.969294
_cell_angle_alpha 90.000000
_cell_angle_beta 90.000000
_cell_angle_gamma 90.000000
_cell_volume 2521.008683
_symmetry_space_group_name_H-M "I M A 2"
_symmetry_group_IT_number 46
_symmetry_cell_setting 'orthorhombic'
loop_
_space_group_symop_operation_xyz
x,y,z
-x,-y,z
1/2-x,y,z
1/2+x,-y,z
1/2+x,1/2+y,1/2+z
1/2-x,1/2-y,1/2+z
-x,1/2+y,1/2+z
x,1/2-y,1/2+z
loop_
_atom_site_type_symbol
_atom_site_label
_atom_site_fract_x
_atom_site_fract_y
_atom_site_fract_z
Si Si1 0.433451 0.647845 0.025370
Si Si2 0.565248 0.656376 0.597162
Si Si3 0.931030 0.848800 0.190381
Si Si4 0.064149 0.342669 0.784045
Si Si5 0.565455 0.848206 0.432726
Si Si6 0.565719 0.344693 0.359407
O O1 0.500000 0.500000 0.041679
O O2 0.250000 0.635187 0.017094
O O3 0.469352 0.760252 0.061740
O O4 0.514701 0.693277 0.980888
O O5 0.500000 0.500000 0.595930
O O6 0.750000 0.658411 0.586926
O O7 0.530118 0.728261 0.644688
O O8 0.750000 0.874048 0.193899
O O9 0.983075 0.780359 0.236163
O O10 0.000000 0.000000 0.186498
O O11 0.250000 0.342201 0.792218
O O12 0.000000 0.500000 0.789864
O O13 0.980353 0.241354 0.817211
O O14 0.750000 0.855285 0.429606
O O15 0.503304 0.728029 0.401641
O O16 0.500000 0.000000 0.418808
O O17 0.500000 0.500000 0.355263
O O18 0.750000 0.351147 0.363892
#
# Coordination Sequence:
#
# PCOD8192056 Si02
#       6
#     8   8   8   8   8   8
#     4  11  22  38  58  83 112 146 184 228 275 326
#     4  10  19  34  55  83 114 148 186 229 275 325
#     4   8  16  30  52  79 110 143 183 228 271 317
#     4  10  19  35  58  85 112 146 187 229 272 323
#     4  11  22  40  63  86 110 143 183 226 270 324
#     4  12  25  41  58  82 113 146 181 226 278 331
#
# _framework density 19.039998000000001
#
# number of rings (size 3 to 8) (size 9 to 14) (size 15 to 20)
#    0.000    1.667    0.000    7.000    0.000    2.000 
#    0.000    4.167    0.000    0.000    0.000    0.000 
#    0.000    0.000    0.000    0.000    0.000    0.000 
#
# Total GULP energy -297432.184141 kJ/mol
# GULP energy per Si atom -12393.007673 kJ/mol
# Density = 1.899666 g / cm^3
# Si number density = 19.039998 Si / 1000 Ang^3
#
#
#
# Elastic Constant Matrix: (Units=GPa)
#
#
# Indices 1 2 3 4 5 6 
#
# 1 133.6218 43.3542 47.6123 0.0000 0.0000 0.0000
# 2 43.3542 93.2508 72.4209 0.0000 0.0000 0.0000
# 3 47.6123 72.4209 134.0977 0.0000 0.0000 0.0000
# 4 0.0000 0.0000 0.0000 29.5301 0.0000 0.0000
# 5 0.0000 0.0000 0.0000 0.0000 117.6015 0.0000
# 6 0.0000 0.0000 0.0000 0.0000 0.0000 31.6770
#
#
#
# Elastic Compliance Matrix: (Units=1/GPa)
#
#
# Indices 1 2 3 4 5 6 
#
# 1 0.009012 -0.002936 -0.001614 0.000000 0.000000 0.000000
# 2 -0.002936 0.019428 -0.009450 0.000000 0.000000 0.000000
# 3 -0.001614 -0.009450 0.013134 0.000000 0.000000 0.000000
# 4 0.000000 0.000000 0.000000 0.033864 0.000000 0.000000
# 5 0.000000 0.000000 0.000000 0.000000 0.008503 0.000000
# 6 0.000000 0.000000 0.000000 0.000000 0.000000 0.031569
#
#
# Mechanical properties :
#
#
# Convention : Reuss Voigt Hill
#
# Bulk Modulus (GPa) = 73.67346 76.41612 75.04479
# Shear Modulus (GPa) = 33.77636 48.93390 41.35513
#
# Velocity S-wave (km/s) = 4.21642 5.07507 4.66554
# Velocity P-wave (km/s) = 7.90458 8.63501 8.27786
#
# Compressibility (1/GPa) = 0.01357341
#
# Stress axis : x y z
#
# Youngs Moduli (GPa) = 110.96866 51.47283 76.14051
#
# Poissons Ratio (x) = 0.15114 0.12288
# Poissons Ratio (y) = 0.32584 0.71950
# Poissons Ratio (z) = 0.17908 0.48640
#
# Static dielectric constant tensor:
#      x y z
#    x 3.503800 0.000000 0.000000 
#    y 0.000000 3.236560 0.000000 
#    z 0.000000 0.000000 4.112460 
# 
# 
# High freq. dielectric constant tensor:
#      x y z
#    x 1.760290 0.000000 0.000000 
#    y 0.000000 1.710450 0.000000 
#    z 0.000000 0.000000 1.767230 
# 
# From -- ./inp_files/24991.got.cif
#   From: 2010.03.12/outbox.cif.g09.slc.cpg/sg46_13_cif.got.tgz:24991.got - 2010.04.14 02:56:35.
