data_PCOD8192104
_publ_section_title
;
Structure prediction by ZEFSAII (Michael W. Deem and Ramdas Pophale) SiO2 
 PCOD8192104
Probable space group: I M A 2
;
_chemical_formula_sum "Si O2"
_cell_formula_units_Z 64
_cell_length_a 9.210158
_cell_length_b 28.441929
_cell_length_c 12.692621
_cell_angle_alpha 90.000000
_cell_angle_beta 90.000000
_cell_angle_gamma 90.000000
_cell_volume 3324.891217
_symmetry_space_group_name_H-M "I M A 2"
_symmetry_group_IT_number 46
_symmetry_cell_setting 'orthorhombic'
loop_
_space_group_symop_operation_xyz
x,y,z
-x,-y,z
1/2-x,y,z
1/2+x,-y,z
1/2+x,1/2+y,1/2+z
1/2-x,1/2-y,1/2+z
-x,1/2+y,1/2+z
x,1/2-y,1/2+z
loop_
_atom_site_type_symbol
_atom_site_label
_atom_site_fract_x
_atom_site_fract_y
_atom_site_fract_z
Si Si1 0.417560 0.701295 0.187350
Si Si2 0.911102 0.682001 0.990487
Si Si3 0.087120 0.425175 0.054928
Si Si4 0.918078 0.388602 0.666779
Si Si5 0.579860 0.455940 0.853929
Si Si6 0.080409 0.700217 0.780672
Si Si7 0.080982 0.597689 0.254069
Si Si8 0.077851 0.949772 0.974761
O O1 0.250000 0.700929 0.154614
O O2 0.455154 0.745483 0.260535
O O3 0.458542 0.653351 0.248986
O O4 0.505957 0.710418 0.080834
O O5 0.750000 0.703029 0.977297
O O6 0.994010 0.684968 0.882134
O O7 0.904757 0.628830 0.026492
O O8 0.250000 0.446793 0.057993
O O9 0.011864 0.431373 0.168688
O O10 0.988933 0.450842 0.969192
O O11 0.750000 0.390589 0.640247
O O12 0.953597 0.412015 0.779319
O O13 0.967109 0.333980 0.682326
O O14 0.988822 0.416923 0.568888
O O15 0.500000 0.500000 0.798986
O O16 0.750000 0.465491 0.865508
O O17 0.250000 0.691932 0.803251
O O18 0.250000 0.590166 0.228492
O O19 0.039320 0.577847 0.367983
O O20 0.250000 0.958289 0.985762
O O21 0.000000 0.000000 0.977284
#
# Coordination Sequence:
#
# PCOD8192104 Si02
#       8
#     8   8   8   8   8   8   8   8
#     4   9  19  34  56  84 110 146 192 235 283 341
#     4  10  20  34  53  77 111 148 180 227 285 341
#     4  10  20  35  55  79 107 143 184 226 277 338
#     4   9  19  35  56  82 112 145 181 232 285 333
#     4  11  21  34  54  80 111 143 178 226 279 335
#     4  10  19  34  58  85 111 145 191 236 283 344
#     4   9  19  36  57  81 112 147 184 234 287 335
#     4  10  21  38  58  80 111 150 191 234 286 339
#
# _framework density 19.248750000000001
#
# number of rings (size 3 to 8) (size 9 to 14) (size 15 to 20)
#    0.000    2.250    1.250    1.500    0.000    3.500 
#    0.000    6.250    0.000    1.500    0.000    0.000 
#    0.000    0.000    0.000    0.000    0.000    0.000 
#
# Total GULP energy -396671.277378 kJ/mol
# GULP energy per Si atom -12395.977418 kJ/mol
# Density = 1.920494 g / cm^3
# Si number density = 19.248750 Si / 1000 Ang^3
#
#
#
# Elastic Constant Matrix: (Units=GPa)
#
#
# Indices 1 2 3 4 5 6 
#
# 1 71.5447 28.3095 50.0154 0.0005 0.0002 -0.0001
# 2 28.3095 76.0956 42.7189 0.0007 0.0006 0.0000
# 3 50.0154 42.7189 130.4877 0.0012 0.0008 -0.0004
# 4 0.0005 0.0007 0.0012 10.4005 0.0006 0.0000
# 5 0.0002 0.0006 0.0008 0.0006 15.5986 0.0001
# 6 -0.0001 0.0000 -0.0004 0.0000 0.0001 18.9987
#
#
#
# Elastic Compliance Matrix: (Units=1/GPa)
#
#
# Indices 1 2 3 4 5 6 
#
# 1 0.019968 -0.003837 -0.006397 0.000000 0.000000 0.000000
# 2 -0.003837 0.016838 -0.004042 0.000000 0.000000 0.000000
# 3 -0.006397 -0.004042 0.011439 -0.000001 0.000000 0.000000
# 4 0.000000 0.000000 -0.000001 0.096149 -0.000004 0.000000
# 5 0.000000 0.000000 0.000000 -0.000004 0.064108 0.000000
# 6 0.000000 0.000000 0.000000 0.000000 0.000000 0.052635
#
#
# Mechanical properties :
#
#
# Convention : Reuss Voigt Hill
#
# Bulk Modulus (GPa) = 50.78160 57.80175 54.29167
# Shear Modulus (GPa) = 16.87746 19.47185 18.17466
#
# Velocity S-wave (km/s) = 2.96431 3.18400 3.07612
# Velocity P-wave (km/s) = 6.17699 6.60388 6.39400
#
# Compressibility (1/GPa) = 0.01969217
#
# Stress axis : x y z
#
# Youngs Moduli (GPa) = 50.08035 59.39037 87.42193
#
# Poissons Ratio (x) = 0.22789 0.55927
# Poissons Ratio (y) = 0.19217 0.35332
# Poissons Ratio (z) = 0.32038 0.24003
#
# Static dielectric constant tensor:
#      x y z
#    x 3.595760 0.000000 0.000000 
#    y 0.000000 3.848760 0.000000 
#    z 0.000000 0.000000 3.534470 
# 
# 
# High freq. dielectric constant tensor:
#      x y z
#    x 1.735400 0.000000 0.000000 
#    y 0.000000 1.751720 0.000000 
#    z 0.000000 0.000000 1.747720 
# 
# From -- ./inp_files/9731.got.cif
#   From: 2010.03.12/outbox.cif.g09.slc.cpg/sg46_5_cif.got.tgz:9731.got - 2010.04.14 02:56:35.
