data_PCOD8192852
_publ_section_title
;
Structure prediction by ZEFSAII (Michael W. Deem and Ramdas Pophale) SiO2 
 PCOD8192852
Probable space group: I M A 2
;
_chemical_formula_sum "Si O2"
_cell_formula_units_Z 64
_cell_length_a 13.301691
_cell_length_b 12.293736
_cell_length_c 19.907879
_cell_angle_alpha 90.000000
_cell_angle_beta 90.000000
_cell_angle_gamma 90.000000
_cell_volume 3255.485235
_symmetry_space_group_name_H-M "I M A 2"
_symmetry_group_IT_number 46
_symmetry_cell_setting 'orthorhombic'
loop_
_space_group_symop_operation_xyz
x,y,z
-x,-y,z
1/2-x,y,z
1/2+x,-y,z
1/2+x,1/2+y,1/2+z
1/2-x,1/2-y,1/2+z
-x,1/2+y,1/2+z
x,1/2-y,1/2+z
loop_
_atom_site_type_symbol
_atom_site_label
_atom_site_fract_x
_atom_site_fract_y
_atom_site_fract_z
Si Si1 0.469644 0.375395 0.865950
Si Si2 0.367771 0.758756 0.434341
Si Si3 0.368781 0.579960 0.050472
Si Si4 0.368064 0.352360 0.580776
Si Si5 0.632229 0.258756 0.649073
Si Si6 0.469644 0.375395 0.717464
Si Si7 0.368064 0.147640 0.502638
Si Si8 0.368782 0.920039 0.032942
O O1 0.500000 0.500000 0.874902
O O2 0.566059 0.293345 0.870299
O O3 0.422464 0.357416 0.791707
O O4 0.389202 0.345983 0.923162
O O5 0.250000 0.773168 0.417903
O O6 0.408980 0.842662 0.491104
O O7 0.391030 0.635575 0.460316
O O8 0.250000 0.575208 0.040445
O O9 0.391030 0.635575 0.123098
O O10 0.414960 0.458896 0.040462
O O11 0.250000 0.354082 0.571160
O O12 0.389202 0.345983 0.660252
O O13 0.415592 0.250000 0.541707
O O14 0.414960 0.458896 0.542952
O O15 0.750000 0.273169 0.665510
O O16 0.566060 0.293345 0.713115
O O17 0.591019 0.342662 0.592311
O O18 0.500000 0.500000 0.708512
O O19 0.250000 0.145918 0.512255
O O20 0.250000 0.924790 0.042970
#
# Coordination Sequence:
#
# PCOD8192852 Si02
#       8
#     8   8   8   8   8   8   8   8
#     4  11  23  34  50  79 111 143 174 209 266 325
#     4   9  17  32  54  76 104 134 168 221 267 305
#     4   8  15  30  53  79  99 128 175 220 264 299
#     4  10  21  36  55  79 107 140 179 218 257 309
#     4   9  17  32  54  76 104 134 168 221 267 305
#     4  11  23  34  50  79 111 143 174 209 266 325
#     4  10  21  36  55  79 107 140 179 218 257 309
#     4   8  15  30  53  79  99 128 175 220 264 299
#
# _framework density 19.659127000000002
#
# number of rings (size 3 to 8) (size 9 to 14) (size 15 to 20)
#    0.000    2.500    2.500    1.500    3.500    1.000 
#    0.000    2.500    0.000    3.000    0.000    7.000 
#    0.000    0.000    0.000    0.000    0.000    0.000 
#
# Total GULP energy -396545.535926 kJ/mol
# GULP energy per Si atom -12392.047998 kJ/mol
# Density = 1.961438 g / cm^3
# Si number density = 19.659127 Si / 1000 Ang^3
#
#
#
# Elastic Constant Matrix: (Units=GPa)
#
#
# Indices 1 2 3 4 5 6 
#
# 1 21.5195 25.7912 11.4519 0.0000 0.0000 0.0000
# 2 25.7912 137.7126 62.5465 0.0000 0.0000 0.0000
# 3 11.4519 62.5465 104.5867 0.0000 0.0000 0.0000
# 4 0.0000 0.0000 0.0000 13.1514 0.0000 0.0000
# 5 0.0000 0.0000 0.0000 0.0000 24.9047 0.0000
# 6 0.0000 0.0000 0.0000 0.0000 0.0000 11.2514
#
#
#
# Elastic Compliance Matrix: (Units=1/GPa)
#
#
# Indices 1 2 3 4 5 6 
#
# 1 0.059922 -0.011316 0.000206 0.000000 0.000000 0.000000
# 2 -0.011316 0.012106 -0.006001 0.000000 0.000000 0.000000
# 3 0.000206 -0.006001 0.013128 0.000000 0.000000 0.000000
# 4 0.000000 0.000000 0.000000 0.076038 0.000000 0.000000
# 5 0.000000 0.000000 0.000000 0.000000 0.040153 0.000000
# 6 0.000000 0.000000 0.000000 0.000000 0.000000 0.088878
#
#
# Mechanical properties :
#
#
# Convention : Reuss Voigt Hill
#
# Bulk Modulus (GPa) = 19.63314 51.48867 35.56090
# Shear Modulus (GPa) = 14.64453 20.79677 17.72065
#
# Velocity S-wave (km/s) = 2.73229 3.25602 3.00558
# Velocity P-wave (km/s) = 4.46792 6.35477 5.49297
#
# Compressibility (1/GPa) = 0.05093429
#
# Stress axis : x y z
#
# Youngs Moduli (GPa) = 16.68837 82.60173 76.17507
#
# Poissons Ratio (x) = 0.93471 -0.01569
# Poissons Ratio (y) = 0.18884 0.45712
# Poissons Ratio (z) = -0.00344 0.49569
#
# Static dielectric constant tensor:
#      x y z
#    x 3.502760 0.000000 0.000000 
#    y 0.000000 4.127790 0.000000 
#    z 0.000000 0.000000 3.370330 
# 
# 
# High freq. dielectric constant tensor:
#      x y z
#    x 1.779100 0.000000 0.000000 
#    y 0.000000 1.763960 0.000000 
#    z 0.000000 0.000000 1.725060 
# 
# From -- ./inp_files/19631.got.cif
#   From: 2010.03.12/outbox.cif.g09.slc.cpg/sg46_10_cif.got.tgz:19631.got - 2010.04.14 02:56:35.
