data_PCOD8192231
_publ_section_title
;
Structure prediction by ZEFSAII (Michael W. Deem and Ramdas Pophale) SiO2 
 PCOD8192231
Probable space group: I M A 2
;
_chemical_formula_sum "Si O2"
_cell_formula_units_Z 64
_cell_length_a 8.805981
_cell_length_b 15.421181
_cell_length_c 23.440654
_cell_angle_alpha 90.000000
_cell_angle_beta 90.000000
_cell_angle_gamma 90.000000
_cell_volume 3183.208626
_symmetry_space_group_name_H-M "I M A 2"
_symmetry_group_IT_number 46
_symmetry_cell_setting 'orthorhombic'
loop_
_space_group_symop_operation_xyz
x,y,z
-x,-y,z
1/2-x,y,z
1/2+x,-y,z
1/2+x,1/2+y,1/2+z
1/2-x,1/2-y,1/2+z
-x,1/2+y,1/2+z
x,1/2-y,1/2+z
loop_
_atom_site_type_symbol
_atom_site_label
_atom_site_fract_x
_atom_site_fract_y
_atom_site_fract_z
Si Si1 0.429893 0.410794 0.705070
Si Si2 0.571005 0.908968 0.692851
Si Si3 0.071653 0.148078 0.819752
Si Si4 0.925310 0.244633 0.136855
Si Si5 0.571067 0.087231 0.932149
Si Si6 0.924540 0.251586 0.004013
Si Si7 0.429996 0.344156 0.825081
Si Si8 0.429317 0.089785 0.445696
O O1 0.500000 0.500000 0.681673
O O2 0.250000 0.415600 0.701557
O O3 0.484236 0.331809 0.666924
O O4 0.487894 0.396643 0.769972
O O5 0.750000 0.909188 0.681987
O O6 0.531613 0.891774 0.758671
O O7 0.496303 0.836301 0.653532
O O8 0.500000 0.000000 0.673836
O O9 0.250000 0.143420 0.833055
O O10 0.009191 0.246177 0.821306
O O11 0.982066 0.093859 0.866823
O O12 0.750000 0.242095 0.155518
O O13 0.944475 0.229762 0.069913
O O14 0.750000 0.079174 0.935285
O O15 0.500000 0.000000 0.959096
O O16 0.513015 0.169775 0.968133
O O17 0.750000 0.271038 0.988391
O O18 0.023711 0.335222 0.989126
O O19 0.250000 0.341498 0.825717
O O20 0.493352 0.388881 0.882332
O O21 0.250000 0.081145 0.445495
O O22 0.500000 0.000000 0.467219
#
# Coordination Sequence:
#
# PCOD8192231 Si02
#       8
#     8   8   8   8   8   8   8   8
#     4  11  22  40  63  92 126 160 199 245 298 357
#     4  11  23  40  63  91 124 159 198 246 299 360
#     4  10  19  37  62  90 123 156 194 240 295 357
#     4  11  24  43  64  87 118 158 205 255 302 353
#     4  11  23  39  61  90 121 156 197 243 297 355
#     4  10  24  44  62  85 118 155 203 254 297 348
#     4   9  18  35  60  90 123 157 192 238 294 355
#     4  11  22  38  63  91 122 158 197 240 296 355
#
# _framework density 20.105501
#
# number of rings (size 3 to 8) (size 9 to 14) (size 15 to 20)
#    0.000    1.500    2.500    2.625    0.000    4.500 
#    0.000    3.125    0.000    0.000    0.000    0.000 
#    0.000    0.000    0.000    0.000    0.000    0.000 
#
# Total GULP energy -396969.856643 kJ/mol
# GULP energy per Si atom -12405.308020 kJ/mol
# Density = 2.005974 g / cm^3
# Si number density = 20.105501 Si / 1000 Ang^3
#
#
#
# Elastic Constant Matrix: (Units=GPa)
#
#
# Indices 1 2 3 4 5 6 
#
# 1 76.0653 38.6456 27.2302 0.0000 0.0000 0.0000
# 2 38.6456 143.2575 19.1770 0.0000 0.0000 0.0000
# 3 27.2302 19.1770 67.1301 0.0000 0.0000 0.0000
# 4 0.0000 0.0000 0.0000 9.5798 0.0000 0.0000
# 5 0.0000 0.0000 0.0000 0.0000 24.9056 0.0000
# 6 0.0000 0.0000 0.0000 0.0000 0.0000 34.9509
#
#
#
# Elastic Compliance Matrix: (Units=1/GPa)
#
#
# Indices 1 2 3 4 5 6 
#
# 1 0.017210 -0.003856 -0.005880 0.000000 0.000000 0.000000
# 2 -0.003856 0.008122 -0.000756 0.000000 0.000000 0.000000
# 3 -0.005880 -0.000756 0.017497 0.000000 0.000000 0.000000
# 4 0.000000 0.000000 0.000000 0.104386 0.000000 0.000000
# 5 0.000000 0.000000 0.000000 0.000000 0.040152 0.000000
# 6 0.000000 0.000000 0.000000 0.000000 0.000000 0.028612
#
#
# Mechanical properties :
#
#
# Convention : Reuss Voigt Hill
#
# Bulk Modulus (GPa) = 45.77364 50.72873 48.25118
# Shear Modulus (GPa) = 20.47134 27.31394 23.89264
#
# Velocity S-wave (km/s) = 3.19438 3.68982 3.45100
# Velocity P-wave (km/s) = 6.03503 6.59083 6.31905
#
# Compressibility (1/GPa) = 0.02184664
#
# Stress axis : x y z
#
# Youngs Moduli (GPa) = 58.10466 123.12595 57.15115
#
# Poissons Ratio (x) = 0.47473 0.33603
# Poissons Ratio (y) = 0.22403 0.04322
# Poissons Ratio (z) = 0.34164 0.09310
#
# Static dielectric constant tensor:
#      x y z
#    x 3.535940 0.000000 0.000000 
#    y 0.000000 3.796140 0.000000 
#    z 0.000000 0.000000 3.650560 
# 
# 
# High freq. dielectric constant tensor:
#      x y z
#    x 1.778610 0.000000 0.000000 
#    y 0.000000 1.801860 0.000000 
#    z 0.000000 0.000000 1.780440 
# 
# From -- ./inp_files/23246.got.cif
#   From: 2010.03.12/outbox.cif.g09.slc.cpg/sg46_12_cif.got.tgz:23246.got - 2010.04.14 02:56:35.
