data_PCOD8192193
_publ_section_title
;
Structure prediction by ZEFSAII (Michael W. Deem and Ramdas Pophale) SiO2 
 PCOD8192193
Probable space group: I M A 2
;
_chemical_formula_sum "Si O2"
_cell_formula_units_Z 64
_cell_length_a 16.032218
_cell_length_b 23.310095
_cell_length_c 8.926306
_cell_angle_alpha 90.000000
_cell_angle_beta 90.000000
_cell_angle_gamma 90.000000
_cell_volume 3335.872351
_symmetry_space_group_name_H-M "I M A 2"
_symmetry_group_IT_number 46
_symmetry_cell_setting 'orthorhombic'
loop_
_space_group_symop_operation_xyz
x,y,z
-x,-y,z
1/2-x,y,z
1/2+x,-y,z
1/2+x,1/2+y,1/2+z
1/2-x,1/2-y,1/2+z
-x,1/2+y,1/2+z
x,1/2-y,1/2+z
loop_
_atom_site_type_symbol
_atom_site_label
_atom_site_fract_x
_atom_site_fract_y
_atom_site_fract_z
Si Si1 0.500229 0.563456 0.818970
Si Si2 0.844403 0.935094 0.102163
Si Si3 0.478313 0.678041 0.951235
Si Si4 0.653134 0.323960 0.442849
Si Si5 0.346063 0.936853 0.098485
Si Si6 0.847359 0.220986 0.632228
Si Si7 0.435921 0.250592 0.212285
Si Si8 0.344404 0.183105 0.969891
O O1 0.500000 0.500000 0.891159
O O2 0.584512 0.572202 0.725364
O O3 0.503379 0.611143 0.948282
O O4 0.414002 0.572048 0.728091
O O5 0.750000 0.928757 0.170985
O O6 0.853680 0.998881 0.030144
O O7 0.857456 0.885917 0.977362
O O8 0.499175 0.707723 0.793061
O O9 0.380305 0.682182 0.992994
O O10 0.521905 0.709850 0.089110
O O11 0.750000 0.315199 0.417142
O O12 0.630861 0.390644 0.469409
O O13 0.626136 0.286628 0.588809
O O14 0.610419 0.299101 0.290533
O O15 0.250000 0.926007 0.155345
O O16 0.750000 0.211834 0.637032
O O17 0.397539 0.292824 0.334234
O O18 0.367939 0.210805 0.130083
O O19 0.250000 0.199402 0.935776
#
# Coordination Sequence:
#
# PCOD8192193 Si02
#       8
#     8   8   8   8   8   8   8   8
#     4  10  21  37  56  80 110 145 187 230 274 330
#     4   9  18  35  57  82 109 142 185 229 273 324
#     4  11  22  37  54  79 111 147 181 229 276 331
#     4   9  19  34  51  77 110 146 186 226 272 325
#     4   9  19  34  57  83 109 144 186 231 272 324
#     4  10  21  34  51  77 111 150 186 223 271 323
#     4  10  22  35  54  82 114 141 177 222 283 331
#     4  10  19  36  59  84 110 141 179 224 276 336
#
# _framework density 19.185386000000001
#
# number of rings (size 3 to 8) (size 9 to 14) (size 15 to 20)
#    0.000    2.250    1.250    1.125    3.500    1.500 
#    0.000    1.875    0.000    0.000    0.000    0.000 
#    0.000    0.000    0.000    0.000    0.000    0.000 
#
# Total GULP energy -396439.303644 kJ/mol
# GULP energy per Si atom -12388.728239 kJ/mol
# Density = 1.914172 g / cm^3
# Si number density = 19.185386 Si / 1000 Ang^3
#
#
#
# Elastic Constant Matrix: (Units=GPa)
#
#
# Indices 1 2 3 4 5 6 
#
# 1 73.5214 38.0913 24.6883 0.0000 0.0000 0.0000
# 2 38.0913 164.8318 63.9744 0.0000 0.0000 0.0000
# 3 24.6883 63.9744 79.7116 0.0001 0.0000 0.0000
# 4 0.0000 0.0000 0.0001 26.1685 0.0000 0.0000
# 5 0.0000 0.0000 0.0000 0.0000 22.1627 0.0000
# 6 0.0000 0.0000 0.0000 0.0000 0.0000 25.2927
#
#
#
# Elastic Compliance Matrix: (Units=1/GPa)
#
#
# Indices 1 2 3 4 5 6 
#
# 1 0.015890 -0.002559 -0.002868 0.000000 0.000000 0.000000
# 2 -0.002559 0.009224 -0.006610 0.000000 0.000000 0.000000
# 3 -0.002868 -0.006610 0.018738 0.000000 0.000000 0.000000
# 4 0.000000 0.000000 0.000000 0.038214 0.000000 0.000000
# 5 0.000000 0.000000 0.000000 0.000000 0.045121 0.000000
# 6 0.000000 0.000000 0.000000 0.000000 0.000000 0.039537
#
#
# Mechanical properties :
#
#
# Convention : Reuss Voigt Hill
#
# Bulk Modulus (GPa) = 50.55935 63.50810 57.03373
# Shear Modulus (GPa) = 25.33045 27.47884 26.40464
#
# Velocity S-wave (km/s) = 3.63753 3.78865 3.71386
# Velocity P-wave (km/s) = 6.63720 7.23275 6.94137
#
# Compressibility (1/GPa) = 0.01977873
#
# Stress axis : x y z
#
# Youngs Moduli (GPa) = 62.93142 108.41669 53.36620
#
# Poissons Ratio (x) = 0.27745 0.15304
# Poissons Ratio (y) = 0.16105 0.35275
# Poissons Ratio (z) = 0.18047 0.71664
#
# Static dielectric constant tensor:
#      x y z
#    x 3.815230 0.000000 0.000000 
#    y 0.000000 3.823410 0.000000 
#    z 0.000000 0.000000 3.382100 
# 
# 
# High freq. dielectric constant tensor:
#      x y z
#    x 1.761810 0.000000 0.000000 
#    y 0.000000 1.757550 0.000000 
#    z 0.000000 0.000000 1.711110 
# 
# From -- ./inp_files/6125.got.cif
#   From: 2010.03.12/outbox.cif.g09.slc.cpg/sg46_4_cif.got.tgz:6125.got - 2010.04.14 02:56:35.
