data_PCOD8192119
_publ_section_title
;
Structure prediction by ZEFSAII (Michael W. Deem and Ramdas Pophale) SiO2 
 PCOD8192119
Probable space group: I M A 2
;
_chemical_formula_sum "Si O2"
_cell_formula_units_Z 64
_cell_length_a 18.992814
_cell_length_b 8.052339
_cell_length_c 20.185552
_cell_angle_alpha 90.000000
_cell_angle_beta 90.000000
_cell_angle_gamma 90.000000
_cell_volume 3087.109226
_symmetry_space_group_name_H-M "I M A 2"
_symmetry_group_IT_number 46
_symmetry_cell_setting 'orthorhombic'
loop_
_space_group_symop_operation_xyz
x,y,z
-x,-y,z
1/2-x,y,z
1/2+x,-y,z
1/2+x,1/2+y,1/2+z
1/2-x,1/2-y,1/2+z
-x,1/2+y,1/2+z
x,1/2-y,1/2+z
loop_
_atom_site_type_symbol
_atom_site_label
_atom_site_fract_x
_atom_site_fract_y
_atom_site_fract_z
Si Si1 0.174083 0.354949 0.440380
Si Si2 0.167487 0.419680 0.713512
Si Si3 0.673608 0.094178 0.820731
Si Si4 0.595292 0.882668 0.352347
Si Si5 0.949932 0.269505 0.878559
Si Si6 0.830047 0.564464 0.185365
Si Si7 0.833323 0.270545 0.618545
Si Si8 0.927849 0.066507 0.011409
O O1 0.250000 0.322933 0.474313
O O2 0.179863 0.510278 0.391601
O O3 0.155318 0.193596 0.398259
O O4 0.118348 0.401338 0.497077
O O5 0.250000 0.399520 0.730645
O O6 0.123246 0.432504 0.780563
O O7 0.152734 0.586199 0.672600
O O8 0.142016 0.253148 0.672233
O O9 0.750000 0.184142 0.805546
O O10 0.607482 0.216506 0.823131
O O11 0.659524 0.958190 0.764229
O O12 0.528380 0.756374 0.346771
O O13 0.569291 0.041106 0.393962
O O14 0.949325 0.160528 0.944449
O O15 0.750000 0.556343 0.163408
O O16 0.863083 0.407214 0.145799
O O17 0.750000 0.266920 0.599750
O O18 0.881922 0.308971 0.555678
O O19 0.000000 0.000000 0.045765
#
# Coordination Sequence:
#
# PCOD8192119 Si02
#       8
#     8   8   8   8   8   8   8   8
#     4  10  19  34  62  90 114 154 202 247 304 372
#     4  10  20  38  64  94 127 158 198 259 320 373
#     4   9  17  32  56  85 116 151 193 240 303 372
#     4  11  20  37  58  92 126 152 195 252 317 389
#     4  10  23  36  56  87 122 160 197 249 313 372
#     4   9  17  34  59  87 119 154 195 250 307 362
#     4  10  22  40  62  88 120 165 215 259 304 369
#     4  11  22  43  61  79 121 170 210 256 309 364
#
# _framework density 20.731369999999998
#
# number of rings (size 3 to 8) (size 9 to 14) (size 15 to 20)
#    0.000    2.000    2.500    1.500    0.000    2.500 
#    6.750    0.000    0.000    0.000    0.000    0.000 
#    0.000    0.000    0.000    0.000    0.000    0.000 
#
# Total GULP energy -396484.900132 kJ/mol
# GULP energy per Si atom -12390.153129 kJ/mol
# Density = 2.068418 g / cm^3
# Si number density = 20.731370 Si / 1000 Ang^3
#
#
#
# Elastic Constant Matrix: (Units=GPa)
#
#
# Indices 1 2 3 4 5 6 
#
# 1 106.1473 19.2804 14.9695 0.0000 0.0000 0.0000
# 2 19.2804 92.0272 8.6581 0.0000 0.0000 0.0000
# 3 14.9695 8.6581 43.4996 0.0000 0.0000 0.0000
# 4 0.0000 0.0000 0.0000 21.0052 0.0000 0.0000
# 5 0.0000 0.0000 0.0000 0.0000 24.6921 0.0000
# 6 0.0000 0.0000 0.0000 0.0000 0.0000 22.2653
#
#
#
# Elastic Compliance Matrix: (Units=1/GPa)
#
#
# Indices 1 2 3 4 5 6 
#
# 1 0.010199 -0.001841 -0.003143 0.000000 0.000000 0.000000
# 2 -0.001841 0.011406 -0.001637 0.000000 0.000000 0.000000
# 3 -0.003143 -0.001637 0.024396 0.000000 0.000000 0.000000
# 4 0.000000 0.000000 0.000000 0.047607 0.000000 0.000000
# 5 0.000000 0.000000 0.000000 0.000000 0.040499 0.000000
# 6 0.000000 0.000000 0.000000 0.000000 0.000000 0.044913
#
#
# Mechanical properties :
#
#
# Convention : Reuss Voigt Hill
#
# Bulk Modulus (GPa) = 30.52596 36.38777 33.45686
# Shear Modulus (GPa) = 24.60858 26.84359 25.72609
#
# Velocity S-wave (km/s) = 3.44906 3.60228 3.52650
# Velocity P-wave (km/s) = 5.53334 5.90695 5.72319
#
# Compressibility (1/GPa) = 0.03275901
#
# Stress axis : x y z
#
# Youngs Moduli (GPa) = 98.05336 87.67294 40.99006
#
# Poissons Ratio (x) = 0.16140 0.12884
# Poissons Ratio (y) = 0.18051 0.06709
# Poissons Ratio (z) = 0.30820 0.14350
#
# Static dielectric constant tensor:
#      x y z
#    x 4.041050 0.000000 0.000000 
#    y 0.000000 3.957600 0.000000 
#    z 0.000000 0.000000 3.400640 
# 
# 
# High freq. dielectric constant tensor:
#      x y z
#    x 1.810360 0.000000 0.000000 
#    y 0.000000 1.816770 0.000000 
#    z 0.000000 0.000000 1.777520 
# 
# From -- ./inp_files/22200.got.cif
#   From: 2010.03.12/outbox.cif.g09.slc.cpg/sg46_12_cif.got.tgz:22200.got - 2010.04.14 02:56:35.
