data_PCOD8192697
_publ_section_title
;
Structure prediction by ZEFSAII (Michael W. Deem and Ramdas Pophale) SiO2 
 PCOD8192697
Probable space group: I M A 2
;
_chemical_formula_sum "Si O2"
_cell_formula_units_Z 64
_cell_length_a 8.696915
_cell_length_b 15.355363
_cell_length_c 23.545664
_cell_angle_alpha 90.000000
_cell_angle_beta 90.000000
_cell_angle_gamma 90.000000
_cell_volume 3144.388906
_symmetry_space_group_name_H-M "I M A 2"
_symmetry_group_IT_number 46
_symmetry_cell_setting 'orthorhombic'
loop_
_space_group_symop_operation_xyz
x,y,z
-x,-y,z
1/2-x,y,z
1/2+x,-y,z
1/2+x,1/2+y,1/2+z
1/2-x,1/2-y,1/2+z
-x,1/2+y,1/2+z
x,1/2-y,1/2+z
loop_
_atom_site_type_symbol
_atom_site_label
_atom_site_fract_x
_atom_site_fract_y
_atom_site_fract_z
Si Si1 0.930941 0.907338 0.073670
Si Si2 0.072397 0.645315 0.943956
Si Si3 0.431176 0.909686 0.568330
Si Si4 0.928185 0.349245 0.455498
Si Si5 0.931198 0.588445 0.341436
Si Si6 0.930908 0.590854 0.829855
Si Si7 0.927776 0.246262 0.139606
Si Si8 0.572664 0.243451 0.772423
O O1 0.750000 0.916026 0.071203
O O2 0.977433 0.838492 0.121886
O O3 0.000000 0.000000 0.091112
O O4 0.990610 0.876271 0.013069
O O5 0.250000 0.622638 0.931248
O O6 0.046187 0.747998 0.944001
O O7 0.965469 0.602760 0.896467
O O8 0.017207 0.605998 0.003615
O O9 0.250000 0.914413 0.573918
O O10 0.493790 0.830365 0.606502
O O11 0.500000 0.000000 0.591112
O O12 0.750000 0.373275 0.460623
O O13 0.001457 0.402448 0.404349
O O14 0.750000 0.581910 0.345130
O O15 0.000000 0.500000 0.314579
O O16 0.975509 0.668153 0.301545
O O17 0.750000 0.593554 0.819301
O O18 0.000000 0.500000 0.808258
O O19 0.012943 0.664012 0.792966
O O20 0.750000 0.230458 0.123357
O O21 0.950222 0.264108 0.205606
O O22 0.750000 0.233210 0.790596
#
# Coordination Sequence:
#
# PCOD8192697 Si02
#       8
#     8   8   8   8   8   8   8   8
#     4  12  25  41  65  95 129 166 210 258 315 378
#     4  10  20  37  64  92 127 165 203 251 312 373
#     4  10  21  39  62  92 125 161 200 247 303 362
#     4  11  21  39  66  94 130 167 206 255 316 380
#     4  12  25  42  65  95 130 167 211 260 315 380
#     4  12  25  41  64  93 129 165 209 258 312 380
#     4  10  23  45  67  89 123 166 212 261 315 370
#     4  11  24  44  68  92 123 165 213 266 320 375
#
# _framework density 20.353717
#
# number of rings (size 3 to 8) (size 9 to 14) (size 15 to 20)
#    0.000    1.000    2.500    4.875    0.000    4.500 
#    0.000    1.250    0.000    0.000    0.000    0.000 
#    0.000    0.000    0.000    0.000    0.000    0.000 
#
# Total GULP energy -397024.414263 kJ/mol
# GULP energy per Si atom -12407.012946 kJ/mol
# Density = 2.030739 g / cm^3
# Si number density = 20.353717 Si / 1000 Ang^3
#
#
#
# Elastic Constant Matrix: (Units=GPa)
#
#
# Indices 1 2 3 4 5 6 
#
# 1 92.2974 28.0764 22.2852 0.0000 0.0000 0.0000
# 2 28.0764 103.5001 15.1896 0.0000 0.0000 0.0000
# 3 22.2852 15.1896 61.4623 0.0000 0.0000 0.0000
# 4 0.0000 0.0000 0.0000 0.3672 0.0000 0.0000
# 5 0.0000 0.0000 0.0000 0.0000 87.9979 0.0000
# 6 0.0000 0.0000 0.0000 0.0000 0.0000 38.6861
#
#
#
# Elastic Compliance Matrix: (Units=1/GPa)
#
#
# Indices 1 2 3 4 5 6 
#
# 1 0.012641 -0.002860 -0.003876 0.000000 0.000000 0.000000
# 2 -0.002860 0.010673 -0.001601 0.000000 0.000000 0.000000
# 3 -0.003876 -0.001601 0.018071 0.000000 0.000000 0.000000
# 4 0.000000 0.000000 0.000000 2.723203 0.000000 0.000000
# 5 0.000000 0.000000 0.000000 0.000000 0.011364 0.000000
# 6 0.000000 0.000000 0.000000 0.000000 0.000000 0.025849
#
#
# Mechanical properties :
#
#
# Convention : Reuss Voigt Hill
#
# Bulk Modulus (GPa) = 40.46913 43.15135 41.81024
# Shear Modulus (GPa) = 1.76884 38.19081 19.97983
#
# Velocity S-wave (km/s) = 0.93324 4.33639 3.13650
# Velocity P-wave (km/s) = 4.59209 6.80582 5.80545
#
# Compressibility (1/GPa) = 0.02471019
#
# Stress axis : x y z
#
# Youngs Moduli (GPa) = 79.11060 93.69802 55.33663
#
# Poissons Ratio (x) = 0.26798 0.21451
# Poissons Ratio (y) = 0.22626 0.08857
# Poissons Ratio (z) = 0.30667 0.14997
#
# Static dielectric constant tensor:
#      x y z
#    x 3.604690 0.000000 0.000000 
#    y 0.000000 3.956250 0.000000 
#    z 0.000000 0.000000 3.691800 
# 
# 
# High freq. dielectric constant tensor:
#      x y z
#    x 1.798320 0.000000 0.000000 
#    y 0.000000 1.815440 0.000000 
#    z 0.000000 0.000000 1.793080 
# 
# From -- ./inp_files/23224.got.cif
#   From: 2010.03.12/outbox.cif.g09.slc.cpg/sg46_12_cif.got.tgz:23224.got - 2010.04.14 02:56:35.
