data_PCOD8192012
_publ_section_title
;
Structure prediction by ZEFSAII (Michael W. Deem and Ramdas Pophale) SiO2 
 PCOD8192012
Probable space group: I M A 2
;
_chemical_formula_sum "Si O2"
_cell_formula_units_Z 64
_cell_length_a 8.983243
_cell_length_b 33.292253
_cell_length_c 11.433761
_cell_angle_alpha 90.000000
_cell_angle_beta 90.000000
_cell_angle_gamma 90.000000
_cell_volume 3419.522329
_symmetry_space_group_name_H-M "I M A 2"
_symmetry_group_IT_number 46
_symmetry_cell_setting 'orthorhombic'
loop_
_space_group_symop_operation_xyz
x,y,z
-x,-y,z
1/2-x,y,z
1/2+x,-y,z
1/2+x,1/2+y,1/2+z
1/2-x,1/2-y,1/2+z
-x,1/2+y,1/2+z
x,1/2-y,1/2+z
loop_
_atom_site_type_symbol
_atom_site_label
_atom_site_fract_x
_atom_site_fract_y
_atom_site_fract_z
Si Si1 0.426013 0.458021 0.455150
Si Si2 0.075141 0.724146 0.958770
Si Si3 0.076667 0.459766 0.188798
Si Si4 0.419575 0.853341 0.310256
Si Si5 0.917514 0.804363 0.909655
Si Si6 0.583013 0.678828 0.140550
Si Si7 0.426103 0.376375 0.573464
Si Si8 0.918921 0.105313 0.545568
O O1 0.500000 0.500000 0.497021
O O2 0.250000 0.463268 0.468229
O O3 0.471490 0.448253 0.320898
O O4 0.486043 0.420240 0.531653
O O5 0.250000 0.722091 0.986725
O O6 0.031086 0.689737 0.864110
O O7 0.031833 0.767644 0.911827
O O8 0.978444 0.718952 0.077495
O O9 0.250000 0.466316 0.182534
O O10 0.000000 0.500000 0.146852
O O11 0.031764 0.427392 0.093087
O O12 0.250000 0.850403 0.266449
O O13 0.522063 0.865903 0.203126
O O14 0.437068 0.888516 0.406541
O O15 0.750000 0.792052 0.950360
O O16 0.911266 0.818671 0.777973
O O17 0.981399 0.841031 0.987201
O O18 0.750000 0.668654 0.094277
O O19 0.459855 0.646391 0.108320
O O20 0.250000 0.378076 0.570251
O O21 0.750000 0.093704 0.577826
#
# Coordination Sequence:
#
# PCOD8192012 Si02
#       8
#     8   8   8   8   8   8   8   8
#     4   9  19  36  57  84 116 147 182 229 282 335
#     4  10  22  38  55  78 110 144 182 231 284 334
#     4  10  19  33  56  85 116 146 180 226 281 336
#     4   9  21  39  55  76 108 146 186 230 277 330
#     4  10  22  37  55  81 110 142 183 231 278 333
#     4  10  20  36  57  79 105 139 181 225 275 330
#     4  10  21  37  57  82 111 145 188 233 277 333
#     4  10  20  36  56  79 109 143 183 227 275 331
#
# _framework density 18.716065
#
# number of rings (size 3 to 8) (size 9 to 14) (size 15 to 20)
#    0.000    2.250    0.000    3.000    1.750    7.500 
#    0.000    1.875    0.000    1.500    0.000    0.000 
#    0.000    0.000    0.000    0.000    0.000    0.000 
#
# Total GULP energy -396729.189722 kJ/mol
# GULP energy per Si atom -12397.787179 kJ/mol
# Density = 1.867347 g / cm^3
# Si number density = 18.716065 Si / 1000 Ang^3
#
#
#
# Elastic Constant Matrix: (Units=GPa)
#
#
# Indices 1 2 3 4 5 6 
#
# 1 49.9474 25.3746 31.6378 0.0000 0.0003 0.0000
# 2 25.3746 101.6712 47.2171 -0.0002 0.0009 0.0001
# 3 31.6378 47.2171 88.1880 -0.0048 -0.0010 0.0003
# 4 0.0000 -0.0002 -0.0048 15.5845 -0.0007 0.0000
# 5 0.0003 0.0009 -0.0010 -0.0007 28.6894 -0.0005
# 6 0.0000 0.0001 0.0003 0.0000 -0.0005 34.4186
#
#
#
# Elastic Compliance Matrix: (Units=1/GPa)
#
#
# Indices 1 2 3 4 5 6 
#
# 1 0.026549 -0.002932 -0.007955 -0.000002 0.000000 0.000000
# 2 -0.002932 0.013414 -0.006130 -0.000002 -0.000001 0.000000
# 3 -0.007955 -0.006130 0.017476 0.000005 0.000001 0.000000
# 4 -0.000002 -0.000002 0.000005 0.064166 0.000002 0.000000
# 5 0.000000 -0.000001 0.000001 0.000002 0.034856 0.000001
# 6 0.000000 0.000000 0.000000 0.000000 0.000001 0.029054
#
#
# Mechanical properties :
#
#
# Convention : Reuss Voigt Hill
#
# Bulk Modulus (GPa) = 42.72593 49.80729 46.26661
# Shear Modulus (GPa) = 21.99237 24.77698 23.38467
#
# Velocity S-wave (km/s) = 3.43162 3.64240 3.53858
# Velocity P-wave (km/s) = 6.21123 6.66028 6.43967
#
# Compressibility (1/GPa) = 0.02340499
#
# Stress axis : x y z
#
# Youngs Moduli (GPa) = 37.66571 74.54705 57.22250
#
# Poissons Ratio (x) = 0.21855 0.45521
# Poissons Ratio (y) = 0.11042 0.35080
# Poissons Ratio (z) = 0.29963 0.45701
#
# Static dielectric constant tensor:
#      x y z
#    x 3.476840 0.000010 0.000000 
#    y 0.000010 3.076920 0.000000 
#    z 0.000000 0.000000 3.416300 
# 
# 
# High freq. dielectric constant tensor:
#      x y z
#    x 1.729520 0.000000 0.000000 
#    y 0.000000 1.726130 0.000000 
#    z 0.000000 0.000000 1.718900 
# 
# From -- ./inp_files/9722.got.cif
#   From: 2010.03.12/outbox.cif.g09.slc.cpg/sg46_5_cif.got.tgz:9722.got - 2010.04.14 02:56:35.
