data_PCOD8192953
_publ_section_title
;
Structure prediction by ZEFSAII (Michael W. Deem and Ramdas Pophale) SiO2 
 PCOD8192953
Probable space group: I M A 2
;
_chemical_formula_sum "Si O2"
_cell_formula_units_Z 36
_cell_length_a 9.490943
_cell_length_b 19.593358
_cell_length_c 9.067509
_cell_angle_alpha 90.000000
_cell_angle_beta 90.000000
_cell_angle_gamma 90.000000
_cell_volume 1686.188932
_symmetry_space_group_name_H-M "I M A 2"
_symmetry_group_IT_number 46
_symmetry_cell_setting 'orthorhombic'
loop_
_space_group_symop_operation_xyz
x,y,z
-x,-y,z
1/2-x,y,z
1/2+x,-y,z
1/2+x,1/2+y,1/2+z
1/2-x,1/2-y,1/2+z
-x,1/2+y,1/2+z
x,1/2-y,1/2+z
loop_
_atom_site_type_symbol
_atom_site_label
_atom_site_fract_x
_atom_site_fract_y
_atom_site_fract_z
Si Si1 0.095455 0.892347 0.963350
Si Si2 0.913536 0.217555 0.725963
Si Si3 0.412425 0.144236 0.219472
Si Si4 0.000000 0.500000 0.239527
Si Si5 0.905063 0.617946 0.045406
O O1 0.250000 0.892001 0.036986
O O2 0.068078 0.819968 0.882914
O O3 0.095009 0.952692 0.843809
O O4 0.977719 0.902275 0.089159
O O5 0.750000 0.232094 0.689747
O O6 0.000534 0.286466 0.732254
O O7 0.974657 0.169665 0.597348
O O8 0.250000 0.160005 0.181287
O O9 0.427680 0.102905 0.372013
O O10 0.905173 0.546966 0.134124
O O11 0.750000 0.651071 0.069469
#
# Coordination Sequence:
#
# PCOD8192953 Si02
#       5
#     8   8   8   4   8
#     4  10  22  39  61  87 117 155 195 239 289 343
#     4  10  21  38  61  89 120 155 194 236 287 345
#     4  11  23  37  58  90 122 153 191 238 292 346
#     4  10  22  42  64  84 110 152 202 246 288 342
#     4  10  22  40  62  87 117 154 195 240 289 344
#
# _framework density 21.349920000000001
#
# number of rings (size 3 to 8) (size 9 to 14) (size 15 to 20)
#    0.000    1.778    0.000    3.333    0.000   12.444 
#    0.000    2.222    0.000    0.000    0.000    0.000 
#    0.000    0.000    0.000    0.000    0.000    0.000 
#
# Total GULP energy -223195.951049 kJ/mol
# GULP energy per Si atom -12399.775058 kJ/mol
# Density = 2.130133 g / cm^3
# Si number density = 21.349920 Si / 1000 Ang^3
#
#
#
# Elastic Constant Matrix: (Units=GPa)
#
#
# Indices 1 2 3 4 5 6 
#
# 1 170.2156 39.7481 83.5545 0.0000 0.0001 0.0000
# 2 39.7481 92.2428 48.2430 0.0012 0.0000 -0.0001
# 3 83.5545 48.2430 140.3780 0.0014 0.0003 -0.0001
# 4 0.0000 0.0012 0.0014 19.9769 0.0000 -0.0001
# 5 0.0001 0.0000 0.0003 0.0000 35.7594 0.0000
# 6 0.0000 -0.0001 -0.0001 -0.0001 0.0000 21.2346
#
#
#
# Elastic Compliance Matrix: (Units=1/GPa)
#
#
# Indices 1 2 3 4 5 6 
#
# 1 0.008412 -0.001227 -0.004585 0.000000 0.000000 0.000000
# 2 -0.001227 0.013395 -0.003873 -0.000001 0.000000 0.000000
# 3 -0.004585 -0.003873 0.011184 -0.000001 0.000000 0.000000
# 4 0.000000 -0.000001 -0.000001 0.050058 0.000000 0.000000
# 5 0.000000 0.000000 0.000000 0.000000 0.027965 0.000000
# 6 0.000000 0.000000 0.000000 0.000000 0.000000 0.047093
#
#
# Mechanical properties :
#
#
# Convention : Reuss Voigt Hill
#
# Bulk Modulus (GPa) = 73.41833 82.88085 78.14959
# Shear Modulus (GPa) = 27.46975 30.81356 29.14166
#
# Velocity S-wave (km/s) = 3.59087 3.80315 3.69854
# Velocity P-wave (km/s) = 7.18716 7.62822 7.41097
#
# Compressibility (1/GPa) = 0.01362058
#
# Stress axis : x y z
#
# Youngs Moduli (GPa) = 118.87416 74.65299 89.41265
#
# Poissons Ratio (x) = 0.09158 0.41000
# Poissons Ratio (y) = 0.14582 0.34633
# Poissons Ratio (z) = 0.54510 0.28916
#
# Static dielectric constant tensor:
#      x y z
#    x 3.944360 0.000000 0.000000 
#    y 0.000000 3.727910 0.000000 
#    z 0.000000 0.000000 4.021360 
# 
# 
# High freq. dielectric constant tensor:
#      x y z
#    x 1.846180 0.000000 0.000000 
#    y 0.000000 1.823020 0.000000 
#    z 0.000000 0.000000 1.844710 
# 
# From -- ./inp_files/3389.got.cif
#   From: 2010.03.12/outbox.cif.g09.slc.cpg/sg46_2_cif.got.tgz:3389.got - 2010.04.14 02:56:35.
