data_PCOD8192523
_publ_section_title
;
Structure prediction by ZEFSAII (Michael W. Deem and Ramdas Pophale) SiO2 
 PCOD8192523
Probable space group: I M A 2
;
_chemical_formula_sum "Si O2"
_cell_formula_units_Z 56
_cell_length_a 19.668704
_cell_length_b 15.942553
_cell_length_c 8.984397
_cell_angle_alpha 90.000000
_cell_angle_beta 90.000000
_cell_angle_gamma 90.000000
_cell_volume 2817.231581
_symmetry_space_group_name_H-M "I M A 2"
_symmetry_group_IT_number 46
_symmetry_cell_setting 'orthorhombic'
loop_
_space_group_symop_operation_xyz
x,y,z
-x,-y,z
1/2-x,y,z
1/2+x,-y,z
1/2+x,1/2+y,1/2+z
1/2-x,1/2-y,1/2+z
-x,1/2+y,1/2+z
x,1/2-y,1/2+z
loop_
_atom_site_type_symbol
_atom_site_label
_atom_site_fract_x
_atom_site_fract_y
_atom_site_fract_z
Si Si1 0.033271 0.863427 0.500000
Si Si2 0.669118 0.677321 0.546325
Si Si3 0.409900 0.758824 0.242624
Si Si4 0.328784 0.335901 0.873115
Si Si5 0.171409 0.021301 0.852872
Si Si6 0.398116 0.031076 0.541946
Si Si7 0.671326 0.158980 0.984228
O O1 0.037389 0.809371 0.348208
O O2 0.048501 0.808158 0.645628
O O3 0.960311 0.904745 0.523103
O O4 0.087867 0.938291 0.481282
O O5 0.750000 0.679509 0.555170
O O6 0.636985 0.668043 0.710437
O O7 0.639109 0.762658 0.475650
O O8 0.645192 0.598665 0.450201
O O9 0.354634 0.713091 0.345325
O O10 0.370095 0.821802 0.133901
O O11 0.250000 0.316947 0.855738
O O12 0.337995 0.427437 0.945838
O O13 0.250000 0.031525 0.803192
O O14 0.122886 0.020538 0.711783
O O15 0.161033 0.938633 0.950253
O O16 0.750000 0.181454 0.009633
#
# Coordination Sequence:
#
# PCOD8192523 Si02
#       7
#     8   8   8   8   8   8   8
#     4  10  24  41  62  80 121 160 203 249 294 352
#     4   9  19  34  53  84 120 149 184 234 296 365
#     4  10  21  42  62  86 121 160 205 250 300 366
#     4  10  20  35  58  85 117 153 192 246 304 359
#     4  10  20  36  60  90 123 155 195 252 310 363
#     4  11  22  40  59  87 118 156 204 247 297 362
#     4  10  20  36  63  94 123 156 198 255 317 366
#
# _framework density 19.877669999999998
#
# number of rings (size 3 to 8) (size 9 to 14) (size 15 to 20)
#    0.000    2.000    1.429    1.714    2.000    4.571 
#    0.000    2.857    0.000    0.000    0.000    0.000 
#    0.000    0.000    0.000    0.000    0.000    0.000 
#
# Total GULP energy -347199.719072 kJ/mol
# GULP energy per Si atom -12399.989967 kJ/mol
# Density = 1.983243 g / cm^3
# Si number density = 19.877670 Si / 1000 Ang^3
#
#
#
# Elastic Constant Matrix: (Units=GPa)
#
#
# Indices 1 2 3 4 5 6 
#
# 1 37.7725 21.0680 23.1552 0.0000 0.0000 0.0000
# 2 21.0680 115.5479 37.0244 0.0000 0.0000 0.0000
# 3 23.1552 37.0244 100.4662 0.0000 0.0000 0.0000
# 4 0.0000 0.0000 0.0000 36.6299 0.0000 0.0000
# 5 0.0000 0.0000 0.0000 0.0000 19.4111 0.0000
# 6 0.0000 0.0000 0.0000 0.0000 0.0000 32.9519
#
#
#
# Elastic Compliance Matrix: (Units=1/GPa)
#
#
# Indices 1 2 3 4 5 6 
#
# 1 0.032369 -0.003982 -0.005993 0.000000 0.000000 0.000000
# 2 -0.003982 0.010303 -0.002879 0.000000 0.000000 0.000000
# 3 -0.005993 -0.002879 0.012396 0.000000 0.000000 0.000000
# 4 0.000000 0.000000 0.000000 0.027300 0.000000 0.000000
# 5 0.000000 0.000000 0.000000 0.000000 0.051517 0.000000
# 6 0.000000 0.000000 0.000000 0.000000 0.000000 0.030347
#
#
# Mechanical properties :
#
#
# Convention : Reuss Voigt Hill
#
# Bulk Modulus (GPa) = 34.05976 46.25353 40.15665
# Shear Modulus (GPa) = 25.03424 29.30117 27.16771
#
# Velocity S-wave (km/s) = 3.55267 3.84353 3.70096
# Velocity P-wave (km/s) = 5.83100 6.55870 6.20553
#
# Compressibility (1/GPa) = 0.02936016
#
# Stress axis : x y z
#
# Youngs Moduli (GPa) = 30.89391 97.05951 80.67164
#
# Poissons Ratio (x) = 0.38645 0.48346
# Poissons Ratio (y) = 0.12301 0.23227
# Poissons Ratio (z) = 0.18515 0.27946
#
# Static dielectric constant tensor:
#      x y z
#    x 3.357420 0.000000 0.000000 
#    y 0.000000 3.857250 0.000000 
#    z 0.000000 0.000000 3.773290 
# 
# 
# High freq. dielectric constant tensor:
#      x y z
#    x 1.753050 0.000000 0.000000 
#    y 0.000000 1.790440 0.000000 
#    z 0.000000 0.000000 1.786300 
# 
# From -- ./inp_files/7400.got.cif
#   From: 2010.03.12/outbox.cif.g09.slc.cpg/sg46_4_cif.got.tgz:7400.got - 2010.04.14 02:56:35.
