data_PCOD8192837
_publ_section_title
;
Structure prediction by ZEFSAII (Michael W. Deem and Ramdas Pophale) SiO2 
 PCOD8192837
Probable space group: I M A 2
;
_chemical_formula_sum "Si O2"
_cell_formula_units_Z 64
_cell_length_a 9.095791
_cell_length_b 29.302791
_cell_length_c 12.562727
_cell_angle_alpha 90.000000
_cell_angle_beta 90.000000
_cell_angle_gamma 90.000000
_cell_volume 3348.369540
_symmetry_space_group_name_H-M "I M A 2"
_symmetry_group_IT_number 46
_symmetry_cell_setting 'orthorhombic'
loop_
_space_group_symop_operation_xyz
x,y,z
-x,-y,z
1/2-x,y,z
1/2+x,-y,z
1/2+x,1/2+y,1/2+z
1/2-x,1/2-y,1/2+z
-x,1/2+y,1/2+z
x,1/2-y,1/2+z
loop_
_atom_site_type_symbol
_atom_site_label
_atom_site_fract_x
_atom_site_fract_y
_atom_site_fract_z
Si Si1 0.421870 0.047100 0.938510
Si Si2 0.576550 0.121035 0.549061
Si Si3 0.587288 0.789485 0.603728
Si Si4 0.918805 0.252910 0.784349
Si Si5 0.086993 0.291223 0.457490
Si Si6 0.422964 0.374581 0.598678
Si Si7 0.576792 0.547661 0.195985
Si Si8 0.081655 0.642546 0.812926
O O1 0.250000 0.038765 0.951830
O O2 0.457573 0.063115 0.817524
O O3 0.500000 0.000000 0.967039
O O4 0.479359 0.085140 0.021089
O O5 0.750000 0.116000 0.567973
O O6 0.526166 0.169459 0.594747
O O7 0.489370 0.082767 0.612210
O O8 0.536561 0.117921 0.423516
O O9 0.750000 0.807238 0.637873
O O10 0.523871 0.752024 0.684021
O O11 0.601524 0.760699 0.496559
O O12 0.750000 0.244819 0.753527
O O13 0.944803 0.303562 0.829765
O O14 0.967695 0.212174 0.864007
O O15 0.250000 0.307377 0.417462
O O16 0.028320 0.326790 0.545408
O O17 0.250000 0.377040 0.613745
O O18 0.491072 0.379032 0.715870
O O19 0.500000 0.500000 0.171988
O O20 0.750000 0.543017 0.176417
O O21 0.250000 0.632727 0.785908
#
# Coordination Sequence:
#
# PCOD8192837 Si02
#       8
#     8   8   8   8   8   8   8   8
#     4   9  20  39  63  89 118 146 181 233 289 346
#     4  11  23  40  59  86 120 155 198 245 293 347
#     4  11  22  36  55  81 113 154 199 241 285 342
#     4  11  22  36  53  77 113 155 195 241 292 341
#     4  10  21  35  54  80 112 151 195 239 285 339
#     4  10  21  38  59  85 115 151 194 240 286 343
#     4  10  21  40  65  92 119 151 188 236 297 354
#     4  10  22  38  56  80 117 157 194 240 287 341
#
# _framework density 19.113779999999998
#
# number of rings (size 3 to 8) (size 9 to 14) (size 15 to 20)
#    0.000    1.750    2.500    1.500    1.750    3.500 
#    0.000    0.625    0.000    1.500    0.000    0.000 
#    0.000    0.000    0.000    0.000    0.000    0.000 
#
# Total GULP energy -396725.242665 kJ/mol
# GULP energy per Si atom -12397.663833 kJ/mol
# Density = 1.907028 g / cm^3
# Si number density = 19.113780 Si / 1000 Ang^3
#
#
#
# Elastic Constant Matrix: (Units=GPa)
#
#
# Indices 1 2 3 4 5 6 
#
# 1 84.9483 42.4865 52.7589 0.0003 0.0000 -0.0001
# 2 42.4865 101.9328 57.7927 -0.0001 0.0000 0.0000
# 3 52.7589 57.7927 110.4026 0.0025 0.0000 -0.0001
# 4 0.0003 -0.0001 0.0025 35.2629 0.0000 0.0000
# 5 0.0000 0.0000 0.0000 0.0000 34.2939 0.0001
# 6 -0.0001 0.0000 -0.0001 0.0000 0.0001 32.1564
#
#
#
# Elastic Compliance Matrix: (Units=1/GPa)
#
#
# Indices 1 2 3 4 5 6 
#
# 1 0.017652 -0.003662 -0.006519 0.000000 0.000000 0.000000
# 2 -0.003662 0.014710 -0.005951 0.000000 0.000000 0.000000
# 3 -0.006519 -0.005951 0.015288 -0.000001 0.000000 0.000000
# 4 0.000000 0.000000 -0.000001 0.028358 0.000000 0.000000
# 5 0.000000 0.000000 0.000000 0.000000 0.029160 0.000000
# 6 0.000000 0.000000 0.000000 0.000000 0.000000 0.031098
#
#
# Mechanical properties :
#
#
# Convention : Reuss Voigt Hill
#
# Bulk Modulus (GPa) = 64.98473 67.04000 66.01236
# Shear Modulus (GPa) = 28.79232 29.95901 29.37566
#
# Velocity S-wave (km/s) = 3.88540 3.96334 3.92456
# Velocity P-wave (km/s) = 7.36214 7.48962 7.42616
#
# Compressibility (1/GPa) = 0.01538823
#
# Stress axis : x y z
#
# Youngs Moduli (GPa) = 56.65174 67.97902 65.41106
#
# Poissons Ratio (x) = 0.24891 0.42639
# Poissons Ratio (y) = 0.20743 0.38924
# Poissons Ratio (z) = 0.36929 0.40453
#
# Static dielectric constant tensor:
#      x y z
#    x 3.525060 0.000000 0.000000 
#    y 0.000000 3.408350 0.000000 
#    z 0.000000 0.000000 3.541820 
# 
# 
# High freq. dielectric constant tensor:
#      x y z
#    x 1.747680 0.000000 0.000000 
#    y 0.000000 1.727410 0.000000 
#    z 0.000000 0.000000 1.745880 
# 
# From -- ./inp_files/9716.got.cif
#   From: 2010.03.12/outbox.cif.g09.slc.cpg/sg46_5_cif.got.tgz:9716.got - 2010.04.14 02:56:35.
