data_PCOD8192375
_publ_section_title
;
Structure prediction by ZEFSAII (Michael W. Deem and Ramdas Pophale) SiO2 
 PCOD8192375
Probable space group: I M A 2
;
_chemical_formula_sum "Si O2"
_cell_formula_units_Z 40
_cell_length_a 7.782537
_cell_length_b 28.517371
_cell_length_c 9.606800
_cell_angle_alpha 90.000000
_cell_angle_beta 90.000000
_cell_angle_gamma 90.000000
_cell_volume 2132.109126
_symmetry_space_group_name_H-M "I M A 2"
_symmetry_group_IT_number 46
_symmetry_cell_setting 'orthorhombic'
loop_
_space_group_symop_operation_xyz
x,y,z
-x,-y,z
1/2-x,y,z
1/2+x,-y,z
1/2+x,1/2+y,1/2+z
1/2-x,1/2-y,1/2+z
-x,1/2+y,1/2+z
x,1/2-y,1/2+z
loop_
_atom_site_type_symbol
_atom_site_label
_atom_site_fract_x
_atom_site_fract_y
_atom_site_fract_z
Si Si1 0.550801 0.449377 0.644850
Si Si2 0.057197 0.052192 0.451833
Si Si3 0.447600 0.634696 0.443668
Si Si4 0.940012 0.364174 0.124727
Si Si5 0.250000 0.296081 0.441884
Si Si6 0.750000 0.797822 0.615897
O O1 0.500000 0.500000 0.582612
O O2 0.750000 0.448344 0.682907
O O3 0.449427 0.439319 0.786656
O O4 0.500734 0.410818 0.531566
O O5 0.250000 0.060069 0.504059
O O6 0.939693 0.089306 0.531580
O O7 0.000000 0.000000 0.491021
O O8 0.250000 0.650236 0.473073
O O9 0.476570 0.620945 0.283442
O O10 0.577133 0.676250 0.485202
O O11 0.750000 0.341322 0.111381
O O12 0.080591 0.326934 0.073459
O O13 0.250000 0.248476 0.525795
O O14 0.250000 0.284730 0.278198
#
# Coordination Sequence:
#
# PCOD8192375 Si02
#       6
#     8   8   8   8   4   4
#     4  10  20  34  52  81 114 150 191 230 280 331
#     4  11  21  34  53  82 115 151 192 229 277 332
#     4   9  21  38  58  83 112 148 187 232 282 334
#     4  10  20  39  59  81 115 147 185 235 279 332
#     4  10  22  38  62  80 118 142 192 234 285 336
#     4  10  22  40  56  90 106 150 188 234 285 342
#
# _framework density 18.760767000000001
#
# number of rings (size 3 to 8) (size 9 to 14) (size 15 to 20)
#    0.000    2.000    1.000    3.600    2.800    3.200 
#    0.000    2.000    0.000    0.000    0.000    0.000 
#    0.000    0.000    0.000    0.000    0.000    0.000 
#
# Total GULP energy -248043.008328 kJ/mol
# GULP energy per Si atom -12402.150416 kJ/mol
# Density = 1.871807 g / cm^3
# Si number density = 18.760767 Si / 1000 Ang^3
#
#
#
# Elastic Constant Matrix: (Units=GPa)
#
#
# Indices 1 2 3 4 5 6 
#
# 1 118.7027 63.1422 34.5195 0.0006 -0.0001 0.0000
# 2 63.1422 151.1473 74.6073 0.0014 0.0000 0.0000
# 3 34.5195 74.6073 65.6628 0.0038 0.0000 0.0001
# 4 0.0006 0.0014 0.0038 37.7211 -0.0001 0.0000
# 5 -0.0001 0.0000 0.0000 -0.0001 22.0996 0.0005
# 6 0.0000 0.0000 0.0001 0.0000 0.0005 29.5332
#
#
#
# Elastic Compliance Matrix: (Units=1/GPa)
#
#
# Indices 1 2 3 4 5 6 
#
# 1 0.010877 -0.003920 -0.001264 0.000000 0.000000 0.000000
# 2 -0.003920 0.016478 -0.016662 0.000001 0.000000 0.000000
# 3 -0.001264 -0.016662 0.034826 -0.000003 0.000000 0.000000
# 4 0.000000 0.000001 -0.000003 0.026510 0.000000 0.000000
# 5 0.000000 0.000000 0.000000 0.000000 0.045250 -0.000001
# 6 0.000000 0.000000 0.000000 0.000000 -0.000001 0.033860
#
#
# Mechanical properties :
#
#
# Convention : Reuss Voigt Hill
#
# Bulk Modulus (GPa) = 54.08790 75.56121 64.82456
# Shear Modulus (GPa) = 22.97197 28.75369 25.86283
#
# Velocity S-wave (km/s) = 3.50304 3.91915 3.71692
# Velocity P-wave (km/s) = 6.72715 7.80021 7.28347
#
# Compressibility (1/GPa) = 0.01848842
#
# Stress axis : x y z
#
# Youngs Moduli (GPa) = 91.93526 60.68682 28.71447
#
# Poissons Ratio (x) = 0.23788 0.03631
# Poissons Ratio (y) = 0.36037 0.47844
# Poissons Ratio (z) = 0.11625 1.01116
#
# Static dielectric constant tensor:
#      x y z
#    x 3.738370 0.000000 0.000000 
#    y 0.000000 3.275890 0.000000 
#    z 0.000000 0.000000 3.325410 
# 
# 
# High freq. dielectric constant tensor:
#      x y z
#    x 1.750940 0.000000 0.000000 
#    y 0.000000 1.715150 0.000000 
#    z 0.000000 0.000000 1.721240 
# 
# From -- ./inp_files/3558.got.cif
#   From: 2010.03.12/outbox.cif.g09.slc.cpg/sg46_2_cif.got.tgz:3558.got - 2010.04.14 02:56:35.
