data_PCOD8192453
_publ_section_title
;
Structure prediction by ZEFSAII (Michael W. Deem and Ramdas Pophale) SiO2 
 PCOD8192453
Probable space group: I M A 2
;
_chemical_formula_sum "Si O2"
_cell_formula_units_Z 48
_cell_length_a 8.661278
_cell_length_b 10.227186
_cell_length_c 29.367395
_cell_angle_alpha 90.000000
_cell_angle_beta 90.000000
_cell_angle_gamma 90.000000
_cell_volume 2601.378565
_symmetry_space_group_name_H-M "I M A 2"
_symmetry_group_IT_number 46
_symmetry_cell_setting 'orthorhombic'
loop_
_space_group_symop_operation_xyz
x,y,z
-x,-y,z
1/2-x,y,z
1/2+x,-y,z
1/2+x,1/2+y,1/2+z
1/2-x,1/2-y,1/2+z
-x,1/2+y,1/2+z
x,1/2-y,1/2+z
loop_
_atom_site_type_symbol
_atom_site_label
_atom_site_fract_x
_atom_site_fract_y
_atom_site_fract_z
Si Si1 0.568822 0.135527 0.567940
Si Si2 0.932864 0.136135 0.004035
Si Si3 0.567871 0.363892 0.400972
Si Si4 0.066753 0.139344 0.235453
Si Si5 0.567375 0.361537 0.172606
Si Si6 0.066315 0.861304 0.333389
O O1 0.750000 0.126622 0.562148
O O2 0.500436 0.250735 0.536587
O O3 0.522525 0.161742 0.620079
O O4 0.500000 0.000000 0.550055
O O5 0.750000 0.129538 0.006821
O O6 0.989453 0.163235 0.952455
O O7 0.000000 0.000000 0.022222
O O8 0.500000 0.500000 0.382424
O O9 0.750000 0.374685 0.398910
O O10 0.508618 0.246425 0.369349
O O11 0.250000 0.130148 0.237970
O O12 0.015478 0.247554 0.199829
O O13 0.000550 0.178484 0.284541
O O14 0.000000 0.000000 0.219445
O O15 0.500000 0.500000 0.189440
O O16 0.750000 0.358440 0.180965
O O17 0.250000 0.869600 0.330278
O O18 0.000000 0.000000 0.349804
#
# Coordination Sequence:
#
# PCOD8192453 Si02
#       6
#     8   8   8   8   8   8
#     4   9  19  34  53  76 105 136 170 210 253 300
#     4   9  18  34  52  75 104 135 170 210 252 299
#     4   9  19  34  53  75 103 135 170 210 253 300
#     4  11  22  37  56  78 104 137 173 215 261 310
#     4  10  20  36  55  78 106 138 174 215 259 308
#     4  10  20  35  53  76 104 135 170 212 256 305
#
# _framework density 18.451756
#
# number of rings (size 3 to 8) (size 9 to 14) (size 15 to 20)
#    0.000    2.333    0.000    3.500    0.000    4.667 
#    0.000    3.333    0.000    0.000    0.000    0.000 
#    0.000    0.000    0.000    0.000    0.000    0.000 
#
# Total GULP energy -297648.986157 kJ/mol
# GULP energy per Si atom -12402.041090 kJ/mol
# Density = 1.840976 g / cm^3
# Si number density = 18.451756 Si / 1000 Ang^3
#
#
#
# Elastic Constant Matrix: (Units=GPa)
#
#
# Indices 1 2 3 4 5 6 
#
# 1 64.2305 46.4940 34.2834 0.0000 0.0000 0.0000
# 2 46.4940 183.7031 103.2558 0.0000 0.0000 0.0000
# 3 34.2834 103.2558 96.7915 0.0000 0.0000 0.0000
# 4 0.0000 0.0000 0.0000 31.9889 0.0000 0.0000
# 5 0.0000 0.0000 0.0000 0.0000 5.8358 0.0000
# 6 0.0000 0.0000 0.0000 0.0000 0.0000 36.1146
#
#
#
# Elastic Compliance Matrix: (Units=1/GPa)
#
#
# Indices 1 2 3 4 5 6 
#
# 1 0.019705 -0.002658 -0.004144 0.000000 0.000000 0.000000
# 2 -0.002658 0.013954 -0.013945 0.000000 0.000000 0.000000
# 3 -0.004144 -0.013945 0.026676 0.000000 0.000000 0.000000
# 4 0.000000 0.000000 0.000000 0.031261 0.000000 0.000000
# 5 0.000000 0.000000 0.000000 0.000000 0.171357 0.000000
# 6 0.000000 0.000000 0.000000 0.000000 0.000000 0.027690
#
#
# Mechanical properties :
#
#
# Convention : Reuss Voigt Hill
#
# Bulk Modulus (GPa) = 53.07557 79.19904 66.13731
# Shear Modulus (GPa) = 14.77470 25.50065 20.13767
#
# Velocity S-wave (km/s) = 2.83277 3.72158 3.30717
# Velocity P-wave (km/s) = 6.28700 7.84107 7.10664
#
# Compressibility (1/GPa) = 0.01884106
#
# Stress axis : x y z
#
# Youngs Moduli (GPa) = 50.74914 71.66173 37.48746
#
# Poissons Ratio (x) = 0.19047 0.15535
# Poissons Ratio (y) = 0.13489 0.52276
# Poissons Ratio (z) = 0.21030 0.99932
#
# Static dielectric constant tensor:
#      x y z
#    x 3.364370 0.000000 0.000000 
#    y 0.000000 3.595790 0.000000 
#    z 0.000000 0.000000 3.537460 
# 
# 
# High freq. dielectric constant tensor:
#      x y z
#    x 1.718210 0.000000 0.000000 
#    y 0.000000 1.725630 0.000000 
#    z 0.000000 0.000000 1.713080 
# 
# From -- ./inp_files/24987.got.cif
#   From: 2010.03.12/outbox.cif.g09.slc.cpg/sg46_13_cif.got.tgz:24987.got - 2010.04.14 02:56:35.
