data_PCOD8192175
_publ_section_title
;
Structure prediction by ZEFSAII (Michael W. Deem and Ramdas Pophale) SiO2 
 PCOD8192175
Probable space group: I M A 2
;
_chemical_formula_sum "Si O2"
_cell_formula_units_Z 56
_cell_length_a 19.941585
_cell_length_b 13.790110
_cell_length_c 9.303617
_cell_angle_alpha 90.000000
_cell_angle_beta 90.000000
_cell_angle_gamma 90.000000
_cell_volume 2558.463515
_symmetry_space_group_name_H-M "I M A 2"
_symmetry_group_IT_number 46
_symmetry_cell_setting 'orthorhombic'
loop_
_space_group_symop_operation_xyz
x,y,z
-x,-y,z
1/2-x,y,z
1/2+x,-y,z
1/2+x,1/2+y,1/2+z
1/2-x,1/2-y,1/2+z
-x,1/2+y,1/2+z
x,1/2-y,1/2+z
loop_
_atom_site_type_symbol
_atom_site_label
_atom_site_fract_x
_atom_site_fract_y
_atom_site_fract_z
Si Si1 0.113503 0.181462 0.059730
Si Si2 0.824167 0.474643 0.034616
Si Si3 0.173255 0.332207 0.869167
Si Si4 0.928046 0.024145 0.093039
Si Si5 0.176755 0.643820 0.762680
Si Si6 0.597824 0.180717 0.661363
Si Si7 0.527212 0.205363 0.935401
O O1 0.125808 0.187901 0.231544
O O2 0.108344 0.068202 0.019995
O O3 0.171361 0.238458 0.973911
O O4 0.044970 0.230320 0.002201
O O5 0.750000 0.498040 0.099779
O O6 0.851713 0.572069 0.956292
O O7 0.817113 0.381856 0.930140
O O8 0.876237 0.431962 0.154687
O O9 0.250000 0.348095 0.818164
O O10 0.877753 0.068145 0.206818
O O11 0.944966 0.098794 0.968533
O O12 0.000000 0.000000 0.169860
O O13 0.250000 0.626045 0.690952
O O14 0.157089 0.754618 0.730896
O O15 0.532295 0.203316 0.761926
O O16 0.577543 0.214781 0.501353
#
# Coordination Sequence:
#
# PCOD8192175 Si02
#       7
#     8   8   8   8   8   8   8
#     4  11  22  42  63  87 125 172 217 277 325 387
#     4  10  21  38  60  93 133 169 215 267 322 393
#     4  11  24  41  65  94 127 172 226 277 333 390
#     4   9  20  38  62  87 121 164 215 268 323 386
#     4  10  19  35  61  91 123 168 212 257 323 398
#     4  11  20  39  59  94 129 166 208 263 324 395
#     4  10  22  37  63  90 127 165 216 265 325 395
#
# _framework density 21.888135999999999
#
# number of rings (size 3 to 8) (size 9 to 14) (size 15 to 20)
#    0.000    1.714    2.857    1.714    0.000    1.714 
#    0.000    2.857    0.000    0.000    0.000    0.000 
#    0.000    0.000    0.000    0.000    0.000    0.000 
#
# Total GULP energy -346871.147139 kJ/mol
# GULP energy per Si atom -12388.255255 kJ/mol
# Density = 2.183832 g / cm^3
# Si number density = 21.888136 Si / 1000 Ang^3
#
#
#
# Elastic Constant Matrix: (Units=GPa)
#
#
# Indices 1 2 3 4 5 6 
#
# 1 102.6501 39.3174 33.6642 0.0000 0.0000 0.0000
# 2 39.3174 95.5183 23.5377 0.0000 0.0000 0.0000
# 3 33.6642 23.5377 78.5102 0.0000 0.0000 0.0000
# 4 0.0000 0.0000 0.0000 27.6870 0.0000 0.0000
# 5 0.0000 0.0000 0.0000 0.0000 33.3047 0.0000
# 6 0.0000 0.0000 0.0000 0.0000 0.0000 30.7924
#
#
#
# Elastic Compliance Matrix: (Units=1/GPa)
#
#
# Indices 1 2 3 4 5 6 
#
# 1 0.012729 -0.004205 -0.004197 0.000000 0.000000 0.000000
# 2 -0.004205 0.012694 -0.002002 0.000000 0.000000 0.000000
# 3 -0.004197 -0.002002 0.015137 0.000000 0.000000 0.000000
# 4 0.000000 0.000000 0.000000 0.036118 0.000000 0.000000
# 5 0.000000 0.000000 0.000000 0.000000 0.030026 0.000000
# 6 0.000000 0.000000 0.000000 0.000000 0.000000 0.032476
#
#
# Mechanical properties :
#
#
# Convention : Reuss Voigt Hill
#
# Bulk Modulus (GPa) = 50.63302 52.19081 51.41191
# Shear Modulus (GPa) = 30.01691 30.36742 30.19217
#
# Velocity S-wave (km/s) = 3.70723 3.72881 3.71804
# Velocity P-wave (km/s) = 6.44264 6.51420 6.47852
#
# Compressibility (1/GPa) = 0.01974996
#
# Stress axis : x y z
#
# Youngs Moduli (GPa) = 78.56045 78.77973 66.06198
#
# Poissons Ratio (x) = 0.33129 0.27728
# Poissons Ratio (y) = 0.33037 0.13229
# Poissons Ratio (z) = 0.32974 0.15775
#
# Static dielectric constant tensor:
#      x y z
#    x 4.117260 0.000000 0.000000 
#    y 0.000000 3.949960 0.000000 
#    z 0.000000 0.000000 3.653080 
# 
# 
# High freq. dielectric constant tensor:
#      x y z
#    x 1.861830 0.000000 0.000000 
#    y 0.000000 1.860870 0.000000 
#    z 0.000000 0.000000 1.834110 
# 
# From -- ./inp_files/7425.got.cif
#   From: 2010.03.12/outbox.cif.g09.slc.cpg/sg46_4_cif.got.tgz:7425.got - 2010.04.14 02:56:35.
