data_PCOD8192797
_publ_section_title
;
Structure prediction by ZEFSAII (Michael W. Deem and Ramdas Pophale) SiO2 
 PCOD8192797
Probable space group: I M A 2
;
_chemical_formula_sum "Si O2"
_cell_formula_units_Z 48
_cell_length_a 16.966112
_cell_length_b 9.595290
_cell_length_c 14.615867
_cell_angle_alpha 90.000000
_cell_angle_beta 90.000000
_cell_angle_gamma 90.000000
_cell_volume 2379.386631
_symmetry_space_group_name_H-M "I M A 2"
_symmetry_group_IT_number 46
_symmetry_cell_setting 'orthorhombic'
loop_
_space_group_symop_operation_xyz
x,y,z
-x,-y,z
1/2-x,y,z
1/2+x,-y,z
1/2+x,1/2+y,1/2+z
1/2-x,1/2-y,1/2+z
-x,1/2+y,1/2+z
x,1/2-y,1/2+z
loop_
_atom_site_type_symbol
_atom_site_label
_atom_site_fract_x
_atom_site_fract_y
_atom_site_fract_z
Si Si1 0.574238 0.758753 0.863200
Si Si2 0.339863 0.525660 0.817771
Si Si3 0.940349 0.255645 0.726414
Si Si4 0.161657 0.528018 0.291249
Si Si5 0.335077 0.738299 0.457573
Si Si6 0.494418 0.664424 0.542695
O O1 0.619466 0.619510 0.839281
O O2 0.487011 0.759356 0.821681
O O3 0.623230 0.883079 0.819037
O O4 0.559122 0.772433 0.972887
O O5 0.250000 0.501251 0.785938
O O6 0.384347 0.607997 0.735769
O O7 0.344031 0.611058 0.911585
O O8 0.889373 0.112722 0.714816
O O9 0.005585 0.278198 0.646122
O O10 0.250000 0.502016 0.253163
O O11 0.163889 0.621974 0.380283
O O12 0.250000 0.730851 0.508708
O O13 0.404531 0.712923 0.528157
O O14 0.500000 0.500000 0.536531
#
# Coordination Sequence:
#
# PCOD8192797 Si02
#       6
#     8   8   8   8   8   8
#     4  12  21  40  62  92 124 156 201 262 314 368
#     4  10  21  39  62  88 122 164 205 256 313 368
#     4  11  23  39  63  89 121 159 212 249 310 373
#     4  10  20  40  65  87 118 161 204 254 305 365
#     4   9  19  36  59  85 113 156 204 242 294 362
#     4  12  22  38  63  93 122 162 209 258 311 369
#
# _framework density 20.173266999999999
#
# number of rings (size 3 to 8) (size 9 to 14) (size 15 to 20)
#    0.000    1.333    5.000    4.000    0.000    1.333 
#    6.000    0.000    0.000    2.000    0.000    0.000 
#    0.000    0.000    0.000    0.000    0.000    0.000 
#
# Total GULP energy -297510.049229 kJ/mol
# GULP energy per Si atom -12396.252051 kJ/mol
# Density = 2.012735 g / cm^3
# Si number density = 20.173267 Si / 1000 Ang^3
#
#
#
# Elastic Constant Matrix: (Units=GPa)
#
#
# Indices 1 2 3 4 5 6 
#
# 1 111.1001 60.9137 18.5741 0.0000 0.0000 0.0000
# 2 60.9137 139.6556 21.5396 0.0000 0.0000 0.0000
# 3 18.5741 21.5396 65.2422 0.0000 0.0000 0.0000
# 4 0.0000 0.0000 0.0000 16.6749 0.0000 0.0000
# 5 0.0000 0.0000 0.0000 0.0000 28.5018 0.0000
# 6 0.0000 0.0000 0.0000 0.0000 0.0000 127.4546
#
#
#
# Elastic Compliance Matrix: (Units=1/GPa)
#
#
# Indices 1 2 3 4 5 6 
#
# 1 0.012023 -0.004969 -0.001782 0.000000 0.000000 0.000000
# 2 -0.004969 0.009599 -0.001754 0.000000 0.000000 0.000000
# 3 -0.001782 -0.001754 0.016414 0.000000 0.000000 0.000000
# 4 0.000000 0.000000 0.000000 0.059970 0.000000 0.000000
# 5 0.000000 0.000000 0.000000 0.000000 0.035086 0.000000
# 6 0.000000 0.000000 0.000000 0.000000 0.000000 0.007846
#
#
# Mechanical properties :
#
#
# Convention : Reuss Voigt Hill
#
# Bulk Modulus (GPa) = 47.56428 57.56141 52.56284
# Shear Modulus (GPa) = 30.31078 48.85763 39.58420
#
# Velocity S-wave (km/s) = 3.88044 4.92662 4.43449
# Velocity P-wave (km/s) = 6.61106 7.80753 7.23408
#
# Compressibility (1/GPa) = 0.02102418
#
# Stress axis : x y z
#
# Youngs Moduli (GPa) = 83.17064 104.18272 60.92332
#
# Poissons Ratio (x) = 0.51772 0.10859
# Poissons Ratio (y) = 0.41331 0.10687
# Poissons Ratio (z) = 0.14824 0.18276
#
# Static dielectric constant tensor:
#      x y z
#    x 3.830190 0.000000 0.000000 
#    y 0.000000 3.948700 0.000000 
#    z 0.000000 0.000000 3.520350 
# 
# 
# High freq. dielectric constant tensor:
#      x y z
#    x 1.798910 0.000000 0.000000 
#    y 0.000000 1.793260 0.000000 
#    z 0.000000 0.000000 1.758440 
# 
# From -- ./inp_files/16494.got.cif
#   From: 2010.03.12/outbox.cif.g09.slc.cpg/sg46_9_cif.got.tgz:16494.got - 2010.04.14 02:56:35.
