data_PCOD8192244
_publ_section_title
;
Structure prediction by ZEFSAII (Michael W. Deem and Ramdas Pophale) SiO2 
 PCOD8192244
Probable space group: I M A 2
;
_chemical_formula_sum "Si O2"
_cell_formula_units_Z 48
_cell_length_a 15.380582
_cell_length_b 8.913434
_cell_length_c 18.732583
_cell_angle_alpha 90.000000
_cell_angle_beta 90.000000
_cell_angle_gamma 90.000000
_cell_volume 2568.121035
_symmetry_space_group_name_H-M "I M A 2"
_symmetry_group_IT_number 46
_symmetry_cell_setting 'orthorhombic'
loop_
_space_group_symop_operation_xyz
x,y,z
-x,-y,z
1/2-x,y,z
1/2+x,-y,z
1/2+x,1/2+y,1/2+z
1/2-x,1/2-y,1/2+z
-x,1/2+y,1/2+z
x,1/2-y,1/2+z
loop_
_atom_site_type_symbol
_atom_site_label
_atom_site_fract_x
_atom_site_fract_y
_atom_site_fract_z
Si Si1 0.153450 0.383521 0.196640
Si Si2 0.411563 0.071683 0.345553
Si Si3 0.750000 0.429229 0.092556
Si Si4 0.089005 0.075462 0.845617
Si Si5 0.250000 0.925559 0.095695
Si Si6 0.907095 0.561063 0.682352
Si Si7 0.750000 0.573013 0.442045
Si Si8 0.750000 0.928118 0.439836
O O1 0.250000 0.322950 0.219928
O O2 0.163916 0.503250 0.132171
O O3 0.110971 0.469529 0.263863
O O4 0.096566 0.241309 0.171410
O O5 0.422706 0.248161 0.348516
O O6 0.391717 0.017960 0.265020
O O7 0.333612 0.018949 0.395630
O O8 0.500000 0.000000 0.375046
O O9 0.750000 0.252464 0.096729
O O10 0.750000 0.480059 0.011873
O O11 0.165175 0.021879 0.898149
O O12 0.000000 0.000000 0.870946
O O13 0.335361 0.982291 0.134798
O O14 0.250000 0.986208 0.015819
O O15 0.000000 0.500000 0.656014
O O16 0.750000 0.751108 0.455742
#
# Coordination Sequence:
#
# PCOD8192244 Si02
#       8
#     8   8   4   8   4   8   4   4
#     4   9  18  39  61  80 118 151 185 226 293 340
#     4   9  20  36  58  87 110 141 188 233 287 339
#     4  10  23  36  56  84 112 158 189 232 292 334
#     4  10  20  36  62  87 112 145 191 235 283 347
#     4  12  23  38  56  82 120 148 201 242 278 338
#     4  10  20  37  63  88 110 148 194 240 282 338
#     4  10  21  38  58  80 112 160 189 232 284 340
#     4  10  19  38  60  74 112 160 185 218 294 350
#
# _framework density 18.690708000000001
#
# number of rings (size 3 to 8) (size 9 to 14) (size 15 to 20)
#    0.500    1.667    1.667    1.500    2.333    6.000 
#    0.000    5.833    0.000    0.000    0.000    0.000 
#    0.000    0.000    0.000    0.000    0.000    0.000 
#
# Total GULP energy -297586.633206 kJ/mol
# GULP energy per Si atom -12399.443050 kJ/mol
# Density = 1.864817 g / cm^3
# Si number density = 18.690708 Si / 1000 Ang^3
#
#
#
# Elastic Constant Matrix: (Units=GPa)
#
#
# Indices 1 2 3 4 5 6 
#
# 1 156.5204 53.5826 82.8041 0.0000 0.0000 0.0000
# 2 53.5826 75.2400 63.8893 0.0000 0.0000 0.0000
# 3 82.8041 63.8893 137.7187 0.0000 0.0000 0.0000
# 4 0.0000 0.0000 0.0000 25.1928 0.0000 0.0000
# 5 0.0000 0.0000 0.0000 0.0000 28.7053 0.0000
# 6 0.0000 0.0000 0.0000 0.0000 0.0000 33.5748
#
#
#
# Elastic Compliance Matrix: (Units=1/GPa)
#
#
# Indices 1 2 3 4 5 6 
#
# 1 0.009834 -0.003271 -0.004395 0.000000 0.000000 0.000000
# 2 -0.003271 0.023017 -0.008711 0.000000 0.000000 0.000000
# 3 -0.004395 -0.008711 0.013945 0.000000 0.000000 0.000000
# 4 0.000000 0.000000 0.000000 0.039694 0.000000 0.000000
# 5 0.000000 0.000000 0.000000 0.000000 0.034837 0.000000
# 6 0.000000 0.000000 0.000000 0.000000 0.000000 0.029784
#
#
# Mechanical properties :
#
#
# Convention : Reuss Voigt Hill
#
# Bulk Modulus (GPa) = 71.21876 85.55901 78.38889
# Shear Modulus (GPa) = 26.51858 28.77479 27.64668
#
# Velocity S-wave (km/s) = 3.77080 3.92793 3.85017
# Velocity P-wave (km/s) = 7.55944 8.15151 7.86105
#
# Compressibility (1/GPa) = 0.01404124
#
# Stress axis : x y z
#
# Youngs Moduli (GPa) = 101.68822 43.44528 71.71013
#
# Poissons Ratio (x) = 0.14212 0.31518
# Poissons Ratio (y) = 0.33264 0.62468
# Poissons Ratio (z) = 0.44694 0.37846
#
# Static dielectric constant tensor:
#      x y z
#    x 3.529340 0.000000 0.000000 
#    y 0.000000 3.249440 0.000000 
#    z 0.000000 0.000000 3.445310 
# 
# 
# High freq. dielectric constant tensor:
#      x y z
#    x 1.728130 0.000000 0.000000 
#    y 0.000000 1.713580 0.000000 
#    z 0.000000 0.000000 1.724200 
# 
# From -- ./inp_files/21923.got.cif
#   From: 2010.03.12/outbox.cif.g09.slc.cpg/sg46_11_cif.got.tgz:21923.got - 2010.04.14 02:56:35.
