data_PCOD8192974
_publ_section_title
;
Structure prediction by ZEFSAII (Michael W. Deem and Ramdas Pophale) SiO2 
 PCOD8192974
Probable space group: I M A 2
;
_chemical_formula_sum "Si O2"
_cell_formula_units_Z 48
_cell_length_a 27.272312
_cell_length_b 5.173622
_cell_length_c 15.872313
_cell_angle_alpha 90.000000
_cell_angle_beta 90.000000
_cell_angle_gamma 90.000000
_cell_volume 2239.529928
_symmetry_space_group_name_H-M "I M A 2"
_symmetry_group_IT_number 46
_symmetry_cell_setting 'orthorhombic'
loop_
_space_group_symop_operation_xyz
x,y,z
-x,-y,z
1/2-x,y,z
1/2+x,-y,z
1/2+x,1/2+y,1/2+z
1/2-x,1/2-y,1/2+z
-x,1/2+y,1/2+z
x,1/2-y,1/2+z
loop_
_atom_site_type_symbol
_atom_site_label
_atom_site_fract_x
_atom_site_fract_y
_atom_site_fract_z
Si Si1 0.890290 0.420161 0.285410
Si Si2 0.968448 0.751191 0.715372
Si Si3 0.806362 0.769677 0.235963
Si Si4 0.110899 0.969149 0.139388
Si Si5 0.858261 0.133611 0.961991
Si Si6 0.695697 0.615632 0.921550
O O1 0.929556 0.657562 0.287792
O O2 0.834949 0.506114 0.259526
O O3 0.906982 0.218508 0.214453
O O4 0.890970 0.299323 0.379473
O O5 0.932974 0.679960 0.636243
O O6 0.000000 0.500000 0.745068
O O7 0.000000 0.000000 0.688542
O O8 0.750000 0.711311 0.208333
O O9 0.808044 0.939828 0.321192
O O10 0.835217 0.913113 0.160437
O O11 0.111499 0.836016 0.048321
O O12 0.815552 0.346617 0.967943
O O13 0.839841 0.840660 0.953505
O O14 0.750000 0.703798 0.946331
#
# Coordination Sequence:
#
# PCOD8192974 Si02
#       6
#     8   8   8   8   8   8
#     4  10  22  43  65  94 130 170 215 266 325 378
#     4  11  23  43  73  94 124 167 209 268 334 392
#     4   9  20  37  61  92 129 176 219 260 312 374
#     4  11  23  41  66  96 129 173 214 264 325 382
#     4  11  24  39  63  92 130 170 214 267 315 380
#     4  10  21  39  59  87 129 175 221 266 309 359
#
# _framework density 21.433071000000002
#
# number of rings (size 3 to 8) (size 9 to 14) (size 15 to 20)
#    0.000    1.667    3.333    0.500    4.667    2.667 
#    0.000    1.667    0.000    0.000    0.000    0.000 
#    0.000    0.000    0.000    0.000    0.000    0.000 
#
# Total GULP energy -297387.571770 kJ/mol
# GULP energy per Si atom -12391.148824 kJ/mol
# Density = 2.138429 g / cm^3
# Si number density = 21.433071 Si / 1000 Ang^3
#
#
#
# Elastic Constant Matrix: (Units=GPa)
#
#
# Indices 1 2 3 4 5 6 
#
# 1 129.6095 41.0837 34.1176 0.0000 0.0000 0.0000
# 2 41.0837 100.9951 37.5352 0.0000 0.0000 0.0000
# 3 34.1176 37.5352 133.8291 0.0000 0.0000 0.0000
# 4 0.0000 0.0000 0.0000 24.2677 0.0000 0.0000
# 5 0.0000 0.0000 0.0000 0.0000 11.9159 0.0000
# 6 0.0000 0.0000 0.0000 0.0000 0.0000 39.9510
#
#
#
# Elastic Compliance Matrix: (Units=1/GPa)
#
#
# Indices 1 2 3 4 5 6 
#
# 1 0.009096 -0.003169 -0.001430 0.000000 0.000000 0.000000
# 2 -0.003169 0.012158 -0.002602 0.000000 0.000000 0.000000
# 3 -0.001430 -0.002602 0.008567 0.000000 0.000000 0.000000
# 4 0.000000 0.000000 0.000000 0.041207 0.000000 0.000000
# 5 0.000000 0.000000 0.000000 0.000000 0.083921 0.000000
# 6 0.000000 0.000000 0.000000 0.000000 0.000000 0.025031
#
#
# Mechanical properties :
#
#
# Convention : Reuss Voigt Hill
#
# Bulk Modulus (GPa) = 64.85701 65.54520 65.20110
# Shear Modulus (GPa) = 25.06001 32.00676 28.53338
#
# Velocity S-wave (km/s) = 3.42310 3.86856 3.65263
# Velocity P-wave (km/s) = 6.77860 7.11351 6.94807
#
# Compressibility (1/GPa) = 0.01541853
#
# Stress axis : x y z
#
# Youngs Moduli (GPa) = 109.93354 82.25354 116.73218
#
# Poissons Ratio (x) = 0.26064 0.16695
# Poissons Ratio (y) = 0.34835 0.30374
# Poissons Ratio (z) = 0.15723 0.21402
#
# Static dielectric constant tensor:
#      x y z
#    x 3.959670 0.000000 0.000000 
#    y 0.000000 3.900540 0.000000 
#    z 0.000000 0.000000 3.693280 
# 
# 
# High freq. dielectric constant tensor:
#      x y z
#    x 1.838930 0.000000 0.000000 
#    y 0.000000 1.846570 0.000000 
#    z 0.000000 0.000000 1.808300 
# 
# From -- ./inp_files/17537.got.cif
#   From: 2010.03.12/outbox.cif.g09.slc.cpg/sg46_9_cif.got.tgz:17537.got - 2010.04.14 02:56:35.
