data_PCOD8192095
_publ_section_title
;
Structure prediction by ZEFSAII (Michael W. Deem and Ramdas Pophale) SiO2 
 PCOD8192095
Probable space group: I M A 2
;
_chemical_formula_sum "Si O2"
_cell_formula_units_Z 64
_cell_length_a 8.825495
_cell_length_b 25.186019
_cell_length_c 14.905402
_cell_angle_alpha 90.000000
_cell_angle_beta 90.000000
_cell_angle_gamma 90.000000
_cell_volume 3313.159114
_symmetry_space_group_name_H-M "I M A 2"
_symmetry_group_IT_number 46
_symmetry_cell_setting 'orthorhombic'
loop_
_space_group_symop_operation_xyz
x,y,z
-x,-y,z
1/2-x,y,z
1/2+x,-y,z
1/2+x,1/2+y,1/2+z
1/2-x,1/2-y,1/2+z
-x,1/2+y,1/2+z
x,1/2-y,1/2+z
loop_
_atom_site_type_symbol
_atom_site_label
_atom_site_fract_x
_atom_site_fract_y
_atom_site_fract_z
Si Si1 0.075809 0.257372 0.343000
Si Si2 0.069941 0.103491 0.609452
Si Si3 0.430337 0.648836 0.807569
Si Si4 0.570694 0.555944 0.295407
Si Si5 0.569762 0.556432 0.921462
Si Si6 0.577007 0.175104 0.110773
Si Si7 0.921351 0.780370 0.635003
Si Si8 0.925085 0.358375 0.420443
O O1 0.250000 0.254099 0.375262
O O2 0.065483 0.276160 0.241259
O O3 0.997136 0.200437 0.357389
O O4 0.982850 0.299504 0.400235
O O5 0.250000 0.106614 0.616417
O O6 0.007456 0.073682 0.697954
O O7 0.015499 0.072300 0.521494
O O8 0.003817 0.163470 0.605982
O O9 0.250000 0.646965 0.818817
O O10 0.505033 0.597237 0.849754
O O11 0.483971 0.649378 0.703160
O O12 0.500000 0.500000 0.322346
O O13 0.750000 0.550999 0.294907
O O14 0.524848 0.598118 0.370706
O O15 0.500000 0.500000 0.897030
O O16 0.750000 0.554638 0.914680
O O17 0.750000 0.189766 0.126127
O O18 0.500118 0.231137 0.086772
O O19 0.554504 0.134325 0.028157
O O20 0.750000 0.778987 0.601592
O O21 0.750000 0.364268 0.391911
#
# Coordination Sequence:
#
# PCOD8192095 Si02
#       8
#     8   8   8   8   8   8   8   8
#     4  10  19  34  57  85 117 153 190 232 283 342
#     4   9  19  36  57  84 118 153 190 233 282 344
#     4  10  21  40  61  84 115 151 193 244 294 343
#     4  11  22  40  61  85 117 155 196 238 288 343
#     4  11  23  40  61  86 115 151 196 243 292 345
#     4   9  21  38  56  82 118 153 189 238 290 341
#     4   9  17  33  55  82 115 153 190 226 276 340
#     4  11  22  37  57  86 119 154 195 239 287 341
#
# _framework density 19.316911000000001
#
# number of rings (size 3 to 8) (size 9 to 14) (size 15 to 20)
#    0.000    2.000    1.250    2.250    1.750    2.000 
#    0.000    3.125    0.000    0.000    0.000    0.000 
#    0.000    0.000    0.000    0.000    0.000    0.000 
#
# Total GULP energy -396825.344790 kJ/mol
# GULP energy per Si atom -12400.792025 kJ/mol
# Density = 1.927294 g / cm^3
# Si number density = 19.316911 Si / 1000 Ang^3
#
#
#
# Elastic Constant Matrix: (Units=GPa)
#
#
# Indices 1 2 3 4 5 6 
#
# 1 74.7294 42.6451 31.0285 0.0000 0.0000 0.0000
# 2 42.6451 153.1142 60.6169 0.0000 0.0000 0.0000
# 3 31.0285 60.6169 83.4778 -0.0005 0.0001 0.0000
# 4 0.0000 0.0000 -0.0005 27.0158 0.0000 0.0000
# 5 0.0000 0.0000 0.0001 0.0000 24.4029 -0.0001
# 6 0.0000 0.0000 0.0000 0.0000 -0.0001 31.5536
#
#
#
# Elastic Compliance Matrix: (Units=1/GPa)
#
#
# Indices 1 2 3 4 5 6 
#
# 1 0.016810 -0.003099 -0.003998 0.000000 0.000000 0.000000
# 2 -0.003099 0.009737 -0.005919 0.000000 0.000000 0.000000
# 3 -0.003998 -0.005919 0.017763 0.000000 0.000000 0.000000
# 4 0.000000 0.000000 0.000000 0.037015 0.000000 0.000000
# 5 0.000000 0.000000 0.000000 0.000000 0.040979 0.000000
# 6 0.000000 0.000000 0.000000 0.000000 0.000000 0.031692
#
#
# Mechanical properties :
#
#
# Convention : Reuss Voigt Hill
#
# Bulk Modulus (GPa) = 54.70753 64.43362 59.57058
# Shear Modulus (GPa) = 26.86411 28.39650 27.63030
#
# Velocity S-wave (km/s) = 3.73326 3.83826 3.78612
# Velocity P-wave (km/s) = 6.85314 7.28502 7.07238
#
# Compressibility (1/GPa) = 0.01827902
#
# Stress axis : x y z
#
# Youngs Moduli (GPa) = 59.48779 102.69579 56.29635
#
# Poissons Ratio (x) = 0.31828 0.22506
# Poissons Ratio (y) = 0.18437 0.33321
# Poissons Ratio (z) = 0.23782 0.60784
#
# Static dielectric constant tensor:
#      x y z
#    x 3.475120 0.000000 0.000000 
#    y 0.000000 3.517120 0.000000 
#    z 0.000000 0.000000 3.657720 
# 
# 
# High freq. dielectric constant tensor:
#      x y z
#    x 1.746340 0.000000 0.000000 
#    y 0.000000 1.748060 0.000000 
#    z 0.000000 0.000000 1.755020 
# 
# From -- ./inp_files/14478.got.cif
#   From: 2010.03.12/outbox.cif.g09.slc.cpg/sg46_8_cif.got.tgz:14478.got - 2010.04.14 02:56:35.
