data_PCOD8192772
_publ_section_title
;
Structure prediction by ZEFSAII (Michael W. Deem and Ramdas Pophale) SiO2 
 PCOD8192772
Probable space group: I M A 2
;
_chemical_formula_sum "Si O2"
_cell_formula_units_Z 48
_cell_length_a 8.427578
_cell_length_b 18.587393
_cell_length_c 15.092942
_cell_angle_alpha 90.000000
_cell_angle_beta 90.000000
_cell_angle_gamma 90.000000
_cell_volume 2364.259623
_symmetry_space_group_name_H-M "I M A 2"
_symmetry_group_IT_number 46
_symmetry_cell_setting 'orthorhombic'
loop_
_space_group_symop_operation_xyz
x,y,z
-x,-y,z
1/2-x,y,z
1/2+x,-y,z
1/2+x,1/2+y,1/2+z
1/2-x,1/2-y,1/2+z
-x,1/2+y,1/2+z
x,1/2-y,1/2+z
loop_
_atom_site_type_symbol
_atom_site_label
_atom_site_fract_x
_atom_site_fract_y
_atom_site_fract_z
Si Si1 0.438923 0.922398 0.244450
Si Si2 0.437146 0.687466 0.599088
Si Si3 0.065361 0.076296 0.760037
Si Si4 0.435467 0.815347 0.900223
Si Si5 0.934613 0.659990 0.905095
Si Si6 0.063940 0.848263 0.592705
O O1 0.250000 0.920574 0.250437
O O2 0.508070 0.867362 0.170706
O O3 0.514347 0.902695 0.338516
O O4 0.500000 0.000000 0.215260
O O5 0.250000 0.683070 0.602033
O O6 0.493151 0.666598 0.499996
O O7 0.492165 0.768435 0.622865
O O8 0.250000 0.071131 0.740204
O O9 0.035399 0.135381 0.834841
O O10 0.976842 0.095711 0.669124
O O11 0.000000 0.000000 0.794135
O O12 0.250000 0.830776 0.885272
O O13 0.466787 0.731523 0.880809
O O14 0.750000 0.677374 0.896603
O O15 0.973256 0.630613 0.002999
O O16 0.250000 0.849194 0.572229
#
# Coordination Sequence:
#
# PCOD8192772 Si02
#       6
#     8   8   8   8   8   8
#     4  11  22  38  57  83 117 155 194 238 290 348
#     4   8  18  36  61  86 112 147 190 234 284 340
#     4  12  25  40  58  86 120 157 196 241 294 353
#     4  10  20  39  63  88 117 154 195 240 290 345
#     4  11  22  38  60  89 118 151 195 244 291 344
#     4  10  20  39  64  88 113 150 194 241 292 348
#
# _framework density 20.302337999999999
#
# number of rings (size 3 to 8) (size 9 to 14) (size 15 to 20)
#    0.000    1.667    0.000    6.500    0.000    2.667 
#    0.000   14.167    0.000    0.000    0.000    0.000 
#    0.000    0.000    0.000    0.000    0.000    0.000 
#
# Total GULP energy -297707.785047 kJ/mol
# GULP energy per Si atom -12404.491044 kJ/mol
# Density = 2.025613 g / cm^3
# Si number density = 20.302338 Si / 1000 Ang^3
#
#
#
# Elastic Constant Matrix: (Units=GPa)
#
#
# Indices 1 2 3 4 5 6 
#
# 1 76.9142 15.3757 22.6434 0.0000 0.0000 0.0000
# 2 15.3757 61.4431 29.2641 0.0000 0.0000 0.0000
# 3 22.6434 29.2641 82.6354 0.0000 0.0000 0.0000
# 4 0.0000 0.0000 0.0000 9.0941 0.0000 0.0000
# 5 0.0000 0.0000 0.0000 0.0000 28.2404 0.0000
# 6 0.0000 0.0000 0.0000 0.0000 0.0000 33.2410
#
#
#
# Elastic Compliance Matrix: (Units=1/GPa)
#
#
# Indices 1 2 3 4 5 6 
#
# 1 0.014358 -0.002068 -0.003202 0.000000 0.000000 0.000000
# 2 -0.002068 0.019875 -0.006472 0.000000 0.000000 0.000000
# 3 -0.003202 -0.006472 0.015271 0.000000 0.000000 0.000000
# 4 0.000000 0.000000 0.000000 0.109961 0.000000 0.000000
# 5 0.000000 0.000000 0.000000 0.000000 0.035410 0.000000
# 6 0.000000 0.000000 0.000000 0.000000 0.000000 0.030083
#
#
# Mechanical properties :
#
#
# Convention : Reuss Voigt Hill
#
# Bulk Modulus (GPa) = 38.43191 39.50656 38.96923
# Shear Modulus (GPa) = 19.44656 24.36239 21.90447
#
# Velocity S-wave (km/s) = 3.09827 3.46783 3.28825
# Velocity P-wave (km/s) = 5.63648 5.96119 5.80111
#
# Compressibility (1/GPa) = 0.02602005
#
# Stress axis : x y z
#
# Youngs Moduli (GPa) = 69.64995 50.31421 65.48522
#
# Poissons Ratio (x) = 0.10404 0.20968
# Poissons Ratio (y) = 0.14403 0.42381
# Poissons Ratio (z) = 0.22301 0.32563
#
# Static dielectric constant tensor:
#      x y z
#    x 3.547820 0.000000 0.000000 
#    y 0.000000 3.795460 0.000000 
#    z 0.000000 0.000000 3.875610 
# 
# 
# High freq. dielectric constant tensor:
#      x y z
#    x 1.789190 0.000000 0.000000 
#    y 0.000000 1.788270 0.000000 
#    z 0.000000 0.000000 1.802690 
# 
# From -- ./inp_files/13894.got.cif
#   From: 2010.03.12/outbox.cif.g09.slc.cpg/sg46_7_cif.got.tgz:13894.got - 2010.04.14 02:56:35.
