data_PCOD8192471
_publ_section_title
;
Structure prediction by ZEFSAII (Michael W. Deem and Ramdas Pophale) SiO2 
 PCOD8192471
Probable space group: I M A 2
;
_chemical_formula_sum "Si O2"
_cell_formula_units_Z 64
_cell_length_a 8.558202
_cell_length_b 20.119094
_cell_length_c 19.939753
_cell_angle_alpha 90.000000
_cell_angle_beta 90.000000
_cell_angle_gamma 90.000000
_cell_volume 3433.291885
_symmetry_space_group_name_H-M "I M A 2"
_symmetry_group_IT_number 46
_symmetry_cell_setting 'orthorhombic'
loop_
_space_group_symop_operation_xyz
x,y,z
-x,-y,z
1/2-x,y,z
1/2+x,-y,z
1/2+x,1/2+y,1/2+z
1/2-x,1/2-y,1/2+z
-x,1/2+y,1/2+z
x,1/2-y,1/2+z
loop_
_atom_site_type_symbol
_atom_site_label
_atom_site_fract_x
_atom_site_fract_y
_atom_site_fract_z
Si Si1 0.566268 0.321814 0.508790
Si Si2 0.434869 0.571153 0.763437
Si Si3 0.566658 0.818485 0.359328
Si Si4 0.564189 0.173839 0.501126
Si Si5 0.067347 0.070773 0.756192
Si Si6 0.566083 0.430130 0.609558
Si Si7 0.932671 0.325273 0.357021
Si Si8 0.934603 0.428750 0.113129
O O1 0.750000 0.321738 0.518496
O O2 0.504898 0.247239 0.522311
O O3 0.491427 0.372573 0.562537
O O4 0.522825 0.343736 0.433392
O O5 0.500000 0.500000 0.787159
O O6 0.250000 0.574097 0.775547
O O7 0.521907 0.627682 0.804289
O O8 0.480926 0.583832 0.686151
O O9 0.750000 0.804433 0.357845
O O10 0.515830 0.847032 0.431509
O O11 0.475842 0.750804 0.341895
O O12 0.750000 0.172257 0.490579
O O13 0.506514 0.123960 0.558452
O O14 0.250000 0.062351 0.746322
O O15 0.031940 0.126329 0.810739
O O16 0.994859 0.093683 0.685670
O O17 0.000000 0.000000 0.779982
O O18 0.500000 0.500000 0.584182
O O19 0.750000 0.432775 0.601079
O O20 0.750000 0.335408 0.342615
O O21 0.750000 0.432048 0.115412
O O22 0.000000 0.500000 0.091802
#
# Coordination Sequence:
#
# PCOD8192471 Si02
#       8
#     8   8   8   8   8   8   8   8
#     4   8  16  33  55  77 101 133 174 216 258 309
#     4  10  20  35  55  78 107 142 179 221 268 320
#     4  11  22  36  55  80 110 142 180 225 272 324
#     4   9  19  36  56  77 104 140 181 221 264 317
#     4  11  22  37  56  80 111 144 182 225 271 324
#     4   9  18  33  53  77 104 135 171 213 261 311
#     4  10  20  37  58  79 108 144 182 224 270 321
#     4  10  20  35  56  80 107 140 178 221 270 322
#
# _framework density 18.641000999999999
#
# number of rings (size 3 to 8) (size 9 to 14) (size 15 to 20)
#    0.000    2.250    0.000    4.875    0.000    3.500 
#    0.000    8.125    0.000    0.000    0.000    0.000 
#    0.000    0.000    0.000    0.000    0.000    0.000 
#
# Total GULP energy -396846.767476 kJ/mol
# GULP energy per Si atom -12401.461484 kJ/mol
# Density = 1.859857 g / cm^3
# Si number density = 18.641001 Si / 1000 Ang^3
#
#
#
# Elastic Constant Matrix: (Units=GPa)
#
#
# Indices 1 2 3 4 5 6 
#
# 1 49.5872 21.1724 25.1375 0.0000 0.0000 0.0000
# 2 21.1724 108.8754 81.7153 0.0000 0.0000 0.0000
# 3 25.1375 81.7153 110.3530 0.0000 0.0000 0.0000
# 4 0.0000 0.0000 0.0000 40.5798 0.0000 0.0000
# 5 0.0000 0.0000 0.0000 0.0000 24.0354 0.0000
# 6 0.0000 0.0000 0.0000 0.0000 0.0000 31.4829
#
#
#
# Elastic Compliance Matrix: (Units=1/GPa)
#
#
# Indices 1 2 3 4 5 6 
#
# 1 0.022870 -0.001210 -0.004314 0.000000 0.000000 0.000000
# 2 -0.001210 0.020740 -0.015082 0.000000 0.000000 0.000000
# 3 -0.004314 -0.015082 0.021213 0.000000 0.000000 0.000000
# 4 0.000000 0.000000 0.000000 0.024643 0.000000 0.000000
# 5 0.000000 0.000000 0.000000 0.000000 0.041605 0.000000
# 6 0.000000 0.000000 0.000000 0.000000 0.000000 0.031763
#
#
# Mechanical properties :
#
#
# Convention : Reuss Voigt Hill
#
# Bulk Modulus (GPa) = 42.35295 58.31844 50.33569
# Shear Modulus (GPa) = 23.59442 28.60566 26.10004
#
# Velocity S-wave (km/s) = 3.56157 3.92159 3.74591
# Velocity P-wave (km/s) = 6.29942 7.20126 6.76538
#
# Compressibility (1/GPa) = 0.02361111
#
# Stress axis : x y z
#
# Youngs Moduli (GPa) = 43.72579 48.21676 47.14198
#
# Poissons Ratio (x) = 0.05833 0.20336
# Poissons Ratio (y) = 0.05290 0.71099
# Poissons Ratio (z) = 0.18862 0.72720
#
# Static dielectric constant tensor:
#      x y z
#    x 3.341120 0.000000 0.000000 
#    y 0.000000 3.831350 0.000000 
#    z 0.000000 0.000000 3.552200 
# 
# 
# High freq. dielectric constant tensor:
#      x y z
#    x 1.719880 0.000000 0.000000 
#    y 0.000000 1.728820 0.000000 
#    z 0.000000 0.000000 1.725940 
# 
# From -- ./inp_files/18543.got.cif
#   From: 2010.03.12/outbox.cif.g09.slc.cpg/sg46_10_cif.got.tgz:18543.got - 2010.04.14 02:56:35.
