data_PCOD8192902
_publ_section_title
;
Structure prediction by ZEFSAII (Michael W. Deem and Ramdas Pophale) SiO2 
 PCOD8192902
Probable space group: I M A 2
;
_chemical_formula_sum "Si O2"
_cell_formula_units_Z 48
_cell_length_a 8.558298
_cell_length_b 30.627136
_cell_length_c 8.958262
_cell_angle_alpha 90.000000
_cell_angle_beta 90.000000
_cell_angle_gamma 90.000000
_cell_volume 2348.105207
_symmetry_space_group_name_H-M "I M A 2"
_symmetry_group_IT_number 46
_symmetry_cell_setting 'orthorhombic'
loop_
_space_group_symop_operation_xyz
x,y,z
-x,-y,z
1/2-x,y,z
1/2+x,-y,z
1/2+x,1/2+y,1/2+z
1/2-x,1/2-y,1/2+z
-x,1/2+y,1/2+z
x,1/2-y,1/2+z
loop_
_atom_site_type_symbol
_atom_site_label
_atom_site_fract_x
_atom_site_fract_y
_atom_site_fract_z
Si Si1 0.932085 0.045529 0.488490
Si Si2 0.431160 0.373502 0.152107
Si Si3 0.568241 0.629283 0.497286
Si Si4 0.064310 0.953416 0.149883
Si Si5 0.568134 0.786098 0.487337
Si Si6 0.069667 0.708571 0.668432
O O1 0.750000 0.039465 0.487160
O O2 0.990126 0.055681 0.320269
O O3 0.976300 0.084290 0.598643
O O4 0.000000 0.000000 0.549022
O O5 0.250000 0.382965 0.125138
O O6 0.469133 0.364108 0.323664
O O7 0.487248 0.331692 0.058371
O O8 0.750000 0.637724 0.531101
O O9 0.520087 0.580927 0.543666
O O10 0.463903 0.662942 0.588814
O O11 0.250000 0.950918 0.130453
O O12 0.000000 0.000000 0.097054
O O13 0.750000 0.777123 0.519953
O O14 0.465816 0.747641 0.555888
O O15 0.540132 0.787057 0.311542
O O16 0.250000 0.709759 0.717061
#
# Coordination Sequence:
#
# PCOD8192902 Si02
#       6
#     8   8   8   8   8   8
#     4  10  21  37  60  86 116 152 194 242 295 353
#     4  10  23  40  60  86 117 154 199 244 291 349
#     4  11  23  40  61  87 120 160 202 246 297 358
#     4  10  21  38  60  88 118 154 199 248 301 359
#     4  11  23  42  66  90 120 161 203 245 297 362
#     4  12  25  41  63  93 125 157 198 251 303 355
#
# _framework density 20.442015000000001
#
# number of rings (size 3 to 8) (size 9 to 14) (size 15 to 20)
#    0.000    1.333    0.000    5.500    0.000    9.333 
#    0.000    0.000    0.000    0.000    0.000    0.000 
#    0.000    0.000    0.000    0.000    0.000    0.000 
#
# Total GULP energy -297782.973983 kJ/mol
# GULP energy per Si atom -12407.623916 kJ/mol
# Density = 2.039549 g / cm^3
# Si number density = 20.442015 Si / 1000 Ang^3
#
#
#
# Elastic Constant Matrix: (Units=GPa)
#
#
# Indices 1 2 3 4 5 6 
#
# 1 58.9205 23.5501 20.0174 -0.0008 -0.0007 -0.0004
# 2 23.5501 124.8735 42.3699 0.0031 0.0008 0.0011
# 3 20.0174 42.3699 90.9754 0.0087 0.0012 0.0029
# 4 -0.0008 0.0031 0.0087 26.9677 0.0000 0.0012
# 5 -0.0007 0.0008 0.0012 0.0000 30.1189 0.0005
# 6 -0.0004 0.0011 0.0029 0.0012 0.0005 35.8384
#
#
#
# Elastic Compliance Matrix: (Units=1/GPa)
#
#
# Indices 1 2 3 4 5 6 
#
# 1 0.019015 -0.002573 -0.002985 0.000002 0.000001 0.000001
# 2 -0.002573 0.009859 -0.004026 0.000000 0.000000 0.000000
# 3 -0.002985 -0.004026 0.013524 -0.000004 0.000000 -0.000001
# 4 0.000002 0.000000 -0.000004 0.037081 0.000000 -0.000001
# 5 0.000001 0.000000 0.000000 0.000000 0.033202 0.000000
# 6 0.000001 0.000000 -0.000001 -0.000001 0.000000 0.027903
#
#
# Mechanical properties :
#
#
# Convention : Reuss Voigt Hill
#
# Bulk Modulus (GPa) = 43.04882 49.62714 46.33798
# Shear Modulus (GPa) = 29.85158 31.17379 30.51268
#
# Velocity S-wave (km/s) = 3.82554 3.90934 3.86767
# Velocity P-wave (km/s) = 6.37320 6.68633 6.53164
#
# Compressibility (1/GPa) = 0.02322944
#
# Stress axis : x y z
#
# Youngs Moduli (GPa) = 52.59086 101.42760 73.94422
#
# Poissons Ratio (x) = 0.26098 0.22076
# Poissons Ratio (y) = 0.13532 0.29767
# Poissons Ratio (z) = 0.15701 0.40831
#
# Static dielectric constant tensor:
#      x y z
#    x 3.669570 0.000010 0.000000 
#    y 0.000010 3.838670 0.000000 
#    z 0.000000 0.000000 3.732890 
# 
# 
# High freq. dielectric constant tensor:
#      x y z
#    x 1.804600 0.000000 0.000000 
#    y 0.000000 1.814210 0.000000 
#    z 0.000000 0.000000 1.802040 
# 
# From -- ./inp_files/3924.got.cif
#   From: 2010.03.12/outbox.cif.g09.slc.cpg/sg46_2_cif.got.tgz:3924.got - 2010.04.14 02:56:35.
