data_PCOD8192254
_publ_section_title
;
Structure prediction by ZEFSAII (Michael W. Deem and Ramdas Pophale) SiO2 
 PCOD8192254
Probable space group: I M A 2
;
_chemical_formula_sum "Si O2"
_cell_formula_units_Z 64
_cell_length_a 21.973413
_cell_length_b 16.171561
_cell_length_c 9.312822
_cell_angle_alpha 90.000000
_cell_angle_beta 90.000000
_cell_angle_gamma 90.000000
_cell_volume 3309.259041
_symmetry_space_group_name_H-M "I M A 2"
_symmetry_group_IT_number 46
_symmetry_cell_setting 'orthorhombic'
loop_
_space_group_symop_operation_xyz
x,y,z
-x,-y,z
1/2-x,y,z
1/2+x,-y,z
1/2+x,1/2+y,1/2+z
1/2-x,1/2-y,1/2+z
-x,1/2+y,1/2+z
x,1/2-y,1/2+z
loop_
_atom_site_type_symbol
_atom_site_label
_atom_site_fract_x
_atom_site_fract_y
_atom_site_fract_z
Si Si1 0.681320 0.797154 0.560400
Si Si2 0.481507 0.197295 0.138036
Si Si3 0.583954 0.016984 0.875327
Si Si4 0.318682 0.511756 0.856986
Si Si5 0.318543 0.466460 0.176812
Si Si6 0.510737 0.644694 0.323156
Si Si7 0.857303 0.835241 0.269087
Si Si8 0.060158 0.550407 0.697954
O O1 0.750000 0.818414 0.512518
O O2 0.654709 0.873732 0.653283
O O3 0.640812 0.783643 0.417938
O O4 0.680315 0.713995 0.650457
O O5 0.483699 0.292813 0.188852
O O6 0.425254 0.149442 0.212759
O O7 0.541715 0.146413 0.180790
O O8 0.474119 0.196902 0.966378
O O9 0.556673 0.105367 0.827528
O O10 0.651040 0.014846 0.809351
O O11 0.552521 0.936227 0.806120
O O12 0.579890 0.008553 0.047188
O O13 0.250000 0.546014 0.814524
O O14 0.321345 0.418775 0.799366
O O15 0.379068 0.556626 0.795414
O O16 0.325370 0.517012 0.028632
O O17 0.250000 0.458978 0.227959
O O18 0.000000 0.500000 0.756811
#
# Coordination Sequence:
#
# PCOD8192254 Si02
#       8
#     8   8   8   8   8   8   8   8
#     4  10  20  32  46  73 111 149 191 234 272 329
#     4  11  21  35  56  83 113 146 190 238 284 337
#     4  10  19  39  58  78 117 154 185 237 288 338
#     4  10  21  37  56  80 112 149 191 237 289 345
#     4   9  20  36  53  78 109 145 191 237 280 343
#     4  10  21  36  55  82 113 148 187 235 284 339
#     4  11  19  32  51  72 110 151 190 231 278 329
#     4  11  20  40  58  83 118 151 187 241 285 341
#
# _framework density 19.339676000000001
#
# number of rings (size 3 to 8) (size 9 to 14) (size 15 to 20)
#    0.000    1.750    3.750    3.375    0.000    3.500 
#    2.250    1.250    0.000    0.750    0.000    0.000 
#    0.000    0.000    0.000    0.000    0.000    0.000 
#
# Total GULP energy -396492.326046 kJ/mol
# GULP energy per Si atom -12390.385189 kJ/mol
# Density = 1.929566 g / cm^3
# Si number density = 19.339676 Si / 1000 Ang^3
#
#
#
# Elastic Constant Matrix: (Units=GPa)
#
#
# Indices 1 2 3 4 5 6 
#
# 1 100.8037 24.3002 38.8704 0.0000 0.0000 0.0000
# 2 24.3002 58.2003 27.0200 0.0000 0.0000 0.0000
# 3 38.8704 27.0200 66.7405 0.0000 0.0000 0.0000
# 4 0.0000 0.0000 0.0000 30.2316 0.0000 0.0000
# 5 0.0000 0.0000 0.0000 0.0000 36.0804 0.0000
# 6 0.0000 0.0000 0.0000 0.0000 0.0000 27.2251
#
#
#
# Elastic Compliance Matrix: (Units=1/GPa)
#
#
# Indices 1 2 3 4 5 6 
#
# 1 0.013053 -0.002365 -0.006644 0.000000 0.000000 0.000000
# 2 -0.002365 0.021588 -0.007362 0.000000 0.000000 0.000000
# 3 -0.006644 -0.007362 0.021834 0.000000 0.000000 0.000000
# 4 0.000000 0.000000 0.000000 0.033078 0.000000 0.000000
# 5 0.000000 0.000000 0.000000 0.000000 0.027716 0.000000
# 6 0.000000 0.000000 0.000000 0.000000 0.000000 0.036731
#
#
# Mechanical properties :
#
#
# Convention : Reuss Voigt Hill
#
# Bulk Modulus (GPa) = 42.14025 45.12510 43.63268
# Shear Modulus (GPa) = 25.68683 27.74434 26.71559
#
# Velocity S-wave (km/s) = 3.64839 3.79170 3.72073
# Velocity P-wave (km/s) = 6.29162 6.52325 6.40849
#
# Compressibility (1/GPa) = 0.02373028
#
# Stress axis : x y z
#
# Youngs Moduli (GPa) = 76.61343 46.32307 45.80045
#
# Poissons Ratio (x) = 0.10956 0.30432
# Poissons Ratio (y) = 0.18119 0.33720
# Poissons Ratio (z) = 0.50905 0.34104
#
# Static dielectric constant tensor:
#      x y z
#    x 3.643670 0.000000 0.000000 
#    y 0.000000 3.317280 0.000000 
#    z 0.000000 0.000000 3.511750 
# 
# 
# High freq. dielectric constant tensor:
#      x y z
#    x 1.751320 0.000000 0.000000 
#    y 0.000000 1.723390 0.000000 
#    z 0.000000 0.000000 1.749050 
# 
# From -- ./inp_files/7572.got.cif
#   From: 2010.03.12/outbox.cif.g09.slc.cpg/sg46_4_cif.got.tgz:7572.got - 2010.04.14 02:56:35.
