data_PCOD8192487
_publ_section_title
;
Structure prediction by ZEFSAII (Michael W. Deem and Ramdas Pophale) SiO2 
 PCOD8192487
Probable space group: I M A 2
;
_chemical_formula_sum "Si O2"
_cell_formula_units_Z 64
_cell_length_a 27.896377
_cell_length_b 8.943829
_cell_length_c 13.894066
_cell_angle_alpha 90.000000
_cell_angle_beta 90.000000
_cell_angle_gamma 90.000000
_cell_volume 3466.575380
_symmetry_space_group_name_H-M "I M A 2"
_symmetry_group_IT_number 46
_symmetry_cell_setting 'orthorhombic'
loop_
_space_group_symop_operation_xyz
x,y,z
-x,-y,z
1/2-x,y,z
1/2+x,-y,z
1/2+x,1/2+y,1/2+z
1/2-x,1/2-y,1/2+z
-x,1/2+y,1/2+z
x,1/2-y,1/2+z
loop_
_atom_site_type_symbol
_atom_site_label
_atom_site_fract_x
_atom_site_fract_y
_atom_site_fract_z
Si Si1 0.366929 0.914315 0.573180
Si Si2 0.379425 0.068506 0.773708
Si Si3 0.195112 0.087711 0.936145
Si Si4 0.872859 0.069292 0.074074
Si Si5 0.304632 0.433113 0.922292
Si Si6 0.549906 0.418549 0.410705
Si Si7 0.049645 0.571945 0.925460
Si Si8 0.114206 0.082520 0.275364
O O1 0.362738 0.740876 0.599195
O O2 0.415443 0.948861 0.515765
O O3 0.366104 0.011649 0.668753
O O4 0.321516 0.959600 0.508231
O O5 0.333182 0.040090 0.840336
O O6 0.393418 0.241156 0.769801
O O7 0.425069 0.978794 0.814009
O O8 0.250000 0.041739 0.920250
O O9 0.189338 0.263181 0.957512
O O10 0.175011 0.000472 0.028348
O O11 0.886324 0.982750 0.169611
O O12 0.917037 0.046627 0.002087
O O13 0.250000 0.471540 0.895896
O O14 0.335896 0.461642 0.826794
O O15 0.500000 0.500000 0.428242
O O16 0.541742 0.243314 0.397194
O O17 0.069647 0.485924 0.832812
O O18 0.000000 0.500000 0.958018
#
# Coordination Sequence:
#
# PCOD8192487 Si02
#       8
#     8   8   8   8   8   8   8   8
#     4  10  21  36  54  79 110 141 176 219 266 317
#     4  10  20  35  56  80 108 142 178 218 265 316
#     4   9  19  36  56  78 105 139 180 222 264 314
#     4  10  21  36  54  79 110 141 176 219 266 317
#     4   9  19  36  56  78 105 139 180 222 264 314
#     4  10  21  37  56  78 106 139 177 221 266 315
#     4  10  21  37  56  78 106 139 177 221 266 315
#     4  10  20  35  56  80 108 142 178 218 265 316
#
# _framework density 18.462024
#
# number of rings (size 3 to 8) (size 9 to 14) (size 15 to 20)
#    0.000    2.250    0.000    2.250    0.000    6.500 
#    0.000    5.000    0.000    0.000    0.000    0.000 
#    0.000    0.000    0.000    0.000    0.000    0.000 
#
# Total GULP energy -396955.107984 kJ/mol
# GULP energy per Si atom -12404.847125 kJ/mol
# Density = 1.842000 g / cm^3
# Si number density = 18.462024 Si / 1000 Ang^3
#
#
#
# Elastic Constant Matrix: (Units=GPa)
#
#
# Indices 1 2 3 4 5 6 
#
# 1 83.6974 10.1194 -10.5502 0.0000 0.0000 0.0000
# 2 10.1194 53.1269 1.1702 0.0000 0.0000 0.0000
# 3 -10.5502 1.1702 51.4990 0.0000 0.0000 0.0000
# 4 0.0000 0.0000 0.0000 34.4905 0.0000 0.0000
# 5 0.0000 0.0000 0.0000 0.0000 13.0507 0.0000
# 6 0.0000 0.0000 0.0000 0.0000 0.0000 30.0118
#
#
#
# Elastic Compliance Matrix: (Units=1/GPa)
#
#
# Indices 1 2 3 4 5 6 
#
# 1 0.012576 -0.002453 0.002632 0.000000 0.000000 0.000000
# 2 -0.002453 0.019311 -0.000941 0.000000 0.000000 0.000000
# 3 0.002632 -0.000941 0.019978 0.000000 0.000000 0.000000
# 4 0.000000 0.000000 0.000000 0.028994 0.000000 0.000000
# 5 0.000000 0.000000 0.000000 0.000000 0.076624 0.000000
# 6 0.000000 0.000000 0.000000 0.000000 0.000000 0.033320
#
#
# Mechanical properties :
#
#
# Convention : Reuss Voigt Hill
#
# Bulk Modulus (GPa) = 19.86486 21.08913 20.47700
# Shear Modulus (GPa) = 23.91093 28.01618 25.96356
#
# Velocity S-wave (km/s) = 3.60271 3.89974 3.75416
# Velocity P-wave (km/s) = 5.29993 5.63250 5.46874
#
# Compressibility (1/GPa) = 0.05034014
#
# Stress axis : x y z
#
# Youngs Moduli (GPa) = 79.51510 51.78413 50.05391
#
# Poissons Ratio (x) = 0.12705 -0.13175
# Poissons Ratio (y) = 0.19509 0.04712
# Poissons Ratio (z) = -0.20930 0.04875
#
# Static dielectric constant tensor:
#      x y z
#    x 3.448700 0.000000 0.000000 
#    y 0.000000 3.556800 0.000000 
#    z 0.000000 0.000000 3.315470 
# 
# 
# High freq. dielectric constant tensor:
#      x y z
#    x 1.717270 0.000000 0.000000 
#    y 0.000000 1.729210 0.000000 
#    z 0.000000 0.000000 1.714590 
# 
# From -- ./inp_files/13221.got.cif
#   From: 2010.03.12/outbox.cif.g09.slc.cpg/sg46_7_cif.got.tgz:13221.got - 2010.04.14 02:56:35.
