data_PCOD8192153
_publ_section_title
;
Structure prediction by ZEFSAII (Michael W. Deem and Ramdas Pophale) SiO2 
 PCOD8192153
Probable space group: I M A 2
;
_chemical_formula_sum "Si O2"
_cell_formula_units_Z 64
_cell_length_a 8.872283
_cell_length_b 17.954067
_cell_length_c 20.551598
_cell_angle_alpha 90.000000
_cell_angle_beta 90.000000
_cell_angle_gamma 90.000000
_cell_volume 3273.737279
_symmetry_space_group_name_H-M "I M A 2"
_symmetry_group_IT_number 46
_symmetry_cell_setting 'orthorhombic'
loop_
_space_group_symop_operation_xyz
x,y,z
-x,-y,z
1/2-x,y,z
1/2+x,-y,z
1/2+x,1/2+y,1/2+z
1/2-x,1/2-y,1/2+z
-x,1/2+y,1/2+z
x,1/2-y,1/2+z
loop_
_atom_site_type_symbol
_atom_site_label
_atom_site_fract_x
_atom_site_fract_y
_atom_site_fract_z
Si Si1 0.927106 0.641231 0.012720
Si Si2 0.429126 0.922156 0.639439
Si Si3 0.926270 0.686782 0.505906
Si Si4 0.579948 0.141010 0.381593
Si Si5 0.573848 0.818564 0.745201
Si Si6 0.074186 0.355048 0.752011
Si Si7 0.427849 0.077076 0.118034
Si Si8 0.079859 0.682054 0.375895
O O1 0.750000 0.627007 0.020836
O O2 0.969606 0.727946 0.020175
O O3 0.016126 0.595346 0.066734
O O4 0.980757 0.611981 0.942099
O O5 0.250000 0.927493 0.640806
O O6 0.483829 0.857961 0.687751
O O7 0.500000 0.000000 0.662716
O O8 0.750000 0.679567 0.492220
O O9 0.980812 0.640256 0.567912
O O10 0.009736 0.652541 0.443117
O O11 0.750000 0.111867 0.389887
O O12 0.512159 0.110670 0.314022
O O13 0.572803 0.229454 0.378014
O O14 0.750000 0.836009 0.737756
O O15 0.538286 0.731325 0.739272
O O16 0.516422 0.848525 0.815046
O O17 0.250000 0.366000 0.764827
O O18 0.015640 0.400299 0.689622
O O19 0.250000 0.069282 0.116891
O O20 0.500000 0.000000 0.096164
O O21 0.250000 0.652583 0.368907
#
# Coordination Sequence:
#
# PCOD8192153 Si02
#       8
#     8   8   8   8   8   8   8   8
#     4  10  19  35  59  83 107 139 178 219 266 320
#     4  12  25  40  56  78 110 144 179 220 266 318
#     4   9  18  34  56  80 107 141 180 221 267 321
#     4   9  17  30  51  82 113 137 170 220 271 317
#     4  10  19  35  59  83 107 139 178 219 266 320
#     4   9  18  34  56  80 107 141 180 221 267 321
#     4  10  21  36  52  74 106 142 181 222 264 312
#     4   9  17  30  51  82 113 137 170 220 271 317
#
# _framework density 19.549523000000001
#
# number of rings (size 3 to 8) (size 9 to 14) (size 15 to 20)
#    0.000    2.250    0.000    3.375    0.000    7.000 
#    0.000    2.500    0.000    3.000    0.000    0.000 
#    0.000    0.000    0.000    0.000    0.000    0.000 
#
# Total GULP energy -396877.770122 kJ/mol
# GULP energy per Si atom -12402.430316 kJ/mol
# Density = 1.950503 g / cm^3
# Si number density = 19.549523 Si / 1000 Ang^3
#
#
#
# Elastic Constant Matrix: (Units=GPa)
#
#
# Indices 1 2 3 4 5 6 
#
# 1 96.2068 18.7246 34.7916 0.0000 0.0000 0.0000
# 2 18.7246 31.7584 7.6089 0.0000 0.0000 0.0000
# 3 34.7916 7.6089 102.9198 0.0000 0.0000 0.0000
# 4 0.0000 0.0000 0.0000 -4.5379 0.0000 0.0000
# 5 0.0000 0.0000 0.0000 0.0000 39.3509 0.0000
# 6 0.0000 0.0000 0.0000 0.0000 0.0000 24.3002
#
#
#
# Elastic Compliance Matrix: (Units=1/GPa)
#
#
# Indices 1 2 3 4 5 6 
#
# 1 0.013144 -0.006805 -0.003940 0.000000 0.000000 0.000000
# 2 -0.006805 0.035579 -0.000330 0.000000 0.000000 0.000000
# 3 -0.003940 -0.000330 0.011073 0.000000 0.000000 0.000000
# 4 0.000000 0.000000 0.000000 -0.220364 0.000000 0.000000
# 5 0.000000 0.000000 0.000000 0.000000 0.025412 0.000000
# 6 0.000000 0.000000 0.000000 0.000000 0.000000 0.041152
#
#
# Mechanical properties :
#
#
# Convention : Reuss Voigt Hill
#
# Bulk Modulus (GPa) = 26.56410 39.23725 32.90067
# Shear Modulus (GPa) = -84.30909 23.13996 -30.58457
#
# Velocity S-wave (km/s) = -6.57416 3.44417 -3.95962
# Velocity P-wave (km/s) = 6.63389 5.99422 2.00970
#
# Compressibility (1/GPa) = 0.03764480
#
# Stress axis : x y z
#
# Youngs Moduli (GPa) = 76.08230 28.10633 90.31311
#
# Poissons Ratio (x) = 0.19128 0.35584
# Poissons Ratio (y) = 0.51778 0.02979
# Poissons Ratio (z) = 0.29977 0.00927
#
# Static dielectric constant tensor:
#      x y z
#    x 3.578990 0.000000 0.000000 
#    y 0.000000 3.268580 0.000000 
#    z 0.000000 0.000000 3.831320 
# 
# 
# High freq. dielectric constant tensor:
#      x y z
#    x 1.764770 0.000000 0.000000 
#    y 0.000000 1.727360 0.000000 
#    z 0.000000 0.000000 1.778410 
# 
# From -- ./inp_files/21329.got.cif
#   From: 2010.03.12/outbox.cif.g09.slc.cpg/sg46_11_cif.got.tgz:21329.got - 2010.04.14 02:56:35.
