data_PCOD8192152
_publ_section_title
;
Structure prediction by ZEFSAII (Michael W. Deem and Ramdas Pophale) SiO2 
 PCOD8192152
Probable space group: I M A 2
;
_chemical_formula_sum "Si O2"
_cell_formula_units_Z 64
_cell_length_a 8.782983
_cell_length_b 24.657825
_cell_length_c 14.836646
_cell_angle_alpha 90.000000
_cell_angle_beta 90.000000
_cell_angle_gamma 90.000000
_cell_volume 3213.161412
_symmetry_space_group_name_H-M "I M A 2"
_symmetry_group_IT_number 46
_symmetry_cell_setting 'orthorhombic'
loop_
_space_group_symop_operation_xyz
x,y,z
-x,-y,z
1/2-x,y,z
1/2+x,-y,z
1/2+x,1/2+y,1/2+z
1/2-x,1/2-y,1/2+z
-x,1/2+y,1/2+z
x,1/2-y,1/2+z
loop_
_atom_site_type_symbol
_atom_site_label
_atom_site_fract_x
_atom_site_fract_y
_atom_site_fract_z
Si Si1 0.927572 0.890785 0.448580
Si Si2 0.570413 0.131934 0.787772
Si Si3 0.573796 0.280859 0.978097
Si Si4 0.429596 0.556528 0.780870
Si Si5 0.425228 0.760849 0.684192
Si Si6 0.071540 0.331448 0.458537
Si Si7 0.927212 0.649652 0.664025
Si Si8 0.571390 0.941813 0.638729
O O1 0.750000 0.894627 0.427156
O O2 0.966767 0.906702 0.550630
O O3 0.984187 0.829804 0.431037
O O4 0.013700 0.931198 0.381679
O O5 0.750000 0.124097 0.794101
O O6 0.525224 0.191160 0.750453
O O7 0.494491 0.125686 0.886400
O O8 0.504025 0.085231 0.725313
O O9 0.750000 0.286226 0.952389
O O10 0.511462 0.225140 0.938000
O O11 0.545068 0.283154 0.084440
O O12 0.500000 0.500000 0.747283
O O13 0.250000 0.551260 0.781516
O O14 0.477905 0.603117 0.711851
O O15 0.250000 0.744130 0.697304
O O16 0.527028 0.708201 0.704202
O O17 0.250000 0.323287 0.446094
O O18 0.032526 0.352919 0.558122
O O19 0.750000 0.640207 0.682670
O O20 0.750000 0.946970 0.655144
O O21 0.500000 0.000000 0.623406
#
# Coordination Sequence:
#
# PCOD8192152 Si02
#       8
#     8   8   8   8   8   8   8   8
#     4  11  23  39  61  91 125 163 204 248 303 364
#     4  11  22  38  61  90 125 164 208 253 304 363
#     4  10  19  35  58  87 124 163 203 246 299 361
#     4  12  26  44  66  90 121 158 205 257 308 366
#     4   9  19  35  57  87 122 161 201 245 298 359
#     4  10  22  39  60  89 126 163 203 254 308 365
#     4  10  22  41  64  89 121 160 204 255 309 363
#     4  11  24  41  63  89 123 164 207 254 306 363
#
# _framework density 19.918077
#
# number of rings (size 3 to 8) (size 9 to 14) (size 15 to 20)
#    0.000    1.500    1.250    3.750    1.750    5.500 
#    0.000    0.625    0.000    3.000    0.000    0.000 
#    0.000    0.000    0.000    0.000    0.000    0.000 
#
# Total GULP energy -396986.860920 kJ/mol
# GULP energy per Si atom -12405.839404 kJ/mol
# Density = 1.987274 g / cm^3
# Si number density = 19.918077 Si / 1000 Ang^3
#
#
#
# Elastic Constant Matrix: (Units=GPa)
#
#
# Indices 1 2 3 4 5 6 
#
# 1 108.2527 47.4686 27.7067 0.0001 0.0000 0.0000
# 2 47.4686 78.9949 13.4861 0.0001 0.0000 0.0000
# 3 27.7067 13.4861 49.4473 0.0006 -0.0002 0.0000
# 4 0.0001 0.0001 0.0006 27.3956 0.0000 0.0000
# 5 0.0000 0.0000 -0.0002 0.0000 33.4146 0.0001
# 6 0.0000 0.0000 0.0000 0.0000 0.0001 37.8632
#
#
#
# Elastic Compliance Matrix: (Units=1/GPa)
#
#
# Indices 1 2 3 4 5 6 
#
# 1 0.013971 -0.007403 -0.005809 0.000000 0.000000 0.000000
# 2 -0.007403 0.017200 -0.000543 0.000000 0.000000 0.000000
# 3 -0.005809 -0.000543 0.023627 -0.000001 0.000000 0.000000
# 4 0.000000 0.000000 -0.000001 0.036502 0.000000 0.000000
# 5 0.000000 0.000000 0.000000 0.000000 0.029927 0.000000
# 6 0.000000 0.000000 0.000000 0.000000 0.000000 0.026411
#
#
# Mechanical properties :
#
#
# Convention : Reuss Voigt Hill
#
# Bulk Modulus (GPa) = 36.64720 46.00198 41.32459
# Shear Modulus (GPa) = 27.13786 29.60360 28.37073
#
# Velocity S-wave (km/s) = 3.69518 3.85940 3.77818
# Velocity P-wave (km/s) = 6.05348 6.55787 6.31072
#
# Compressibility (1/GPa) = 0.02728721
#
# Stress axis : x y z
#
# Youngs Moduli (GPa) = 71.57771 58.13786 42.32516
#
# Poissons Ratio (x) = 0.43042 0.24587
# Poissons Ratio (y) = 0.52992 0.02298
# Poissons Ratio (z) = 0.41580 0.03156
#
# Static dielectric constant tensor:
#      x y z
#    x 3.674520 0.000000 0.000000 
#    y 0.000000 3.543110 0.000000 
#    z 0.000000 0.000000 3.721000 
# 
# 
# High freq. dielectric constant tensor:
#      x y z
#    x 1.789450 0.000000 0.000000 
#    y 0.000000 1.769080 0.000000 
#    z 0.000000 0.000000 1.782180 
# 
# From -- ./inp_files/14473.got.cif
#   From: 2010.03.12/outbox.cif.g09.slc.cpg/sg46_8_cif.got.tgz:14473.got - 2010.04.14 02:56:35.
