data_PCOD8192926
_publ_section_title
;
Structure prediction by ZEFSAII (Michael W. Deem and Ramdas Pophale) SiO2 
 PCOD8192926
Probable space group: I M A 2
;
_chemical_formula_sum "Si O2"
_cell_formula_units_Z 56
_cell_length_a 9.139555
_cell_length_b 13.893559
_cell_length_c 22.680738
_cell_angle_alpha 90.000000
_cell_angle_beta 90.000000
_cell_angle_gamma 90.000000
_cell_volume 2880.021581
_symmetry_space_group_name_H-M "I M A 2"
_symmetry_group_IT_number 46
_symmetry_cell_setting 'orthorhombic'
loop_
_space_group_symop_operation_xyz
x,y,z
-x,-y,z
1/2-x,y,z
1/2+x,-y,z
1/2+x,1/2+y,1/2+z
1/2-x,1/2-y,1/2+z
-x,1/2+y,1/2+z
x,1/2-y,1/2+z
loop_
_atom_site_type_symbol
_atom_site_label
_atom_site_fract_x
_atom_site_fract_y
_atom_site_fract_z
Si Si1 0.076043 0.303450 0.502860
Si Si2 0.416971 0.656849 0.613643
Si Si3 0.086776 0.409938 0.038440
Si Si4 0.080041 0.803555 0.768914
Si Si5 0.584507 0.090791 0.238770
Si Si6 0.583271 0.663029 0.161246
Si Si7 0.421473 0.601766 0.393984
O O1 0.250000 0.316347 0.498419
O O2 0.028188 0.193110 0.515582
O O3 0.017264 0.370091 0.557006
O O4 0.997212 0.334760 0.443744
O O5 0.250000 0.667877 0.592029
O O6 0.428641 0.581660 0.667426
O O7 0.472797 0.755560 0.640717
O O8 0.250000 0.422044 0.015061
O O9 0.080535 0.417257 0.110016
O O10 0.000000 0.500000 0.011202
O O11 0.250000 0.811085 0.750678
O O12 0.023983 0.692700 0.763641
O O13 0.052316 0.840693 0.834115
O O14 0.982970 0.870526 0.724398
O O15 0.750000 0.080586 0.259878
O O16 0.500000 0.000000 0.266809
O O17 0.750000 0.700869 0.168952
O O18 0.500000 0.500000 0.389893
O O19 0.250000 0.587105 0.407603
#
# Coordination Sequence:
#
# PCOD8192926 Si02
#       7
#     8   8   8   8   8   8   8
#     4  10  21  38  57  81 112 143 184 233 277 326
#     4   9  17  31  51  76 108 145 181 217 265 320
#     4   9  19  33  52  81 114 146 180 220 266 324
#     4   9  20  38  56  77 108 144 182 224 272 328
#     4   9  18  32  52  80 111 142 177 215 260 319
#     4   9  17  30  50  78 109 141 179 222 267 313
#     4  11  24  42  62  81 104 139 183 231 282 334
#
# _framework density 19.444299000000001
#
# number of rings (size 3 to 8) (size 9 to 14) (size 15 to 20)
#    0.000    2.571    0.000    3.429    0.000    8.571 
#    0.000    5.000    0.000    3.429    0.000    0.000 
#    0.000    0.000    0.000    0.000    0.000    0.000 
#
# Total GULP energy -346969.295434 kJ/mol
# GULP energy per Si atom -12391.760551 kJ/mol
# Density = 1.940004 g / cm^3
# Si number density = 19.444299 Si / 1000 Ang^3
#
#
#
# Elastic Constant Matrix: (Units=GPa)
#
#
# Indices 1 2 3 4 5 6 
#
# 1 104.8570 50.6723 54.2772 0.0000 0.0000 0.0000
# 2 50.6723 90.8727 40.4067 0.0000 0.0000 0.0000
# 3 54.2772 40.4067 108.3092 0.0000 0.0000 0.0000
# 4 0.0000 0.0000 0.0000 17.2894 0.0000 0.0000
# 5 0.0000 0.0000 0.0000 0.0000 29.0565 0.0000
# 6 0.0000 0.0000 0.0000 0.0000 0.0000 28.8441
#
#
#
# Elastic Compliance Matrix: (Units=1/GPa)
#
#
# Indices 1 2 3 4 5 6 
#
# 1 0.015280 -0.006133 -0.005369 0.000000 0.000000 0.000000
# 2 -0.006133 0.015654 -0.002767 0.000000 0.000000 0.000000
# 3 -0.005369 -0.002767 0.012956 0.000000 0.000000 0.000000
# 4 0.000000 0.000000 0.000000 0.057839 0.000000 0.000000
# 5 0.000000 0.000000 0.000000 0.000000 0.034416 0.000000
# 6 0.000000 0.000000 0.000000 0.000000 0.000000 0.034669
#
#
# Mechanical properties :
#
#
# Convention : Reuss Voigt Hill
#
# Bulk Modulus (GPa) = 65.13723 66.08348 65.61035
# Shear Modulus (GPa) = 24.45359 25.61684 25.03521
#
# Velocity S-wave (km/s) = 3.55014 3.63360 3.59212
# Velocity P-wave (km/s) = 7.09766 7.18776 7.14285
#
# Compressibility (1/GPa) = 0.01535220
#
# Stress axis : x y z
#
# Youngs Moduli (GPa) = 65.44598 63.87949 77.18596
#
# Poissons Ratio (x) = 0.39176 0.41443
# Poissons Ratio (y) = 0.40137 0.21356
# Poissons Ratio (z) = 0.35139 0.17674
#
# Static dielectric constant tensor:
#      x y z
#    x 3.665840 0.000000 0.000000 
#    y 0.000000 3.363540 0.000000 
#    z 0.000000 0.000000 3.686850 
# 
# 
# High freq. dielectric constant tensor:
#      x y z
#    x 1.765410 0.000000 0.000000 
#    y 0.000000 1.738680 0.000000 
#    z 0.000000 0.000000 1.743030 
# 
# From -- ./inp_files/21121.got.cif
#   From: 2010.03.12/outbox.cif.g09.slc.cpg/sg46_11_cif.got.tgz:21121.got - 2010.04.14 02:56:35.
