data_PCOD8192081
_publ_section_title
;
Structure prediction by ZEFSAII (Michael W. Deem and Ramdas Pophale) SiO2 
 PCOD8192081
Probable space group: I M A 2
;
_chemical_formula_sum "Si O2"
_cell_formula_units_Z 48
_cell_length_a 8.613303
_cell_length_b 13.784164
_cell_length_c 18.999330
_cell_angle_alpha 90.000000
_cell_angle_beta 90.000000
_cell_angle_gamma 90.000000
_cell_volume 2255.736894
_symmetry_space_group_name_H-M "I M A 2"
_symmetry_group_IT_number 46
_symmetry_cell_setting 'orthorhombic'
loop_
_space_group_symop_operation_xyz
x,y,z
-x,-y,z
1/2-x,y,z
1/2+x,-y,z
1/2+x,1/2+y,1/2+z
1/2-x,1/2-y,1/2+z
-x,1/2+y,1/2+z
x,1/2-y,1/2+z
loop_
_atom_site_type_symbol
_atom_site_label
_atom_site_fract_x
_atom_site_fract_y
_atom_site_fract_z
Si Si1 0.430380 0.102110 0.959570
Si Si2 0.929569 0.310923 0.592761
Si Si3 0.568861 0.407261 0.099857
Si Si4 0.066451 0.606630 0.741162
Si Si5 0.430977 0.096217 0.749097
Si Si6 0.571257 0.259229 0.347442
O O1 0.250000 0.089934 0.953077
O O2 0.477791 0.195328 0.912361
O O3 0.500000 0.000000 0.932827
O O4 0.476526 0.120667 0.040077
O O5 0.750000 0.339289 0.586414
O O6 0.954281 0.199174 0.566640
O O7 0.990351 0.331302 0.672408
O O8 0.500000 0.500000 0.054173
O O9 0.750000 0.422956 0.118777
O O10 0.454704 0.409028 0.166303
O O11 0.250000 0.602454 0.738899
O O12 0.016219 0.653843 0.817019
O O13 0.000000 0.500000 0.736516
O O14 0.250000 0.111338 0.768765
O O15 0.542493 0.179280 0.777445
O O16 0.500000 0.000000 0.785671
O O17 0.750000 0.257738 0.370171
#
# Coordination Sequence:
#
# PCOD8192081 Si02
#       6
#     8   8   8   8   8   8
#     4  12  26  43  64  94 126 164 208 255 311 377
#     4  10  21  41  64  91 127 168 208 255 309 368
#     4  10  19  34  56  86 123 158 202 249 303 360
#     4  10  22  40  64  92 123 159 206 255 310 368
#     4  11  20  31  52  83 118 154 194 242 297 355
#     4  11  22  41  62  86 121 161 202 254 310 366
#
# _framework density 21.279077000000001
#
# number of rings (size 3 to 8) (size 9 to 14) (size 15 to 20)
#    0.000    1.333    1.667    6.000    0.000    4.667 
#    0.000    0.833    0.000    0.000    0.000    0.000 
#    0.000    0.000    0.000    0.000    0.000    0.000 
#
# Total GULP energy -297313.800179 kJ/mol
# GULP energy per Si atom -12388.075007 kJ/mol
# Density = 2.123065 g / cm^3
# Si number density = 21.279077 Si / 1000 Ang^3
#
#
#
# Elastic Constant Matrix: (Units=GPa)
#
#
# Indices 1 2 3 4 5 6 
#
# 1 85.9008 37.2055 34.3368 0.0000 0.0000 0.0000
# 2 37.2055 122.9676 33.0200 0.0000 0.0000 0.0000
# 3 34.3368 33.0200 85.7955 0.0000 0.0000 0.0000
# 4 0.0000 0.0000 0.0000 23.8126 0.0000 0.0000
# 5 0.0000 0.0000 0.0000 0.0000 28.5881 0.0000
# 6 0.0000 0.0000 0.0000 0.0000 0.0000 37.3720
#
#
#
# Elastic Compliance Matrix: (Units=1/GPa)
#
#
# Indices 1 2 3 4 5 6 
#
# 1 0.014939 -0.003250 -0.004728 0.000000 0.000000 0.000000
# 2 -0.003250 0.009777 -0.002462 0.000000 0.000000 0.000000
# 3 -0.004728 -0.002462 0.014495 0.000000 0.000000 0.000000
# 4 0.000000 0.000000 0.000000 0.041994 0.000000 0.000000
# 5 0.000000 0.000000 0.000000 0.000000 0.034980 0.000000
# 6 0.000000 0.000000 0.000000 0.000000 0.000000 0.026758
#
#
# Mechanical properties :
#
#
# Convention : Reuss Voigt Hill
#
# Bulk Modulus (GPa) = 54.55326 55.97649 55.26487
# Shear Modulus (GPa) = 29.42323 30.62799 30.02561
#
# Velocity S-wave (km/s) = 3.72254 3.79799 3.76046
# Velocity P-wave (km/s) = 6.64599 6.75248 6.69944
#
# Compressibility (1/GPa) = 0.01833071
#
# Stress axis : x y z
#
# Youngs Moduli (GPa) = 66.93884 102.28324 68.98787
#
# Poissons Ratio (x) = 0.33247 0.32616
# Poissons Ratio (y) = 0.21758 0.16984
# Poissons Ratio (z) = 0.31648 0.25181
#
# Static dielectric constant tensor:
#      x y z
#    x 3.743410 0.000000 0.000000 
#    y 0.000000 4.337850 0.000000 
#    z 0.000000 0.000000 3.620760 
# 
# 
# High freq. dielectric constant tensor:
#      x y z
#    x 1.830170 0.000000 0.000000 
#    y 0.000000 1.848850 0.000000 
#    z 0.000000 0.000000 1.806230 
# 
# From -- ./inp_files/18173.got.cif
#   From: 2010.03.12/outbox.cif.g09.slc.cpg/sg46_10_cif.got.tgz:18173.got - 2010.04.14 02:56:35.
