data_PCOD8192512
_publ_section_title
;
Structure prediction by ZEFSAII (Michael W. Deem and Ramdas Pophale) SiO2 
 PCOD8192512
Probable space group: I M A 2
;
_chemical_formula_sum "Si O2"
_cell_formula_units_Z 48
_cell_length_a 8.876546
_cell_length_b 23.238891
_cell_length_c 11.660792
_cell_angle_alpha 90.000000
_cell_angle_beta 90.000000
_cell_angle_gamma 90.000000
_cell_volume 2405.400825
_symmetry_space_group_name_H-M "I M A 2"
_symmetry_group_IT_number 46
_symmetry_cell_setting 'orthorhombic'
loop_
_space_group_symop_operation_xyz
x,y,z
-x,-y,z
1/2-x,y,z
1/2+x,-y,z
1/2+x,1/2+y,1/2+z
1/2-x,1/2-y,1/2+z
-x,1/2+y,1/2+z
x,1/2-y,1/2+z
loop_
_atom_site_type_symbol
_atom_site_label
_atom_site_fract_x
_atom_site_fract_y
_atom_site_fract_z
Si Si1 0.072200 0.773744 0.114240
Si Si2 0.574564 0.656122 0.161458
Si Si3 0.582975 0.343876 0.396146
Si Si4 0.072251 0.129771 0.253251
Si Si5 0.926483 0.937009 0.479350
Si Si6 0.417524 0.556198 0.563879
O O1 0.250000 0.779685 0.127790
O O2 0.020437 0.708293 0.109285
O O3 0.001334 0.808233 0.222718
O O4 0.020666 0.800345 0.992754
O O5 0.750000 0.669716 0.145255
O O6 0.536348 0.651430 0.294822
O O7 0.531168 0.596880 0.096367
O O8 0.750000 0.324616 0.351634
O O9 0.596130 0.406184 0.450829
O O10 0.250000 0.138214 0.249570
O O11 0.018809 0.104669 0.375914
O O12 0.020749 0.083619 0.160779
O O13 0.750000 0.947814 0.468779
O O14 0.000000 0.000000 0.476861
O O15 0.500000 0.500000 0.520427
O O16 0.250000 0.544426 0.613983
#
# Coordination Sequence:
#
# PCOD8192512 Si02
#       6
#     8   8   8   8   8   8
#     4  10  22  40  62  90 120 153 199 249 306 365
#     4  11  24  40  60  87 120 158 200 248 302 362
#     4   9  21  40  58  83 116 151 196 244 295 357
#     4  10  20  37  61  90 121 155 198 249 302 358
#     4  10  24  42  60  88 123 162 206 248 300 359
#     4  10  20  35  57  86 118 153 195 244 297 352
#
# _framework density 19.955095
#
# number of rings (size 3 to 8) (size 9 to 14) (size 15 to 20)
#    0.000    2.000    0.000    3.500    2.333    8.667 
#    0.000    3.333    0.000    0.000    0.000    0.000 
#    0.000    0.000    0.000    0.000    0.000    0.000 
#
# Total GULP energy -297564.935310 kJ/mol
# GULP energy per Si atom -12398.538971 kJ/mol
# Density = 1.990968 g / cm^3
# Si number density = 19.955095 Si / 1000 Ang^3
#
#
#
# Elastic Constant Matrix: (Units=GPa)
#
#
# Indices 1 2 3 4 5 6 
#
# 1 70.0720 38.1152 39.4998 0.0000 -0.0001 0.0000
# 2 38.1152 107.3862 43.7252 -0.0002 0.0002 0.0000
# 3 39.4998 43.7252 113.8065 -0.0007 -0.0002 0.0002
# 4 0.0000 -0.0002 -0.0007 6.5502 0.0001 0.0000
# 5 -0.0001 0.0002 -0.0002 0.0001 29.5022 0.0000
# 6 0.0000 0.0000 0.0002 0.0000 0.0000 37.2856
#
#
#
# Elastic Compliance Matrix: (Units=1/GPa)
#
#
# Indices 1 2 3 4 5 6 
#
# 1 0.019781 -0.005009 -0.004941 -0.000001 0.000000 0.000000
# 2 -0.005009 0.012308 -0.002990 0.000000 0.000000 0.000000
# 3 -0.004941 -0.002990 0.011651 0.000001 0.000000 0.000000
# 4 -0.000001 0.000000 0.000001 0.152668 -0.000001 0.000000
# 5 0.000000 0.000000 0.000000 -0.000001 0.033896 0.000000
# 6 0.000000 0.000000 0.000000 0.000000 0.000000 0.026820
#
#
# Mechanical properties :
#
#
# Convention : Reuss Voigt Hill
#
# Bulk Modulus (GPa) = 55.99514 59.32723 57.66119
# Shear Modulus (GPa) = 17.30366 25.99589 21.64977
#
# Velocity S-wave (km/s) = 2.94790 3.61324 3.29739
# Velocity P-wave (km/s) = 6.30145 6.87039 6.59206
#
# Compressibility (1/GPa) = 0.01785869
#
# Stress axis : x y z
#
# Youngs Moduli (GPa) = 50.55359 81.25067 85.83262
#
# Poissons Ratio (x) = 0.40699 0.42410
# Poissons Ratio (y) = 0.25323 0.25665
# Poissons Ratio (z) = 0.24979 0.24295
#
# Static dielectric constant tensor:
#      x y z
#    x 3.768480 0.000000 0.000000 
#    y 0.000000 3.740920 0.000000 
#    z 0.000000 0.000000 3.642910 
# 
# 
# High freq. dielectric constant tensor:
#      x y z
#    x 1.783810 0.000000 0.000000 
#    y 0.000000 1.784800 0.000000 
#    z 0.000000 0.000000 1.774620 
# 
# From -- ./inp_files/9306.got.cif
#   From: 2010.03.12/outbox.cif.g09.slc.cpg/sg46_5_cif.got.tgz:9306.got - 2010.04.14 02:56:35.
