data_PCOD8192823
_publ_section_title
;
Structure prediction by ZEFSAII (Michael W. Deem and Ramdas Pophale) SiO2 
 PCOD8192823
Probable space group: I M A 2
;
_chemical_formula_sum "Si O2"
_cell_formula_units_Z 64
_cell_length_a 9.888396
_cell_length_b 32.999285
_cell_length_c 11.251851
_cell_angle_alpha 90.000000
_cell_angle_beta 90.000000
_cell_angle_gamma 90.000000
_cell_volume 3671.591475
_symmetry_space_group_name_H-M "I M A 2"
_symmetry_group_IT_number 46
_symmetry_cell_setting 'orthorhombic'
loop_
_space_group_symop_operation_xyz
x,y,z
-x,-y,z
1/2-x,y,z
1/2+x,-y,z
1/2+x,1/2+y,1/2+z
1/2-x,1/2-y,1/2+z
-x,1/2+y,1/2+z
x,1/2-y,1/2+z
loop_
_atom_site_type_symbol
_atom_site_label
_atom_site_fract_x
_atom_site_fract_y
_atom_site_fract_z
Si Si1 0.600869 0.886311 0.432810
Si Si2 0.092076 0.125000 0.929453
Si Si3 0.407121 0.720012 0.053281
Si Si4 0.898516 0.966656 0.305335
Si Si5 0.593011 0.657257 0.169879
Si Si6 0.601223 0.168134 0.326496
Si Si7 0.403487 0.811332 0.060122
Si Si8 0.407412 0.038517 0.035027
O O1 0.750000 0.868623 0.408688
O O2 0.597345 0.933856 0.409830
O O3 0.557148 0.875459 0.567130
O O4 0.502996 0.868416 0.333329
O O5 0.250000 0.132167 0.958938
O O6 0.058807 0.134654 0.792464
O O7 0.052481 0.078361 0.958441
O O8 0.003981 0.155395 0.008282
O O9 0.250000 0.717285 0.093863
O O10 0.499587 0.697217 0.152080
O O11 0.451962 0.766116 0.029266
O O12 0.435133 0.700684 0.926020
O O13 0.750000 0.986221 0.298246
O O14 0.936005 0.950390 0.173339
O O15 0.000000 0.000000 0.351036
O O16 0.750000 0.670664 0.165924
O O17 0.750000 0.149898 0.348242
O O18 0.590421 0.189408 0.201381
O O19 0.250000 0.819945 0.015104
O O20 0.250000 0.027299 0.013311
O O21 0.500000 0.000000 0.996420
#
# Coordination Sequence:
#
# PCOD8192823 Si02
#       8
#     8   8   8   8   8   8   8   8
#     4   9  17  32  52  71  95 129 165 200 246 300
#     4  10  21  36  53  76 105 137 174 217 259 305
#     4   9  19  34  52  72  99 133 167 208 256 303
#     4   9  17  29  48  73  98 126 159 201 252 303
#     4   9  19  35  53  73 100 135 173 211 253 302
#     4   9  18  32  48  71  97 124 162 204 248 293
#     4  10  21  33  51  76 101 132 169 211 255 304
#     4   9  18  33  52  74 102 134 169 210 260 308
#
# _framework density 17.431132999999999
#
# number of rings (size 3 to 8) (size 9 to 14) (size 15 to 20)
#    0.000    2.750    0.000    0.750    1.750    3.500 
#    0.000    3.125    0.000    0.000    0.000    0.000 
#    0.000    0.000    0.000    0.000    0.000    0.000 
#
# Total GULP energy -396641.081129 kJ/mol
# GULP energy per Si atom -12395.033785 kJ/mol
# Density = 1.739146 g / cm^3
# Si number density = 17.431133 Si / 1000 Ang^3
#
#
#
# Elastic Constant Matrix: (Units=GPa)
#
#
# Indices 1 2 3 4 5 6 
#
# 1 83.6823 68.9803 38.5393 0.0023 0.0003 0.0000
# 2 68.9803 120.3123 43.7093 0.0022 0.0003 0.0002
# 3 38.5393 43.7093 62.2810 0.0104 0.0012 0.0002
# 4 0.0023 0.0022 0.0104 21.4512 0.0001 0.0000
# 5 0.0003 0.0003 0.0012 0.0001 22.4187 0.0012
# 6 0.0000 0.0002 0.0002 0.0000 0.0012 34.6409
#
#
#
# Elastic Compliance Matrix: (Units=1/GPa)
#
#
# Indices 1 2 3 4 5 6 
#
# 1 0.024865 -0.011632 -0.007223 0.000002 0.000000 0.000000
# 2 -0.011632 0.016598 -0.004451 0.000002 0.000000 0.000000
# 3 -0.007223 -0.004451 0.023649 -0.000010 -0.000001 0.000000
# 4 0.000002 0.000002 -0.000010 0.046617 0.000000 0.000000
# 5 0.000000 0.000000 -0.000001 0.000000 0.044606 -0.000002
# 6 0.000000 0.000000 0.000000 0.000000 -0.000002 0.028868
#
#
# Mechanical properties :
#
#
# Convention : Reuss Voigt Hill
#
# Bulk Modulus (GPa) = 54.05148 63.19259 58.62204
# Shear Modulus (GPa) = 21.01017 23.37195 22.19106
#
# Velocity S-wave (km/s) = 3.47554 3.66569 3.57188
# Velocity P-wave (km/s) = 6.86890 7.36531 7.12143
#
# Compressibility (1/GPa) = 0.01850088
#
# Stress axis : x y z
#
# Youngs Moduli (GPa) = 40.21752 60.24920 42.28482
#
# Poissons Ratio (x) = 0.70082 0.30542
# Poissons Ratio (y) = 0.46781 0.18819
# Poissons Ratio (z) = 0.29048 0.26814
#
# Static dielectric constant tensor:
#      x y z
#    x 3.452030 0.000000 0.000000 
#    y 0.000000 3.184810 0.000000 
#    z 0.000000 0.000000 3.202170 
# 
# 
# High freq. dielectric constant tensor:
#      x y z
#    x 1.678840 0.000000 0.000000 
#    y 0.000000 1.664080 0.000000 
#    z 0.000000 0.000000 1.667110 
# 
# From -- ./inp_files/9739.got.cif
#   From: 2010.03.12/outbox.cif.g09.slc.cpg/sg46_5_cif.got.tgz:9739.got - 2010.04.14 02:56:35.
