data_PCOD8192158
_publ_section_title
;
Structure prediction by ZEFSAII (Michael W. Deem and Ramdas Pophale) SiO2 
 PCOD8192158
Probable space group: I M A 2
;
_chemical_formula_sum "Si O2"
_cell_formula_units_Z 48
_cell_length_a 8.808583
_cell_length_b 20.352302
_cell_length_c 14.423985
_cell_angle_alpha 90.000000
_cell_angle_beta 90.000000
_cell_angle_gamma 90.000000
_cell_volume 2585.859066
_symmetry_space_group_name_H-M "I M A 2"
_symmetry_group_IT_number 46
_symmetry_cell_setting 'orthorhombic'
loop_
_space_group_symop_operation_xyz
x,y,z
-x,-y,z
1/2-x,y,z
1/2+x,-y,z
1/2+x,1/2+y,1/2+z
1/2-x,1/2-y,1/2+z
-x,1/2+y,1/2+z
x,1/2-y,1/2+z
loop_
_atom_site_type_symbol
_atom_site_label
_atom_site_fract_x
_atom_site_fract_y
_atom_site_fract_z
Si Si1 0.925328 0.320369 0.636930
Si Si2 0.571688 0.929854 0.252187
Si Si3 0.930329 0.431766 0.129042
Si Si4 0.071026 0.807803 0.741789
Si Si5 0.928638 0.625610 0.949722
Si Si6 0.424985 0.735457 0.441765
O O1 0.750000 0.330440 0.664498
O O2 0.992432 0.255157 0.686295
O O3 0.945966 0.314583 0.526529
O O4 0.020108 0.382722 0.669325
O O5 0.750000 0.937370 0.249475
O O6 0.516785 0.900115 0.349862
O O7 0.500000 0.000000 0.234650
O O8 0.750000 0.436418 0.130909
O O9 0.994253 0.374644 0.197078
O O10 0.000000 0.500000 0.164719
O O11 0.983693 0.417723 0.024781
O O12 0.250000 0.809429 0.729231
O O13 0.022511 0.802655 0.849178
O O14 0.750000 0.616957 0.964599
O O15 0.971507 0.701579 0.959090
O O16 0.250000 0.758928 0.433819
#
# Coordination Sequence:
#
# PCOD8192158 Si02
#       6
#     8   8   8   8   8   8
#     4  10  19  35  60  85 110 149 189 229 278 331
#     4  11  24  39  56  82 115 151 187 232 283 336
#     4  11  22  38  57  83 115 152 190 229 280 335
#     4   9  18  34  58  84 112 148 189 227 272 332
#     4  11  22  35  55  86 117 147 182 231 286 333
#     4  10  19  35  59  86 114 148 188 229 275 333
#
# _framework density 18.562495999999999
#
# number of rings (size 3 to 8) (size 9 to 14) (size 15 to 20)
#    0.000    1.667    3.333    2.000    0.000    4.000 
#    0.000    2.500    0.000    2.000    0.000    0.000 
#    0.000    0.000    0.000    0.000    0.000    0.000 
#
# Total GULP energy -297692.668731 kJ/mol
# GULP energy per Si atom -12403.861197 kJ/mol
# Density = 1.852025 g / cm^3
# Si number density = 18.562496 Si / 1000 Ang^3
#
#
#
# Elastic Constant Matrix: (Units=GPa)
#
#
# Indices 1 2 3 4 5 6 
#
# 1 51.8580 36.2511 27.1953 0.0000 0.0000 0.0000
# 2 36.2511 130.2819 48.6926 0.0000 0.0000 0.0000
# 3 27.1953 48.6926 117.2951 0.0001 0.0000 0.0000
# 4 0.0000 0.0000 0.0001 26.3815 0.0000 0.0000
# 5 0.0000 0.0000 0.0000 0.0000 18.9190 0.0000
# 6 0.0000 0.0000 0.0000 0.0000 0.0000 33.1644
#
#
#
# Elastic Compliance Matrix: (Units=1/GPa)
#
#
# Indices 1 2 3 4 5 6 
#
# 1 0.025068 -0.005685 -0.003452 0.000000 0.000000 0.000000
# 2 -0.005685 0.010375 -0.002989 0.000000 0.000000 0.000000
# 3 -0.003452 -0.002989 0.010567 0.000000 0.000000 0.000000
# 4 0.000000 0.000000 0.000000 0.037905 0.000000 0.000000
# 5 0.000000 0.000000 0.000000 0.000000 0.052857 0.000000
# 6 0.000000 0.000000 0.000000 0.000000 0.000000 0.030153
#
#
# Mechanical properties :
#
#
# Convention : Reuss Voigt Hill
#
# Bulk Modulus (GPa) = 45.96123 58.19034 52.07578
# Shear Modulus (GPa) = 25.19809 28.17939 26.68874
#
# Velocity S-wave (km/s) = 3.68839 3.90048 3.79592
# Velocity P-wave (km/s) = 6.55385 7.19037 6.87948
#
# Compressibility (1/GPa) = 0.02175747
#
# Stress axis : x y z
#
# Youngs Moduli (GPa) = 39.89186 96.38994 94.63809
#
# Poissons Ratio (x) = 0.54797 0.32670
# Poissons Ratio (y) = 0.22678 0.28284
# Poissons Ratio (z) = 0.13771 0.28808
#
# Static dielectric constant tensor:
#      x y z
#    x 3.237970 0.000000 0.000000 
#    y 0.000000 3.467430 0.000000 
#    z 0.000000 0.000000 3.576140 
# 
# 
# High freq. dielectric constant tensor:
#      x y z
#    x 1.705830 0.000000 0.000000 
#    y 0.000000 1.718790 0.000000 
#    z 0.000000 0.000000 1.723900 
# 
# From -- ./inp_files/13872.got.cif
#   From: 2010.03.12/outbox.cif.g09.slc.cpg/sg46_7_cif.got.tgz:13872.got - 2010.04.14 02:56:35.
