data_PCOD8192673
_publ_section_title
;
Structure prediction by ZEFSAII (Michael W. Deem and Ramdas Pophale) SiO2 
 PCOD8192673
Probable space group: I M A 2
;
_chemical_formula_sum "Si O2"
_cell_formula_units_Z 52
_cell_length_a 27.134088
_cell_length_b 6.081471
_cell_length_c 14.239335
_cell_angle_alpha 90.000000
_cell_angle_beta 90.000000
_cell_angle_gamma 90.000000
_cell_volume 2349.706276
_symmetry_space_group_name_H-M "I M A 2"
_symmetry_group_IT_number 46
_symmetry_cell_setting 'orthorhombic'
loop_
_space_group_symop_operation_xyz
x,y,z
-x,-y,z
1/2-x,y,z
1/2+x,-y,z
1/2+x,1/2+y,1/2+z
1/2-x,1/2-y,1/2+z
-x,1/2+y,1/2+z
x,1/2-y,1/2+z
loop_
_atom_site_type_symbol
_atom_site_label
_atom_site_fract_x
_atom_site_fract_y
_atom_site_fract_z
Si Si1 0.114972 0.597474 0.934560
Si Si2 0.087203 0.741661 0.739987
Si Si3 0.194426 0.224244 0.347145
Si Si4 0.197265 0.896488 0.985319
Si Si5 0.000000 0.000000 0.155724
Si Si6 0.568406 0.630873 0.101104
Si Si7 0.158144 0.412979 0.657486
O O1 0.090840 0.751663 0.853646
O O2 0.150217 0.414326 0.890956
O O3 0.150774 0.740048 0.000039
O O4 0.072267 0.503535 0.002950
O O5 0.138704 0.645839 0.699906
O O6 0.045521 0.560536 0.720993
O O7 0.071028 0.972614 0.693181
O O8 0.250000 0.127777 0.364146
O O9 0.191094 0.467633 0.389046
O O10 0.183699 0.238525 0.236188
O O11 0.250000 0.771230 0.980106
O O12 0.198964 0.048949 0.077587
O O13 0.981864 0.780798 0.097486
O O14 0.614482 0.790168 0.104574
#
# Coordination Sequence:
#
# PCOD8192673 Si02
#       7
#     8   8   8   8   4   8   8
#     4  11  22  39  66  93 124 173 213 264 332 385
#     4  10  22  42  65  89 130 163 213 265 326 399
#     4  10  21  37  57  87 129 170 219 268 313 376
#     4  11  21  36  58  93 130 167 220 265 311 378
#     4  10  24  44  66  96 128 164 210 274 328 400
#     4  11  21  42  69  93 131 166 215 267 334 399
#     4  10  20  37  61  88 123 176 211 262 324 379
#
# _framework density 22.130427000000001
#
# number of rings (size 3 to 8) (size 9 to 14) (size 15 to 20)
#    0.000    1.538    3.077    2.308    0.000    0.000 
#    2.769    0.000    0.000    0.000    0.000    0.000 
#    0.000    0.000    0.000    0.000    0.000    0.000 
#
# Total GULP energy -322202.166458 kJ/mol
# GULP energy per Si atom -12392.391018 kJ/mol
# Density = 2.208006 g / cm^3
# Si number density = 22.130427 Si / 1000 Ang^3
#
#
#
# Elastic Constant Matrix: (Units=GPa)
#
#
# Indices 1 2 3 4 5 6 
#
# 1 92.9578 24.3835 36.8962 0.0000 0.0000 0.0000
# 2 24.3835 71.6462 37.4002 0.0000 0.0000 0.0000
# 3 36.8962 37.4002 135.3798 0.0000 0.0000 0.0000
# 4 0.0000 0.0000 0.0000 28.0447 0.0000 0.0000
# 5 0.0000 0.0000 0.0000 0.0000 26.0624 0.0000
# 6 0.0000 0.0000 0.0000 0.0000 0.0000 8.2822
#
#
#
# Elastic Compliance Matrix: (Units=1/GPa)
#
#
# Indices 1 2 3 4 5 6 
#
# 1 0.012560 -0.002907 -0.002620 0.000000 0.000000 0.000000
# 2 -0.002907 0.016982 -0.003899 0.000000 0.000000 0.000000
# 3 -0.002620 -0.003899 0.009178 0.000000 0.000000 0.000000
# 4 0.000000 0.000000 0.000000 0.035657 0.000000 0.000000
# 5 0.000000 0.000000 0.000000 0.000000 0.038369 0.000000
# 6 0.000000 0.000000 0.000000 0.000000 0.000000 0.120740
#
#
# Mechanical properties :
#
#
# Convention : Reuss Voigt Hill
#
# Bulk Modulus (GPa) = 50.33283 55.26038 52.79660
# Shear Modulus (GPa) = 19.30785 25.89814 22.60299
#
# Velocity S-wave (km/s) = 2.95694 3.42460 3.19933
# Velocity P-wave (km/s) = 5.86951 6.37666 6.12833
#
# Compressibility (1/GPa) = 0.01986775
#
# Stress axis : x y z
#
# Youngs Moduli (GPa) = 79.61792 58.88498 108.95731
#
# Poissons Ratio (x) = 0.17117 0.28547
# Poissons Ratio (y) = 0.23144 0.42486
# Poissons Ratio (z) = 0.20860 0.22961
#
# Static dielectric constant tensor:
#      x y z
#    x 4.045450 0.000000 0.000000 
#    y 0.000000 3.907250 0.000000 
#    z 0.000000 0.000000 4.071180 
# 
# 
# High freq. dielectric constant tensor:
#      x y z
#    x 1.872590 0.000000 0.000000 
#    y 0.000000 1.855740 0.000000 
#    z 0.000000 0.000000 1.869430 
# 
# From -- ./inp_files/17678.got.cif
#   From: 2010.03.12/outbox.cif.g09.slc.cpg/sg46_9_cif.got.tgz:17678.got - 2010.04.14 02:56:35.
