data_PCOD8192912
_publ_section_title
;
Structure prediction by ZEFSAII (Michael W. Deem and Ramdas Pophale) SiO2 
 PCOD8192912
Probable space group: I M A 2
;
_chemical_formula_sum "Si O2"
_cell_formula_units_Z 32
_cell_length_a 16.390629
_cell_length_b 16.896893
_cell_length_c 5.090682
_cell_angle_alpha 90.000000
_cell_angle_beta 90.000000
_cell_angle_gamma 90.000000
_cell_volume 1409.867966
_symmetry_space_group_name_H-M "I M A 2"
_symmetry_group_IT_number 46
_symmetry_cell_setting 'orthorhombic'
loop_
_space_group_symop_operation_xyz
x,y,z
-x,-y,z
1/2-x,y,z
1/2+x,-y,z
1/2+x,1/2+y,1/2+z
1/2-x,1/2-y,1/2+z
-x,1/2+y,1/2+z
x,1/2-y,1/2+z
loop_
_atom_site_type_symbol
_atom_site_label
_atom_site_fract_x
_atom_site_fract_y
_atom_site_fract_z
Si Si1 0.920966 0.713445 0.423570
Si Si2 0.656676 0.455830 0.768650
Si Si3 0.394491 0.786981 0.081797
Si Si4 0.412367 0.033723 0.789881
O O1 0.878894 0.726676 0.709118
O O2 0.914827 0.628017 0.291157
O O3 0.013259 0.737718 0.505874
O O4 0.750000 0.439192 0.844267
O O5 0.610789 0.374901 0.695092
O O6 0.653203 0.509660 0.509617
O O7 0.611562 0.499685 0.006426
O O8 0.352190 0.772581 0.796735
O O9 0.500000 0.000000 0.872830
#
# Coordination Sequence:
#
# PCOD8192912 Si02
#       4
#     8   8   8   8
#     4  10  21  38  64  97 124 158 214 276 321 371
#     4  12  26  42  63  96 136 175 213 267 331 392
#     4  10  21  37  61  93 132 170 209 253 316 396
#     4  12  24  42  69  95 127 172 223 271 321 383
#
# _framework density 22.697161999999999
#
# number of rings (size 3 to 8) (size 9 to 14) (size 15 to 20)
#    0.000    1.000    2.500    4.500    7.000    1.000 
#    0.000    0.000    0.000   15.000    0.000    0.000 
#    0.000    0.000    0.000    0.000    0.000    0.000 
#
# Total GULP energy -198222.350101 kJ/mol
# GULP energy per Si atom -12388.896881 kJ/mol
# Density = 2.264550 g / cm^3
# Si number density = 22.697162 Si / 1000 Ang^3
#
#
#
# Elastic Constant Matrix: (Units=GPa)
#
#
# Indices 1 2 3 4 5 6 
#
# 1 38.0216 7.8194 24.2453 0.0000 0.0000 0.0000
# 2 7.8194 143.1472 92.2257 0.0000 0.0000 0.0000
# 3 24.2453 92.2257 226.6996 0.0000 0.0000 0.0000
# 4 0.0000 0.0000 0.0000 43.4997 0.0000 0.0000
# 5 0.0000 0.0000 0.0000 0.0000 18.7559 0.0000
# 6 0.0000 0.0000 0.0000 0.0000 0.0000 8.2933
#
#
#
# Elastic Compliance Matrix: (Units=1/GPa)
#
#
# Indices 1 2 3 4 5 6 
#
# 1 0.028257 0.000547 -0.003245 0.000000 0.000000 0.000000
# 2 0.000547 0.009478 -0.003914 0.000000 0.000000 0.000000
# 3 -0.003245 -0.003914 0.006351 0.000000 0.000000 0.000000
# 4 0.000000 0.000000 0.000000 0.022989 0.000000 0.000000
# 5 0.000000 0.000000 0.000000 0.000000 0.053317 0.000000
# 6 0.000000 0.000000 0.000000 0.000000 0.000000 0.120579
#
#
# Mechanical properties :
#
#
# Convention : Reuss Voigt Hill
#
# Bulk Modulus (GPa) = 32.40264 72.93882 52.67073
# Shear Modulus (GPa) = 18.90495 33.01498 25.95997
#
# Velocity S-wave (km/s) = 2.88917 3.81804 3.38561
# Velocity P-wave (km/s) = 5.04349 7.18624 6.20801
#
# Compressibility (1/GPa) = 0.03086169
#
# Stress axis : x y z
#
# Youngs Moduli (GPa) = 35.38907 105.51004 157.46779
#
# Poissons Ratio (x) = -0.05770 0.51091
# Poissons Ratio (y) = -0.01935 0.61636
# Poissons Ratio (z) = 0.11482 0.41299
#
# Static dielectric constant tensor:
#      x y z
#    x 3.613150 0.000000 0.000000 
#    y 0.000000 3.938510 0.000000 
#    z 0.000000 0.000000 5.038580 
# 
# 
# High freq. dielectric constant tensor:
#      x y z
#    x 1.841420 0.000000 0.000000 
#    y 0.000000 1.896020 0.000000 
#    z 0.000000 0.000000 1.938210 
# 
# From -- ./inp_files/1516.got.cif
#   From: 2010.03.12/outbox.cif.g09.slc.cpg/sg46_1_cif.got.tgz:1516.got - 2010.04.14 02:56:35.
