data_PCOD8192679
_publ_section_title
;
Structure prediction by ZEFSAII (Michael W. Deem and Ramdas Pophale) SiO2 
 PCOD8192679
Probable space group: I M A 2
;
_chemical_formula_sum "Si O2"
_cell_formula_units_Z 64
_cell_length_a 8.978103
_cell_length_b 15.399811
_cell_length_c 23.620153
_cell_angle_alpha 90.000000
_cell_angle_beta 90.000000
_cell_angle_gamma 90.000000
_cell_volume 3265.748084
_symmetry_space_group_name_H-M "I M A 2"
_symmetry_group_IT_number 46
_symmetry_cell_setting 'orthorhombic'
loop_
_space_group_symop_operation_xyz
x,y,z
-x,-y,z
1/2-x,y,z
1/2+x,-y,z
1/2+x,1/2+y,1/2+z
1/2-x,1/2-y,1/2+z
-x,1/2+y,1/2+z
x,1/2-y,1/2+z
loop_
_atom_site_type_symbol
_atom_site_label
_atom_site_fract_x
_atom_site_fract_y
_atom_site_fract_z
Si Si1 0.921782 0.665033 0.126170
Si Si2 0.422854 0.089562 0.747589
Si Si3 0.424162 0.248677 0.431085
Si Si4 0.923227 0.412524 0.742434
Si Si5 0.575542 0.587430 0.508271
Si Si6 0.923360 0.587598 0.008170
Si Si7 0.073537 0.753637 0.811771
Si Si8 0.923886 0.153881 0.119811
O O1 0.750000 0.695825 0.120083
O O2 0.947559 0.607249 0.181367
O O3 0.970272 0.607485 0.072639
O O4 0.027209 0.747684 0.129395
O O5 0.250000 0.083927 0.763250
O O6 0.495675 0.163627 0.785003
O O7 0.500000 0.000000 0.764267
O O8 0.250000 0.244967 0.414941
O O9 0.462321 0.335768 0.465205
O O10 0.473303 0.167686 0.469387
O O11 0.526514 0.245467 0.376446
O O12 0.750000 0.423272 0.753357
O O13 0.984051 0.331398 0.778576
O O14 0.960341 0.398634 0.676659
O O15 0.000000 0.500000 0.764483
O O16 0.500000 0.500000 0.484632
O O17 0.750000 0.572049 0.513904
O O18 0.514492 0.608804 0.570166
O O19 0.750000 0.571814 0.003082
O O20 0.000000 0.500000 0.986567
O O21 0.250000 0.764543 0.806416
O O22 0.750000 0.152216 0.105073
#
# Coordination Sequence:
#
# PCOD8192679 Si02
#       8
#     8   8   8   8   8   8   8   8
#     4  10  20  37  61  90 124 162 197 240 300 360
#     4  11  23  39  64  93 124 162 202 245 303 363
#     4  10  23  43  63  84 119 161 203 251 303 358
#     4  10  23  40  60  89 122 158 198 246 298 355
#     4  11  23  41  63  90 124 157 199 247 300 362
#     4  10  21  39  61  89 123 158 197 244 297 354
#     4  11  24  43  63  87 121 157 206 258 302 356
#     4  11  21  36  61  92 125 159 198 243 299 360
#
# _framework density 19.597348
#
# number of rings (size 3 to 8) (size 9 to 14) (size 15 to 20)
#    0.000    1.500    2.500    2.250    0.000    6.500 
#    0.000    3.750    0.000    0.000    0.000    0.000 
#    0.000    0.000    0.000    0.000    0.000    0.000 
#
# Total GULP energy -396976.495455 kJ/mol
# GULP energy per Si atom -12405.515483 kJ/mol
# Density = 1.955274 g / cm^3
# Si number density = 19.597348 Si / 1000 Ang^3
#
#
#
# Elastic Constant Matrix: (Units=GPa)
#
#
# Indices 1 2 3 4 5 6 
#
# 1 124.2264 147.6276 126.1984 0.0000 0.0000 0.0000
# 2 147.6276 322.5802 188.4543 0.0000 0.0000 0.0000
# 3 126.1984 188.4543 222.4068 0.0000 0.0000 0.0000
# 4 0.0000 0.0000 0.0000 0.5737 0.0000 0.0000
# 5 0.0000 0.0000 0.0000 0.0000 35.5826 0.0000
# 6 0.0000 0.0000 0.0000 0.0000 0.0000 40.6123
#
#
#
# Elastic Compliance Matrix: (Units=1/GPa)
#
#
# Indices 1 2 3 4 5 6 
#
# 1 0.023556 -0.005885 -0.008380 0.000000 0.000000 0.000000
# 2 -0.005885 0.007609 -0.003108 0.000000 0.000000 0.000000
# 3 -0.008380 -0.003108 0.011885 0.000000 0.000000 0.000000
# 4 0.000000 0.000000 0.000000 1.742980 0.000000 0.000000
# 5 0.000000 0.000000 0.000000 0.000000 0.028104 0.000000
# 6 0.000000 0.000000 0.000000 0.000000 0.000000 0.024623
#
#
# Mechanical properties :
#
#
# Convention : Reuss Voigt Hill
#
# Bulk Modulus (GPa) = 120.42051 177.08600 148.75325
# Shear Modulus (GPa) = 2.66486 29.14925 15.90706
#
# Velocity S-wave (km/s) = 1.16737 3.86088 2.85212
# Velocity P-wave (km/s) = 7.96227 10.50874 9.32286
#
# Compressibility (1/GPa) = 0.00830423
#
# Stress axis : x y z
#
# Youngs Moduli (GPa) = 42.45234 131.42269 84.14025
#
# Poissons Ratio (x) = 0.77339 0.70507
# Poissons Ratio (y) = 0.24982 0.26154
# Poissons Ratio (z) = 0.35574 0.40851
#
# Static dielectric constant tensor:
#      x y z
#    x 3.545640 0.000000 0.000000 
#    y 0.000000 3.748690 0.000000 
#    z 0.000000 0.000000 3.535240 
# 
# 
# High freq. dielectric constant tensor:
#      x y z
#    x 1.765210 0.000000 0.000000 
#    y 0.000000 1.777660 0.000000 
#    z 0.000000 0.000000 1.763810 
# 
# From -- ./inp_files/23139.got.cif
#   From: 2010.03.12/outbox.cif.g09.slc.cpg/sg46_12_cif.got.tgz:23139.got - 2010.04.14 02:56:35.
