data_PCOD8192500
_publ_section_title
;
Structure prediction by ZEFSAII (Michael W. Deem and Ramdas Pophale) SiO2 
 PCOD8192500
Probable space group: I M A 2
;
_chemical_formula_sum "Si O2"
_cell_formula_units_Z 40
_cell_length_a 8.698080
_cell_length_b 28.997923
_cell_length_c 7.772082
_cell_angle_alpha 90.000000
_cell_angle_beta 90.000000
_cell_angle_gamma 90.000000
_cell_volume 1960.323129
_symmetry_space_group_name_H-M "I M A 2"
_symmetry_group_IT_number 46
_symmetry_cell_setting 'orthorhombic'
loop_
_space_group_symop_operation_xyz
x,y,z
-x,-y,z
1/2-x,y,z
1/2+x,-y,z
1/2+x,1/2+y,1/2+z
1/2-x,1/2-y,1/2+z
-x,1/2+y,1/2+z
x,1/2-y,1/2+z
loop_
_atom_site_type_symbol
_atom_site_label
_atom_site_fract_x
_atom_site_fract_y
_atom_site_fract_z
Si Si1 0.576971 0.288730 0.305950
Si Si2 0.070402 0.397850 0.611098
Si Si3 0.567624 0.450358 0.921956
Si Si4 0.923184 0.704900 0.645060
Si Si5 0.074152 0.610690 0.237976
O O1 0.750000 0.287282 0.384728
O O2 0.439686 0.293093 0.440860
O O3 0.549612 0.240930 0.209262
O O4 0.560539 0.334746 0.189178
O O5 0.250000 0.408501 0.606811
O O6 0.037452 0.347602 0.696886
O O7 0.988656 0.434353 0.734454
O O8 0.010826 0.401875 0.415758
O O9 0.500000 0.500000 0.963625
O O10 0.750000 0.451984 0.918860
O O11 0.506135 0.417040 0.075094
O O12 0.750000 0.718560 0.699143
O O13 0.250000 0.596530 0.267919
#
# Coordination Sequence:
#
# PCOD8192500 Si02
#       5
#     8   8   8   8   8
#     4  10  20  35  56  84 115 156 203 245 295 356
#     4  10  22  40  62  89 123 162 201 248 306 363
#     4  11  24  42  65  92 121 156 204 255 308 365
#     4  10  21  36  54  84 120 158 198 244 300 356
#     4   9  21  41  62  87 120 160 203 252 304 359
#
# _framework density 20.404799000000001
#
# number of rings (size 3 to 8) (size 9 to 14) (size 15 to 20)
#    0.000    2.000    0.000    2.400    2.800    5.600 
#    0.000    2.000    0.000    0.000    0.000    0.000 
#    0.000    0.000    0.000    0.000    0.000    0.000 
#
# Total GULP energy -247870.910060 kJ/mol
# GULP energy per Si atom -12393.545503 kJ/mol
# Density = 2.035836 g / cm^3
# Si number density = 20.404799 Si / 1000 Ang^3
#
#
#
# Elastic Constant Matrix: (Units=GPa)
#
#
# Indices 1 2 3 4 5 6 
#
# 1 73.0919 33.2268 23.6717 0.0363 -0.0034 -0.0013
# 2 33.2268 81.4518 21.2484 0.0369 -0.0026 -0.0017
# 3 23.6717 21.2484 67.1445 0.0742 -0.0068 -0.0020
# 4 0.0363 0.0369 0.0742 43.1676 -0.0071 -0.0045
# 5 -0.0034 -0.0026 -0.0068 -0.0071 28.7730 0.0041
# 6 -0.0013 -0.0017 -0.0020 -0.0045 0.0041 32.2104
#
#
#
# Elastic Compliance Matrix: (Units=1/GPa)
#
#
# Indices 1 2 3 4 5 6 
#
# 1 0.017894 -0.006163 -0.004358 -0.000002 0.000001 0.000000
# 2 -0.006163 0.015504 -0.002734 -0.000003 0.000000 0.000000
# 3 -0.004358 -0.002734 0.017295 -0.000024 0.000003 0.000001
# 4 -0.000002 -0.000003 -0.000024 0.023166 0.000006 0.000003
# 5 0.000001 0.000000 0.000003 0.000006 0.034755 -0.000004
# 6 0.000000 0.000000 0.000001 0.000003 -0.000004 0.031046
#
#
# Mechanical properties :
#
#
# Convention : Reuss Voigt Hill
#
# Bulk Modulus (GPa) = 41.34990 41.99800 41.67395
# Shear Modulus (GPa) = 28.69749 30.39961 29.54855
#
# Velocity S-wave (km/s) = 3.75428 3.86401 3.80954
# Velocity P-wave (km/s) = 6.25313 6.36668 6.31016
#
# Compressibility (1/GPa) = 0.02418385
#
# Stress axis : x y z
#
# Youngs Moduli (GPa) = 55.88326 64.49804 57.82032
#
# Poissons Ratio (x) = 0.39748 0.25201
# Poissons Ratio (y) = 0.34439 0.15807
# Poissons Ratio (z) = 0.24356 0.17632
#
# Static dielectric constant tensor:
#      x y z
#    x 3.603070 -0.000070 0.000000 
#    y -0.000070 2.230900 0.000030 
#    z 0.000000 0.000030 3.576840 
# 
# 
# High freq. dielectric constant tensor:
#      x y z
#    x 1.802920 0.000000 0.000000 
#    y 0.000000 1.802880 0.000000 
#    z 0.000000 0.000000 1.783810 
# 
# From -- ./inp_files/3529.got.cif
#   From: 2010.03.12/outbox.cif.g09.slc.cpg/sg46_2_cif.got.tgz:3529.got - 2010.04.14 02:56:35.
