data_PCOD8192930
_publ_section_title
;
Structure prediction by ZEFSAII (Michael W. Deem and Ramdas Pophale) SiO2 
 PCOD8192930
Probable space group: I M A 2
;
_chemical_formula_sum "Si O2"
_cell_formula_units_Z 56
_cell_length_a 21.321893
_cell_length_b 9.249799
_cell_length_c 13.789246
_cell_angle_alpha 90.000000
_cell_angle_beta 90.000000
_cell_angle_gamma 90.000000
_cell_volume 2719.559560
_symmetry_space_group_name_H-M "I M A 2"
_symmetry_group_IT_number 46
_symmetry_cell_setting 'orthorhombic'
loop_
_space_group_symop_operation_xyz
x,y,z
-x,-y,z
1/2-x,y,z
1/2+x,-y,z
1/2+x,1/2+y,1/2+z
1/2-x,1/2-y,1/2+z
-x,1/2+y,1/2+z
x,1/2-y,1/2+z
loop_
_atom_site_type_symbol
_atom_site_label
_atom_site_fract_x
_atom_site_fract_y
_atom_site_fract_z
Si Si1 0.528406 0.788995 0.632330
Si Si2 0.136790 0.675212 0.898514
Si Si3 0.498613 0.673156 0.841095
Si Si4 0.598274 0.066761 0.592866
Si Si5 0.056375 0.106675 0.965849
Si Si6 0.678059 0.197381 0.190528
Si Si7 0.180299 0.951122 0.994105
O O1 0.508910 0.743460 0.737937
O O2 0.468142 0.852908 0.576021
O O3 0.550265 0.642913 0.579493
O O4 0.585052 0.906516 0.634113
O O5 0.067077 0.733360 0.879989
O O6 0.162516 0.619925 0.794073
O O7 0.133361 0.558647 0.987309
O O8 0.181865 0.802630 0.934252
O O9 0.500000 0.500000 0.840220
O O10 0.552320 0.739720 0.909841
O O11 0.638538 0.155892 0.672238
O O12 0.000000 0.000000 0.932412
O O13 0.126317 0.048799 0.946985
O O14 0.750000 0.244170 0.186785
O O15 0.663033 0.081140 0.106430
O O16 0.250000 0.021697 0.985601
#
# Coordination Sequence:
#
# PCOD8192930 Si02
#       7
#     8   8   8   8   8   8   8
#     4  11  23  38  61  91 133 167 202 266 331 384
#     4  11  20  37  61  92 130 166 213 267 327 379
#     4  12  25  37  64  99 135 165 216 271 336 392
#     4  10  21  38  58  93 130 163 213 269 323 383
#     4  12  23  41  65  98 128 171 218 271 326 391
#     4  10  21  38  62  91 126 175 226 268 317 391
#     4  10  23  41  64  95 130 172 223 272 324 391
#
# _framework density 20.591570000000001
#
# number of rings (size 3 to 8) (size 9 to 14) (size 15 to 20)
#    0.000    1.143    4.286    2.571    6.000    0.571 
#    0.000    0.714    0.000    6.000    0.000    0.000 
#    0.000    0.000    0.000    0.000    0.000    0.000 
#
# Total GULP energy -347032.297012 kJ/mol
# GULP energy per Si atom -12394.010608 kJ/mol
# Density = 2.054470 g / cm^3
# Si number density = 20.591570 Si / 1000 Ang^3
#
#
#
# Elastic Constant Matrix: (Units=GPa)
#
#
# Indices 1 2 3 4 5 6 
#
# 1 108.8826 43.3949 20.3238 0.0000 0.0000 0.0000
# 2 43.3949 87.1092 23.0695 0.0000 0.0000 0.0000
# 3 20.3238 23.0695 107.6574 0.0000 0.0000 0.0000
# 4 0.0000 0.0000 0.0000 24.9769 0.0000 0.0000
# 5 0.0000 0.0000 0.0000 0.0000 25.8758 0.0000
# 6 0.0000 0.0000 0.0000 0.0000 0.0000 26.1253
#
#
#
# Elastic Compliance Matrix: (Units=1/GPa)
#
#
# Indices 1 2 3 4 5 6 
#
# 1 0.011561 -0.005493 -0.001005 0.000000 0.000000 0.000000
# 2 -0.005493 0.014780 -0.002130 0.000000 0.000000 0.000000
# 3 -0.001005 -0.002130 0.009935 0.000000 0.000000 0.000000
# 4 0.000000 0.000000 0.000000 0.040037 0.000000 0.000000
# 5 0.000000 0.000000 0.000000 0.000000 0.038646 0.000000
# 6 0.000000 0.000000 0.000000 0.000000 0.000000 0.038277
#
#
# Mechanical properties :
#
#
# Convention : Reuss Voigt Hill
#
# Bulk Modulus (GPa) = 52.57886 53.02507 52.80197
# Shear Modulus (GPa) = 28.27506 29.85298 29.06402
#
# Velocity S-wave (km/s) = 3.70961 3.81171 3.76101
# Velocity P-wave (km/s) = 6.62856 6.72153 6.67521
#
# Compressibility (1/GPa) = 0.01901905
#
# Stress axis : x y z
#
# Youngs Moduli (GPa) = 86.49659 67.65679 100.65406
#
# Poissons Ratio (x) = 0.37165 0.10120
# Poissons Ratio (y) = 0.47513 0.21442
# Poissons Ratio (z) = 0.08697 0.14413
#
# Static dielectric constant tensor:
#      x y z
#    x 3.739340 0.000000 0.000000 
#    y 0.000000 3.431600 0.000000 
#    z 0.000000 0.000000 3.921490 
# 
# 
# High freq. dielectric constant tensor:
#      x y z
#    x 1.794800 0.000000 0.000000 
#    y 0.000000 1.770540 0.000000 
#    z 0.000000 0.000000 1.823420 
# 
# From -- ./inp_files/17089.got.cif
#   From: 2010.03.12/outbox.cif.g09.slc.cpg/sg46_9_cif.got.tgz:17089.got - 2010.04.14 02:56:35.
