data_PCOD8192599
_publ_section_title
;
Structure prediction by ZEFSAII (Michael W. Deem and Ramdas Pophale) SiO2 
 PCOD8192599
Probable space group: I M A 2
;
_chemical_formula_sum "Si O2"
_cell_formula_units_Z 40
_cell_length_a 8.560278
_cell_length_b 9.094500
_cell_length_c 25.788825
_cell_angle_alpha 90.000000
_cell_angle_beta 90.000000
_cell_angle_gamma 90.000000
_cell_volume 2007.697375
_symmetry_space_group_name_H-M "I M A 2"
_symmetry_group_IT_number 46
_symmetry_cell_setting 'orthorhombic'
loop_
_space_group_symop_operation_xyz
x,y,z
-x,-y,z
1/2-x,y,z
1/2+x,-y,z
1/2+x,1/2+y,1/2+z
1/2-x,1/2-y,1/2+z
-x,1/2+y,1/2+z
x,1/2-y,1/2+z
loop_
_atom_site_type_symbol
_atom_site_label
_atom_site_fract_x
_atom_site_fract_y
_atom_site_fract_z
Si Si1 0.566171 0.660653 0.738410
Si Si2 0.568664 0.663023 0.925530
Si Si3 0.433869 0.835975 0.643171
Si Si4 0.066451 0.661024 0.333157
Si Si5 0.569386 0.659573 0.040249
O O1 0.500000 0.500000 0.730058
O O2 0.750000 0.654495 0.744939
O O3 0.522248 0.753965 0.688469
O O4 0.494545 0.729186 0.789752
O O5 0.500000 0.500000 0.919072
O O6 0.750000 0.653940 0.910446
O O7 0.481864 0.777986 0.888970
O O8 0.547418 0.732037 0.983494
O O9 0.250000 0.832750 0.653446
O O10 0.475900 0.760170 0.587309
O O11 0.500000 0.000000 0.641251
O O12 0.250000 0.650774 0.329241
O O13 0.000000 0.500000 0.323315
O O14 0.500000 0.500000 0.032718
O O15 0.750000 0.650609 0.056382
#
# Coordination Sequence:
#
# PCOD8192599 Si02
#       5
#     8   8   8   8   8
#     4  12  25  43  63  86 116 150 191 237 289 345
#     4  10  20  36  59  88 120 155 195 238 285 338
#     4  11  21  36  59  88 120 155 195 238 286 338
#     4  12  25  42  62  86 116 151 192 238 290 344
#     4   9  17  31  54  84 117 153 194 237 282 335
#
# _framework density 19.923321000000001
#
# number of rings (size 3 to 8) (size 9 to 14) (size 15 to 20)
#    0.000    1.200    0.000    9.000    0.000    2.400 
#    0.000    1.000    0.000    4.800    0.000    0.000 
#    0.000    0.000    0.000    0.000    0.000    0.000 
#
# Total GULP energy -247977.433513 kJ/mol
# GULP energy per Si atom -12398.871676 kJ/mol
# Density = 1.987797 g / cm^3
# Si number density = 19.923321 Si / 1000 Ang^3
#
#
#
# Elastic Constant Matrix: (Units=GPa)
#
#
# Indices 1 2 3 4 5 6 
#
# 1 152.9569 15.4198 33.6930 0.0000 0.0000 0.0000
# 2 15.4198 36.7826 13.5286 0.0000 0.0000 0.0000
# 3 33.6930 13.5286 120.4959 0.0000 0.0000 0.0000
# 4 0.0000 0.0000 0.0000 46.8509 0.0000 0.0000
# 5 0.0000 0.0000 0.0000 0.0000 35.4989 0.0000
# 6 0.0000 0.0000 0.0000 0.0000 0.0000 32.6559
#
#
#
# Elastic Compliance Matrix: (Units=1/GPa)
#
#
# Indices 1 2 3 4 5 6 
#
# 1 0.007158 -0.002362 -0.001736 0.000000 0.000000 0.000000
# 2 -0.002362 0.029137 -0.002611 0.000000 0.000000 0.000000
# 3 -0.001736 -0.002611 0.009078 0.000000 0.000000 0.000000
# 4 0.000000 0.000000 0.000000 0.021344 0.000000 0.000000
# 5 0.000000 0.000000 0.000000 0.000000 0.028170 0.000000
# 6 0.000000 0.000000 0.000000 0.000000 0.000000 0.030622
#
#
# Mechanical properties :
#
#
# Convention : Reuss Voigt Hill
#
# Bulk Modulus (GPa) = 31.29459 48.39091 39.84275
# Shear Modulus (GPa) = 33.42683 39.50740 36.46712
#
# Velocity S-wave (km/s) = 4.10051 4.45789 4.28293
# Velocity P-wave (km/s) = 6.17742 7.13010 6.67079
#
# Compressibility (1/GPa) = 0.03195440
#
# Stress axis : x y z
#
# Youngs Moduli (GPa) = 139.69558 34.32027 110.15996
#
# Poissons Ratio (x) = 0.08107 0.19128
# Poissons Ratio (y) = 0.33000 0.28761
# Poissons Ratio (z) = 0.24257 0.08960
#
# Static dielectric constant tensor:
#      x y z
#    x 3.869230 0.000000 0.000000 
#    y 0.000000 3.381920 0.000000 
#    z 0.000000 0.000000 4.350040 
# 
# 
# High freq. dielectric constant tensor:
#      x y z
#    x 1.801110 0.000000 0.000000 
#    y 0.000000 1.745210 0.000000 
#    z 0.000000 0.000000 1.806900 
# 
# From -- ./inp_files/22735.got.cif
#   From: 2010.03.12/outbox.cif.g09.slc.cpg/sg46_12_cif.got.tgz:22735.got - 2010.04.14 02:56:35.
