data_PCOD8192804
_publ_section_title
;
Structure prediction by ZEFSAII (Michael W. Deem and Ramdas Pophale) SiO2 
 PCOD8192804
Probable space group: I M A 2
;
_chemical_formula_sum "Si O2"
_cell_formula_units_Z 64
_cell_length_a 23.308925
_cell_length_b 9.149032
_cell_length_c 13.563416
_cell_angle_alpha 90.000000
_cell_angle_beta 90.000000
_cell_angle_gamma 90.000000
_cell_volume 2892.454082
_symmetry_space_group_name_H-M "I M A 2"
_symmetry_group_IT_number 46
_symmetry_cell_setting 'orthorhombic'
loop_
_space_group_symop_operation_xyz
x,y,z
-x,-y,z
1/2-x,y,z
1/2+x,-y,z
1/2+x,1/2+y,1/2+z
1/2-x,1/2-y,1/2+z
-x,1/2+y,1/2+z
x,1/2-y,1/2+z
loop_
_atom_site_type_symbol
_atom_site_label
_atom_site_fract_x
_atom_site_fract_y
_atom_site_fract_z
Si Si1 0.891507 0.841056 0.930980
Si Si2 0.498496 0.667939 0.949629
Si Si3 0.985858 0.837587 0.681879
Si Si4 0.367209 0.071522 0.729151
Si Si5 0.316664 0.852187 0.384101
Si Si6 0.898738 0.264289 0.720947
Si Si7 0.185838 0.382747 0.029487
Si Si8 0.609023 0.159819 0.995036
O O1 0.950651 0.760925 0.897714
O O2 0.849336 0.870508 0.837329
O O3 0.908022 0.991794 0.984004
O O4 0.857217 0.747797 0.009795
O O5 0.500000 0.500000 0.912876
O O6 0.436446 0.741729 0.931660
O O7 0.506594 0.678536 0.066034
O O8 0.918994 0.816177 0.702971
O O9 0.030985 0.724067 0.736079
O O10 0.000000 0.000000 0.718284
O O11 0.318508 0.079483 0.645707
O O12 0.384216 0.903762 0.740259
O O13 0.250000 0.852571 0.351045
O O14 0.358645 0.867544 0.288841
O O15 0.330588 0.701539 0.442432
O O16 0.331386 0.982409 0.459848
O O17 0.885114 0.303502 0.608975
O O18 0.250000 0.332260 0.007135
#
# Coordination Sequence:
#
# PCOD8192804 Si02
#       8
#     8   8   8   8   8   8   8   8
#     4  12  25  40  68 106 135 174 233 283 345 413
#     4  10  20  40  68  97 141 183 219 272 341 416
#     4   8  17  34  62  94 128 170 215 265 336 408
#     4  11  21  41  68  99 132 177 226 282 354 419
#     4  11  24  43  68  97 131 182 240 280 339 421
#     4  10  21  40  68 100 136 174 222 289 347 410
#     4  11  26  48  69  92 138 189 233 282 343 414
#     4  11  23  40  67 103 136 173 226 293 341 405
#
# _framework density 22.126538
#
# number of rings (size 3 to 8) (size 9 to 14) (size 15 to 20)
#    0.000    1.500    3.750    1.875    1.750    4.000 
#    0.000    1.250    0.000    0.000    0.000    0.000 
#    0.000    0.000    0.000    0.000    0.000    0.000 
#
# Total GULP energy -396563.713397 kJ/mol
# GULP energy per Si atom -12392.616044 kJ/mol
# Density = 2.207618 g / cm^3
# Si number density = 22.126538 Si / 1000 Ang^3
#
#
#
# Elastic Constant Matrix: (Units=GPa)
#
#
# Indices 1 2 3 4 5 6 
#
# 1 91.1923 34.4903 26.2748 0.0000 0.0000 0.0000
# 2 34.4903 105.5706 16.3655 0.0000 0.0000 0.0000
# 3 26.2748 16.3655 76.6439 0.0000 0.0000 0.0000
# 4 0.0000 0.0000 0.0000 26.6693 0.0000 0.0000
# 5 0.0000 0.0000 0.0000 0.0000 32.0114 0.0000
# 6 0.0000 0.0000 0.0000 0.0000 0.0000 13.2954
#
#
#
# Elastic Compliance Matrix: (Units=1/GPa)
#
#
# Indices 1 2 3 4 5 6 
#
# 1 0.013511 -0.003823 -0.003816 0.000000 0.000000 0.000000
# 2 -0.003823 0.010878 -0.001012 0.000000 0.000000 0.000000
# 3 -0.003816 -0.001012 0.014572 0.000000 0.000000 0.000000
# 4 0.000000 0.000000 0.000000 0.037496 0.000000 0.000000
# 5 0.000000 0.000000 0.000000 0.000000 0.031239 0.000000
# 6 0.000000 0.000000 0.000000 0.000000 0.000000 0.075214
#
#
# Mechanical properties :
#
#
# Convention : Reuss Voigt Hill
#
# Bulk Modulus (GPa) = 46.16871 47.51865 46.84368
# Shear Modulus (GPa) = 24.10441 27.48029 25.79235
#
# Velocity S-wave (km/s) = 3.30417 3.52797 3.41790
# Velocity P-wave (km/s) = 5.95548 6.17397 6.06571
#
# Compressibility (1/GPa) = 0.02165969
#
# Stress axis : x y z
#
# Youngs Moduli (GPa) = 74.01395 91.92770 68.62688
#
# Poissons Ratio (x) = 0.35140 0.26185
# Poissons Ratio (y) = 0.28293 0.06947
# Poissons Ratio (z) = 0.28241 0.09306
#
# Static dielectric constant tensor:
#      x y z
#    x 4.035210 0.000000 0.000000 
#    y 0.000000 3.837720 0.000000 
#    z 0.000000 0.000000 4.099020 
# 
# 
# High freq. dielectric constant tensor:
#      x y z
#    x 1.858660 0.000000 0.000000 
#    y 0.000000 1.849760 0.000000 
#    z 0.000000 0.000000 1.887830 
# 
# From -- ./inp_files/17401.got.cif
#   From: 2010.03.12/outbox.cif.g09.slc.cpg/sg46_9_cif.got.tgz:17401.got - 2010.04.14 02:56:35.
