data_PCOD8192111
_publ_section_title
;
Structure prediction by ZEFSAII (Michael W. Deem and Ramdas Pophale) SiO2 
 PCOD8192111
Probable space group: I M A 2
;
_chemical_formula_sum "Si O2"
_cell_formula_units_Z 48
_cell_length_a 9.184807
_cell_length_b 20.279369
_cell_length_c 14.219866
_cell_angle_alpha 90.000000
_cell_angle_beta 90.000000
_cell_angle_gamma 90.000000
_cell_volume 2648.621966
_symmetry_space_group_name_H-M "I M A 2"
_symmetry_group_IT_number 46
_symmetry_cell_setting 'orthorhombic'
loop_
_space_group_symop_operation_xyz
x,y,z
-x,-y,z
1/2-x,y,z
1/2+x,-y,z
1/2+x,1/2+y,1/2+z
1/2-x,1/2-y,1/2+z
-x,1/2+y,1/2+z
x,1/2-y,1/2+z
loop_
_atom_site_type_symbol
_atom_site_label
_atom_site_fract_x
_atom_site_fract_y
_atom_site_fract_z
Si Si1 0.919146 0.192793 0.722360
Si Si2 0.581067 0.619720 0.520054
Si Si3 0.081303 0.305962 0.832138
Si Si4 0.080429 0.565152 0.341874
Si Si5 0.417525 0.229338 0.541260
Si Si6 0.918603 0.934228 0.224450
O O1 0.750000 0.209883 0.716284
O O2 0.947501 0.120895 0.764617
O O3 0.993198 0.245657 0.789674
O O4 0.985801 0.192961 0.618478
O O5 0.750000 0.616101 0.490058
O O6 0.483138 0.585715 0.442176
O O7 0.531650 0.695175 0.531796
O O8 0.550210 0.581425 0.616080
O O9 0.250000 0.294839 0.805522
O O10 0.023336 0.374075 0.788310
O O11 0.057887 0.308744 0.943727
O O12 0.250000 0.550202 0.355882
O O13 0.000000 0.500000 0.304629
O O14 0.250000 0.226897 0.573487
O O15 0.750000 0.945820 0.243787
O O16 0.000000 0.000000 0.255950
#
# Coordination Sequence:
#
# PCOD8192111 Si02
#       6
#     8   8   8   8   8   8
#     4  11  23  37  57  86 118 148 186 238 289 337
#     4  10  19  34  59  87 114 147 186 233 285 341
#     4  10  20  38  61  83 110 148 196 234 273 339
#     4  11  24  39  56  83 117 154 192 235 288 343
#     4  10  20  36  61  87 112 148 190 235 281 335
#     4  10  21  36  54  82 115 147 185 225 275 337
#
# _framework density 18.122630000000001
#
# number of rings (size 3 to 8) (size 9 to 14) (size 15 to 20)
#    0.000    1.667    3.333    1.500    0.000    6.000 
#    0.000    0.833    0.000    4.000    0.000    0.000 
#    0.000    0.000    0.000    0.000    0.000    0.000 
#
# Total GULP energy -297723.125735 kJ/mol
# GULP energy per Si atom -12405.130239 kJ/mol
# Density = 1.808138 g / cm^3
# Si number density = 18.122630 Si / 1000 Ang^3
#
#
#
# Elastic Constant Matrix: (Units=GPa)
#
#
# Indices 1 2 3 4 5 6 
#
# 1 91.9423 71.6230 54.9411 0.0000 0.0000 0.0000
# 2 71.6230 127.3085 51.3741 0.0001 -0.0002 0.0000
# 3 54.9411 51.3741 93.0126 0.0001 -0.0001 0.0000
# 4 0.0000 0.0001 0.0001 25.4901 -0.0002 0.0000
# 5 0.0000 -0.0002 -0.0001 -0.0002 -4.7597 0.0000
# 6 0.0000 0.0000 0.0000 0.0000 0.0000 32.9644
#
#
#
# Elastic Compliance Matrix: (Units=1/GPa)
#
#
# Indices 1 2 3 4 5 6 
#
# 1 0.023659 -0.009871 -0.008523 0.000000 0.000001 0.000000
# 2 -0.009871 0.014226 -0.002027 0.000000 -0.000001 0.000000
# 3 -0.008523 -0.002027 0.016905 0.000000 0.000000 0.000000
# 4 0.000000 0.000000 0.000000 0.039231 -0.000001 0.000000
# 5 0.000001 -0.000001 0.000000 -0.000001 -0.210095 0.000000
# 6 0.000000 0.000000 0.000000 0.000000 0.000000 0.030336
#
#
# Mechanical properties :
#
#
# Convention : Reuss Voigt Hill
#
# Bulk Modulus (GPa) = 71.69200 74.23775 72.96487
# Shear Modulus (GPa) = -124.23175 19.69397 -52.26889
#
# Velocity S-wave (km/s) = -8.28851 3.30010 -5.37628
# Velocity P-wave (km/s) = 7.20791 7.45479 1.34535
#
# Compressibility (1/GPa) = 0.01394856
#
# Stress axis : x y z
#
# Youngs Moduli (GPa) = 42.26763 70.29239 59.15379
#
# Poissons Ratio (x) = 0.69386 0.50415
# Poissons Ratio (y) = 0.41722 0.11991
# Poissons Ratio (z) = 0.36024 0.14248
#
# Static dielectric constant tensor:
#      x y z
#    x 3.341790 0.000000 0.000000 
#    y 0.000000 3.475420 0.000000 
#    z 0.000000 0.000000 3.355130 
# 
# 
# High freq. dielectric constant tensor:
#      x y z
#    x 1.701080 0.000000 0.000000 
#    y 0.000000 1.704550 0.000000 
#    z 0.000000 0.000000 1.702730 
# 
# From -- ./inp_files/13877.got.cif
#   From: 2010.03.12/outbox.cif.g09.slc.cpg/sg46_7_cif.got.tgz:13877.got - 2010.04.14 02:56:35.
