data_PCOD8192333
_publ_section_title
;
Structure prediction by ZEFSAII (Michael W. Deem and Ramdas Pophale) SiO2 
 PCOD8192333
Probable space group: I M A 2
;
_chemical_formula_sum "Si O2"
_cell_formula_units_Z 56
_cell_length_a 8.939442
_cell_length_b 20.792982
_cell_length_c 14.763425
_cell_angle_alpha 90.000000
_cell_angle_beta 90.000000
_cell_angle_gamma 90.000000
_cell_volume 2744.190842
_symmetry_space_group_name_H-M "I M A 2"
_symmetry_group_IT_number 46
_symmetry_cell_setting 'orthorhombic'
loop_
_space_group_symop_operation_xyz
x,y,z
-x,-y,z
1/2-x,y,z
1/2+x,-y,z
1/2+x,1/2+y,1/2+z
1/2-x,1/2-y,1/2+z
-x,1/2+y,1/2+z
x,1/2-y,1/2+z
loop_
_atom_site_type_symbol
_atom_site_label
_atom_site_fract_x
_atom_site_fract_y
_atom_site_fract_z
Si Si1 0.412837 0.058137 0.285810
Si Si2 0.415234 0.439583 0.579267
Si Si3 0.926503 0.186198 0.035323
Si Si4 0.573244 0.198735 0.671056
Si Si5 0.075880 0.853366 0.397521
Si Si6 0.572948 0.724879 0.364421
Si Si7 0.575735 0.431395 0.073805
O O1 0.250000 0.067705 0.332541
O O2 0.386950 0.041229 0.182381
O O3 0.516966 0.120502 0.301166
O O4 0.500000 0.000000 0.334747
O O5 0.500000 0.500000 0.531007
O O6 0.250000 0.428073 0.534419
O O7 0.520388 0.377442 0.586494
O O8 0.750000 0.186185 0.018881
O O9 0.973912 0.249170 0.094156
O O10 0.010895 0.175150 0.938679
O O11 0.750000 0.203106 0.686190
O O12 0.493436 0.214686 0.765127
O O13 0.525052 0.126464 0.641390
O O14 0.250000 0.835792 0.395102
O O15 0.037241 0.906407 0.473327
O O16 0.984123 0.789181 0.414178
O O17 0.750000 0.722810 0.356645
O O18 0.500000 0.500000 0.096035
O O19 0.750000 0.443410 0.085272
#
# Coordination Sequence:
#
# PCOD8192333 Si02
#       7
#     8   8   8   8   8   8   8
#     4  10  20  33  51  81 118 157 197 241 298 363
#     4  10  21  37  57  85 121 159 203 251 308 373
#     4  11  22  41  66  90 121 162 207 258 315 377
#     4  10  22  43  66  90 125 169 216 261 319 388
#     4  11  21  37  58  85 120 160 206 254 313 380
#     4  12  25  39  61  93 124 157 206 263 320 381
#     4  10  22  40  62  90 124 167 214 263 320 382
#
# _framework density 20.406745000000001
#
# number of rings (size 3 to 8) (size 9 to 14) (size 15 to 20)
#    0.000    1.429    1.429    4.286    0.000    8.000 
#    0.000    0.714    0.000    1.714    0.000    0.000 
#    0.000    0.000    0.000    0.000    0.000    0.000 
#
# Total GULP energy -346947.087798 kJ/mol
# GULP energy per Si atom -12390.967421 kJ/mol
# Density = 2.036030 g / cm^3
# Si number density = 20.406745 Si / 1000 Ang^3
#
#
#
# Elastic Constant Matrix: (Units=GPa)
#
#
# Indices 1 2 3 4 5 6 
#
# 1 110.3521 55.0303 54.7643 0.0000 0.0000 0.0000
# 2 55.0303 133.4400 33.1970 0.0000 0.0000 0.0000
# 3 54.7643 33.1970 93.6742 0.0000 -0.0001 0.0000
# 4 0.0000 0.0000 0.0000 20.3936 0.0000 0.0000
# 5 0.0000 0.0000 -0.0001 0.0000 23.9755 0.0000
# 6 0.0000 0.0000 0.0000 0.0000 0.0000 37.9325
#
#
#
# Elastic Compliance Matrix: (Units=1/GPa)
#
#
# Indices 1 2 3 4 5 6 
#
# 1 0.014726 -0.004311 -0.007081 0.000000 0.000000 0.000000
# 2 -0.004311 0.009481 -0.000839 0.000000 0.000000 0.000000
# 3 -0.007081 -0.000839 0.015113 0.000000 0.000000 0.000000
# 4 0.000000 0.000000 0.000000 0.049035 0.000000 0.000000
# 5 0.000000 0.000000 0.000000 0.000000 0.041709 0.000000
# 6 0.000000 0.000000 0.000000 0.000000 0.000000 0.026363
#
#
# Mechanical properties :
#
#
# Convention : Reuss Voigt Hill
#
# Bulk Modulus (GPa) = 67.31520 69.27218 68.29369
# Shear Modulus (GPa) = 26.90451 29.42531 28.16491
#
# Velocity S-wave (km/s) = 3.63493 3.80141 3.71910
# Velocity P-wave (km/s) = 7.11866 7.29980 7.20980
#
# Compressibility (1/GPa) = 0.01485549
#
# Stress axis : x y z
#
# Youngs Moduli (GPa) = 67.90643 105.47632 66.16942
#
# Poissons Ratio (x) = 0.45474 0.46857
# Poissons Ratio (y) = 0.29277 0.05554
# Poissons Ratio (z) = 0.48087 0.08853
#
# Static dielectric constant tensor:
#      x y z
#    x 3.941560 0.000000 0.000000 
#    y 0.000000 3.945090 0.000000 
#    z 0.000000 0.000000 3.569040 
# 
# 
# High freq. dielectric constant tensor:
#      x y z
#    x 1.805850 0.000000 0.000000 
#    y 0.000000 1.802140 0.000000 
#    z 0.000000 0.000000 1.777360 
# 
# From -- ./inp_files/14148.got.cif
#   From: 2010.03.12/outbox.cif.g09.slc.cpg/sg46_8_cif.got.tgz:14148.got - 2010.04.14 02:56:35.
