data_PCOD8192161
_publ_section_title
;
Structure prediction by ZEFSAII (Michael W. Deem and Ramdas Pophale) SiO2 
 PCOD8192161
Probable space group: I M A 2
;
_chemical_formula_sum "Si O2"
_cell_formula_units_Z 40
_cell_length_a 8.935310
_cell_length_b 14.731588
_cell_length_c 13.958797
_cell_angle_alpha 90.000000
_cell_angle_beta 90.000000
_cell_angle_gamma 90.000000
_cell_volume 1837.414673
_symmetry_space_group_name_H-M "I M A 2"
_symmetry_group_IT_number 46
_symmetry_cell_setting 'orthorhombic'
loop_
_space_group_symop_operation_xyz
x,y,z
-x,-y,z
1/2-x,y,z
1/2+x,-y,z
1/2+x,1/2+y,1/2+z
1/2-x,1/2-y,1/2+z
-x,1/2+y,1/2+z
x,1/2-y,1/2+z
loop_
_atom_site_type_symbol
_atom_site_label
_atom_site_fract_x
_atom_site_fract_y
_atom_site_fract_z
Si Si1 0.571602 0.780189 0.440350
Si Si2 0.073041 0.598449 0.776847
Si Si3 0.575517 0.258304 0.138543
Si Si4 0.586848 0.581767 0.206066
Si Si5 0.910129 0.580509 0.421214
O O1 0.750000 0.787848 0.425959
O O2 0.494157 0.852448 0.370386
O O3 0.522353 0.794971 0.549486
O O4 0.509560 0.678300 0.421548
O O5 0.250000 0.588323 0.792362
O O6 0.039352 0.658137 0.680759
O O7 0.000000 0.500000 0.762866
O O8 0.750000 0.268213 0.115336
O O9 0.518945 0.329952 0.217138
O O10 0.500000 0.500000 0.150609
O O11 0.750000 0.600506 0.157342
O O12 0.617784 0.548219 0.313340
O O13 0.750000 0.589520 0.474722
O O14 0.000000 0.500000 0.475469
#
# Coordination Sequence:
#
# PCOD8192161 Si02
#       5
#     8   8   8   8   8
#     4  11  23  41  65  94 128 168 215 267 322 385
#     4  11  25  45  69  95 131 176 222 274 330 394
#     4  11  24  41  63  94 128 168 215 266 323 386
#     4  10  19  35  59  88 120 155 196 247 306 369
#     4   9  19  34  57  87 118 153 193 242 303 364
#
# _framework density 21.769718000000001
#
# number of rings (size 3 to 8) (size 9 to 14) (size 15 to 20)
#    0.000    1.600    2.000    2.400    0.000    6.400 
#    0.000    8.000    0.000    0.000    0.000    0.000 
#    0.000    0.000    0.000    0.000    0.000    0.000 
#
# Total GULP energy -247762.486728 kJ/mol
# GULP energy per Si atom -12388.124336 kJ/mol
# Density = 2.172017 g / cm^3
# Si number density = 21.769718 Si / 1000 Ang^3
#
#
#
# Elastic Constant Matrix: (Units=GPa)
#
#
# Indices 1 2 3 4 5 6 
#
# 1 114.8592 64.1370 17.5303 0.0000 0.0000 0.0000
# 2 64.1370 151.1100 -4.9255 0.0000 0.0000 0.0000
# 3 17.5303 -4.9255 36.0090 0.0000 0.0000 0.0000
# 4 0.0000 0.0000 0.0000 17.1340 0.0000 0.0000
# 5 0.0000 0.0000 0.0000 0.0000 23.0205 0.0000
# 6 0.0000 0.0000 0.0000 0.0000 0.0000 40.1512
#
#
#
# Elastic Compliance Matrix: (Units=1/GPa)
#
#
# Indices 1 2 3 4 5 6 
#
# 1 0.013004 -0.005752 -0.007118 0.000000 0.000000 0.000000
# 2 -0.005752 0.009191 0.004057 0.000000 0.000000 0.000000
# 3 -0.007118 0.004057 0.031791 0.000000 0.000000 0.000000
# 4 0.000000 0.000000 0.000000 0.058363 0.000000 0.000000
# 5 0.000000 0.000000 0.000000 0.000000 0.043440 0.000000
# 6 0.000000 0.000000 0.000000 0.000000 0.000000 0.024906
#
#
# Mechanical properties :
#
#
# Convention : Reuss Voigt Hill
#
# Bulk Modulus (GPa) = 27.50090 50.60686 39.05388
# Shear Modulus (GPa) = 23.75978 31.07690 27.41834
#
# Velocity S-wave (km/s) = 3.30724 3.78236 3.55275
# Velocity P-wave (km/s) = 5.21956 6.50937 5.89982
#
# Compressibility (1/GPa) = 0.03636244
#
# Stress axis : x y z
#
# Youngs Moduli (GPa) = 76.89792 108.80083 31.45559
#
# Poissons Ratio (x) = 0.62577 0.22389
# Poissons Ratio (y) = 0.44228 -0.12762
# Poissons Ratio (z) = 0.54733 -0.44143
#
# Static dielectric constant tensor:
#      x y z
#    x 4.405580 0.000000 0.000000 
#    y 0.000000 3.996430 0.000000 
#    z 0.000000 0.000000 3.620320 
# 
# 
# High freq. dielectric constant tensor:
#      x y z
#    x 1.866600 0.000000 0.000000 
#    y 0.000000 1.866420 0.000000 
#    z 0.000000 0.000000 1.826060 
# 
# From -- ./inp_files/13649.got.cif
#   From: 2010.03.12/outbox.cif.g09.slc.cpg/sg46_7_cif.got.tgz:13649.got - 2010.04.14 02:56:35.
