data_PCOD8192498
_publ_section_title
;
Structure prediction by ZEFSAII (Michael W. Deem and Ramdas Pophale) SiO2 
 PCOD8192498
Probable space group: I M A 2
;
_chemical_formula_sum "Si O2"
_cell_formula_units_Z 48
_cell_length_a 8.646117
_cell_length_b 9.479715
_cell_length_c 30.859625
_cell_angle_alpha 90.000000
_cell_angle_beta 90.000000
_cell_angle_gamma 90.000000
_cell_volume 2529.338958
_symmetry_space_group_name_H-M "I M A 2"
_symmetry_group_IT_number 46
_symmetry_cell_setting 'orthorhombic'
loop_
_space_group_symop_operation_xyz
x,y,z
-x,-y,z
1/2-x,y,z
1/2+x,-y,z
1/2+x,1/2+y,1/2+z
1/2-x,1/2-y,1/2+z
-x,1/2+y,1/2+z
x,1/2-y,1/2+z
loop_
_atom_site_type_symbol
_atom_site_label
_atom_site_fract_x
_atom_site_fract_y
_atom_site_fract_z
Si Si1 0.071211 0.152339 0.628170
Si Si2 0.431766 0.849239 0.961138
Si Si3 0.432282 0.344582 0.790323
Si Si4 0.067768 0.657113 0.214641
Si Si5 0.429966 0.154613 0.532944
Si Si6 0.931963 0.651400 0.370262
O O1 0.250000 0.140605 0.641228
O O2 0.050755 0.225609 0.581014
O O3 0.981418 0.226134 0.668134
O O4 0.000000 0.000000 0.622612
O O5 0.250000 0.862101 0.956245
O O6 0.500238 0.794104 0.915747
O O7 0.500000 0.000000 0.973474
O O8 0.473774 0.744136 0.999198
O O9 0.500000 0.500000 0.792172
O O10 0.250000 0.352062 0.783923
O O11 0.504239 0.259751 0.750896
O O12 0.478557 0.265719 0.834499
O O13 0.250000 0.648154 0.218449
O O14 0.000000 0.500000 0.220045
O O15 0.250000 0.149229 0.519915
O O16 0.500000 0.000000 0.532050
O O17 0.750000 0.633961 0.374849
O O18 0.000000 0.500000 0.356789
#
# Coordination Sequence:
#
# PCOD8192498 Si02
#       6
#     8   8   8   8   8   8
#     4   9  17  31  53  80 110 143 183 229 272 319
#     4  11  22  37  58  82 112 147 184 228 275 326
#     4  11  24  40  58  82 113 146 181 225 277 330
#     4  11  21  35  58  84 112 146 186 229 271 323
#     4  10  20  35  56  83 114 147 185 228 274 325
#     4  10  21  38  60  83 108 141 184 229 272 325
#
# _framework density 18.977291000000001
#
# number of rings (size 3 to 8) (size 9 to 14) (size 15 to 20)
#    0.000    1.667    0.000    7.500    0.000    6.667 
#    0.000    2.500    0.000    4.000    0.000    0.000 
#    0.000    0.000    0.000    0.000    0.000    0.000 
#
# Total GULP energy -297552.491847 kJ/mol
# GULP energy per Si atom -12398.020494 kJ/mol
# Density = 1.893410 g / cm^3
# Si number density = 18.977291 Si / 1000 Ang^3
#
#
#
# Elastic Constant Matrix: (Units=GPa)
#
#
# Indices 1 2 3 4 5 6 
#
# 1 96.7035 45.3633 66.0303 0.0000 0.0000 0.0000
# 2 45.3633 94.8213 82.0369 0.0000 0.0000 0.0000
# 3 66.0303 82.0369 160.0556 0.0000 0.0000 0.0000
# 4 0.0000 0.0000 0.0000 36.7306 0.0000 0.0000
# 5 0.0000 0.0000 0.0000 0.0000 61.1969 0.0000
# 6 0.0000 0.0000 0.0000 0.0000 0.0000 32.1539
#
#
#
# Elastic Compliance Matrix: (Units=1/GPa)
#
#
# Indices 1 2 3 4 5 6 
#
# 1 0.014937 -0.003260 -0.004491 0.000000 0.000000 0.000000
# 2 -0.003260 0.019661 -0.008732 0.000000 0.000000 0.000000
# 3 -0.004491 -0.008732 0.012576 0.000000 0.000000 0.000000
# 4 0.000000 0.000000 0.000000 0.027225 0.000000 0.000000
# 5 0.000000 0.000000 0.000000 0.000000 0.016341 0.000000
# 6 0.000000 0.000000 0.000000 0.000000 0.000000 0.031100
#
#
# Mechanical properties :
#
#
# Convention : Reuss Voigt Hill
#
# Bulk Modulus (GPa) = 70.38883 82.04904 76.21894
# Shear Modulus (GPa) = 31.33956 36.55961 33.94958
#
# Velocity S-wave (km/s) = 4.06818 4.39394 4.23420
# Velocity P-wave (km/s) = 7.69665 8.31093 8.00968
#
# Compressibility (1/GPa) = 0.01420680
#
# Stress axis : x y z
#
# Youngs Moduli (GPa) = 66.94853 50.86286 79.51510
#
# Poissons Ratio (x) = 0.16583 0.35710
# Poissons Ratio (y) = 0.21828 0.69433
# Poissons Ratio (z) = 0.30067 0.44414
#
# Static dielectric constant tensor:
#      x y z
#    x 3.702750 0.000000 0.000000 
#    y 0.000000 3.239330 0.000000 
#    z 0.000000 0.000000 4.134640 
# 
# 
# High freq. dielectric constant tensor:
#      x y z
#    x 1.760770 0.000000 0.000000 
#    y 0.000000 1.707300 0.000000 
#    z 0.000000 0.000000 1.760770 
# 
# From -- ./inp_files/25011.got.cif
#   From: 2010.03.12/outbox.cif.g09.slc.cpg/sg46_13_cif.got.tgz:25011.got - 2010.04.14 02:56:35.
