data_PCOD8192066
_publ_section_title
;
Structure prediction by ZEFSAII (Michael W. Deem and Ramdas Pophale) SiO2 
 PCOD8192066
Probable space group: I M A 2
;
_chemical_formula_sum "Si O2"
_cell_formula_units_Z 64
_cell_length_a 16.529791
_cell_length_b 8.773952
_cell_length_c 23.566396
_cell_angle_alpha 90.000000
_cell_angle_beta 90.000000
_cell_angle_gamma 90.000000
_cell_volume 3417.871949
_symmetry_space_group_name_H-M "I M A 2"
_symmetry_group_IT_number 46
_symmetry_cell_setting 'orthorhombic'
loop_
_space_group_symop_operation_xyz
x,y,z
-x,-y,z
1/2-x,y,z
1/2+x,-y,z
1/2+x,1/2+y,1/2+z
1/2-x,1/2-y,1/2+z
-x,1/2+y,1/2+z
x,1/2-y,1/2+z
loop_
_atom_site_type_symbol
_atom_site_label
_atom_site_fract_x
_atom_site_fract_y
_atom_site_fract_z
Si Si1 0.926177 0.107961 0.215310
Si Si2 0.016669 0.174287 0.632168
Si Si3 0.844443 0.836883 0.807352
Si Si4 0.656607 0.816463 0.194684
Si Si5 0.345821 0.814957 0.809917
Si Si6 0.924630 0.105518 0.921522
Si Si7 0.983517 0.673347 0.999759
Si Si8 0.343306 0.311475 0.433540
O O1 0.889335 0.199846 0.267552
O O2 0.952898 0.222049 0.165782
O O3 0.857374 0.997547 0.188729
O O4 0.000000 0.000000 0.235476
O O5 0.108193 0.219452 0.648250
O O6 0.007362 0.205450 0.565972
O O7 0.000000 0.000000 0.648064
O O8 0.750000 0.814724 0.812649
O O9 0.878096 0.731608 0.756975
O O10 0.878040 0.785728 0.869041
O O11 0.864270 0.011590 0.791438
O O12 0.750000 0.774377 0.186723
O O13 0.250000 0.780291 0.812435
O O14 0.387115 0.792511 0.871166
O O15 0.855500 0.991918 0.946071
O O16 0.000000 0.000000 0.901185
O O17 0.950107 0.219965 0.970748
O O18 0.000000 0.500000 0.984052
O O19 0.893545 0.710356 0.977595
O O20 0.250000 0.266609 0.440727
#
# Coordination Sequence:
#
# PCOD8192066 Si02
#       8
#     8   8   8   8   8   8   8   8
#     4  10  22  34  52  81 111 140 174 219 272 318
#     4  10  22  40  57  73 102 145 187 222 262 319
#     4   8  16  31  52  79 108 138 169 206 256 313
#     4  10  20  35  56  82 110 138 175 223 271 315
#     4  10  19  34  56  81 110 142 178 214 254 315
#     4   9  19  33  55  82 111 143 176 213 259 316
#     4  10  22  38  55  77 106 141 181 224 270 317
#     4   9  18  35  58  81 107 141 181 219 259 313
#
# _framework density 18.725102
#
# number of rings (size 3 to 8) (size 9 to 14) (size 15 to 20)
#    0.000    2.500    0.000    2.250    0.000   13.000 
#    0.000    3.125    0.000    5.250    0.000    0.000 
#    0.000    0.000    0.000    0.000    0.000    0.000 
#
# Total GULP energy -396677.910426 kJ/mol
# GULP energy per Si atom -12396.184701 kJ/mol
# Density = 1.868248 g / cm^3
# Si number density = 18.725102 Si / 1000 Ang^3
#
#
#
# Elastic Constant Matrix: (Units=GPa)
#
#
# Indices 1 2 3 4 5 6 
#
# 1 83.4260 51.4294 56.1968 0.0000 0.0000 0.0000
# 2 51.4294 118.2044 78.8102 0.0000 0.0000 0.0000
# 3 56.1968 78.8102 105.7369 0.0000 0.0000 0.0000
# 4 0.0000 0.0000 0.0000 33.8668 0.0000 0.0000
# 5 0.0000 0.0000 0.0000 0.0000 24.6356 0.0000
# 6 0.0000 0.0000 0.0000 0.0000 0.0000 24.0708
#
#
#
# Elastic Compliance Matrix: (Units=1/GPa)
#
#
# Indices 1 2 3 4 5 6 
#
# 1 0.019221 -0.003085 -0.007916 0.000000 0.000000 0.000000
# 2 -0.003085 0.017312 -0.011264 0.000000 0.000000 0.000000
# 3 -0.007916 -0.011264 0.022060 0.000000 0.000000 0.000000
# 4 0.000000 0.000000 0.000000 0.029527 0.000000 0.000000
# 5 0.000000 0.000000 0.000000 0.000000 0.040592 0.000000
# 6 0.000000 0.000000 0.000000 0.000000 0.000000 0.041544
#
#
# Mechanical properties :
#
#
# Convention : Reuss Voigt Hill
#
# Bulk Modulus (GPa) = 71.10739 75.58224 73.34481
# Shear Modulus (GPa) = 22.78177 24.57670 23.67923
#
# Velocity S-wave (km/s) = 3.49183 3.62677 3.55994
# Velocity P-wave (km/s) = 7.36980 7.61510 7.49345
#
# Compressibility (1/GPa) = 0.01406324
#
# Stress axis : x y z
#
# Youngs Moduli (GPa) = 52.02695 57.76327 45.33059
#
# Poissons Ratio (x) = 0.17819 0.35885
# Poissons Ratio (y) = 0.16049 0.51060
# Poissons Ratio (z) = 0.41186 0.65064
#
# Static dielectric constant tensor:
#      x y z
#    x 3.462660 0.000000 0.000000 
#    y 0.000000 3.600230 0.000000 
#    z 0.000000 0.000000 3.505120 
# 
# 
# High freq. dielectric constant tensor:
#      x y z
#    x 1.727900 0.000000 0.000000 
#    y 0.000000 1.728470 0.000000 
#    z 0.000000 0.000000 1.717580 
# 
# From -- ./inp_files/23797.got.cif
#   From: 2010.03.12/outbox.cif.g09.slc.cpg/sg46_12_cif.got.tgz:23797.got - 2010.04.14 02:56:35.
