data_PCOD8192819
_publ_section_title
;
Structure prediction by ZEFSAII (Michael W. Deem and Ramdas Pophale) SiO2 
 PCOD8192819
Probable space group: I M A 2
;
_chemical_formula_sum "Si O2"
_cell_formula_units_Z 36
_cell_length_a 24.299821
_cell_length_b 6.088385
_cell_length_c 10.299986
_cell_angle_alpha 90.000000
_cell_angle_beta 90.000000
_cell_angle_gamma 90.000000
_cell_volume 1523.848585
_symmetry_space_group_name_H-M "I M A 2"
_symmetry_group_IT_number 46
_symmetry_cell_setting 'orthorhombic'
loop_
_space_group_symop_operation_xyz
x,y,z
-x,-y,z
1/2-x,y,z
1/2+x,-y,z
1/2+x,1/2+y,1/2+z
1/2-x,1/2-y,1/2+z
-x,1/2+y,1/2+z
x,1/2-y,1/2+z
loop_
_atom_site_type_symbol
_atom_site_label
_atom_site_fract_x
_atom_site_fract_y
_atom_site_fract_z
Si Si1 0.098351 0.715399 0.415690
Si Si2 0.187712 0.066211 0.489396
Si Si3 0.357151 0.342552 0.263625
Si Si4 0.446482 0.379959 0.622229
Si Si5 0.000000 0.500000 0.964670
O O1 0.119129 0.588083 0.287404
O O2 0.086064 0.532894 0.523409
O O3 0.147428 0.864814 0.466334
O O4 0.041865 0.846719 0.381614
O O5 0.250000 0.981017 0.476325
O O6 0.178294 0.260789 0.385576
O O7 0.178963 0.161678 0.633436
O O8 0.408351 0.174000 0.246005
O O9 0.500000 0.500000 0.678143
O O10 0.460831 0.150612 0.553238
#
# Coordination Sequence:
#
# PCOD8192819 Si02
#       5
#     8   8   8   8   4
#     4  11  24  47  74 110 155 194 244 307 371 453
#     4  12  29  51  78 107 147 202 259 317 375 441
#     4  12  25  52  74 113 153 195 256 309 380 447
#     4  10  23  47  73 108 152 199 240 296 370 454
#     4  10  20  48  70 110 150 196 236 296 372 452
#
# _framework density 23.624396999999998
#
# number of rings (size 3 to 8) (size 9 to 14) (size 15 to 20)
#    0.000    0.889    4.444    0.667    3.111    1.778 
#   26.000    0.000    0.000    0.000    0.000    0.000 
#    0.000    0.000    0.000    0.000    0.000    0.000 
#
# Total GULP energy -223268.378372 kJ/mol
# GULP energy per Si atom -12403.798798 kJ/mol
# Density = 2.357063 g / cm^3
# Si number density = 23.624397 Si / 1000 Ang^3
#
#
#
# Elastic Constant Matrix: (Units=GPa)
#
#
# Indices 1 2 3 4 5 6 
#
# 1 158.3896 57.0557 54.7870 0.0000 0.0000 0.0000
# 2 57.0557 119.1198 47.6936 0.0000 0.0000 0.0000
# 3 54.7870 47.6936 134.9104 0.0000 0.0000 0.0000
# 4 0.0000 0.0000 0.0000 39.5896 0.0000 0.0000
# 5 0.0000 0.0000 0.0000 0.0000 16.6166 0.0000
# 6 0.0000 0.0000 0.0000 0.0000 0.0000 34.1002
#
#
#
# Elastic Compliance Matrix: (Units=1/GPa)
#
#
# Indices 1 2 3 4 5 6 
#
# 1 0.008180 -0.003015 -0.002256 0.000000 0.000000 0.000000
# 2 -0.003015 0.010890 -0.002626 0.000000 0.000000 0.000000
# 3 -0.002256 -0.002626 0.009257 0.000000 0.000000 0.000000
# 4 0.000000 0.000000 0.000000 0.025259 0.000000 0.000000
# 5 0.000000 0.000000 0.000000 0.000000 0.060181 0.000000
# 6 0.000000 0.000000 0.000000 0.000000 0.000000 0.029325
#
#
# Mechanical properties :
#
#
# Convention : Reuss Voigt Hill
#
# Bulk Modulus (GPa) = 79.78326 81.27693 80.53009
# Shear Modulus (GPa) = 30.66304 34.92019 32.79162
#
# Velocity S-wave (km/s) = 3.60660 3.84883 3.72968
# Velocity P-wave (km/s) = 7.15460 7.36409 7.26010
#
# Compressibility (1/GPa) = 0.01253396
#
# Stress axis : x y z
#
# Youngs Moduli (GPa) = 122.25111 91.82633 108.02945
#
# Poissons Ratio (x) = 0.27683 0.24372
# Poissons Ratio (y) = 0.36855 0.28364
# Poissons Ratio (z) = 0.27581 0.24110
#
# Static dielectric constant tensor:
#      x y z
#    x 4.302890 0.000000 0.000000 
#    y 0.000000 4.463730 0.000000 
#    z 0.000000 0.000000 4.127850 
# 
# 
# High freq. dielectric constant tensor:
#      x y z
#    x 1.936680 0.000000 0.000000 
#    y 0.000000 1.947110 0.000000 
#    z 0.000000 0.000000 1.940660 
# 
# From -- ./inp_files/12614.got.cif
#   From: 2010.03.12/outbox.cif.g09.slc.cpg/sg46_7_cif.got.tgz:12614.got - 2010.04.14 02:56:35.
