data_PCOD8192493
_publ_section_title
;
Structure prediction by ZEFSAII (Michael W. Deem and Ramdas Pophale) SiO2 
 PCOD8192493
Probable space group: I M A 2
;
_chemical_formula_sum "Si O2"
_cell_formula_units_Z 64
_cell_length_a 8.566485
_cell_length_b 20.649634
_cell_length_c 19.344937
_cell_angle_alpha 90.000000
_cell_angle_beta 90.000000
_cell_angle_gamma 90.000000
_cell_volume 3422.018373
_symmetry_space_group_name_H-M "I M A 2"
_symmetry_group_IT_number 46
_symmetry_cell_setting 'orthorhombic'
loop_
_space_group_symop_operation_xyz
x,y,z
-x,-y,z
1/2-x,y,z
1/2+x,-y,z
1/2+x,1/2+y,1/2+z
1/2-x,1/2-y,1/2+z
-x,1/2+y,1/2+z
x,1/2-y,1/2+z
loop_
_atom_site_type_symbol
_atom_site_label
_atom_site_fract_x
_atom_site_fract_y
_atom_site_fract_z
Si Si1 0.567444 0.189033 0.851180
Si Si2 0.068782 0.733166 0.633266
Si Si3 0.431865 0.308695 0.769712
Si Si4 0.432180 0.568738 0.844382
Si Si5 0.569373 0.769140 0.988486
Si Si6 0.071010 0.119658 0.476994
Si Si7 0.931600 0.627055 0.131855
Si Si8 0.934253 0.433550 0.261538
O O1 0.750000 0.189169 0.866080
O O2 0.526324 0.251836 0.806914
O O3 0.479432 0.186439 0.924383
O O4 0.513816 0.125101 0.810592
O O5 0.250000 0.721534 0.646793
O O6 0.972627 0.690876 0.688549
O O7 0.024963 0.709551 0.556495
O O8 0.031229 0.808526 0.644154
O O9 0.250000 0.296115 0.781981
O O10 0.477398 0.377346 0.801177
O O11 0.500000 0.500000 0.820849
O O12 0.250000 0.572064 0.828009
O O13 0.460470 0.579127 0.926287
O O14 0.750000 0.777747 0.006030
O O15 0.531193 0.695334 0.968379
O O16 0.250000 0.106054 0.456337
O O17 0.036695 0.098112 0.555635
O O18 0.750000 0.645429 0.139812
O O19 0.984718 0.573974 0.186860
O O20 0.750000 0.436536 0.252232
O O21 0.000000 0.500000 0.294167
#
# Coordination Sequence:
#
# PCOD8192493 Si02
#       8
#     8   8   8   8   8   8   8   8
#     4  11  22  37  59  88 116 150 195 244 293 344
#     4  11  21  35  57  87 120 151 191 240 291 344
#     4  12  23  38  61  87 117 153 195 241 292 347
#     4  12  25  40  59  83 116 155 197 242 293 348
#     4  10  20  35  58  87 118 152 190 236 292 347
#     4   9  19  35  54  81 115 152 194 234 281 344
#     4  10  20  35  56  81 115 154 196 238 288 344
#     4  11  24  39  57  82 117 155 199 242 292 348
#
# _framework density 18.702411000000001
#
# number of rings (size 3 to 8) (size 9 to 14) (size 15 to 20)
#    0.000    1.250    2.500    5.625    0.000    4.500 
#    0.000    0.000    0.000    0.750    0.000    3.500 
#    0.000    0.000    0.000    0.000    0.000    0.000 
#
# Total GULP energy -396976.907494 kJ/mol
# GULP energy per Si atom -12405.528359 kJ/mol
# Density = 1.865984 g / cm^3
# Si number density = 18.702411 Si / 1000 Ang^3
#
#
#
# Elastic Constant Matrix: (Units=GPa)
#
#
# Indices 1 2 3 4 5 6 
#
# 1 58.3935 14.1950 12.2140 0.0000 0.0000 0.0000
# 2 14.1950 95.4517 42.1433 0.0000 0.0000 0.0000
# 3 12.2140 42.1433 92.1722 0.0000 0.0000 0.0000
# 4 0.0000 0.0000 0.0000 20.7330 0.0000 0.0000
# 5 0.0000 0.0000 0.0000 0.0000 34.5915 0.0000
# 6 0.0000 0.0000 0.0000 0.0000 0.0000 28.3978
#
#
#
# Elastic Compliance Matrix: (Units=1/GPa)
#
#
# Indices 1 2 3 4 5 6 
#
# 1 0.017921 -0.002025 -0.001449 0.000000 0.000000 0.000000
# 2 -0.002025 0.013355 -0.005838 0.000000 0.000000 0.000000
# 3 -0.001449 -0.005838 0.013710 0.000000 0.000000 0.000000
# 4 0.000000 0.000000 0.000000 0.048232 0.000000 0.000000
# 5 0.000000 0.000000 0.000000 0.000000 0.028909 0.000000
# 6 0.000000 0.000000 0.000000 0.000000 0.000000 0.035214
#
#
# Mechanical properties :
#
#
# Convention : Reuss Voigt Hill
#
# Bulk Modulus (GPa) = 37.93302 42.56910 40.25106
# Shear Modulus (GPa) = 27.06317 28.57545 27.81931
#
# Velocity S-wave (km/s) = 3.80813 3.91308 3.86096
# Velocity P-wave (km/s) = 6.29780 6.57472 6.43775
#
# Compressibility (1/GPa) = 0.02636226
#
# Stress axis : x y z
#
# Youngs Moduli (GPa) = 55.80185 74.87691 72.93701
#
# Poissons Ratio (x) = 0.15166 0.10566
# Poissons Ratio (y) = 0.11302 0.42580
# Poissons Ratio (z) = 0.08084 0.43713
#
# Static dielectric constant tensor:
#      x y z
#    x 3.468660 0.000000 0.000000 
#    y 0.000000 3.260750 0.000000 
#    z 0.000000 0.000000 3.600250 
# 
# 
# High freq. dielectric constant tensor:
#      x y z
#    x 1.740160 0.000000 0.000000 
#    y 0.000000 1.698450 0.000000 
#    z 0.000000 0.000000 1.730820 
# 
# From -- ./inp_files/18584.got.cif
#   From: 2010.03.12/outbox.cif.g09.slc.cpg/sg46_10_cif.got.tgz:18584.got - 2010.04.14 02:56:35.
