data_PCOD8192358
_publ_section_title
;
Structure prediction by ZEFSAII (Michael W. Deem and Ramdas Pophale) SiO2 
 PCOD8192358
Probable space group: I M A 2
;
_chemical_formula_sum "Si O2"
_cell_formula_units_Z 48
_cell_length_a 14.131493
_cell_length_b 9.467431
_cell_length_c 17.050589
_cell_angle_alpha 90.000000
_cell_angle_beta 90.000000
_cell_angle_gamma 90.000000
_cell_volume 2281.180142
_symmetry_space_group_name_H-M "I M A 2"
_symmetry_group_IT_number 46
_symmetry_cell_setting 'orthorhombic'
loop_
_space_group_symop_operation_xyz
x,y,z
-x,-y,z
1/2-x,y,z
1/2+x,-y,z
1/2+x,1/2+y,1/2+z
1/2-x,1/2-y,1/2+z
-x,1/2+y,1/2+z
x,1/2-y,1/2+z
loop_
_atom_site_type_symbol
_atom_site_label
_atom_site_fract_x
_atom_site_fract_y
_atom_site_fract_z
Si Si1 0.250000 0.093812 0.251820
Si Si2 0.250000 0.909083 0.755834
Si Si3 0.044860 0.649755 0.883511
Si Si4 0.566837 0.869543 0.968130
Si Si5 0.750000 0.659315 0.363674
Si Si6 0.066496 0.369324 0.647945
Si Si7 0.750000 0.343054 0.859749
Si Si8 0.545613 0.350297 0.232745
O O1 0.250000 0.179292 0.334219
O O2 0.341970 0.128971 0.201996
O O3 0.250000 0.930462 0.277627
O O4 0.250000 0.821413 0.836988
O O5 0.155143 0.873264 0.706816
O O6 0.250000 0.071466 0.782716
O O7 0.154610 0.625146 0.908783
O O8 0.036819 0.749065 0.807711
O O9 0.000000 0.500000 0.862307
O O10 0.989975 0.723513 0.954921
O O11 0.658344 0.876467 0.914035
O O12 0.500000 0.000000 0.945580
O O13 0.599351 0.876455 0.058061
O O14 0.000000 0.500000 0.670280
O O15 0.009149 0.223669 0.661181
O O16 0.500000 0.500000 0.254265
#
# Coordination Sequence:
#
# PCOD8192358 Si02
#       8
#     4   4   8   8   4   8   4   8
#     4  12  23  39  64  91 118 155 204 254 300 350
#     4  10  20  33  57  87 115 149 197 248 292 344
#     4  11  21  37  60  88 121 157 203 252 299 355
#     4  11  24  41  61  88 125 164 200 244 301 363
#     4  12  23  39  64  91 118 155 204 254 300 350
#     4  11  24  41  61  88 125 164 200 244 301 363
#     4  10  20  33  57  87 115 149 197 248 292 344
#     4  11  21  37  60  88 121 157 203 252 299 355
#
# _framework density 21.041740999999998
#
# number of rings (size 3 to 8) (size 9 to 14) (size 15 to 20)
#    0.000    1.000    0.000   10.500    0.000    0.667 
#    0.000    2.500    0.000    0.000    0.000    0.000 
#    0.000    0.000    0.000    0.000    0.000    0.000 
#
# Total GULP energy -297672.036021 kJ/mol
# GULP energy per Si atom -12403.001501 kJ/mol
# Density = 2.099385 g / cm^3
# Si number density = 21.041741 Si / 1000 Ang^3
#
#
#
# Elastic Constant Matrix: (Units=GPa)
#
#
# Indices 1 2 3 4 5 6 
#
# 1 172.8323 44.8209 41.8888 0.0000 0.0000 0.0000
# 2 44.8209 122.3789 26.1025 0.0000 0.0000 0.0000
# 3 41.8888 26.1025 71.9241 0.0000 0.0000 0.0000
# 4 0.0000 0.0000 0.0000 29.8275 0.0000 0.0000
# 5 0.0000 0.0000 0.0000 0.0000 31.7976 0.0000
# 6 0.0000 0.0000 0.0000 0.0000 0.0000 32.0291
#
#
#
# Elastic Compliance Matrix: (Units=1/GPa)
#
#
# Indices 1 2 3 4 5 6 
#
# 1 0.007109 -0.001865 -0.003463 0.000000 0.000000 0.000000
# 2 -0.001865 0.009346 -0.002306 0.000000 0.000000 0.000000
# 3 -0.003463 -0.002306 0.016757 0.000000 0.000000 0.000000
# 4 0.000000 0.000000 0.000000 0.033526 0.000000 0.000000
# 5 0.000000 0.000000 0.000000 0.000000 0.031449 0.000000
# 6 0.000000 0.000000 0.000000 0.000000 0.000000 0.031222
#
#
# Mechanical properties :
#
#
# Convention : Reuss Voigt Hill
#
# Bulk Modulus (GPa) = 55.72789 65.86219 60.79504
# Shear Modulus (GPa) = 33.18752 35.68573 34.43663
#
# Velocity S-wave (km/s) = 3.97574 4.12266 4.04986
# Velocity P-wave (km/s) = 6.90052 7.35054 7.12908
#
# Compressibility (1/GPa) = 0.01794434
#
# Stress axis : x y z
#
# Youngs Moduli (GPa) = 140.66631 106.99583 59.67484
#
# Poissons Ratio (x) = 0.19954 0.20668
# Poissons Ratio (y) = 0.26233 0.13760
# Poissons Ratio (z) = 0.48720 0.24671
#
# Static dielectric constant tensor:
#      x y z
#    x 4.136210 0.000000 0.000000 
#    y 0.000000 4.005790 0.000000 
#    z 0.000000 0.000000 3.415760 
# 
# 
# High freq. dielectric constant tensor:
#      x y z
#    x 1.849970 0.000000 0.000000 
#    y 0.000000 1.841070 0.000000 
#    z 0.000000 0.000000 1.781940 
# 
# From -- ./inp_files/16615.got.cif
#   From: 2010.03.12/outbox.cif.g09.slc.cpg/sg46_9_cif.got.tgz:16615.got - 2010.04.14 02:56:35.
