data_PCOD8192468
_publ_section_title
;
Structure prediction by ZEFSAII (Michael W. Deem and Ramdas Pophale) SiO2 
 PCOD8192468
Probable space group: I M A 2
;
_chemical_formula_sum "Si O2"
_cell_formula_units_Z 52
_cell_length_a 12.987165
_cell_length_b 17.564843
_cell_length_c 12.302642
_cell_angle_alpha 90.000000
_cell_angle_beta 90.000000
_cell_angle_gamma 90.000000
_cell_volume 2806.448112
_symmetry_space_group_name_H-M "I M A 2"
_symmetry_group_IT_number 46
_symmetry_cell_setting 'orthorhombic'
loop_
_space_group_symop_operation_xyz
x,y,z
-x,-y,z
1/2-x,y,z
1/2+x,-y,z
1/2+x,1/2+y,1/2+z
1/2-x,1/2-y,1/2+z
-x,1/2+y,1/2+z
x,1/2-y,1/2+z
loop_
_atom_site_type_symbol
_atom_site_label
_atom_site_fract_x
_atom_site_fract_y
_atom_site_fract_z
Si Si1 0.369999 0.123301 0.271200
Si Si2 0.058552 0.115735 0.511703
Si Si3 0.371633 0.876518 0.030677
Si Si4 0.132830 0.642117 0.281909
Si Si5 0.135393 0.958566 0.579504
Si Si6 0.500376 0.746687 0.651876
Si Si7 0.500000 0.000000 0.156555
O O1 0.250000 0.116412 0.246305
O O2 0.388732 0.134408 0.398406
O O3 0.413581 0.194066 0.204697
O O4 0.425535 0.046755 0.234729
O O5 0.940335 0.086697 0.497465
O O6 0.062846 0.192712 0.580400
O O7 0.119065 0.049230 0.576148
O O8 0.250000 0.878181 0.055660
O O9 0.419508 0.798894 0.077429
O O10 0.426864 0.948688 0.082834
O O11 0.395569 0.882572 0.903110
O O12 0.250000 0.670655 0.275615
O O13 0.114827 0.569827 0.202611
O O14 0.062234 0.712754 0.247923
O O15 0.250000 0.938201 0.540510
#
# Coordination Sequence:
#
# PCOD8192468 Si02
#       7
#     8   8   8   8   8   8   4
#     4  11  23  38  55  76 104 137 174 216 262 314
#     4  10  20  35  55  78 106 138 174 216 261 306
#     4  10  20  35  56  79 106 140 174 214 262 308
#     4   9  18  34  56  82 109 138 175 216 257 303
#     4   9  18  33  55  81 107 136 174 218 259 303
#     4  10  21  36  53  78 108 140 175 214 257 309
#     4  10  22  38  56  78 104 134 174 218 264 312
#
# _framework density 18.528759000000001
#
# number of rings (size 3 to 8) (size 9 to 14) (size 15 to 20)
#    0.000    2.154    0.000    3.231    0.000    4.308 
#    0.000    3.846    0.000    4.615    0.000    0.000 
#    0.000    0.000    0.000    0.000    0.000    0.000 
#
# Total GULP energy -322431.917185 kJ/mol
# GULP energy per Si atom -12401.227584 kJ/mol
# Density = 1.848659 g / cm^3
# Si number density = 18.528759 Si / 1000 Ang^3
#
#
#
# Elastic Constant Matrix: (Units=GPa)
#
#
# Indices 1 2 3 4 5 6 
#
# 1 126.5884 50.0684 50.4852 0.0000 0.0000 0.0000
# 2 50.0684 117.5887 46.3725 0.0000 0.0000 0.0000
# 3 50.4852 46.3725 94.7669 0.0000 0.0000 0.0000
# 4 0.0000 0.0000 0.0000 22.0138 0.0000 0.0000
# 5 0.0000 0.0000 0.0000 0.0000 30.3148 0.0000
# 6 0.0000 0.0000 0.0000 0.0000 0.0000 18.3893
#
#
#
# Elastic Compliance Matrix: (Units=1/GPa)
#
#
# Indices 1 2 3 4 5 6 
#
# 1 0.010763 -0.002877 -0.004326 0.000000 0.000000 0.000000
# 2 -0.002877 0.011307 -0.004000 0.000000 0.000000 0.000000
# 3 -0.004326 -0.004000 0.014814 0.000000 0.000000 0.000000
# 4 0.000000 0.000000 0.000000 0.045426 0.000000 0.000000
# 5 0.000000 0.000000 0.000000 0.000000 0.032987 0.000000
# 6 0.000000 0.000000 0.000000 0.000000 0.000000 0.054379
#
#
# Mechanical properties :
#
#
# Convention : Reuss Voigt Hill
#
# Bulk Modulus (GPa) = 69.07113 70.31069 69.69091
# Shear Modulus (GPa) = 25.39265 26.94480 26.16872
#
# Velocity S-wave (km/s) = 3.70597 3.81755 3.76218
# Velocity P-wave (km/s) = 7.46130 7.58029 7.52103
#
# Compressibility (1/GPa) = 0.01447783
#
# Stress axis : x y z
#
# Youngs Moduli (GPa) = 92.91400 88.44383 67.50290
#
# Poissons Ratio (x) = 0.25442 0.29201
# Poissons Ratio (y) = 0.26728 0.27002
# Poissons Ratio (z) = 0.40194 0.35379
#
# Static dielectric constant tensor:
#      x y z
#    x 3.493240 0.000000 0.000000 
#    y 0.000000 3.455020 0.000000 
#    z 0.000000 0.000000 3.379090 
# 
# 
# High freq. dielectric constant tensor:
#      x y z
#    x 1.726540 0.000000 0.000000 
#    y 0.000000 1.724250 0.000000 
#    z 0.000000 0.000000 1.717730 
# 
# From -- ./inp_files/11227.got.cif
#   From: 2010.03.12/outbox.cif.g09.slc.cpg/sg46_6_cif.got.tgz:11227.got - 2010.04.14 02:56:35.
