data_PCOD8192262
_publ_section_title
;
Structure prediction by ZEFSAII (Michael W. Deem and Ramdas Pophale) SiO2 
 PCOD8192262
Probable space group: I M A 2
;
_chemical_formula_sum "Si O2"
_cell_formula_units_Z 64
_cell_length_a 18.031735
_cell_length_b 12.059360
_cell_length_c 14.409353
_cell_angle_alpha 90.000000
_cell_angle_beta 90.000000
_cell_angle_gamma 90.000000
_cell_volume 3133.330867
_symmetry_space_group_name_H-M "I M A 2"
_symmetry_group_IT_number 46
_symmetry_cell_setting 'orthorhombic'
loop_
_space_group_symop_operation_xyz
x,y,z
-x,-y,z
1/2-x,y,z
1/2+x,-y,z
1/2+x,1/2+y,1/2+z
1/2-x,1/2-y,1/2+z
-x,1/2+y,1/2+z
x,1/2-y,1/2+z
loop_
_atom_site_type_symbol
_atom_site_label
_atom_site_fract_x
_atom_site_fract_y
_atom_site_fract_z
Si Si1 0.665084 0.033740 0.202270
Si Si2 0.457588 0.282603 0.446617
Si Si3 0.927559 0.270248 0.612847
Si Si4 0.420297 0.460299 0.878948
Si Si5 0.471152 0.618050 0.265332
Si Si6 0.831920 0.940973 0.008840
Si Si7 0.333244 0.862250 0.877531
Si Si8 0.834471 0.140144 0.483075
O O1 0.750000 0.077481 0.220395
O O2 0.607786 0.129555 0.171662
O O3 0.636126 0.967466 0.292378
O O4 0.666234 0.945492 0.119736
O O5 0.522274 0.299126 0.522966
O O6 0.484378 0.340573 0.353737
O O7 0.384794 0.344406 0.478151
O O8 0.431136 0.158787 0.425503
O O9 0.859587 0.192374 0.580677
O O10 0.981902 0.204073 0.681808
O O11 0.500000 0.500000 0.843032
O O12 0.388547 0.538951 0.959651
O O13 0.500000 0.500000 0.230872
O O14 0.384344 0.608135 0.290609
O O15 0.750000 0.909082 0.973679
O O16 0.854129 0.061965 0.967240
O O17 0.250000 0.886807 0.845277
O O18 0.343025 0.733135 0.903055
O O19 0.750000 0.099204 0.491584
#
# Coordination Sequence:
#
# PCOD8192262 Si02
#       8
#     8   8   8   8   8   8   8   8
#     4  11  24  43  71 105 133 171 236 294 342 401
#     4  12  26  45  69  97 137 184 224 269 344 419
#     4  12  25  41  69 101 135 172 222 297 341 401
#     4  12  25  43  64  99 141 182 225 278 340 415
#     4  12  25  42  65  99 130 174 224 274 335 399
#     4  10  22  41  68  98 130 174 226 279 331 400
#     4  10  19  40  67  95 129 166 218 277 333 391
#     4  11  22  41  68  96 132 179 221 275 347 401
#
# _framework density 20.425547000000002
#
# number of rings (size 3 to 8) (size 9 to 14) (size 15 to 20)
#    0.000    0.750    5.000    2.250    5.250    3.000 
#    0.000    0.000    0.000    0.000    0.000    0.000 
#    0.000    0.000    0.000    0.000    0.000    0.000 
#
# Total GULP energy -396803.338797 kJ/mol
# GULP energy per Si atom -12400.104337 kJ/mol
# Density = 2.037906 g / cm^3
# Si number density = 20.425547 Si / 1000 Ang^3
#
#
#
# Elastic Constant Matrix: (Units=GPa)
#
#
# Indices 1 2 3 4 5 6 
#
# 1 115.3779 59.2848 29.5588 0.0000 0.0000 0.0000
# 2 59.2848 107.3240 16.9195 0.0000 0.0000 0.0000
# 3 29.5588 16.9195 64.3744 0.0000 0.0000 0.0000
# 4 0.0000 0.0000 0.0000 24.7986 0.0000 0.0000
# 5 0.0000 0.0000 0.0000 0.0000 24.9831 0.0000
# 6 0.0000 0.0000 0.0000 0.0000 0.0000 35.9431
#
#
#
# Elastic Compliance Matrix: (Units=1/GPa)
#
#
# Indices 1 2 3 4 5 6 
#
# 1 0.013156 -0.006588 -0.004309 0.000000 0.000000 0.000000
# 2 -0.006588 0.013019 -0.000397 0.000000 0.000000 0.000000
# 3 -0.004309 -0.000397 0.017617 0.000000 0.000000 0.000000
# 4 0.000000 0.000000 0.000000 0.040325 0.000000 0.000000
# 5 0.000000 0.000000 0.000000 0.000000 0.040027 0.000000
# 6 0.000000 0.000000 0.000000 0.000000 0.000000 0.027822
#
#
# Mechanical properties :
#
#
# Convention : Reuss Voigt Hill
#
# Bulk Modulus (GPa) = 47.16049 55.40025 51.28037
# Shear Modulus (GPa) = 27.52951 29.23252 28.38102
#
# Velocity S-wave (km/s) = 3.67522 3.78719 3.73163
# Velocity P-wave (km/s) = 6.41473 6.80483 6.61265
#
# Compressibility (1/GPa) = 0.02120419
#
# Stress axis : x y z
#
# Youngs Moduli (GPa) = 76.00878 76.80886 56.76268
#
# Poissons Ratio (x) = 0.50602 0.24462
# Poissons Ratio (y) = 0.50075 0.02252
# Poissons Ratio (z) = 0.32756 0.03048
#
# Static dielectric constant tensor:
#      x y z
#    x 3.925700 0.000000 0.000000 
#    y 0.000000 3.611650 0.000000 
#    z 0.000000 0.000000 3.683450 
# 
# 
# High freq. dielectric constant tensor:
#      x y z
#    x 1.812130 0.000000 0.000000 
#    y 0.000000 1.785170 0.000000 
#    z 0.000000 0.000000 1.797550 
# 
# From -- ./inp_files/16802.got.cif
#   From: 2010.03.12/outbox.cif.g09.slc.cpg/sg46_9_cif.got.tgz:16802.got - 2010.04.14 02:56:35.
