data_PCOD8192952
_publ_section_title
;
Structure prediction by ZEFSAII (Michael W. Deem and Ramdas Pophale) SiO2 
 PCOD8192952
Probable space group: I M A 2
;
_chemical_formula_sum "Si O2"
_cell_formula_units_Z 48
_cell_length_a 8.670394
_cell_length_b 9.090445
_cell_length_c 30.203793
_cell_angle_alpha 90.000000
_cell_angle_beta 90.000000
_cell_angle_gamma 90.000000
_cell_volume 2380.594697
_symmetry_space_group_name_H-M "I M A 2"
_symmetry_group_IT_number 46
_symmetry_cell_setting 'orthorhombic'
loop_
_space_group_symop_operation_xyz
x,y,z
-x,-y,z
1/2-x,y,z
1/2+x,-y,z
1/2+x,1/2+y,1/2+z
1/2-x,1/2-y,1/2+z
-x,1/2+y,1/2+z
x,1/2-y,1/2+z
loop_
_atom_site_type_symbol
_atom_site_label
_atom_site_fract_x
_atom_site_fract_y
_atom_site_fract_z
Si Si1 0.929756 0.660486 0.885060
Si Si2 0.928900 0.658423 0.727239
Si Si3 0.068171 0.839993 0.806240
Si Si4 0.931969 0.343005 0.563661
Si Si5 0.070025 0.346274 0.469913
Si Si6 0.571632 0.655370 0.139740
O O1 0.750000 0.652687 0.873985
O O2 0.961095 0.718783 0.934426
O O3 0.000000 0.500000 0.879396
O O4 0.008213 0.773902 0.851941
O O5 0.750000 0.648599 0.740516
O O6 0.954152 0.741646 0.681564
O O7 0.000000 0.500000 0.720196
O O8 0.020788 0.736953 0.766018
O O9 0.250000 0.853056 0.808518
O O10 0.000000 0.000000 0.798161
O O11 0.750000 0.355915 0.563362
O O12 0.000000 0.500000 0.578195
O O13 0.990027 0.295982 0.515227
O O14 0.983550 0.218876 0.597578
O O15 0.250000 0.370768 0.478687
O O16 0.000000 0.500000 0.452578
O O17 0.500000 0.500000 0.152475
O O18 0.750000 0.638221 0.127527
#
# Coordination Sequence:
#
# PCOD8192952 Si02
#       6
#     8   8   8   8   8   8
#     4  11  24  41  62  89 122 160 202 248 299 355
#     4  11  24  42  65  92 123 159 200 246 297 354
#     4  12  25  42  65  91 123 159 199 247 298 356
#     4  11  22  38  62  89 121 159 201 249 300 357
#     4  10  21  38  61  88 119 156 201 250 301 358
#     4  11  24  41  62  89 122 159 201 248 299 356
#
# _framework density 20.163029000000002
#
# number of rings (size 3 to 8) (size 9 to 14) (size 15 to 20)
#    0.000    1.000    0.000    8.000    0.000   10.000 
#    0.000    1.667    0.000    0.000    0.000    0.000 
#    0.000    0.000    0.000    0.000    0.000    0.000 
#
# Total GULP energy -297771.611750 kJ/mol
# GULP energy per Si atom -12407.150490 kJ/mol
# Density = 2.011714 g / cm^3
# Si number density = 20.163029 Si / 1000 Ang^3
#
#
#
# Elastic Constant Matrix: (Units=GPa)
#
#
# Indices 1 2 3 4 5 6 
#
# 1 172.6674 55.8350 63.2801 0.0000 0.0000 0.0000
# 2 55.8350 113.9954 40.9288 0.0000 0.0000 0.0000
# 3 63.2801 40.9288 90.9288 0.0000 0.0000 0.0000
# 4 0.0000 0.0000 0.0000 51.7349 0.0000 0.0000
# 5 0.0000 0.0000 0.0000 0.0000 54.3183 0.0000
# 6 0.0000 0.0000 0.0000 0.0000 0.0000 36.6522
#
#
#
# Elastic Compliance Matrix: (Units=1/GPa)
#
#
# Indices 1 2 3 4 5 6 
#
# 1 0.008278 -0.002369 -0.004695 0.000000 0.000000 0.000000
# 2 -0.002369 0.011141 -0.003366 0.000000 0.000000 0.000000
# 3 -0.004695 -0.003366 0.015780 0.000000 0.000000 0.000000
# 4 0.000000 0.000000 0.000000 0.019329 0.000000 0.000000
# 5 0.000000 0.000000 0.000000 0.000000 0.018410 0.000000
# 6 0.000000 0.000000 0.000000 0.000000 0.000000 0.027283
#
#
# Mechanical properties :
#
#
# Convention : Reuss Voigt Hill
#
# Bulk Modulus (GPa) = 69.73728 77.51995 73.62861
# Shear Modulus (GPa) = 39.72620 43.04426 41.38523
#
# Velocity S-wave (km/s) = 4.44356 4.62541 4.53540
# Velocity P-wave (km/s) = 7.80953 8.18877 8.00140
#
# Compressibility (1/GPa) = 0.01433953
#
# Stress axis : x y z
#
# Youngs Moduli (GPa) = 120.80128 89.75660 63.37170
#
# Poissons Ratio (x) = 0.21264 0.29750
# Poissons Ratio (y) = 0.28618 0.21332
# Poissons Ratio (z) = 0.56711 0.30214
#
# Static dielectric constant tensor:
#      x y z
#    x 3.907820 0.000000 0.000000 
#    y 0.000000 3.697400 0.000000 
#    z 0.000000 0.000000 3.808430 
# 
# 
# High freq. dielectric constant tensor:
#      x y z
#    x 1.809190 0.000000 0.000000 
#    y 0.000000 1.796290 0.000000 
#    z 0.000000 0.000000 1.801790 
# 
# From -- ./inp_files/25004.got.cif
#   From: 2010.03.12/outbox.cif.g09.slc.cpg/sg46_13_cif.got.tgz:25004.got - 2010.04.14 02:56:35.
