data_PCOD8192167
_publ_section_title
;
Structure prediction by ZEFSAII (Michael W. Deem and Ramdas Pophale) SiO2 
 PCOD8192167
Probable space group: I M A 2
;
_chemical_formula_sum "Si O2"
_cell_formula_units_Z 64
_cell_length_a 17.474458
_cell_length_b 8.866095
_cell_length_c 20.939326
_cell_angle_alpha 90.000000
_cell_angle_beta 90.000000
_cell_angle_gamma 90.000000
_cell_volume 3244.134063
_symmetry_space_group_name_H-M "I M A 2"
_symmetry_group_IT_number 46
_symmetry_cell_setting 'orthorhombic'
loop_
_space_group_symop_operation_xyz
x,y,z
-x,-y,z
1/2-x,y,z
1/2+x,-y,z
1/2+x,1/2+y,1/2+z
1/2-x,1/2-y,1/2+z
-x,1/2+y,1/2+z
x,1/2-y,1/2+z
loop_
_atom_site_type_symbol
_atom_site_label
_atom_site_fract_x
_atom_site_fract_y
_atom_site_fract_z
Si Si1 0.417646 0.920219 0.847540
Si Si2 0.339128 0.583699 0.109544
Si Si3 0.920845 0.073047 0.485191
Si Si4 0.339670 0.920744 0.112514
Si Si5 0.418782 0.573993 0.485824
Si Si6 0.159369 0.384258 0.733960
Si Si7 0.413679 0.433303 0.225999
Si Si8 0.582397 0.063785 0.341774
O O1 0.422008 0.742824 0.835006
O O2 0.500000 0.000000 0.847992
O O3 0.371420 0.989190 0.787267
O O4 0.379531 0.960827 0.916421
O O5 0.250000 0.578843 0.119762
O O6 0.357633 0.527476 0.037730
O O7 0.372517 0.751616 0.122589
O O8 0.374936 0.469293 0.159354
O O9 0.933467 0.249766 0.486849
O O10 0.895447 0.017777 0.414615
O O11 0.000000 0.000000 0.506475
O O12 0.250000 0.910652 0.108339
O O13 0.367389 0.985505 0.044180
O O14 0.365743 0.026215 0.170269
O O15 0.500000 0.500000 0.493310
O O16 0.250000 0.339277 0.732214
O O17 0.100061 0.244793 0.736761
O O18 0.145729 0.492394 0.794925
O O19 0.500000 0.500000 0.223730
O O20 0.500000 0.000000 0.322899
#
# Coordination Sequence:
#
# PCOD8192167 Si02
#       8
#     8   8   8   8   8   8   8   8
#     4   9  18  34  56  84 112 140 181 232 281 329
#     4  10  20  36  56  79 111 149 188 232 285 342
#     4   9  19  34  55  83 111 142 184 231 277 333
#     4   9  20  37  54  76 108 144 181 224 277 336
#     4   9  18  33  56  81 106 138 178 226 275 328
#     4  11  24  40  57  83 119 153 191 241 292 342
#     4  11  22  37  57  81 111 148 191 238 286 341
#     4  10  19  35  60  85 112 148 190 234 282 341
#
# _framework density 19.727913999999998
#
# number of rings (size 3 to 8) (size 9 to 14) (size 15 to 20)
#    0.000    2.250    0.000    3.000    0.000    5.000 
#    0.000    3.750    0.000    1.500    0.000    0.000 
#    0.000    0.000    0.000    0.000    0.000    0.000 
#
# Total GULP energy -396513.039530 kJ/mol
# GULP energy per Si atom -12391.032485 kJ/mol
# Density = 1.968301 g / cm^3
# Si number density = 19.727914 Si / 1000 Ang^3
#
#
#
# Elastic Constant Matrix: (Units=GPa)
#
#
# Indices 1 2 3 4 5 6 
#
# 1 42.6412 28.6791 34.7676 0.0000 0.0000 0.0000
# 2 28.6791 81.8047 57.3511 0.0000 0.0000 0.0000
# 3 34.7676 57.3511 162.0453 0.0000 0.0000 0.0000
# 4 0.0000 0.0000 0.0000 32.3818 0.0000 0.0000
# 5 0.0000 0.0000 0.0000 0.0000 21.5903 0.0000
# 6 0.0000 0.0000 0.0000 0.0000 0.0000 25.0319
#
#
#
# Elastic Compliance Matrix: (Units=1/GPa)
#
#
# Indices 1 2 3 4 5 6 
#
# 1 0.032444 -0.008637 -0.003904 0.000000 0.000000 0.000000
# 2 -0.008637 0.018558 -0.004715 0.000000 0.000000 0.000000
# 3 -0.003904 -0.004715 0.008677 0.000000 0.000000 0.000000
# 4 0.000000 0.000000 0.000000 0.030882 0.000000 0.000000
# 5 0.000000 0.000000 0.000000 0.000000 0.046317 0.000000
# 6 0.000000 0.000000 0.000000 0.000000 0.000000 0.039949
#
#
# Mechanical properties :
#
#
# Convention : Reuss Voigt Hill
#
# Bulk Modulus (GPa) = 39.73485 58.67630 49.20557
# Shear Modulus (GPa) = 22.75548 26.84703 24.80126
#
# Velocity S-wave (km/s) = 3.39996 3.69299 3.54950
# Velocity P-wave (km/s) = 5.96641 6.92760 6.46489
#
# Compressibility (1/GPa) = 0.02516683
#
# Stress axis : x y z
#
# Youngs Moduli (GPa) = 30.82264 53.88615 115.24148
#
# Poissons Ratio (x) = 0.46542 0.44992
# Poissons Ratio (y) = 0.26622 0.54334
# Poissons Ratio (z) = 0.12034 0.25406
#
# Static dielectric constant tensor:
#      x y z
#    x 3.287050 0.000000 0.000000 
#    y 0.000000 3.636670 0.000000 
#    z 0.000000 0.000000 4.395020 
# 
# 
# High freq. dielectric constant tensor:
#      x y z
#    x 1.735000 0.000000 0.000000 
#    y 0.000000 1.768700 0.000000 
#    z 0.000000 0.000000 1.798010 
# 
# From -- ./inp_files/20242.got.cif
#   From: 2010.03.12/outbox.cif.g09.slc.cpg/sg46_11_cif.got.tgz:20242.got - 2010.04.14 02:56:35.
