data_PCOD8192649
_publ_section_title
;
Structure prediction by ZEFSAII (Michael W. Deem and Ramdas Pophale) SiO2 
 PCOD8192649
Probable space group: I M A 2
;
_chemical_formula_sum "Si O2"
_cell_formula_units_Z 64
_cell_length_a 24.628018
_cell_length_b 4.954415
_cell_length_c 26.095452
_cell_angle_alpha 90.000000
_cell_angle_beta 90.000000
_cell_angle_gamma 90.000000
_cell_volume 3184.099774
_symmetry_space_group_name_H-M "I M A 2"
_symmetry_group_IT_number 46
_symmetry_cell_setting 'orthorhombic'
loop_
_space_group_symop_operation_xyz
x,y,z
-x,-y,z
1/2-x,y,z
1/2+x,-y,z
1/2+x,1/2+y,1/2+z
1/2-x,1/2-y,1/2+z
-x,1/2+y,1/2+z
x,1/2-y,1/2+z
loop_
_atom_site_type_symbol
_atom_site_label
_atom_site_fract_x
_atom_site_fract_y
_atom_site_fract_z
Si Si1 0.407413 0.955412 0.751120
Si Si2 0.441920 0.136323 0.506763
Si Si3 0.873823 0.611374 0.910432
Si Si4 0.813727 0.097984 0.950289
Si Si5 0.640014 0.267725 0.659466
Si Si6 0.560141 0.940496 0.310619
Si Si7 0.385890 0.865628 0.045167
Si Si8 0.311427 0.298240 0.205408
O O1 0.413579 0.839745 0.692112
O O2 0.413803 0.713590 0.790148
O O3 0.346223 0.082065 0.753283
O O4 0.446648 0.205281 0.767091
O O5 0.425123 0.160458 0.447694
O O6 0.436378 0.433703 0.532089
O O7 0.500000 0.000000 0.512319
O O8 0.400204 0.944961 0.536466
O O9 0.848370 0.318306 0.919375
O O10 0.899072 0.657419 0.854610
O O11 0.825209 0.820558 0.920606
O O12 0.750000 0.164320 0.950579
O O13 0.834213 0.065547 0.009194
O O14 0.627236 0.393402 0.604759
O O15 0.680916 0.008890 0.657262
O O16 0.668031 0.502004 0.692039
O O17 0.500000 0.000000 0.332066
O O18 0.250000 0.279723 0.223383
#
# Coordination Sequence:
#
# PCOD8192649 Si02
#       8
#     8   8   8   8   8   8   8   8
#     4  10  22  41  59  87 125 148 195 265 292 349
#     4  10  20  37  59  86 118 155 195 245 299 354
#     4  10  22  39  62  87 121 152 198 257 295 354
#     4  10  21  39  60  89 125 158 193 238 306 365
#     4  10  20  38  60  82 127 153 195 246 296 340
#     4  12  23  41  66  88 113 160 210 251 306 359
#     4  10  21  36  60  87 121 157 196 245 288 358
#     4  10  20  37  62  83 114 154 191 240 295 350
#
# _framework density 20.099872000000001
#
# number of rings (size 3 to 8) (size 9 to 14) (size 15 to 20)
#    0.750    1.000    1.250    3.375    0.000    1.000 
#    0.000   10.000    0.000    0.000    0.000    0.000 
#    0.000    0.000    0.000    0.000    0.000    0.000 
#
# Total GULP energy -396457.619737 kJ/mol
# GULP energy per Si atom -12389.300617 kJ/mol
# Density = 2.005412 g / cm^3
# Si number density = 20.099872 Si / 1000 Ang^3
#
#
#
# Elastic Constant Matrix: (Units=GPa)
#
#
# Indices 1 2 3 4 5 6 
#
# 1 77.1072 13.0568 44.2392 0.0000 0.0000 0.0000
# 2 13.0568 113.6231 28.1335 0.0000 0.0000 0.0000
# 3 44.2392 28.1335 83.0179 0.0000 0.0000 0.0000
# 4 0.0000 0.0000 0.0000 24.0732 0.0000 0.0000
# 5 0.0000 0.0000 0.0000 0.0000 16.9577 0.0000
# 6 0.0000 0.0000 0.0000 0.0000 0.0000 23.1479
#
#
#
# Elastic Compliance Matrix: (Units=1/GPa)
#
#
# Indices 1 2 3 4 5 6 
#
# 1 0.018693 0.000348 -0.010079 0.000000 0.000000 0.000000
# 2 0.000348 0.009614 -0.003443 0.000000 0.000000 0.000000
# 3 -0.010079 -0.003443 0.018583 0.000000 0.000000 0.000000
# 4 0.000000 0.000000 0.000000 0.041540 0.000000 0.000000
# 5 0.000000 0.000000 0.000000 0.000000 0.058970 0.000000
# 6 0.000000 0.000000 0.000000 0.000000 0.000000 0.043200
#
#
# Mechanical properties :
#
#
# Convention : Reuss Voigt Hill
#
# Bulk Modulus (GPa) = 48.68373 49.40079 49.04226
# Shear Modulus (GPa) = 22.34178 25.39035 23.86606
#
# Velocity S-wave (km/s) = 3.33759 3.55802 3.44957
# Velocity P-wave (km/s) = 6.25509 6.44285 6.34967
#
# Compressibility (1/GPa) = 0.02054074
#
# Stress axis : x y z
#
# Youngs Moduli (GPa) = 53.49680 104.01912 53.81176
#
# Poissons Ratio (x) = -0.03615 0.54236
# Poissons Ratio (y) = -0.01859 0.18528
# Poissons Ratio (z) = 0.53919 0.35815
#
# Static dielectric constant tensor:
#      x y z
#    x 3.410920 0.000000 0.000000 
#    y 0.000000 3.921390 0.000000 
#    z 0.000000 0.000000 3.438980 
# 
# 
# High freq. dielectric constant tensor:
#      x y z
#    x 1.761610 0.000000 0.000000 
#    y 0.000000 1.813710 0.000000 
#    z 0.000000 0.000000 1.763210 
# 
# From -- ./inp_files/24732.got.cif
#   From: 2010.03.12/outbox.cif.g09.slc.cpg/sg46_13_cif.got.tgz:24732.got - 2010.04.14 02:56:35.
