data_PCOD8192016
_publ_section_title
;
Structure prediction by ZEFSAII (Michael W. Deem and Ramdas Pophale) SiO2 
 PCOD8192016
Probable space group: I M A 2
;
_chemical_formula_sum "Si O2"
_cell_formula_units_Z 36
_cell_length_a 7.874464
_cell_length_b 21.585036
_cell_length_c 10.929034
_cell_angle_alpha 90.000000
_cell_angle_beta 90.000000
_cell_angle_gamma 90.000000
_cell_volume 1857.614345
_symmetry_space_group_name_H-M "I M A 2"
_symmetry_group_IT_number 46
_symmetry_cell_setting 'orthorhombic'
loop_
_space_group_symop_operation_xyz
x,y,z
-x,-y,z
1/2-x,y,z
1/2+x,-y,z
1/2+x,1/2+y,1/2+z
1/2-x,1/2-y,1/2+z
-x,1/2+y,1/2+z
x,1/2-y,1/2+z
loop_
_atom_site_type_symbol
_atom_site_label
_atom_site_fract_x
_atom_site_fract_y
_atom_site_fract_z
Si Si1 0.564652 0.346528 0.556870
Si Si2 0.435419 0.430851 0.764569
Si Si3 0.250000 0.354815 0.944756
Si Si4 0.750000 0.715557 0.452822
Si Si5 0.060769 0.565234 0.327490
Si Si6 0.250000 0.374744 0.221958
O O1 0.750000 0.313233 0.565664
O O2 0.551595 0.390734 0.674990
O O3 0.414364 0.296424 0.540424
O O4 0.559557 0.388670 0.438935
O O5 0.500000 0.500000 0.792279
O O6 0.250000 0.436735 0.700932
O O7 0.415232 0.392236 0.892663
O O8 0.250000 0.344717 0.089325
O O9 0.250000 0.284320 0.897008
O O10 0.750000 0.674217 0.331471
O O11 0.250000 0.561879 0.268733
O O12 0.000000 0.500000 0.381936
O O13 0.922243 0.584852 0.226562
#
# Coordination Sequence:
#
# PCOD8192016 Si02
#       6
#     8   8   4   4   8   4
#     4  10  20  36  65  95 125 159 204 269 313 367
#     4  10  21  38  60  94 129 167 209 262 320 378
#     4  10  25  40  65  88 124 180 203 262 318 381
#     4  10  21  42  65  90 126 157 224 255 319 379
#     4  10  19  33  56  91 121 154 200 246 309 364
#     4  10  22  38  60  84 120 169 197 255 307 370
#
# _framework density 19.379695999999999
#
# number of rings (size 3 to 8) (size 9 to 14) (size 15 to 20)
#    0.667    1.333    2.222    1.333    3.111    2.667 
#    0.000    4.444    0.000    0.000    0.000    0.000 
#    0.000    0.000    0.000    0.000    0.000    0.000 
#
# Total GULP energy -222998.656200 kJ/mol
# GULP energy per Si atom -12388.814233 kJ/mol
# Density = 1.933559 g / cm^3
# Si number density = 19.379696 Si / 1000 Ang^3
#
#
#
# Elastic Constant Matrix: (Units=GPa)
#
#
# Indices 1 2 3 4 5 6 
#
# 1 159.2458 45.6650 37.7410 -0.0001 0.0000 0.0000
# 2 45.6650 100.7008 16.1927 -0.0008 0.0002 0.0001
# 3 37.7410 16.1927 65.0331 -0.0023 0.0009 0.0002
# 4 -0.0001 -0.0008 -0.0023 9.5322 0.0004 0.0000
# 5 0.0000 0.0002 0.0009 0.0004 4.6494 -0.0001
# 6 0.0000 0.0001 0.0002 0.0000 -0.0001 25.2759
#
#
#
# Elastic Compliance Matrix: (Units=1/GPa)
#
#
# Indices 1 2 3 4 5 6 
#
# 1 0.008082 -0.003032 -0.003935 -0.000001 0.000001 0.000000
# 2 -0.003032 0.011482 -0.001099 0.000001 0.000000 0.000000
# 3 -0.003935 -0.001099 0.017934 0.000004 -0.000004 0.000000
# 4 -0.000001 0.000001 0.000004 0.104908 -0.000010 0.000000
# 5 0.000001 0.000000 -0.000004 -0.000010 0.215083 0.000001
# 6 0.000000 0.000000 0.000000 0.000000 0.000001 0.039563
#
#
# Mechanical properties :
#
#
# Convention : Reuss Voigt Hill
#
# Bulk Modulus (GPa) = 46.80560 58.24192 52.52376
# Shear Modulus (GPa) = 11.89608 22.91689 17.40649
#
# Velocity S-wave (km/s) = 2.48027 3.44251 3.00022
# Velocity P-wave (km/s) = 5.69268 6.77639 6.25804
#
# Compressibility (1/GPa) = 0.02136497
#
# Stress axis : x y z
#
# Youngs Moduli (GPa) = 123.73650 87.09177 55.75933
#
# Poissons Ratio (x) = 0.26407 0.21942
# Poissons Ratio (y) = 0.37518 0.06130
# Poissons Ratio (z) = 0.48692 0.09574
#
# Static dielectric constant tensor:
#      x y z
#    x 4.198500 0.000000 0.000000 
#    y 0.000000 3.422090 0.000000 
#    z 0.000000 0.000000 3.143770 
# 
# 
# High freq. dielectric constant tensor:
#      x y z
#    x 1.763840 0.000000 0.000000 
#    y 0.000000 1.745200 0.000000 
#    z 0.000000 0.000000 1.727580 
# 
# From -- ./inp_files/9145.got.cif
#   From: 2010.03.12/outbox.cif.g09.slc.cpg/sg46_5_cif.got.tgz:9145.got - 2010.04.14 02:56:35.
