data_PCOD8192796
_publ_section_title
;
Structure prediction by ZEFSAII (Michael W. Deem and Ramdas Pophale) SiO2 
 PCOD8192796
Probable space group: I M A 2
;
_chemical_formula_sum "Si O2"
_cell_formula_units_Z 64
_cell_length_a 17.780580
_cell_length_b 9.660628
_cell_length_c 18.457653
_cell_angle_alpha 90.000000
_cell_angle_beta 90.000000
_cell_angle_gamma 90.000000
_cell_volume 3170.500016
_symmetry_space_group_name_H-M "I M A 2"
_symmetry_group_IT_number 46
_symmetry_cell_setting 'orthorhombic'
loop_
_space_group_symop_operation_xyz
x,y,z
-x,-y,z
1/2-x,y,z
1/2+x,-y,z
1/2+x,1/2+y,1/2+z
1/2-x,1/2-y,1/2+z
-x,1/2+y,1/2+z
x,1/2-y,1/2+z
loop_
_atom_site_type_symbol
_atom_site_label
_atom_site_fract_x
_atom_site_fract_y
_atom_site_fract_z
Si Si1 0.934358 0.711469 0.989740
Si Si2 0.102622 0.731687 0.487603
Si Si3 0.833700 0.016397 0.556663
Si Si4 0.664665 0.989587 0.717121
Si Si5 0.046500 0.362612 0.832809
Si Si6 0.914889 0.973260 0.078255
Si Si7 0.057748 0.617656 0.337629
Si Si8 0.337421 0.165324 0.212544
O O1 0.913190 0.690347 0.905926
O O2 0.023187 0.692775 0.001040
O O3 0.892235 0.603011 0.039542
O O4 0.913091 0.866813 0.011504
O O5 0.162263 0.853443 0.501951
O O6 0.119513 0.613981 0.546700
O O7 0.106533 0.670999 0.406137
O O8 0.750000 0.952770 0.550481
O O9 0.848513 0.064110 0.639735
O O10 0.750000 0.009054 0.744298
O O11 0.611266 0.058206 0.776068
O O12 0.646152 0.827997 0.705815
O O13 0.113139 0.396020 0.777559
O O14 0.000000 0.500000 0.849572
O O15 0.989621 0.244599 0.803461
O O16 0.862188 0.916017 0.141133
O O17 0.000000 0.000000 0.106756
O O18 0.000000 0.500000 0.365359
O O19 0.250000 0.134780 0.227553
#
# Coordination Sequence:
#
# PCOD8192796 Si02
#       8
#     8   8   8   8   8   8   8   8
#     4  10  20  40  64  87 119 159 200 250 304 361
#     4  10  22  38  62  94 122 151 200 262 304 351
#     4  11  23  40  61  89 124 161 204 244 296 367
#     4  10  23  41  62  90 123 163 208 251 295 366
#     4  11  23  40  61  94 123 156 204 257 305 361
#     4  10  21  38  63  91 121 157 204 254 305 357
#     4  11  21  41  67  91 120 161 205 250 305 365
#     4  11  23  41  60  87 126 166 206 248 300 364
#
# _framework density 20.186088999999999
#
# number of rings (size 3 to 8) (size 9 to 14) (size 15 to 20)
#    0.000    1.500    2.500    4.125    0.000    5.500 
#    0.000    1.875    0.000    0.000    0.000    0.000 
#    0.000    0.000    0.000    0.000    0.000    0.000 
#
# Total GULP energy -396824.422541 kJ/mol
# GULP energy per Si atom -12400.763204 kJ/mol
# Density = 2.014014 g / cm^3
# Si number density = 20.186089 Si / 1000 Ang^3
#
#
#
# Elastic Constant Matrix: (Units=GPa)
#
#
# Indices 1 2 3 4 5 6 
#
# 1 84.1878 41.6007 66.0702 0.0000 0.0000 0.0000
# 2 41.6007 91.1377 32.7522 0.0000 0.0000 0.0000
# 3 66.0702 32.7522 123.0152 0.0000 0.0000 0.0000
# 4 0.0000 0.0000 0.0000 32.4267 0.0000 0.0000
# 5 0.0000 0.0000 0.0000 0.0000 21.5218 0.0000
# 6 0.0000 0.0000 0.0000 0.0000 0.0000 21.9204
#
#
#
# Elastic Compliance Matrix: (Units=1/GPa)
#
#
# Indices 1 2 3 4 5 6 
#
# 1 0.023976 -0.006985 -0.011018 0.000000 0.000000 0.000000
# 2 -0.006985 0.014168 -0.000021 0.000000 0.000000 0.000000
# 3 -0.011018 -0.000021 0.014052 0.000000 0.000000 0.000000
# 4 0.000000 0.000000 0.000000 0.030839 0.000000 0.000000
# 5 0.000000 0.000000 0.000000 0.000000 0.046464 0.000000
# 6 0.000000 0.000000 0.000000 0.000000 0.000000 0.045620
#
#
# Mechanical properties :
#
#
# Convention : Reuss Voigt Hill
#
# Bulk Modulus (GPa) = 61.91944 64.35408 63.13676
# Shear Modulus (GPa) = 23.08940 25.70163 24.39552
#
# Velocity S-wave (km/s) = 3.38572 3.57211 3.48016
# Velocity P-wave (km/s) = 6.78418 6.99735 6.89159
#
# Compressibility (1/GPa) = 0.01615002
#
# Stress axis : x y z
#
# Youngs Moduli (GPa) = 41.70768 70.58094 71.16354
#
# Poissons Ratio (x) = 0.49299 0.78407
# Poissons Ratio (y) = 0.29132 0.00148
# Poissons Ratio (z) = 0.45953 0.00146
#
# Static dielectric constant tensor:
#      x y z
#    x 3.577360 0.000000 0.000000 
#    y 0.000000 3.788620 0.000000 
#    z 0.000000 0.000000 3.622990 
# 
# 
# High freq. dielectric constant tensor:
#      x y z
#    x 1.774210 0.000000 0.000000 
#    y 0.000000 1.796400 0.000000 
#    z 0.000000 0.000000 1.790730 
# 
# From -- ./inp_files/22275.got.cif
#   From: 2010.03.12/outbox.cif.g09.slc.cpg/sg46_12_cif.got.tgz:22275.got - 2010.04.14 02:56:35.
