data_PCOD8192075
_publ_section_title
;
Structure prediction by ZEFSAII (Michael W. Deem and Ramdas Pophale) SiO2 
 PCOD8192075
Probable space group: I M A 2
;
_chemical_formula_sum "Si O2"
_cell_formula_units_Z 64
_cell_length_a 8.996570
_cell_length_b 25.040558
_cell_length_c 14.867748
_cell_angle_alpha 90.000000
_cell_angle_beta 90.000000
_cell_angle_gamma 90.000000
_cell_volume 3349.393377
_symmetry_space_group_name_H-M "I M A 2"
_symmetry_group_IT_number 46
_symmetry_cell_setting 'orthorhombic'
loop_
_space_group_symop_operation_xyz
x,y,z
-x,-y,z
1/2-x,y,z
1/2+x,-y,z
1/2+x,1/2+y,1/2+z
1/2-x,1/2-y,1/2+z
-x,1/2+y,1/2+z
x,1/2-y,1/2+z
loop_
_atom_site_type_symbol
_atom_site_label
_atom_site_fract_x
_atom_site_fract_y
_atom_site_fract_z
Si Si1 0.419316 0.780715 0.909690
Si Si2 0.580271 0.824251 0.386960
Si Si3 0.578407 0.261213 0.618220
Si Si4 0.425896 0.898860 0.878018
Si Si5 0.574684 0.056222 0.071979
Si Si6 0.922058 0.859837 0.197641
Si Si7 0.075328 0.154264 0.585642
Si Si8 0.925318 0.554291 0.205651
O O1 0.250000 0.774731 0.881535
O O2 0.501177 0.731519 0.863359
O O3 0.479892 0.837360 0.873357
O O4 0.439789 0.780017 0.016250
O O5 0.750000 0.808103 0.397542
O O6 0.556984 0.866290 0.305770
O O7 0.525063 0.850213 0.480872
O O8 0.750000 0.263117 0.648970
O O9 0.478736 0.300650 0.676374
O O10 0.516076 0.201676 0.632803
O O11 0.250000 0.904027 0.862642
O O12 0.512936 0.932161 0.803920
O O13 0.472112 0.922422 0.974459
O O14 0.750000 0.050538 0.080809
O O15 0.520438 0.096420 0.148567
O O16 0.500000 0.000000 0.091034
O O17 0.750000 0.865913 0.169470
O O18 0.250000 0.165931 0.595598
O O19 0.030249 0.099610 0.634205
O O20 0.750000 0.546387 0.212629
O O21 0.000000 0.500000 0.170654
#
# Coordination Sequence:
#
# PCOD8192075 Si02
#       8
#     8   8   8   8   8   8   8   8
#     4   9  18  34  54  82 116 151 187 226 277 336
#     4   9  20  37  57  82 116 153 190 235 283 338
#     4  10  19  34  56  84 116 150 188 232 281 338
#     4  10  21  38  58  84 118 152 189 233 283 343
#     4  11  23  41  61  84 116 154 195 238 287 341
#     4  11  22  36  57  86 118 154 194 235 284 339
#     4   9  20  40  60  82 113 150 191 239 290 343
#     4  11  24  40  60  84 112 148 195 242 290 344
#
# _framework density 19.107938999999998
#
# number of rings (size 3 to 8) (size 9 to 14) (size 15 to 20)
#    0.000    2.000    1.250    1.875    1.750    5.000 
#    0.000    0.625    0.000    1.500    0.000    0.000 
#    0.000    0.000    0.000    0.000    0.000    0.000 
#
# Total GULP energy -396850.253379 kJ/mol
# GULP energy per Si atom -12401.570418 kJ/mol
# Density = 1.906445 g / cm^3
# Si number density = 19.107939 Si / 1000 Ang^3
#
#
#
# Elastic Constant Matrix: (Units=GPa)
#
#
# Indices 1 2 3 4 5 6 
#
# 1 66.1052 46.7214 33.6718 0.0000 0.0000 0.0000
# 2 46.7214 136.1026 58.3639 -0.0001 0.0000 0.0000
# 3 33.6718 58.3639 82.7585 0.0000 0.0000 0.0000
# 4 0.0000 -0.0001 0.0000 26.7040 0.0000 0.0000
# 5 0.0000 0.0000 0.0000 0.0000 22.8090 0.0000
# 6 0.0000 0.0000 0.0000 0.0000 0.0000 35.5270
#
#
#
# Elastic Compliance Matrix: (Units=1/GPa)
#
#
# Indices 1 2 3 4 5 6 
#
# 1 0.021347 -0.005166 -0.005042 0.000000 0.000000 0.000000
# 2 -0.005166 0.011783 -0.006208 0.000000 0.000000 0.000000
# 3 -0.005042 -0.006208 0.018513 0.000000 0.000000 0.000000
# 4 0.000000 0.000000 0.000000 0.037448 0.000000 0.000000
# 5 0.000000 0.000000 0.000000 0.000000 0.043842 0.000000
# 6 0.000000 0.000000 0.000000 0.000000 0.000000 0.028148
#
#
# Mechanical properties :
#
#
# Convention : Reuss Voigt Hill
#
# Bulk Modulus (GPa) = 53.16114 62.49785 57.82950
# Shear Modulus (GPa) = 24.97731 26.75527 25.86629
#
# Velocity S-wave (km/s) = 3.61940 3.74601 3.68325
# Velocity P-wave (km/s) = 6.73414 7.17558 6.95836
#
# Compressibility (1/GPa) = 0.01881073
#
# Stress axis : x y z
#
# Youngs Moduli (GPa) = 46.84552 84.87006 54.01655
#
# Poissons Ratio (x) = 0.43841 0.27237
# Poissons Ratio (y) = 0.24199 0.33532
# Poissons Ratio (z) = 0.23621 0.52686
#
# Static dielectric constant tensor:
#      x y z
#    x 3.522970 0.000000 0.000000 
#    y 0.000000 3.545480 0.000000 
#    z 0.000000 0.000000 3.604980 
# 
# 
# High freq. dielectric constant tensor:
#      x y z
#    x 1.745310 0.000000 0.000000 
#    y 0.000000 1.738040 0.000000 
#    z 0.000000 0.000000 1.745460 
# 
# From -- ./inp_files/14434.got.cif
#   From: 2010.03.12/outbox.cif.g09.slc.cpg/sg46_8_cif.got.tgz:14434.got - 2010.04.14 02:56:35.
