data_PCOD8192483
_publ_section_title
;
Structure prediction by ZEFSAII (Michael W. Deem and Ramdas Pophale) SiO2 
 PCOD8192483
Probable space group: I M A 2
;
_chemical_formula_sum "Si O2"
_cell_formula_units_Z 64
_cell_length_a 15.466805
_cell_length_b 9.306683
_cell_length_c 21.620118
_cell_angle_alpha 90.000000
_cell_angle_beta 90.000000
_cell_angle_gamma 90.000000
_cell_volume 3112.100344
_symmetry_space_group_name_H-M "I M A 2"
_symmetry_group_IT_number 46
_symmetry_cell_setting 'orthorhombic'
loop_
_space_group_symop_operation_xyz
x,y,z
-x,-y,z
1/2-x,y,z
1/2+x,-y,z
1/2+x,1/2+y,1/2+z
1/2-x,1/2-y,1/2+z
-x,1/2+y,1/2+z
x,1/2-y,1/2+z
loop_
_atom_site_type_symbol
_atom_site_label
_atom_site_fract_x
_atom_site_fract_y
_atom_site_fract_z
Si Si1 0.546073 0.862756 0.161840
Si Si2 0.053328 0.714346 0.258562
Si Si3 0.653077 0.494254 0.769445
Si Si4 0.505402 0.662395 0.977164
Si Si5 0.347515 0.982778 0.842386
Si Si6 0.149494 0.335412 0.542987
Si Si7 0.913949 0.714701 0.852703
Si Si8 0.150625 0.864150 0.975638
O O1 0.476772 0.738654 0.185927
O O2 0.593445 0.926271 0.220985
O O3 0.614800 0.805735 0.112385
O O4 0.500000 0.000000 0.129735
O O5 0.093603 0.561689 0.282238
O O6 0.964888 0.735980 0.293055
O O7 0.124921 0.830523 0.278264
O O8 0.750000 0.497278 0.744762
O O9 0.645188 0.577154 0.835243
O O10 0.500000 0.500000 0.001584
O O11 0.516502 0.668329 0.903641
O O12 0.418436 0.745310 0.998882
O O13 0.594440 0.730045 0.000731
O O14 0.250000 0.957265 0.821004
O O15 0.356102 0.145955 0.867154
O O16 0.370930 0.891085 0.903457
O O17 0.250000 0.291133 0.540180
O O18 0.136586 0.497436 0.518886
O O19 0.250000 0.809609 0.982853
#
# Coordination Sequence:
#
# PCOD8192483 Si02
#       8
#     8   8   8   8   8   8   8   8
#     4   9  19  37  62  88 118 161 213 260 316 377
#     4  10  20  35  57  84 116 157 197 248 311 378
#     4  10  20  35  55  83 118 155 200 251 304 367
#     4  12  24  39  60  89 131 170 211 263 333 392
#     4  11  21  35  56  88 122 156 202 257 314 380
#     4  11  23  41  67  94 121 165 225 275 323 385
#     4  11  21  35  54  81 119 163 199 240 309 389
#     4  10  22  39  62  91 123 167 216 265 322 387
#
# _framework density 20.564890999999999
#
# number of rings (size 3 to 8) (size 9 to 14) (size 15 to 20)
#    0.000    1.500    2.500    4.500    0.000    1.000 
#    0.000    2.500    0.000    0.750    0.000    1.750 
#    0.000    0.000    0.000    0.000    0.000    0.000 
#
# Total GULP energy -396475.572743 kJ/mol
# GULP energy per Si atom -12389.861648 kJ/mol
# Density = 2.051808 g / cm^3
# Si number density = 20.564891 Si / 1000 Ang^3
#
#
#
# Elastic Constant Matrix: (Units=GPa)
#
#
# Indices 1 2 3 4 5 6 
#
# 1 121.4375 49.7290 26.2942 0.0000 0.0000 0.0000
# 2 49.7290 91.5172 19.8500 0.0000 0.0000 0.0000
# 3 26.2942 19.8500 54.4680 0.0000 0.0000 0.0000
# 4 0.0000 0.0000 0.0000 20.2827 0.0000 0.0000
# 5 0.0000 0.0000 0.0000 0.0000 16.9012 0.0000
# 6 0.0000 0.0000 0.0000 0.0000 0.0000 24.8604
#
#
#
# Elastic Compliance Matrix: (Units=1/GPa)
#
#
# Indices 1 2 3 4 5 6 
#
# 1 0.011158 -0.005315 -0.003450 0.000000 0.000000 0.000000
# 2 -0.005315 0.014396 -0.002681 0.000000 0.000000 0.000000
# 3 -0.003450 -0.002681 0.021002 0.000000 0.000000 0.000000
# 4 0.000000 0.000000 0.000000 0.049303 0.000000 0.000000
# 5 0.000000 0.000000 0.000000 0.000000 0.059167 0.000000
# 6 0.000000 0.000000 0.000000 0.000000 0.000000 0.040225
#
#
# Mechanical properties :
#
#
# Convention : Reuss Voigt Hill
#
# Bulk Modulus (GPa) = 42.25550 51.01879 46.63714
# Shear Modulus (GPa) = 22.12091 23.84548 22.98320
#
# Velocity S-wave (km/s) = 3.28329 3.40887 3.34667
# Velocity P-wave (km/s) = 5.91315 6.35267 6.13685
#
# Compressibility (1/GPa) = 0.02366556
#
# Stress axis : x y z
#
# Youngs Moduli (GPa) = 89.62114 69.46170 47.61532
#
# Poissons Ratio (x) = 0.36918 0.16425
# Poissons Ratio (y) = 0.47633 0.12765
# Poissons Ratio (z) = 0.30916 0.18621
#
# Static dielectric constant tensor:
#      x y z
#    x 4.513820 0.000000 0.000000 
#    y 0.000000 3.003180 0.000000 
#    z 0.000000 0.000000 3.679360 
# 
# 
# High freq. dielectric constant tensor:
#      x y z
#    x 1.813650 0.000000 0.000000 
#    y 0.000000 1.789580 0.000000 
#    z 0.000000 0.000000 1.783830 
# 
# From -- ./inp_files/23672.got.cif
#   From: 2010.03.12/outbox.cif.g09.slc.cpg/sg46_12_cif.got.tgz:23672.got - 2010.04.14 02:56:35.
