data_PCOD8192481
_publ_section_title
;
Structure prediction by ZEFSAII (Michael W. Deem and Ramdas Pophale) SiO2 
 PCOD8192481
Probable space group: I M A 2
;
_chemical_formula_sum "Si O2"
_cell_formula_units_Z 64
_cell_length_a 9.096506
_cell_length_b 18.879560
_cell_length_c 18.098135
_cell_angle_alpha 90.000000
_cell_angle_beta 90.000000
_cell_angle_gamma 90.000000
_cell_volume 3108.138066
_symmetry_space_group_name_H-M "I M A 2"
_symmetry_group_IT_number 46
_symmetry_cell_setting 'orthorhombic'
loop_
_space_group_symop_operation_xyz
x,y,z
-x,-y,z
1/2-x,y,z
1/2+x,-y,z
1/2+x,1/2+y,1/2+z
1/2-x,1/2-y,1/2+z
-x,1/2+y,1/2+z
x,1/2-y,1/2+z
loop_
_atom_site_type_symbol
_atom_site_label
_atom_site_fract_x
_atom_site_fract_y
_atom_site_fract_z
Si Si1 0.089875 0.436124 0.853350
Si Si2 0.574439 0.077321 0.019756
Si Si3 0.079778 0.072721 0.733790
Si Si4 0.914461 0.317968 0.649330
Si Si5 0.588383 0.564286 0.024779
Si Si6 0.924228 0.789351 0.299816
Si Si7 0.084039 0.662057 0.115364
Si Si8 0.079766 0.351294 0.381975
O O1 0.250000 0.437270 0.815479
O O2 0.019075 0.359108 0.842828
O O3 0.000000 0.500000 0.815188
O O4 0.103698 0.450912 0.939221
O O5 0.750000 0.069141 0.011465
O O6 0.532880 0.117854 0.096213
O O7 0.500000 0.000000 0.020449
O O8 0.515306 0.125043 0.952236
O O9 0.250000 0.067935 0.711472
O O10 0.063723 0.087847 0.820647
O O11 0.006080 0.136561 0.687498
O O12 0.000000 0.000000 0.714366
O O13 0.750000 0.334289 0.678673
O O14 0.915313 0.245863 0.602770
O O15 0.020194 0.301599 0.717270
O O16 0.500000 0.500000 0.063555
O O17 0.750000 0.569803 0.060782
O O18 0.495970 0.634543 0.041409
O O19 0.750000 0.781212 0.296282
O O20 0.984448 0.721293 0.344887
O O21 0.250000 0.632882 0.121448
O O22 0.250000 0.341700 0.406118
#
# Coordination Sequence:
#
# PCOD8192481 Si02
#       8
#     8   8   8   8   8   8   8   8
#     4   9  20  37  58  86 119 154 196 244 296 358
#     4  11  25  45  67  94 127 166 213 262 317 377
#     4  11  22  37  58  86 119 157 199 244 301 367
#     4  10  24  43  62  89 123 159 203 252 305 363
#     4  10  20  35  55  81 115 154 192 236 287 346
#     4  10  21  40  64  92 123 159 204 255 310 369
#     4  11  22  37  56  82 117 156 198 245 294 355
#     4  10  22  40  64  94 125 159 205 258 314 375
#
# _framework density 20.591107000000001
#
# number of rings (size 3 to 8) (size 9 to 14) (size 15 to 20)
#    0.000    1.750    1.250    2.250    1.750    5.500 
#    0.000    2.500    0.000    0.000    0.000    0.000 
#    0.000    0.000    0.000    0.000    0.000    0.000 
#
# Total GULP energy -396608.092850 kJ/mol
# GULP energy per Si atom -12394.002902 kJ/mol
# Density = 2.054424 g / cm^3
# Si number density = 20.591107 Si / 1000 Ang^3
#
#
#
# Elastic Constant Matrix: (Units=GPa)
#
#
# Indices 1 2 3 4 5 6 
#
# 1 111.8700 56.5292 35.1273 0.0000 0.0000 0.0000
# 2 56.5292 140.3553 52.3492 0.0000 0.0000 0.0000
# 3 35.1273 52.3492 69.9704 0.0000 0.0000 0.0000
# 4 0.0000 0.0000 0.0000 22.5200 0.0000 0.0000
# 5 0.0000 0.0000 0.0000 0.0000 24.6661 0.0000
# 6 0.0000 0.0000 0.0000 0.0000 0.0000 30.8316
#
#
#
# Elastic Compliance Matrix: (Units=1/GPa)
#
#
# Indices 1 2 3 4 5 6 
#
# 1 0.011738 -0.003509 -0.003268 0.000000 0.000000 0.000000
# 2 -0.003509 0.010931 -0.006417 0.000000 0.000000 0.000000
# 3 -0.003268 -0.006417 0.020733 0.000000 0.000000 0.000000
# 4 0.000000 0.000000 0.000000 0.044405 0.000000 0.000000
# 5 0.000000 0.000000 0.000000 0.000000 0.040541 0.000000
# 6 0.000000 0.000000 0.000000 0.000000 0.000000 0.032434
#
#
# Mechanical properties :
#
#
# Convention : Reuss Voigt Hill
#
# Bulk Modulus (GPa) = 58.76926 67.80080 63.28503
# Shear Modulus (GPa) = 25.92799 27.48288 26.70544
#
# Velocity S-wave (km/s) = 3.55235 3.65731 3.60521
# Velocity P-wave (km/s) = 6.74008 7.12975 6.93765
#
# Compressibility (1/GPa) = 0.01701570
#
# Stress axis : x y z
#
# Youngs Moduli (GPa) = 85.19300 91.48034 48.23208
#
# Poissons Ratio (x) = 0.32099 0.15761
# Poissons Ratio (y) = 0.29893 0.30950
# Poissons Ratio (z) = 0.27839 0.58702
#
# Static dielectric constant tensor:
#      x y z
#    x 3.974770 0.000000 0.000000 
#    y 0.000000 3.989360 0.000000 
#    z 0.000000 0.000000 3.483510 
# 
# 
# High freq. dielectric constant tensor:
#      x y z
#    x 1.807290 0.000000 0.000000 
#    y 0.000000 1.816090 0.000000 
#    z 0.000000 0.000000 1.795210 
# 
# From -- ./inp_files/18595.got.cif
#   From: 2010.03.12/outbox.cif.g09.slc.cpg/sg46_10_cif.got.tgz:18595.got - 2010.04.14 02:56:35.
