data_PCOD8192235
_publ_section_title
;
Structure prediction by ZEFSAII (Michael W. Deem and Ramdas Pophale) SiO2 
 PCOD8192235
Probable space group: I M A 2
;
_chemical_formula_sum "Si O2"
_cell_formula_units_Z 48
_cell_length_a 15.605414
_cell_length_b 13.556132
_cell_length_c 9.897730
_cell_angle_alpha 90.000000
_cell_angle_beta 90.000000
_cell_angle_gamma 90.000000
_cell_volume 2093.855399
_symmetry_space_group_name_H-M "I M A 2"
_symmetry_group_IT_number 46
_symmetry_cell_setting 'orthorhombic'
loop_
_space_group_symop_operation_xyz
x,y,z
-x,-y,z
1/2-x,y,z
1/2+x,-y,z
1/2+x,1/2+y,1/2+z
1/2-x,1/2-y,1/2+z
-x,1/2+y,1/2+z
x,1/2-y,1/2+z
loop_
_atom_site_type_symbol
_atom_site_label
_atom_site_fract_x
_atom_site_fract_y
_atom_site_fract_z
Si Si1 0.352858 0.196237 0.937360
Si Si2 0.843138 0.178368 0.040736
Si Si3 0.352032 0.517506 0.338999
Si Si4 0.580970 0.851057 0.221479
Si Si5 0.392246 0.563698 0.771359
Si Si6 0.148878 0.607744 0.063795
O O1 0.250000 0.203477 0.952498
O O2 0.383358 0.092548 0.872087
O O3 0.387215 0.285041 0.845877
O O4 0.398307 0.207274 0.083307
O O5 0.750000 0.199062 0.976210
O O6 0.828719 0.136535 0.192416
O O7 0.892957 0.282632 0.050210
O O8 0.891029 0.097422 0.946197
O O9 0.250000 0.519587 0.345564
O O10 0.388427 0.548375 0.191876
O O11 0.483601 0.886004 0.240982
O O12 0.629470 0.955616 0.213128
O O13 0.375442 0.549995 0.929452
O O14 0.250000 0.617317 0.084045
#
# Coordination Sequence:
#
# PCOD8192235 Si02
#       6
#     8   8   8   8   8   8
#     4  11  24  46  73  99 130 177 235 296 347 410
#     4  10  19  37  64  94 128 176 224 270 330 397
#     4   9  19  37  63  97 130 165 224 286 337 389
#     4  11  27  45  66  98 132 175 226 274 352 416
#     4  11  24  43  64  93 140 176 215 276 342 413
#     4  10  21  36  63 100 132 174 225 275 331 402
#
# _framework density 22.924219000000001
#
# number of rings (size 3 to 8) (size 9 to 14) (size 15 to 20)
#    0.000    1.667    1.667    2.000    4.667    4.667 
#    0.000    0.000    0.000    0.000    0.000    0.000 
#    0.000    0.000    0.000    0.000    0.000    0.000 
#
# Total GULP energy -297397.567068 kJ/mol
# GULP energy per Si atom -12391.565294 kJ/mol
# Density = 2.287204 g / cm^3
# Si number density = 22.924219 Si / 1000 Ang^3
#
#
#
# Elastic Constant Matrix: (Units=GPa)
#
#
# Indices 1 2 3 4 5 6 
#
# 1 37.5623 30.1159 22.3389 0.0000 0.0000 0.0000
# 2 30.1159 107.3544 34.7917 0.0000 0.0000 0.0000
# 3 22.3389 34.7917 159.3762 0.0000 0.0000 0.0000
# 4 0.0000 0.0000 0.0000 51.6229 0.0000 0.0000
# 5 0.0000 0.0000 0.0000 0.0000 14.4820 0.0000
# 6 0.0000 0.0000 0.0000 0.0000 0.0000 22.1773
#
#
#
# Elastic Compliance Matrix: (Units=1/GPa)
#
#
# Indices 1 2 3 4 5 6 
#
# 1 0.035656 -0.009021 -0.003028 0.000000 0.000000 0.000000
# 2 -0.009021 0.012306 -0.001422 0.000000 0.000000 0.000000
# 3 -0.003028 -0.001422 0.007009 0.000000 0.000000 0.000000
# 4 0.000000 0.000000 0.000000 0.019371 0.000000 0.000000
# 5 0.000000 0.000000 0.000000 0.000000 0.069051 0.000000
# 6 0.000000 0.000000 0.000000 0.000000 0.000000 0.045091
#
#
# Mechanical properties :
#
#
# Convention : Reuss Voigt Hill
#
# Bulk Modulus (GPa) = 35.67746 53.19842 44.43794
# Shear Modulus (GPa) = 22.24480 32.12621 27.18550
#
# Velocity S-wave (km/s) = 3.11844 3.74760 3.44740
# Velocity P-wave (km/s) = 5.34446 6.47940 5.93910
#
# Compressibility (1/GPa) = 0.02802890
#
# Stress axis : x y z
#
# Youngs Moduli (GPa) = 28.04559 81.25809 142.66608
#
# Poissons Ratio (x) = 0.73304 0.43206
# Poissons Ratio (y) = 0.25300 0.20288
# Poissons Ratio (z) = 0.08493 0.11555
#
# Static dielectric constant tensor:
#      x y z
#    x 3.784180 0.000000 0.000000 
#    y 0.000000 4.426590 0.000000 
#    z 0.000000 0.000000 4.212090 
# 
# 
# High freq. dielectric constant tensor:
#      x y z
#    x 1.872940 0.000000 0.000000 
#    y 0.000000 1.917410 0.000000 
#    z 0.000000 0.000000 1.915700 
# 
# From -- ./inp_files/6584.got.cif
#   From: 2010.03.12/outbox.cif.g09.slc.cpg/sg46_4_cif.got.tgz:6584.got - 2010.04.14 02:56:35.
