data_PCOD8192475
_publ_section_title
;
Structure prediction by ZEFSAII (Michael W. Deem and Ramdas Pophale) SiO2 
 PCOD8192475
Probable space group: I M A 2
;
_chemical_formula_sum "Si O2"
_cell_formula_units_Z 64
_cell_length_a 8.665665
_cell_length_b 19.786224
_cell_length_c 19.944858
_cell_angle_alpha 90.000000
_cell_angle_beta 90.000000
_cell_angle_gamma 90.000000
_cell_volume 3419.761085
_symmetry_space_group_name_H-M "I M A 2"
_symmetry_group_IT_number 46
_symmetry_cell_setting 'orthorhombic'
loop_
_space_group_symop_operation_xyz
x,y,z
-x,-y,z
1/2-x,y,z
1/2+x,-y,z
1/2+x,1/2+y,1/2+z
1/2-x,1/2-y,1/2+z
-x,1/2+y,1/2+z
x,1/2-y,1/2+z
loop_
_atom_site_type_symbol
_atom_site_label
_atom_site_fract_x
_atom_site_fract_y
_atom_site_fract_z
Si Si1 0.568518 0.071563 0.826200
Si Si2 0.070011 0.672997 0.573892
Si Si3 0.066930 0.428983 0.677069
Si Si4 0.568795 0.569552 0.829545
Si Si5 0.570856 0.831022 0.933246
Si Si6 0.430149 0.175378 0.438438
Si Si7 0.071656 0.670606 0.078250
Si Si8 0.068583 0.428361 0.183580
O O1 0.750000 0.064106 0.818708
O O2 0.529464 0.127573 0.880803
O O3 0.499815 0.094152 0.754938
O O4 0.500000 0.000000 0.849730
O O5 0.250000 0.660393 0.561443
O O6 0.035220 0.750837 0.590494
O O7 0.009632 0.631178 0.636428
O O8 0.978396 0.648788 0.508195
O O9 0.250000 0.428111 0.668180
O O10 0.013732 0.417155 0.753671
O O11 0.000000 0.500000 0.650582
O O12 0.500000 0.500000 0.857886
O O13 0.750000 0.562502 0.832009
O O14 0.512122 0.631098 0.875755
O O15 0.750000 0.848085 0.923185
O O16 0.533767 0.752626 0.920166
O O17 0.250000 0.165096 0.454029
O O18 0.525490 0.150902 0.502796
O O19 0.250000 0.653208 0.089900
O O20 0.969306 0.628513 0.129574
O O21 0.250000 0.436174 0.191086
O O22 0.000000 0.500000 0.159929
#
# Coordination Sequence:
#
# PCOD8192475 Si02
#       8
#     8   8   8   8   8   8   8   8
#     4  11  22  38  58  82 112 143 179 223 272 325
#     4  10  21  37  56  80 110 143 181 226 273 322
#     4  10  20  35  55  79 108 142 180 223 271 323
#     4   9  19  35  54  78 107 139 176 218 263 313
#     4  10  20  36  57  81 109 143 182 223 269 321
#     4   9  19  36  56  79 109 144 182 223 267 318
#     4  10  21  37  56  81 112 144 180 223 271 323
#     4  11  22  38  59  82 110 144 183 225 271 323
#
# _framework density 18.714756999999999
#
# number of rings (size 3 to 8) (size 9 to 14) (size 15 to 20)
#    0.000    2.000    0.000    4.500    0.000    5.000 
#    0.000    5.000    0.000    0.000    0.000    0.000 
#    0.000    0.000    0.000    0.000    0.000    0.000 
#
# Total GULP energy -396947.958203 kJ/mol
# GULP energy per Si atom -12404.623694 kJ/mol
# Density = 1.867216 g / cm^3
# Si number density = 18.714757 Si / 1000 Ang^3
#
#
#
# Elastic Constant Matrix: (Units=GPa)
#
#
# Indices 1 2 3 4 5 6 
#
# 1 99.3667 43.5576 42.0720 0.0000 0.0000 0.0000
# 2 43.5576 99.1642 76.1736 0.0000 0.0000 0.0000
# 3 42.0720 76.1736 107.5192 0.0000 0.0000 0.0000
# 4 0.0000 0.0000 0.0000 56.5006 0.0000 0.0000
# 5 0.0000 0.0000 0.0000 0.0000 33.4794 0.0000
# 6 0.0000 0.0000 0.0000 0.0000 0.0000 32.0427
#
#
#
# Elastic Compliance Matrix: (Units=1/GPa)
#
#
# Indices 1 2 3 4 5 6 
#
# 1 0.012703 -0.003865 -0.002233 0.000000 0.000000 0.000000
# 2 -0.003865 0.023301 -0.014995 0.000000 0.000000 0.000000
# 3 -0.002233 -0.014995 0.020798 0.000000 0.000000 0.000000
# 4 0.000000 0.000000 0.000000 0.017699 0.000000 0.000000
# 5 0.000000 0.000000 0.000000 0.000000 0.029869 0.000000
# 6 0.000000 0.000000 0.000000 0.000000 0.000000 0.031208
#
#
# Mechanical properties :
#
#
# Convention : Reuss Voigt Hill
#
# Bulk Modulus (GPa) = 68.41752 69.96182 69.18967
# Shear Modulus (GPa) = 27.37680 34.02100 30.69890
#
# Velocity S-wave (km/s) = 3.82887 4.26827 4.05453
# Velocity P-wave (km/s) = 7.49562 7.85845 7.67918
#
# Compressibility (1/GPa) = 0.01461614
#
# Stress axis : x y z
#
# Youngs Moduli (GPa) = 78.72035 42.91701 48.08143
#
# Poissons Ratio (x) = 0.16587 0.10735
# Poissons Ratio (y) = 0.30424 0.72100
# Poissons Ratio (z) = 0.17575 0.64356
#
# Static dielectric constant tensor:
#      x y z
#    x 3.504860 0.000000 0.000000 
#    y 0.000000 3.454840 0.000000 
#    z 0.000000 0.000000 3.508490 
# 
# 
# High freq. dielectric constant tensor:
#      x y z
#    x 1.738870 0.000000 0.000000 
#    y 0.000000 1.727620 0.000000 
#    z 0.000000 0.000000 1.729160 
# 
# From -- ./inp_files/18583.got.cif
#   From: 2010.03.12/outbox.cif.g09.slc.cpg/sg46_10_cif.got.tgz:18583.got - 2010.04.14 02:56:35.
