data_PCOD8192652
_publ_section_title
;
Structure prediction by ZEFSAII (Michael W. Deem and Ramdas Pophale) SiO2 
 PCOD8192652
Probable space group: I M A 2
;
_chemical_formula_sum "Si O2"
_cell_formula_units_Z 60
_cell_length_a 9.169638
_cell_length_b 16.843753
_cell_length_c 18.768550
_cell_angle_alpha 90.000000
_cell_angle_beta 90.000000
_cell_angle_gamma 90.000000
_cell_volume 2898.823523
_symmetry_space_group_name_H-M "I M A 2"
_symmetry_group_IT_number 46
_symmetry_cell_setting 'orthorhombic'
loop_
_space_group_symop_operation_xyz
x,y,z
-x,-y,z
1/2-x,y,z
1/2+x,-y,z
1/2+x,1/2+y,1/2+z
1/2-x,1/2-y,1/2+z
-x,1/2+y,1/2+z
x,1/2-y,1/2+z
loop_
_atom_site_type_symbol
_atom_site_label
_atom_site_fract_x
_atom_site_fract_y
_atom_site_fract_z
Si Si1 0.500000 0.500000 0.441440
Si Si2 0.922787 0.800849 0.455296
Si Si3 0.091212 0.891728 0.817038
Si Si4 0.576687 0.075562 0.548499
Si Si5 0.413215 0.354110 0.528575
Si Si6 0.416525 0.794378 0.318021
Si Si7 0.084501 0.111578 0.683606
Si Si8 0.416643 0.300052 0.678237
O O1 0.592931 0.442465 0.390341
O O2 0.413989 0.442530 0.495787
O O3 0.750000 0.815675 0.455615
O O4 0.968059 0.708778 0.469455
O O5 0.001725 0.846285 0.518700
O O6 0.988918 0.832677 0.381380
O O7 0.250000 0.904047 0.781444
O O8 0.068313 0.799150 0.831046
O O9 0.962504 0.917187 0.763019
O O10 0.750000 0.075290 0.537632
O O11 0.532507 0.071563 0.631501
O O12 0.500000 0.000000 0.510253
O O13 0.250000 0.328493 0.546217
O O14 0.486229 0.342231 0.607045
O O15 0.250000 0.823221 0.322844
O O16 0.482215 0.826188 0.244019
O O17 0.250000 0.082019 0.669419
O O18 0.074707 0.205487 0.672631
O O19 0.250000 0.326872 0.693277
#
# Coordination Sequence:
#
# PCOD8192652 Si02
#       8
#     4   8   8   8   8   8   8   8
#     4  12  22  38  58  90 130 176 214 264 322 382
#     4  11  21  40  65  91 121 161 206 256 317 383
#     4  10  22  36  52  83 126 166 207 254 307 370
#     4  12  25  41  62  91 124 158 198 252 314 380
#     4  10  21  38  61  88 123 167 215 261 313 379
#     4  10  20  37  59  90 120 154 203 260 317 374
#     4  10  20  37  61  87 120 164 208 252 306 370
#     4   9  18  37  62  88 114 156 210 257 307 373
#
# _framework density 20.698051
#
# number of rings (size 3 to 8) (size 9 to 14) (size 15 to 20)
#    0.000    1.600    2.667    2.800    0.933    2.133 
#    0.000    1.333    1.467    0.000    0.000    0.000 
#    0.000    0.000    0.000    0.000    0.000    0.000 
#
# Total GULP energy -371743.792468 kJ/mol
# GULP energy per Si atom -12391.459749 kJ/mol
# Density = 2.065094 g / cm^3
# Si number density = 20.698051 Si / 1000 Ang^3
#
#
#
# Elastic Constant Matrix: (Units=GPa)
#
#
# Indices 1 2 3 4 5 6 
#
# 1 135.1175 22.0399 54.8902 0.0000 0.0000 0.0000
# 2 22.0399 60.5552 29.3658 0.0000 0.0000 0.0000
# 3 54.8902 29.3658 145.0335 0.0000 0.0000 0.0000
# 4 0.0000 0.0000 0.0000 34.0127 0.0000 0.0000
# 5 0.0000 0.0000 0.0000 0.0000 34.1144 0.0000
# 6 0.0000 0.0000 0.0000 0.0000 0.0000 22.9843
#
#
#
# Elastic Compliance Matrix: (Units=1/GPa)
#
#
# Indices 1 2 3 4 5 6 
#
# 1 0.008916 -0.001784 -0.003013 0.000000 0.000000 0.000000
# 2 -0.001784 0.018669 -0.003105 0.000000 0.000000 0.000000
# 3 -0.003013 -0.003105 0.008664 0.000000 0.000000 0.000000
# 4 0.000000 0.000000 0.000000 0.029401 0.000000 0.000000
# 5 0.000000 0.000000 0.000000 0.000000 0.029313 0.000000
# 6 0.000000 0.000000 0.000000 0.000000 0.000000 0.043508
#
#
# Mechanical properties :
#
#
# Convention : Reuss Voigt Hill
#
# Bulk Modulus (GPa) = 48.91184 61.47758 55.19471
# Shear Modulus (GPa) = 31.03863 33.84965 32.44414
#
# Velocity S-wave (km/s) = 3.87666 4.04840 3.96346
# Velocity P-wave (km/s) = 6.61214 7.18466 6.90434
#
# Compressibility (1/GPa) = 0.02044495
#
# Stress axis : x y z
#
# Youngs Moduli (GPa) = 112.15746 53.56533 115.41995
#
# Poissons Ratio (x) = 0.09555 0.34779
# Poissons Ratio (y) = 0.20008 0.35836
# Poissons Ratio (z) = 0.33795 0.16631
#
# Static dielectric constant tensor:
#      x y z
#    x 3.638780 0.000000 0.000000 
#    y 0.000000 3.547240 0.000000 
#    z 0.000000 0.000000 3.770680 
# 
# 
# High freq. dielectric constant tensor:
#      x y z
#    x 1.802440 0.000000 0.000000 
#    y 0.000000 1.787220 0.000000 
#    z 0.000000 0.000000 1.814860 
# 
# From -- ./inp_files/18374.got.cif
#   From: 2010.03.12/outbox.cif.g09.slc.cpg/sg46_10_cif.got.tgz:18374.got - 2010.04.14 02:56:35.
