data_PCOD8192553
_publ_section_title
;
Structure prediction by ZEFSAII (Michael W. Deem and Ramdas Pophale) SiO2 
 PCOD8192553
Probable space group: I M A 2
;
_chemical_formula_sum "Si O2"
_cell_formula_units_Z 64
_cell_length_a 8.776615
_cell_length_b 32.362887
_cell_length_c 11.725157
_cell_angle_alpha 90.000000
_cell_angle_beta 90.000000
_cell_angle_gamma 90.000000
_cell_volume 3330.373723
_symmetry_space_group_name_H-M "I M A 2"
_symmetry_group_IT_number 46
_symmetry_cell_setting 'orthorhombic'
loop_
_space_group_symop_operation_xyz
x,y,z
-x,-y,z
1/2-x,y,z
1/2+x,-y,z
1/2+x,1/2+y,1/2+z
1/2-x,1/2-y,1/2+z
-x,1/2+y,1/2+z
x,1/2-y,1/2+z
loop_
_atom_site_type_symbol
_atom_site_label
_atom_site_fract_x
_atom_site_fract_y
_atom_site_fract_z
Si Si1 0.570385 0.722907 0.816950
Si Si2 0.431464 0.954956 0.808019
Si Si3 0.082034 0.816478 0.518590
Si Si4 0.929909 0.619875 0.432244
Si Si5 0.069953 0.187222 0.751424
Si Si6 0.571259 0.859422 0.189138
Si Si7 0.070076 0.044043 0.570661
Si Si8 0.418967 0.598953 0.887790
O O1 0.750000 0.724123 0.831022
O O2 0.507155 0.766471 0.771005
O O3 0.520701 0.686504 0.729892
O O4 0.503307 0.717922 0.943804
O O5 0.250000 0.958057 0.804243
O O6 0.484087 0.922838 0.904619
O O7 0.493516 0.938376 0.686205
O O8 0.500000 0.000000 0.835803
O O9 0.250000 0.800311 0.551459
O O10 0.093461 0.856685 0.442912
O O11 0.989485 0.828442 0.630730
O O12 0.750000 0.612412 0.420373
O O13 0.988756 0.655981 0.348460
O O14 0.975567 0.634520 0.558377
O O15 0.250000 0.187127 0.749521
O O16 0.750000 0.865162 0.208253
O O17 0.487222 0.895166 0.261374
O O18 0.250000 0.041184 0.589842
O O19 0.033742 0.071945 0.462189
O O20 0.000000 0.000000 0.542736
O O21 0.250000 0.578645 0.880601
#
# Coordination Sequence:
#
# PCOD8192553 Si02
#       8
#     8   8   8   8   8   8   8   8
#     4   9  19  35  57  80 106 143 189 235 281 331
#     4  11  22  38  60  86 117 152 189 234 288 344
#     4  10  21  35  52  76 108 143 179 224 277 331
#     4  10  21  37  57  85 116 150 193 240 287 340
#     4  10  21  34  56  83 110 144 187 236 280 331
#     4   9  19  36  57  80 110 149 193 238 283 333
#     4  11  21  35  58  87 117 146 181 227 282 336
#     4  10  20  36  56  79 110 145 184 226 276 334
#
# _framework density 19.217063
#
# number of rings (size 3 to 8) (size 9 to 14) (size 15 to 20)
#    0.000    2.000    0.000    4.500    1.750    5.000 
#    0.000    0.625    0.000    3.000    0.000    0.000 
#    0.000    0.000    0.000    0.000    0.000    0.000 
#
# Total GULP energy -396830.664330 kJ/mol
# GULP energy per Si atom -12400.958260 kJ/mol
# Density = 1.917332 g / cm^3
# Si number density = 19.217063 Si / 1000 Ang^3
#
#
#
# Elastic Constant Matrix: (Units=GPa)
#
#
# Indices 1 2 3 4 5 6 
#
# 1 74.2704 41.7412 39.3262 0.0008 -0.0003 -0.0002
# 2 41.7412 82.4198 52.2169 0.0045 0.0002 0.0003
# 3 39.3262 52.2169 140.6377 0.0063 0.0007 0.0010
# 4 0.0008 0.0045 0.0063 25.6108 0.0000 0.0006
# 5 -0.0003 0.0002 0.0007 0.0000 22.3212 0.0016
# 6 -0.0002 0.0003 0.0010 0.0006 0.0016 22.6275
#
#
#
# Elastic Compliance Matrix: (Units=1/GPa)
#
#
# Indices 1 2 3 4 5 6 
#
# 1 0.019384 -0.008346 -0.002322 0.000001 0.000000 0.000000
# 2 -0.008346 0.019459 -0.004891 -0.000002 0.000000 0.000000
# 3 -0.002322 -0.004891 0.009576 -0.000001 0.000000 0.000000
# 4 0.000001 -0.000002 -0.000001 0.039046 0.000000 -0.000001
# 5 0.000000 0.000000 0.000000 0.000000 0.044801 -0.000003
# 6 0.000000 0.000000 0.000000 -0.000001 -0.000003 0.044194
#
#
# Mechanical properties :
#
#
# Convention : Reuss Voigt Hill
#
# Bulk Modulus (GPa) = 57.79995 62.65516 60.22755
# Shear Modulus (GPa) = 23.43640 25.04814 24.24227
#
# Velocity S-wave (km/s) = 3.49601 3.61422 3.55561
# Velocity P-wave (km/s) = 6.81460 7.07754 6.94731
#
# Compressibility (1/GPa) = 0.01730105
#
# Stress axis : x y z
#
# Youngs Moduli (GPa) = 51.58811 51.39132 104.43295
#
# Poissons Ratio (x) = 0.42893 0.24244
# Poissons Ratio (y) = 0.43057 0.51076
# Poissons Ratio (z) = 0.11976 0.25135
#
# Static dielectric constant tensor:
#      x y z
#    x 3.627710 0.000000 0.000000 
#    y 0.000000 3.524460 0.000000 
#    z 0.000000 0.000000 3.535160 
# 
# 
# High freq. dielectric constant tensor:
#      x y z
#    x 1.748180 0.000000 0.000000 
#    y 0.000000 1.742120 0.000000 
#    z 0.000000 0.000000 1.746420 
# 
# From -- ./inp_files/9768.got.cif
#   From: 2010.03.12/outbox.cif.g09.slc.cpg/sg46_5_cif.got.tgz:9768.got - 2010.04.14 02:56:35.
