data_PCOD8192693
_publ_section_title
;
Structure prediction by ZEFSAII (Michael W. Deem and Ramdas Pophale) SiO2 
 PCOD8192693
Probable space group: I M A 2
;
_chemical_formula_sum "Si O2"
_cell_formula_units_Z 52
_cell_length_a 13.249336
_cell_length_b 12.494872
_cell_length_c 14.679279
_cell_angle_alpha 90.000000
_cell_angle_beta 90.000000
_cell_angle_gamma 90.000000
_cell_volume 2430.136398
_symmetry_space_group_name_H-M "I M A 2"
_symmetry_group_IT_number 46
_symmetry_cell_setting 'orthorhombic'
loop_
_space_group_symop_operation_xyz
x,y,z
-x,-y,z
1/2-x,y,z
1/2+x,-y,z
1/2+x,1/2+y,1/2+z
1/2-x,1/2-y,1/2+z
-x,1/2+y,1/2+z
x,1/2-y,1/2+z
loop_
_atom_site_type_symbol
_atom_site_label
_atom_site_fract_x
_atom_site_fract_y
_atom_site_fract_z
Si Si1 0.638982 0.976514 0.351060
Si Si2 0.136558 0.321242 0.621753
Si Si3 0.058940 0.266548 0.943376
Si Si4 0.636061 0.076345 0.701348
Si Si5 0.640809 0.152117 0.503061
Si Si6 0.434172 0.346235 0.263748
Si Si7 0.500000 0.500000 0.689392
O O1 0.750000 0.931159 0.328114
O O2 0.573230 0.881150 0.394794
O O3 0.645969 0.070964 0.421131
O O4 0.592273 0.026235 0.258349
O O5 0.250000 0.370484 0.626778
O O6 0.131708 0.251499 0.529403
O O7 0.121038 0.247839 0.709940
O O8 0.045162 0.408049 0.623390
O O9 0.080282 0.172329 0.871361
O O10 0.945033 0.260432 0.983368
O O11 0.750000 0.110609 0.728591
O O12 0.618072 0.082764 0.593305
O O13 0.555052 0.155835 0.746825
O O14 0.616519 0.956383 0.734454
O O15 0.750000 0.210666 0.512915
#
# Coordination Sequence:
#
# PCOD8192693 Si02
#       7
#     8   8   8   8   8   8   4
#     4  11  21  37  64  94 126 170 222 278 327 379
#     4  12  26  44  67  96 132 175 220 271 332 396
#     4  12  23  41  65  98 130 169 225 275 325 390
#     4  10  22  40  64  95 132 173 212 268 336 390
#     4  10  20  37  63  94 127 168 221 278 332 380
#     4  11  23  40  67  98 132 167 217 276 323 394
#     4  12  24  42  62  94 134 172 216 270 326 396
#
# _framework density 21.397977000000001
#
# number of rings (size 3 to 8) (size 9 to 14) (size 15 to 20)
#    0.000    0.923    4.615    2.308    2.154    4.923 
#    0.000    3.077    0.000    0.000    0.000    0.000 
#    0.000    0.000    0.000    0.000    0.000    0.000 
#
# Total GULP energy -322263.023141 kJ/mol
# GULP energy per Si atom -12394.731659 kJ/mol
# Density = 2.134927 g / cm^3
# Si number density = 21.397977 Si / 1000 Ang^3
#
#
#
# Elastic Constant Matrix: (Units=GPa)
#
#
# Indices 1 2 3 4 5 6 
#
# 1 150.8185 20.6660 33.3643 0.0000 0.0000 0.0000
# 2 20.6660 49.9868 21.6720 0.0000 0.0000 0.0000
# 3 33.3643 21.6720 107.7441 0.0000 0.0000 0.0000
# 4 0.0000 0.0000 0.0000 25.1400 0.0000 0.0000
# 5 0.0000 0.0000 0.0000 0.0000 18.7922 0.0000
# 6 0.0000 0.0000 0.0000 0.0000 0.0000 26.6408
#
#
#
# Elastic Compliance Matrix: (Units=1/GPa)
#
#
# Indices 1 2 3 4 5 6 
#
# 1 0.007341 -0.002245 -0.001822 0.000000 0.000000 0.000000
# 2 -0.002245 0.022603 -0.003851 0.000000 0.000000 0.000000
# 3 -0.001822 -0.003851 0.010620 0.000000 0.000000 0.000000
# 4 0.000000 0.000000 0.000000 0.039777 0.000000 0.000000
# 5 0.000000 0.000000 0.000000 0.000000 0.053214 0.000000
# 6 0.000000 0.000000 0.000000 0.000000 0.000000 0.037536
#
#
# Mechanical properties :
#
#
# Convention : Reuss Voigt Hill
#
# Bulk Modulus (GPa) = 40.43978 51.10601 45.77289
# Shear Modulus (GPa) = 25.61861 29.63772 27.62817
#
# Velocity S-wave (km/s) = 3.46388 3.72569 3.59717
# Velocity P-wave (km/s) = 5.91082 6.51484 6.22017
#
# Compressibility (1/GPa) = 0.02472813
#
# Stress axis : x y z
#
# Youngs Moduli (GPa) = 136.21869 44.24138 94.16197
#
# Poissons Ratio (x) = 0.09933 0.17153
# Poissons Ratio (y) = 0.30585 0.36264
# Poissons Ratio (z) = 0.24814 0.17038
#
# Static dielectric constant tensor:
#      x y z
#    x 4.591380 0.000000 0.000000 
#    y 0.000000 3.608130 0.000000 
#    z 0.000000 0.000000 3.921220 
# 
# 
# High freq. dielectric constant tensor:
#      x y z
#    x 1.862760 0.000000 0.000000 
#    y 0.000000 1.798820 0.000000 
#    z 0.000000 0.000000 1.847380 
# 
# From -- ./inp_files/15959.got.cif
#   From: 2010.03.12/outbox.cif.g09.slc.cpg/sg46_8_cif.got.tgz:15959.got - 2010.04.14 02:56:35.
