data_PCOD8192644
_publ_section_title
;
Structure prediction by ZEFSAII (Michael W. Deem and Ramdas Pophale) SiO2 
 PCOD8192644
Probable space group: I M A 2
;
_chemical_formula_sum "Si O2"
_cell_formula_units_Z 64
_cell_length_a 8.775781
_cell_length_b 28.507146
_cell_length_c 12.522041
_cell_angle_alpha 90.000000
_cell_angle_beta 90.000000
_cell_angle_gamma 90.000000
_cell_volume 3132.669929
_symmetry_space_group_name_H-M "I M A 2"
_symmetry_group_IT_number 46
_symmetry_cell_setting 'orthorhombic'
loop_
_space_group_symop_operation_xyz
x,y,z
-x,-y,z
1/2-x,y,z
1/2+x,-y,z
1/2+x,1/2+y,1/2+z
1/2-x,1/2-y,1/2+z
-x,1/2+y,1/2+z
x,1/2-y,1/2+z
loop_
_atom_site_type_symbol
_atom_site_label
_atom_site_fract_x
_atom_site_fract_y
_atom_site_fract_z
Si Si1 0.419528 0.703025 0.198950
Si Si2 0.080081 0.668764 0.970269
Si Si3 0.072140 0.422306 0.039502
Si Si4 0.074678 0.389945 0.672646
Si Si5 0.571614 0.455007 0.835175
Si Si6 0.923690 0.705968 0.768708
Si Si7 0.070060 0.597891 0.257636
Si Si8 0.930628 0.948484 0.966539
O O1 0.250000 0.715344 0.242061
O O2 0.541642 0.742365 0.226869
O O3 0.472119 0.653000 0.248225
O O4 0.415394 0.702869 0.071206
O O5 0.250000 0.646331 0.954392
O O6 0.034973 0.698313 0.867663
O O7 0.955123 0.629311 0.992113
O O8 0.250000 0.432328 0.051858
O O9 0.991317 0.429250 0.153587
O O10 0.997454 0.457160 0.954286
O O11 0.250000 0.403338 0.693304
O O12 0.050701 0.333445 0.675639
O O13 0.019358 0.413275 0.562049
O O14 0.975237 0.408515 0.771545
O O15 0.500000 0.500000 0.773721
O O16 0.750000 0.459673 0.839722
O O17 0.750000 0.704301 0.808216
O O18 0.250000 0.590618 0.264106
O O19 0.992040 0.574987 0.359511
O O20 0.750000 0.953414 0.958923
O O21 0.000000 0.000000 0.985366
#
# Coordination Sequence:
#
# PCOD8192644 Si02
#       8
#     8   8   8   8   8   8   8   8
#     4   9  21  39  59  87 123 162 208 259 311 376
#     4  10  20  37  59  84 117 159 200 248 309 371
#     4  11  21  37  61  89 120 154 196 249 308 369
#     4  10  23  42  61  88 125 163 209 262 312 375
#     4  12  24  38  60  89 121 158 198 248 305 368
#     4  11  22  36  60  91 124 163 209 260 315 375
#     4  10  22  42  65  90 123 164 212 262 317 379
#     4  11  24  43  66  92 126 169 216 269 325 386
#
# _framework density 20.429857999999999
#
# number of rings (size 3 to 8) (size 9 to 14) (size 15 to 20)
#    0.000    1.500    1.250    4.875    0.000    7.000 
#    0.000    5.000    0.000    0.000    0.000    0.000 
#    0.000    0.000    0.000    0.000    0.000    0.000 
#
# Total GULP energy -396788.007669 kJ/mol
# GULP energy per Si atom -12399.625240 kJ/mol
# Density = 2.038336 g / cm^3
# Si number density = 20.429858 Si / 1000 Ang^3
#
#
#
# Elastic Constant Matrix: (Units=GPa)
#
#
# Indices 1 2 3 4 5 6 
#
# 1 108.1026 35.9591 41.2001 0.0011 0.0004 0.0000
# 2 35.9591 81.2434 31.7346 -0.0004 -0.0004 -0.0001
# 3 41.2001 31.7346 110.9230 0.0004 -0.0006 -0.0002
# 4 0.0011 -0.0004 0.0004 25.0966 0.0000 0.0000
# 5 0.0004 -0.0004 -0.0006 0.0000 31.3289 0.0002
# 6 0.0000 -0.0001 -0.0002 0.0000 0.0002 35.1268
#
#
#
# Elastic Compliance Matrix: (Units=1/GPa)
#
#
# Indices 1 2 3 4 5 6 
#
# 1 0.011806 -0.003954 -0.003254 -0.000001 0.000000 0.000000
# 2 -0.003954 0.015182 -0.002875 0.000000 0.000000 0.000000
# 3 -0.003254 -0.002875 0.011046 0.000000 0.000000 0.000000
# 4 -0.000001 0.000000 0.000000 0.039846 0.000000 0.000000
# 5 0.000000 0.000000 0.000000 0.000000 0.031919 0.000000
# 6 0.000000 0.000000 0.000000 0.000000 0.000000 0.028468
#
#
# Mechanical properties :
#
#
# Convention : Reuss Voigt Hill
#
# Bulk Modulus (GPa) = 55.96499 57.56184 56.76342
# Shear Modulus (GPa) = 30.41554 31.06880 30.74217
#
# Velocity S-wave (km/s) = 3.86266 3.90392 3.88334
# Velocity P-wave (km/s) = 6.88089 6.96830 6.92474
#
# Compressibility (1/GPa) = 0.01786831
#
# Stress axis : x y z
#
# Youngs Moduli (GPa) = 84.70311 65.86807 90.52877
#
# Poissons Ratio (x) = 0.26047 0.29456
# Poissons Ratio (y) = 0.33496 0.26024
# Poissons Ratio (z) = 0.27560 0.18935
#
# Static dielectric constant tensor:
#      x y z
#    x 3.689390 0.000000 0.000000 
#    y 0.000000 3.675740 0.000000 
#    z 0.000000 0.000000 3.775650 
# 
# 
# High freq. dielectric constant tensor:
#      x y z
#    x 1.807080 0.000000 0.000000 
#    y 0.000000 1.798540 0.000000 
#    z 0.000000 0.000000 1.797020 
# 
# From -- ./inp_files/9799.got.cif
#   From: 2010.03.12/outbox.cif.g09.slc.cpg/sg46_5_cif.got.tgz:9799.got - 2010.04.14 02:56:35.
