data_PCOD8192436
_publ_section_title
;
Structure prediction by ZEFSAII (Michael W. Deem and Ramdas Pophale) SiO2 
 PCOD8192436
Probable space group: I M A 2
;
_chemical_formula_sum "Si O2"
_cell_formula_units_Z 60
_cell_length_a 9.074209
_cell_length_b 15.732499
_cell_length_c 20.388631
_cell_angle_alpha 90.000000
_cell_angle_beta 90.000000
_cell_angle_gamma 90.000000
_cell_volume 2910.680636
_symmetry_space_group_name_H-M "I M A 2"
_symmetry_group_IT_number 46
_symmetry_cell_setting 'orthorhombic'
loop_
_space_group_symop_operation_xyz
x,y,z
-x,-y,z
1/2-x,y,z
1/2+x,-y,z
1/2+x,1/2+y,1/2+z
1/2-x,1/2-y,1/2+z
-x,1/2+y,1/2+z
x,1/2-y,1/2+z
loop_
_atom_site_type_symbol
_atom_site_label
_atom_site_fract_x
_atom_site_fract_y
_atom_site_fract_z
Si Si1 0.414706 0.112060 0.647230
Si Si2 0.575204 0.246699 0.216308
Si Si3 0.415751 0.840046 0.841149
Si Si4 0.913555 0.918939 0.042952
Si Si5 0.575197 0.227132 0.977816
Si Si6 0.000000 0.500000 0.264190
Si Si7 0.914423 0.578635 0.696378
Si Si8 0.424809 0.918007 0.516520
O O1 0.250000 0.125930 0.620047
O O2 0.489055 0.202678 0.660404
O O3 0.401169 0.055052 0.713701
O O4 0.517753 0.073404 0.591076
O O5 0.750000 0.260054 0.207020
O O6 0.515056 0.280408 0.285837
O O7 0.529697 0.150821 0.213048
O O8 0.250000 0.811451 0.852151
O O9 0.489760 0.816623 0.910910
O O10 0.417525 0.937362 0.815014
O O11 0.750000 0.914839 0.011099
O O12 0.897124 0.934476 0.119529
O O13 0.000000 0.000000 0.011515
O O14 0.999354 0.829803 0.033790
O O15 0.750000 0.218290 0.986356
O O16 0.529627 0.327014 0.984049
O O17 0.750000 0.591496 0.726848
O O18 0.000000 0.500000 0.728880
O O19 0.250000 0.929670 0.515850
O O20 0.500000 0.000000 0.479404
#
# Coordination Sequence:
#
# PCOD8192436 Si02
#       8
#     8   8   8   8   8   4   8   8
#     4  11  21  34  57  87 121 150 185 239 302 364
#     4  10  20  35  56  81 113 151 189 233 290 347
#     4   9  20  38  57  79 115 155 194 237 284 346
#     4  10  21  36  56  84 116 152 190 235 287 344
#     4  10  22  40  59  82 115 158 202 244 292 349
#     4  10  20  34  58  90 120 154 194 238 302 356
#     4  10  20  35  56  82 113 146 188 238 290 344
#     4  11  23  38  60  86 116 155 199 249 305 358
#
# _framework density 20.613734000000001
#
# number of rings (size 3 to 8) (size 9 to 14) (size 15 to 20)
#    0.000    1.867    0.667    3.200    0.933    5.867 
#    0.000    4.000    0.000    1.600    0.000    0.000 
#    0.000    0.000    0.000    0.000    0.000    0.000 
#
# Total GULP energy -371663.642566 kJ/mol
# GULP energy per Si atom -12388.788086 kJ/mol
# Density = 2.056682 g / cm^3
# Si number density = 20.613734 Si / 1000 Ang^3
#
#
#
# Elastic Constant Matrix: (Units=GPa)
#
#
# Indices 1 2 3 4 5 6 
#
# 1 99.1226 46.6810 11.4645 0.0000 0.0000 0.0000
# 2 46.6810 162.6684 21.7650 0.0000 0.0000 0.0000
# 3 11.4645 21.7650 44.5431 0.0000 0.0000 0.0000
# 4 0.0000 0.0000 0.0000 23.4993 0.0000 0.0000
# 5 0.0000 0.0000 0.0000 0.0000 15.0591 0.0000
# 6 0.0000 0.0000 0.0000 0.0000 0.0000 35.1248
#
#
#
# Elastic Compliance Matrix: (Units=1/GPa)
#
#
# Indices 1 2 3 4 5 6 
#
# 1 0.011755 -0.003176 -0.001473 0.000000 0.000000 0.000000
# 2 -0.003176 0.007436 -0.002816 0.000000 0.000000 0.000000
# 3 -0.001473 -0.002816 0.024205 0.000000 0.000000 0.000000
# 4 0.000000 0.000000 0.000000 0.042554 0.000000 0.000000
# 5 0.000000 0.000000 0.000000 0.000000 0.066405 0.000000
# 6 0.000000 0.000000 0.000000 0.000000 0.000000 0.028470
#
#
# Mechanical properties :
#
#
# Convention : Reuss Voigt Hill
#
# Bulk Modulus (GPa) = 35.13104 51.79501 43.46302
# Shear Modulus (GPa) = 24.36125 29.83155 27.09640
#
# Velocity S-wave (km/s) = 3.44146 3.80829 3.62951
# Velocity P-wave (km/s) = 5.73333 6.67222 6.22051
#
# Compressibility (1/GPa) = 0.02846485
#
# Stress axis : x y z
#
# Youngs Moduli (GPa) = 85.07234 134.48679 41.31331
#
# Poissons Ratio (x) = 0.42714 0.06087
# Poissons Ratio (y) = 0.27020 0.11633
# Poissons Ratio (z) = 0.12535 0.37869
#
# Static dielectric constant tensor:
#      x y z
#    x 3.732990 0.000000 0.000000 
#    y 0.000000 4.040390 0.000000 
#    z 0.000000 0.000000 3.649270 
# 
# 
# High freq. dielectric constant tensor:
#      x y z
#    x 1.800610 0.000000 0.000000 
#    y 0.000000 1.823070 0.000000 
#    z 0.000000 0.000000 1.772910 
# 
# From -- ./inp_files/23054.got.cif
#   From: 2010.03.12/outbox.cif.g09.slc.cpg/sg46_12_cif.got.tgz:23054.got - 2010.04.14 02:56:35.
