data_PCOD8192719
_publ_section_title
;
Structure prediction by ZEFSAII (Michael W. Deem and Ramdas Pophale) SiO2 
 PCOD8192719
Probable space group: I M A 2
;
_chemical_formula_sum "Si O2"
_cell_formula_units_Z 48
_cell_length_a 8.359356
_cell_length_b 18.943737
_cell_length_c 15.013126
_cell_angle_alpha 90.000000
_cell_angle_beta 90.000000
_cell_angle_gamma 90.000000
_cell_volume 2377.440223
_symmetry_space_group_name_H-M "I M A 2"
_symmetry_group_IT_number 46
_symmetry_cell_setting 'orthorhombic'
loop_
_space_group_symop_operation_xyz
x,y,z
-x,-y,z
1/2-x,y,z
1/2+x,-y,z
1/2+x,1/2+y,1/2+z
1/2-x,1/2-y,1/2+z
-x,1/2+y,1/2+z
x,1/2-y,1/2+z
loop_
_atom_site_type_symbol
_atom_site_label
_atom_site_fract_x
_atom_site_fract_y
_atom_site_fract_z
Si Si1 0.434676 0.322030 0.397880
Si Si2 0.564392 0.331064 0.890098
Si Si3 0.436254 0.425295 0.738200
Si Si4 0.559948 0.076278 0.750589
Si Si5 0.063031 0.577204 0.545387
Si Si6 0.561915 0.425265 0.050151
O O1 0.250000 0.300649 0.397482
O O2 0.540406 0.251965 0.396063
O O3 0.475468 0.365627 0.310127
O O4 0.472728 0.365369 0.486547
O O5 0.750000 0.348552 0.874243
O O6 0.464119 0.363825 0.809229
O O7 0.502339 0.364923 0.982768
O O8 0.500000 0.500000 0.776330
O O9 0.250000 0.432214 0.715342
O O10 0.530122 0.405542 0.648322
O O11 0.750000 0.081401 0.761058
O O12 0.498910 0.090424 0.649784
O O13 0.500000 0.000000 0.783085
O O14 0.250000 0.581498 0.524603
O O15 0.000000 0.500000 0.519455
O O16 0.500000 0.500000 0.014228
O O17 0.750000 0.428774 0.053777
#
# Coordination Sequence:
#
# PCOD8192719 Si02
#       6
#     8   8   8   8   8   8
#     4  12  25  40  57  84 119 157 196 241 294 351
#     4  11  23  40  59  85 119 158 197 239 291 349
#     4  11  22  39  62  90 119 153 195 243 293 348
#     4  10  20  38  61  87 115 149 192 240 289 345
#     4  11  22  40  64  89 116 152 195 244 294 349
#     4   9  20  37  61  87 114 147 189 235 283 336
#
# _framework density 20.189781
#
# number of rings (size 3 to 8) (size 9 to 14) (size 15 to 20)
#    0.000    1.333    0.000    7.500    0.000    4.667 
#    0.000    5.000    0.000    0.000    0.000    0.000 
#    0.000    0.000    0.000    0.000    0.000    0.000 
#
# Total GULP energy -297740.247799 kJ/mol
# GULP energy per Si atom -12405.843658 kJ/mol
# Density = 2.014383 g / cm^3
# Si number density = 20.189781 Si / 1000 Ang^3
#
#
#
# Elastic Constant Matrix: (Units=GPa)
#
#
# Indices 1 2 3 4 5 6 
#
# 1 67.3118 0.5099 9.9552 0.0000 0.0000 0.0000
# 2 0.5099 125.7065 66.1692 0.0000 0.0000 0.0000
# 3 9.9552 66.1692 104.9202 0.0000 0.0001 0.0000
# 4 0.0000 0.0000 0.0000 50.4221 0.0001 0.0000
# 5 0.0000 0.0000 0.0001 0.0001 14.1663 0.0000
# 6 0.0000 0.0000 0.0000 0.0000 0.0000 34.1169
#
#
#
# Elastic Compliance Matrix: (Units=1/GPa)
#
#
# Indices 1 2 3 4 5 6 
#
# 1 0.015158 0.001041 -0.002095 0.000000 0.000000 0.000000
# 2 0.001041 0.011980 -0.007654 0.000000 0.000000 0.000000
# 3 -0.002095 -0.007654 0.014557 0.000000 0.000000 0.000000
# 4 0.000000 0.000000 0.000000 0.019833 0.000000 0.000000
# 5 0.000000 0.000000 0.000000 0.000000 0.070590 0.000000
# 6 0.000000 0.000000 0.000000 0.000000 0.000000 0.029311
#
#
# Mechanical properties :
#
#
# Convention : Reuss Voigt Hill
#
# Bulk Modulus (GPa) = 41.18704 50.13414 45.66059
# Shear Modulus (GPa) = 26.74701 34.49466 30.62084
#
# Velocity S-wave (km/s) = 3.64370 4.13791 3.89864
# Velocity P-wave (km/s) = 6.17627 6.90761 6.55215
#
# Compressibility (1/GPa) = 0.02427948
#
# Stress axis : x y z
#
# Youngs Moduli (GPa) = 65.97099 83.47468 68.69611
#
# Poissons Ratio (x) = -0.08692 0.14391
# Poissons Ratio (y) = -0.06869 0.52579
# Poissons Ratio (z) = 0.13821 0.63891
#
# Static dielectric constant tensor:
#      x y z
#    x 3.667710 0.000000 0.000000 
#    y 0.000000 3.599740 0.000000 
#    z 0.000000 0.000000 3.884370 
# 
# 
# High freq. dielectric constant tensor:
#      x y z
#    x 1.798460 0.000000 0.000000 
#    y 0.000000 1.783530 0.000000 
#    z 0.000000 0.000000 1.800590 
# 
# From -- ./inp_files/13907.got.cif
#   From: 2010.03.12/outbox.cif.g09.slc.cpg/sg46_7_cif.got.tgz:13907.got - 2010.04.14 02:56:35.
