data_PCOD8192180
_publ_section_title
;
Structure prediction by ZEFSAII (Michael W. Deem and Ramdas Pophale) SiO2 
 PCOD8192180
Probable space group: I M A 2
;
_chemical_formula_sum "Si O2"
_cell_formula_units_Z 64
_cell_length_a 28.810797
_cell_length_b 13.863249
_cell_length_c 9.008713
_cell_angle_alpha 90.000000
_cell_angle_beta 90.000000
_cell_angle_gamma 90.000000
_cell_volume 3598.181345
_symmetry_space_group_name_H-M "I M A 2"
_symmetry_group_IT_number 46
_symmetry_cell_setting 'orthorhombic'
loop_
_space_group_symop_operation_xyz
x,y,z
-x,-y,z
1/2-x,y,z
1/2+x,-y,z
1/2+x,1/2+y,1/2+z
1/2-x,1/2-y,1/2+z
-x,1/2+y,1/2+z
x,1/2-y,1/2+z
loop_
_atom_site_type_symbol
_atom_site_label
_atom_site_fract_x
_atom_site_fract_y
_atom_site_fract_z
Si Si1 0.539539 0.581496 0.969420
Si Si2 0.507509 0.792917 0.970982
Si Si3 0.944187 0.227634 0.699083
Si Si4 0.697356 0.124939 0.712283
Si Si5 0.450838 0.451623 0.639070
Si Si6 0.387165 0.949281 0.567345
Si Si7 0.881173 0.397340 0.735770
Si Si8 0.802251 0.318374 0.545534
O O1 0.500000 0.500000 0.978052
O O2 0.522740 0.685293 0.019839
O O3 0.554453 0.597524 0.799316
O O4 0.582476 0.547534 0.073896
O O5 0.486097 0.806111 0.807667
O O6 0.464443 0.805736 0.082779
O O7 0.549187 0.868750 0.009010
O O8 0.920342 0.136738 0.621986
O O9 0.905161 0.294391 0.775079
O O10 0.750000 0.082979 0.708881
O O11 0.659135 0.043398 0.670066
O O12 0.690852 0.206551 0.586738
O O13 0.685568 0.169871 0.872394
O O14 0.500000 0.500000 0.618084
O O15 0.410289 0.530751 0.627869
O O16 0.371523 0.941102 0.396589
O O17 0.833588 0.385591 0.647492
O O18 0.750000 0.351413 0.578828
#
# Coordination Sequence:
#
# PCOD8192180 Si02
#       8
#     8   8   8   8   8   8   8   8
#     4  10  19  36  51  70 102 138 175 213 260 305
#     4  12  21  37  51  71 106 141 180 216 258 302
#     4  12  21  33  52  74 103 141 176 214 253 301
#     4  10  21  35  51  75 106 137 172 216 267 320
#     4  10  20  35  52  70 100 141 174 214 258 306
#     4  11  22  34  54  77 102 142 178 215 264 317
#     4  11  21  35  54  76 104 139 180 215 264 316
#     4  10  21  35  52  75 105 137 172 217 266 321
#
# _framework density 17.786763000000001
#
# number of rings (size 3 to 8) (size 9 to 14) (size 15 to 20)
#    0.000    1.250    6.250    1.500    1.750    1.500 
#    4.500    0.000    0.000    0.000    0.000    0.875 
#    0.000    0.000    0.000    0.000    0.000    0.000 
#
# Total GULP energy -396489.558808 kJ/mol
# GULP energy per Si atom -12390.298713 kJ/mol
# Density = 1.774628 g / cm^3
# Si number density = 17.786763 Si / 1000 Ang^3
#
#
#
# Elastic Constant Matrix: (Units=GPa)
#
#
# Indices 1 2 3 4 5 6 
#
# 1 96.9776 34.5245 38.9022 0.0000 0.0000 0.0000
# 2 34.5245 69.4248 21.5991 0.0000 0.0000 0.0000
# 3 38.9022 21.5991 74.6465 0.0000 0.0000 0.0000
# 4 0.0000 0.0000 0.0000 20.0053 0.0000 0.0000
# 5 0.0000 0.0000 0.0000 0.0000 32.8186 0.0000
# 6 0.0000 0.0000 0.0000 0.0000 0.0000 20.8805
#
#
#
# Elastic Compliance Matrix: (Units=1/GPa)
#
#
# Indices 1 2 3 4 5 6 
#
# 1 0.014677 -0.005406 -0.006085 0.000000 0.000000 0.000000
# 2 -0.005406 0.017820 -0.002339 0.000000 0.000000 0.000000
# 3 -0.006085 -0.002339 0.017244 0.000000 0.000000 0.000000
# 4 0.000000 0.000000 0.000000 0.049987 0.000000 0.000000
# 5 0.000000 0.000000 0.000000 0.000000 0.030471 0.000000
# 6 0.000000 0.000000 0.000000 0.000000 0.000000 0.047891
#
#
# Mechanical properties :
#
#
# Convention : Reuss Voigt Hill
#
# Bulk Modulus (GPa) = 45.28518 47.90005 46.59262
# Shear Modulus (GPa) = 23.46205 24.47576 23.96890
#
# Velocity S-wave (km/s) = 3.63585 3.71356 3.67491
# Velocity P-wave (km/s) = 6.56819 6.73617 6.65271
#
# Compressibility (1/GPa) = 0.02208228
#
# Stress axis : x y z
#
# Youngs Moduli (GPa) = 68.13377 56.11670 57.98980
#
# Poissons Ratio (x) = 0.30335 0.35286
# Poissons Ratio (y) = 0.36831 0.13564
# Poissons Ratio (z) = 0.41458 0.13126
#
# Static dielectric constant tensor:
#      x y z
#    x 3.393360 0.000000 0.000000 
#    y 0.000000 3.152790 0.000000 
#    z 0.000000 0.000000 3.358890 
# 
# 
# High freq. dielectric constant tensor:
#      x y z
#    x 1.673290 0.000000 0.000000 
#    y 0.000000 1.651090 0.000000 
#    z 0.000000 0.000000 1.697270 
# 
# From -- ./inp_files/8546.got.cif
#   From: 2010.03.12/outbox.cif.g09.slc.cpg/sg46_5_cif.got.tgz:8546.got - 2010.04.14 02:56:35.
