data_PCOD8192581
_publ_section_title
;
Structure prediction by ZEFSAII (Michael W. Deem and Ramdas Pophale) SiO2 
 PCOD8192581
Probable space group: I M A 2
;
_chemical_formula_sum "Si O2"
_cell_formula_units_Z 60
_cell_length_a 9.613607
_cell_length_b 16.642732
_cell_length_c 18.746124
_cell_angle_alpha 90.000000
_cell_angle_beta 90.000000
_cell_angle_gamma 90.000000
_cell_volume 2999.317694
_symmetry_space_group_name_H-M "I M A 2"
_symmetry_group_IT_number 46
_symmetry_cell_setting 'orthorhombic'
loop_
_space_group_symop_operation_xyz
x,y,z
-x,-y,z
1/2-x,y,z
1/2+x,-y,z
1/2+x,1/2+y,1/2+z
1/2-x,1/2-y,1/2+z
-x,1/2+y,1/2+z
x,1/2-y,1/2+z
loop_
_atom_site_type_symbol
_atom_site_label
_atom_site_fract_x
_atom_site_fract_y
_atom_site_fract_z
Si Si1 0.590894 0.781420 0.663990
Si Si2 0.089586 0.609419 0.936201
Si Si3 0.000000 0.000000 0.181674
Si Si4 0.907915 0.351226 0.599399
Si Si5 0.404878 0.292195 0.316924
Si Si6 0.096983 0.103160 0.308528
Si Si7 0.913201 0.930970 0.568689
Si Si8 0.907438 0.200105 0.944930
O O1 0.750000 0.750888 0.662798
O O2 0.494204 0.704655 0.652522
O O3 0.560066 0.828152 0.738730
O O4 0.561751 0.844775 0.602416
O O5 0.250000 0.581325 0.944212
O O6 0.077865 0.704427 0.947559
O O7 0.030907 0.578045 0.860015
O O8 0.986210 0.569350 0.991915
O O9 0.087331 0.942613 0.128327
O O10 0.908586 0.942890 0.232850
O O11 0.750000 0.320227 0.600430
O O12 0.964082 0.341205 0.517870
O O13 0.250000 0.313623 0.342732
O O14 0.420658 0.198088 0.299442
O O15 0.504111 0.329721 0.377051
O O16 0.250000 0.085598 0.342022
O O17 0.750000 0.952649 0.563677
O O18 0.000000 0.000000 0.611679
O O19 0.750000 0.172892 0.931214
#
# Coordination Sequence:
#
# PCOD8192581 Si02
#       8
#     8   8   4   8   8   8   8   8
#     4  10  21  39  62  88 117 151 195 247 305 368
#     4  10  20  36  58  84 119 156 195 241 293 353
#     4  12  24  38  58  88 124 168 208 250 304 362
#     4  11  23  39  61  88 122 162 205 252 302 360
#     4   9  18  36  60  85 110 146 195 245 295 356
#     4  10  21  36  53  79 118 158 197 239 287 348
#     4  11  23  38  59  86 117 152 193 243 303 366
#     4   9  19  36  58  87 115 148 195 246 293 352
#
# _framework density 20.004548
#
# number of rings (size 3 to 8) (size 9 to 14) (size 15 to 20)
#    0.000    1.867    2.667    1.200    0.933    3.733 
#    0.000    0.000    1.467    0.000    0.000    0.000 
#    0.000    0.000    0.000    0.000    0.000    0.000 
#
# Total GULP energy -371772.541434 kJ/mol
# GULP energy per Si atom -12392.418048 kJ/mol
# Density = 1.995902 g / cm^3
# Si number density = 20.004548 Si / 1000 Ang^3
#
#
#
# Elastic Constant Matrix: (Units=GPa)
#
#
# Indices 1 2 3 4 5 6 
#
# 1 115.5905 27.6848 55.2855 0.0000 0.0000 0.0000
# 2 27.6848 50.4638 32.6157 0.0000 0.0000 0.0000
# 3 55.2855 32.6157 132.7826 0.0000 0.0000 0.0000
# 4 0.0000 0.0000 0.0000 32.0109 0.0000 0.0000
# 5 0.0000 0.0000 0.0000 0.0000 30.1980 0.0000
# 6 0.0000 0.0000 0.0000 0.0000 0.0000 22.4051
#
#
#
# Elastic Compliance Matrix: (Units=1/GPa)
#
#
# Indices 1 2 3 4 5 6 
#
# 1 0.011378 -0.003781 -0.003809 0.000000 0.000000 0.000000
# 2 -0.003781 0.024812 -0.004521 0.000000 0.000000 0.000000
# 3 -0.003809 -0.004521 0.010227 0.000000 0.000000 0.000000
# 4 0.000000 0.000000 0.000000 0.031239 0.000000 0.000000
# 5 0.000000 0.000000 0.000000 0.000000 0.033115 0.000000
# 6 0.000000 0.000000 0.000000 0.000000 0.000000 0.044633
#
#
# Mechanical properties :
#
#
# Convention : Reuss Voigt Hill
#
# Bulk Modulus (GPa) = 45.04960 58.88989 51.96975
# Shear Modulus (GPa) = 26.73458 29.13954 27.93706
#
# Velocity S-wave (km/s) = 3.65968 3.82074 3.74108
# Velocity P-wave (km/s) = 6.35816 6.99759 6.68553
#
# Compressibility (1/GPa) = 0.02219776
#
# Stress axis : x y z
#
# Youngs Moduli (GPa) = 87.88542 40.30325 97.77670
#
# Poissons Ratio (x) = 0.15237 0.37242
# Poissons Ratio (y) = 0.33225 0.44200
# Poissons Ratio (z) = 0.33475 0.18219
#
# Static dielectric constant tensor:
#      x y z
#    x 3.708950 0.000000 0.000000 
#    y 0.000000 3.586220 0.000000 
#    z 0.000000 0.000000 3.779310 
# 
# 
# High freq. dielectric constant tensor:
#      x y z
#    x 1.782070 0.000000 0.000000 
#    y 0.000000 1.758470 0.000000 
#    z 0.000000 0.000000 1.782760 
# 
# From -- ./inp_files/18369.got.cif
#   From: 2010.03.12/outbox.cif.g09.slc.cpg/sg46_10_cif.got.tgz:18369.got - 2010.04.14 02:56:35.
