data_PCOD8192250
_publ_section_title
;
Structure prediction by ZEFSAII (Michael W. Deem and Ramdas Pophale) SiO2 
 PCOD8192250
Probable space group: I M A 2
;
_chemical_formula_sum "Si O2"
_cell_formula_units_Z 64
_cell_length_a 9.007250
_cell_length_b 30.433534
_cell_length_c 11.787287
_cell_angle_alpha 90.000000
_cell_angle_beta 90.000000
_cell_angle_gamma 90.000000
_cell_volume 3231.159981
_symmetry_space_group_name_H-M "I M A 2"
_symmetry_group_IT_number 46
_symmetry_cell_setting 'orthorhombic'
loop_
_space_group_symop_operation_xyz
x,y,z
-x,-y,z
1/2-x,y,z
1/2+x,-y,z
1/2+x,1/2+y,1/2+z
1/2-x,1/2-y,1/2+z
-x,1/2+y,1/2+z
x,1/2-y,1/2+z
loop_
_atom_site_type_symbol
_atom_site_label
_atom_site_fract_x
_atom_site_fract_y
_atom_site_fract_z
Si Si1 0.422670 0.871425 0.169190
Si Si2 0.922169 0.376630 0.404156
Si Si3 0.919741 0.069028 0.563077
Si Si4 0.425054 0.043338 0.783437
Si Si5 0.075688 0.300829 0.817047
Si Si6 0.078516 0.789108 0.774082
Si Si7 0.424861 0.544832 0.809709
Si Si8 0.417336 0.829889 0.536864
O O1 0.250000 0.864873 0.196328
O O2 0.506076 0.828816 0.215432
O O3 0.481848 0.915501 0.230392
O O4 0.454900 0.874855 0.036891
O O5 0.750000 0.386709 0.377408
O O6 0.970374 0.330698 0.348895
O O7 0.021554 0.414599 0.352069
O O8 0.750000 0.054253 0.585049
O O9 0.973060 0.055454 0.438050
O O10 0.935443 0.120888 0.581614
O O11 0.027276 0.045616 0.651838
O O12 0.250000 0.039280 0.792719
O O13 0.500000 0.000000 0.837970
O O14 0.250000 0.302021 0.803000
O O15 0.021454 0.251046 0.812671
O O16 0.033141 0.321165 0.937879
O O17 0.250000 0.777710 0.797114
O O18 0.050036 0.797731 0.641390
O O19 0.500000 0.500000 0.767548
O O20 0.250000 0.539320 0.798318
O O21 0.250000 0.822869 0.490020
#
# Coordination Sequence:
#
# PCOD8192250 Si02
#       8
#     8   8   8   8   8   8   8   8
#     4  10  22  43  66  88 119 164 212 252 299 365
#     4  10  22  43  68  91 117 156 211 261 306 362
#     4  10  19  38  64  91 123 156 204 258 304 357
#     4  12  25  40  62  91 127 164 204 251 306 369
#     4  12  26  40  60  93 132 163 199 253 307 363
#     4  10  22  41  66  92 119 160 209 255 305 368
#     4  10  21  37  60  89 121 156 197 251 303 358
#     4  10  20  40  68  91 119 159 207 253 301 366
#
# _framework density 19.807129
#
# number of rings (size 3 to 8) (size 9 to 14) (size 15 to 20)
#    0.000    1.500    2.500    2.625    1.750    4.500 
#    0.000    1.250    0.000    0.000    0.000    0.000 
#    0.000    0.000    0.000    0.000    0.000    0.000 
#
# Total GULP energy -396983.144572 kJ/mol
# GULP energy per Si atom -12405.723268 kJ/mol
# Density = 1.976205 g / cm^3
# Si number density = 19.807129 Si / 1000 Ang^3
#
#
#
# Elastic Constant Matrix: (Units=GPa)
#
#
# Indices 1 2 3 4 5 6 
#
# 1 107.2806 65.5162 52.3842 0.0012 -0.0001 -0.0001
# 2 65.5162 126.9700 48.8340 0.0023 0.0003 0.0000
# 3 52.3842 48.8340 97.3674 0.0053 -0.0010 -0.0006
# 4 0.0012 0.0023 0.0053 19.5894 -0.0005 -0.0002
# 5 -0.0001 0.0003 -0.0010 -0.0005 20.0492 0.0007
# 6 -0.0001 0.0000 -0.0006 -0.0002 0.0007 34.6776
#
#
#
# Elastic Compliance Matrix: (Units=1/GPa)
#
#
# Indices 1 2 3 4 5 6 
#
# 1 0.015608 -0.005977 -0.005399 0.000001 0.000000 0.000000
# 2 -0.005977 0.012047 -0.002826 0.000000 0.000000 0.000000
# 3 -0.005399 -0.002826 0.014593 -0.000003 0.000001 0.000000
# 4 0.000001 0.000000 -0.000003 0.051048 0.000001 0.000000
# 5 0.000000 0.000000 0.000001 0.000001 0.049877 -0.000001
# 6 0.000000 0.000000 0.000000 0.000000 -0.000001 0.028837
#
#
# Mechanical properties :
#
#
# Convention : Reuss Voigt Hill
#
# Bulk Modulus (GPa) = 72.24324 73.89852 73.07088
# Shear Modulus (GPa) = 24.38663 25.85548 25.12106
#
# Velocity S-wave (km/s) = 3.51266 3.61690 3.56516
# Velocity P-wave (km/s) = 7.28040 7.40491 7.34292
#
# Compressibility (1/GPa) = 0.01384213
#
# Stress axis : x y z
#
# Youngs Moduli (GPa) = 64.06963 83.00764 68.52631
#
# Poissons Ratio (x) = 0.49614 0.37001
# Poissons Ratio (y) = 0.38294 0.19369
# Poissons Ratio (z) = 0.34594 0.23462
#
# Static dielectric constant tensor:
#      x y z
#    x 3.443920 0.000000 0.000000 
#    y 0.000000 3.729140 0.000000 
#    z 0.000000 0.000000 3.624540 
# 
# 
# High freq. dielectric constant tensor:
#      x y z
#    x 1.756070 0.000000 0.000000 
#    y 0.000000 1.787580 0.000000 
#    z 0.000000 0.000000 1.776580 
# 
# From -- ./inp_files/9684.got.cif
#   From: 2010.03.12/outbox.cif.g09.slc.cpg/sg46_5_cif.got.tgz:9684.got - 2010.04.14 02:56:35.
