data_PCOD8192267
_publ_section_title
;
Structure prediction by ZEFSAII (Michael W. Deem and Ramdas Pophale) SiO2 
 PCOD8192267
Probable space group: I M A 2
;
_chemical_formula_sum "Si O2"
_cell_formula_units_Z 56
_cell_length_a 26.677833
_cell_length_b 15.165015
_cell_length_c 7.708337
_cell_angle_alpha 90.000000
_cell_angle_beta 90.000000
_cell_angle_gamma 90.000000
_cell_volume 3118.559878
_symmetry_space_group_name_H-M "I M A 2"
_symmetry_group_IT_number 46
_symmetry_cell_setting 'orthorhombic'
loop_
_space_group_symop_operation_xyz
x,y,z
-x,-y,z
1/2-x,y,z
1/2+x,-y,z
1/2+x,1/2+y,1/2+z
1/2-x,1/2-y,1/2+z
-x,1/2+y,1/2+z
x,1/2-y,1/2+z
loop_
_atom_site_type_symbol
_atom_site_label
_atom_site_fract_x
_atom_site_fract_y
_atom_site_fract_z
Si Si1 0.462041 0.418240 0.514750
Si Si2 0.193772 0.715761 0.898231
Si Si3 0.056188 0.018416 0.368616
Si Si4 0.402728 0.660139 0.715226
Si Si5 0.902937 0.496592 0.224753
Si Si6 0.305893 0.890489 0.744748
Si Si7 0.948995 0.330005 0.363023
O O1 0.500000 0.500000 0.522933
O O2 0.441592 0.407303 0.713402
O O3 0.416956 0.437166 0.381175
O O4 0.494870 0.335426 0.445745
O O5 0.250000 0.690939 0.834230
O O6 0.154517 0.676071 0.762878
O O7 0.188949 0.823043 0.907015
O O8 0.182241 0.674801 0.084472
O O9 0.080354 0.930912 0.293873
O O10 0.087617 0.046120 0.540424
O O11 0.000000 0.000000 0.430758
O O12 0.406206 0.656356 0.508067
O O13 0.441669 0.735739 0.776147
O O14 0.844599 0.471317 0.247784
O O15 0.938018 0.408511 0.225076
O O16 0.250000 0.931583 0.733571
#
# Coordination Sequence:
#
# PCOD8192267 Si02
#       7
#     8   8   8   8   8   8   8
#     4   9  19  35  46  67  96 122 164 209 243 297
#     4  10  20  32  43  63  94 128 168 209 244 273
#     4  11  19  33  51  68  91 130 167 199 253 298
#     4  12  19  31  50  70  96 132 169 208 246 282
#     4  11  19  32  50  65  93 129 167 201 247 292
#     4  10  20  31  44  66  92 124 167 211 242 280
#     4  11  21  32  47  74  99 122 174 216 239 295
#
# _framework density 17.957007000000001
#
# number of rings (size 3 to 8) (size 9 to 14) (size 15 to 20)
#    0.000    1.429    7.143    3.000    0.000    0.000 
#    0.000    0.000    0.000    0.000    0.000    0.000 
#    0.000    0.000    0.000    6.429    0.000    0.714 
#
# Total GULP energy -347015.191365 kJ/mol
# GULP energy per Si atom -12393.399692 kJ/mol
# Density = 1.791614 g / cm^3
# Si number density = 17.957007 Si / 1000 Ang^3
#
#
#
# Elastic Constant Matrix: (Units=GPa)
#
#
# Indices 1 2 3 4 5 6 
#
# 1 104.4087 23.7376 29.7397 0.0000 0.0000 0.0000
# 2 23.7376 17.2748 9.0513 0.0000 0.0000 0.0000
# 3 29.7397 9.0513 89.3892 0.0000 0.0000 0.0000
# 4 0.0000 0.0000 0.0000 9.8342 0.0000 0.0000
# 5 0.0000 0.0000 0.0000 0.0000 25.0055 0.0000
# 6 0.0000 0.0000 0.0000 0.0000 0.0000 -51.2037
#
#
#
# Elastic Compliance Matrix: (Units=1/GPa)
#
#
# Indices 1 2 3 4 5 6 
#
# 1 0.014651 -0.018563 -0.002995 0.000000 0.000000 0.000000
# 2 -0.018563 0.084651 -0.002396 0.000000 0.000000 0.000000
# 3 -0.002995 -0.002396 0.012426 0.000000 0.000000 0.000000
# 4 0.000000 0.000000 0.000000 0.101686 0.000000 0.000000
# 5 0.000000 0.000000 0.000000 0.000000 0.039991 0.000000
# 6 0.000000 0.000000 0.000000 0.000000 0.000000 -0.019530
#
#
# Mechanical properties :
#
#
# Convention : Reuss Voigt Hill
#
# Bulk Modulus (GPa) = 15.66884 37.34777 26.50830
# Shear Modulus (GPa) = 16.49859 6.63013 11.56436
#
# Velocity S-wave (km/s) = 3.03443 1.92360 2.54047
# Velocity P-wave (km/s) = 4.58495 5.07713 4.83730
#
# Compressibility (1/GPa) = 0.06382093
#
# Stress axis : x y z
#
# Youngs Moduli (GPa) = 68.25391 11.81322 80.47665
#
# Poissons Ratio (x) = 0.21929 0.24101
# Poissons Ratio (y) = 1.26701 0.19278
# Poissons Ratio (z) = 0.20441 0.02830
#
# Static dielectric constant tensor:
#      x y z
#    x 3.649430 0.000000 0.000000 
#    y 0.000000 2.996850 0.000000 
#    z 0.000000 0.000000 3.776760 
# 
# 
# High freq. dielectric constant tensor:
#      x y z
#    x 1.685930 0.000000 0.000000 
#    y 0.000000 1.624400 0.000000 
#    z 0.000000 0.000000 1.718530 
# 
# From -- ./inp_files/7994.got.cif
#   From: 2010.03.12/outbox.cif.g09.slc.cpg/sg46_4_cif.got.tgz:7994.got - 2010.04.14 02:56:35.
