data_PCOD8192540
_publ_section_title
;
Structure prediction by ZEFSAII (Michael W. Deem and Ramdas Pophale) SiO2 
 PCOD8192540
Probable space group: I M A 2
;
_chemical_formula_sum "Si O2"
_cell_formula_units_Z 64
_cell_length_a 21.603597
_cell_length_b 9.886577
_cell_length_c 14.513241
_cell_angle_alpha 90.000000
_cell_angle_beta 90.000000
_cell_angle_gamma 90.000000
_cell_volume 3099.819653
_symmetry_space_group_name_H-M "I M A 2"
_symmetry_group_IT_number 46
_symmetry_cell_setting 'orthorhombic'
loop_
_space_group_symop_operation_xyz
x,y,z
-x,-y,z
1/2-x,y,z
1/2+x,-y,z
1/2+x,1/2+y,1/2+z
1/2-x,1/2-y,1/2+z
-x,1/2+y,1/2+z
x,1/2-y,1/2+z
loop_
_atom_site_type_symbol
_atom_site_label
_atom_site_fract_x
_atom_site_fract_y
_atom_site_fract_z
Si Si1 0.179876 0.357747 0.268030
Si Si2 0.451396 0.384575 0.553133
Si Si3 0.592846 0.619111 0.746862
Si Si4 0.180323 0.720561 0.992616
Si Si5 0.821911 0.963313 0.969380
Si Si6 0.677895 0.360012 0.188765
Si Si7 0.886966 0.338335 0.820710
Si Si8 0.988624 0.651102 0.918576
O O1 0.250000 0.312770 0.268727
O O2 0.145700 0.227668 0.228342
O O3 0.160658 0.403003 0.370372
O O4 0.167872 0.479688 0.196908
O O5 0.500000 0.500000 0.520357
O O6 0.456976 0.367951 0.663884
O O7 0.377840 0.414043 0.535733
O O8 0.473746 0.247963 0.503863
O O9 0.617444 0.464952 0.750862
O O10 0.567567 0.651029 0.847784
O O11 0.250000 0.671332 0.001979
O O12 0.150803 0.627794 0.913756
O O13 0.173971 0.875836 0.964454
O O14 0.149267 0.689954 0.091624
O O15 0.750000 0.923530 0.999131
O O16 0.750000 0.320295 0.200735
O O17 0.640480 0.290740 0.270230
O O18 0.954926 0.298261 0.855506
O O19 0.000000 0.500000 0.957864
#
# Coordination Sequence:
#
# PCOD8192540 Si02
#       8
#     8   8   8   8   8   8   8   8
#     4  10  21  40  63  89 129 172 211 262 325 395
#     4  12  24  42  70  97 128 171 225 278 330 399
#     4  11  25  43  61  91 130 166 211 266 330 394
#     4  10  20  35  61  95 127 164 214 268 322 383
#     4  10  20  39  66  95 130 173 220 273 330 394
#     4  10  21  38  62  95 129 166 216 270 322 388
#     4  11  21  38  65  88 124 166 210 265 327 386
#     4  10  24  43  61  88 126 166 210 268 330 395
#
# _framework density 20.646362
#
# number of rings (size 3 to 8) (size 9 to 14) (size 15 to 20)
#    0.000    1.500    2.500    3.000    0.000    4.500 
#    0.000    0.625    0.000    0.000    0.000    0.000 
#    0.000    0.000    0.000    0.000    0.000    0.000 
#
# Total GULP energy -396674.208558 kJ/mol
# GULP energy per Si atom -12396.069017 kJ/mol
# Density = 2.059937 g / cm^3
# Si number density = 20.646362 Si / 1000 Ang^3
#
#
#
# Elastic Constant Matrix: (Units=GPa)
#
#
# Indices 1 2 3 4 5 6 
#
# 1 74.9838 45.3891 24.2857 0.0000 0.0000 0.0000
# 2 45.3891 94.2608 45.8312 0.0000 0.0000 0.0000
# 3 24.2857 45.8312 93.7919 0.0000 0.0000 0.0000
# 4 0.0000 0.0000 0.0000 30.9739 0.0000 0.0000
# 5 0.0000 0.0000 0.0000 0.0000 16.4264 0.0000
# 6 0.0000 0.0000 0.0000 0.0000 0.0000 30.1670
#
#
#
# Elastic Compliance Matrix: (Units=1/GPa)
#
#
# Indices 1 2 3 4 5 6 
#
# 1 0.018847 -0.008791 -0.000584 0.000000 0.000000 0.000000
# 2 -0.008791 0.018016 -0.006527 0.000000 0.000000 0.000000
# 3 -0.000584 -0.006527 0.014003 0.000000 0.000000 0.000000
# 4 0.000000 0.000000 0.000000 0.032285 0.000000 0.000000
# 5 0.000000 0.000000 0.000000 0.000000 0.060878 0.000000
# 6 0.000000 0.000000 0.000000 0.000000 0.000000 0.033149
#
#
# Mechanical properties :
#
#
# Convention : Reuss Voigt Hill
#
# Bulk Modulus (GPa) = 52.46527 54.89426 53.67976
# Shear Modulus (GPa) = 23.21962 25.34881 24.28422
#
# Velocity S-wave (km/s) = 3.35720 3.50774 3.43330
# Velocity P-wave (km/s) = 6.36351 6.56135 6.46318
#
# Compressibility (1/GPa) = 0.01906023
#
# Stress axis : x y z
#
# Youngs Moduli (GPa) = 53.05897 55.50743 71.41546
#
# Poissons Ratio (x) = 0.48798 0.04172
# Poissons Ratio (y) = 0.46645 0.46613
# Poissons Ratio (z) = 0.03100 0.36229
#
# Static dielectric constant tensor:
#      x y z
#    x 3.846580 0.000000 0.000000 
#    y 0.000000 3.671960 0.000000 
#    z 0.000000 0.000000 3.817500 
# 
# 
# High freq. dielectric constant tensor:
#      x y z
#    x 1.807090 0.000000 0.000000 
#    y 0.000000 1.800350 0.000000 
#    z 0.000000 0.000000 1.813620 
# 
# From -- ./inp_files/17444.got.cif
#   From: 2010.03.12/outbox.cif.g09.slc.cpg/sg46_9_cif.got.tgz:17444.got - 2010.04.14 02:56:35.
