data_PCOD8192898
_publ_section_title
;
Structure prediction by ZEFSAII (Michael W. Deem and Ramdas Pophale) SiO2 
 PCOD8192898
Probable space group: I M A 2
;
_chemical_formula_sum "Si O2"
_cell_formula_units_Z 64
_cell_length_a 18.131629
_cell_length_b 10.839537
_cell_length_c 16.173227
_cell_angle_alpha 90.000000
_cell_angle_beta 90.000000
_cell_angle_gamma 90.000000
_cell_volume 3178.661183
_symmetry_space_group_name_H-M "I M A 2"
_symmetry_group_IT_number 46
_symmetry_cell_setting 'orthorhombic'
loop_
_space_group_symop_operation_xyz
x,y,z
-x,-y,z
1/2-x,y,z
1/2+x,-y,z
1/2+x,1/2+y,1/2+z
1/2-x,1/2-y,1/2+z
-x,1/2+y,1/2+z
x,1/2-y,1/2+z
loop_
_atom_site_type_symbol
_atom_site_label
_atom_site_fract_x
_atom_site_fract_y
_atom_site_fract_z
Si Si1 0.110238 0.723001 0.650170
Si Si2 0.427473 0.440999 0.962328
Si Si3 0.550624 0.698172 0.127472
Si Si4 0.335043 0.824334 0.818402
Si Si5 0.420445 0.040585 0.186701
Si Si6 0.332235 0.339977 0.828682
Si Si7 0.334011 0.419158 0.247710
Si Si8 0.335475 0.681003 0.978391
O O1 0.153204 0.743593 0.735897
O O2 0.105502 0.576535 0.634240
O O3 0.153763 0.762536 0.568881
O O4 0.032598 0.795370 0.662720
O O5 0.500000 0.500000 0.920018
O O6 0.386926 0.343473 0.905117
O O7 0.370368 0.546901 0.984180
O O8 0.456037 0.359236 0.037847
O O9 0.579212 0.839566 0.126950
O O10 0.606026 0.608005 0.176687
O O11 0.250000 0.834743 0.838527
O O12 0.370711 0.761935 0.901633
O O13 0.363574 0.963598 0.800080
O O14 0.363671 0.068207 0.259771
O O15 0.500000 0.000000 0.223983
O O16 0.250000 0.386211 0.850143
O O17 0.331183 0.197733 0.806214
O O18 0.250000 0.442951 0.212103
O O19 0.250000 0.662811 0.960537
#
# Coordination Sequence:
#
# PCOD8192898 Si02
#       8
#     8   8   8   8   8   8   8   8
#     4  11  21  39  62  87 123 160 197 249 303 356
#     4  12  23  38  58  82 121 156 194 249 299 356
#     4  10  22  39  59  87 117 153 203 246 295 362
#     4  10  22  39  61  88 122 160 198 244 303 359
#     4   9  20  39  62  84 117 157 199 243 299 358
#     4  10  21  37  59  88 117 153 203 248 295 357
#     4   9  20  39  61  85 117 155 199 247 295 357
#     4  11  24  39  59  92 122 155 205 251 299 365
#
# _framework density 20.134262
#
# number of rings (size 3 to 8) (size 9 to 14) (size 15 to 20)
#    0.000    1.750    1.250    2.625    0.000    7.000 
#    0.000    0.000    0.000    0.000    0.000    0.000 
#    0.000    0.000    0.000    0.000    0.000    0.000 
#
# Total GULP energy -396541.884865 kJ/mol
# GULP energy per Si atom -12391.933902 kJ/mol
# Density = 2.008844 g / cm^3
# Si number density = 20.134262 Si / 1000 Ang^3
#
#
#
# Elastic Constant Matrix: (Units=GPa)
#
#
# Indices 1 2 3 4 5 6 
#
# 1 64.3008 28.6840 10.8008 0.0000 0.0000 0.0000
# 2 28.6840 89.4928 28.5525 0.0000 0.0000 0.0000
# 3 10.8008 28.5525 81.1979 0.0000 0.0000 0.0000
# 4 0.0000 0.0000 0.0000 23.1024 0.0000 0.0000
# 5 0.0000 0.0000 0.0000 0.0000 32.4302 0.0000
# 6 0.0000 0.0000 0.0000 0.0000 0.0000 27.2848
#
#
#
# Elastic Compliance Matrix: (Units=1/GPa)
#
#
# Indices 1 2 3 4 5 6 
#
# 1 0.018159 -0.005688 -0.000415 0.000000 0.000000 0.000000
# 2 -0.005688 0.014368 -0.004296 0.000000 0.000000 0.000000
# 3 -0.000415 -0.004296 0.013881 0.000000 0.000000 0.000000
# 4 0.000000 0.000000 0.000000 0.043285 0.000000 0.000000
# 5 0.000000 0.000000 0.000000 0.000000 0.030835 0.000000
# 6 0.000000 0.000000 0.000000 0.000000 0.000000 0.036650
#
#
# Mechanical properties :
#
#
# Convention : Reuss Voigt Hill
#
# Bulk Modulus (GPa) = 39.04681 41.22956 40.13819
# Shear Modulus (GPa) = 26.80770 27.69378 27.25074
#
# Velocity S-wave (km/s) = 3.65286 3.71274 3.68292
# Velocity P-wave (km/s) = 6.10135 6.23707 6.16958
#
# Compressibility (1/GPa) = 0.02561029
#
# Stress axis : x y z
#
# Youngs Moduli (GPa) = 55.06939 69.60101 72.03899
#
# Poissons Ratio (x) = 0.39587 0.02993
# Poissons Ratio (y) = 0.31322 0.30946
# Poissons Ratio (z) = 0.02288 0.29898
#
# Static dielectric constant tensor:
#      x y z
#    x 4.089480 0.000000 0.000000 
#    y 0.000000 3.932380 0.000000 
#    z 0.000000 0.000000 3.622560 
# 
# 
# High freq. dielectric constant tensor:
#      x y z
#    x 1.792460 0.000000 0.000000 
#    y 0.000000 1.802530 0.000000 
#    z 0.000000 0.000000 1.768190 
# 
# From -- ./inp_files/16773.got.cif
#   From: 2010.03.12/outbox.cif.g09.slc.cpg/sg46_9_cif.got.tgz:16773.got - 2010.04.14 02:56:35.
