data_PCOD8192063
_publ_section_title
;
Structure prediction by ZEFSAII (Michael W. Deem and Ramdas Pophale) SiO2 
 PCOD8192063
Probable space group: I M A 2
;
_chemical_formula_sum "Si O2"
_cell_formula_units_Z 64
_cell_length_a 9.162038
_cell_length_b 16.084031
_cell_length_c 22.200003
_cell_angle_alpha 90.000000
_cell_angle_beta 90.000000
_cell_angle_gamma 90.000000
_cell_volume 3271.448013
_symmetry_space_group_name_H-M "I M A 2"
_symmetry_group_IT_number 46
_symmetry_cell_setting 'orthorhombic'
loop_
_space_group_symop_operation_xyz
x,y,z
-x,-y,z
1/2-x,y,z
1/2+x,-y,z
1/2+x,1/2+y,1/2+z
1/2-x,1/2-y,1/2+z
-x,1/2+y,1/2+z
x,1/2-y,1/2+z
loop_
_atom_site_type_symbol
_atom_site_label
_atom_site_fract_x
_atom_site_fract_y
_atom_site_fract_z
Si Si1 0.586950 0.576395 0.982830
Si Si2 0.076112 0.242278 0.944897
Si Si3 0.923430 0.417825 0.235675
Si Si4 0.578285 0.265479 0.324054
Si Si5 0.092007 0.571213 0.645442
Si Si6 0.586754 0.223649 0.059207
Si Si7 0.082221 0.372112 0.115123
Si Si8 0.077872 0.583425 0.779530
O O1 0.500000 0.500000 0.953982
O O2 0.750000 0.565423 0.960137
O O3 0.525868 0.662319 0.956025
O O4 0.575901 0.571428 0.055327
O O5 0.250000 0.230587 0.948708
O O6 0.014123 0.207702 0.882404
O O7 0.996241 0.193229 0.998870
O O8 0.750000 0.432080 0.231915
O O9 0.960113 0.333360 0.272469
O O10 0.000000 0.500000 0.265315
O O11 0.987659 0.411394 0.168459
O O12 0.750000 0.268790 0.338011
O O13 0.528127 0.171254 0.308776
O O14 0.250000 0.532895 0.658235
O O15 0.104581 0.646610 0.601619
O O16 0.025838 0.595033 0.710491
O O17 0.000000 0.500000 0.612861
O O18 0.750000 0.259661 0.045049
O O19 0.487280 0.285006 0.097356
O O20 0.250000 0.359850 0.136018
O O21 0.250000 0.572394 0.787808
O O22 0.000000 0.500000 0.806866
#
# Coordination Sequence:
#
# PCOD8192063 Si02
#       8
#     8   8   8   8   8   8   8   8
#     4   9  19  33  50  76 108 139 171 211 259 317
#     4  10  22  38  54  76 105 137 182 232 273 322
#     4  11  23  39  59  84 113 146 188 236 285 339
#     4  10  22  40  59  78 107 148 190 231 278 331
#     4   9  18  32  52  79 109 139 173 216 267 325
#     4  10  19  34  56  80 108 143 181 222 274 330
#     4  10  20  34  54  83 115 145 180 221 270 329
#     4   9  18  34  55  82 114 145 179 219 266 323
#
# _framework density 19.563202
#
# number of rings (size 3 to 8) (size 9 to 14) (size 15 to 20)
#    0.000    2.250    0.000    3.375    0.000    9.000 
#    0.000    5.625    0.000    0.000    0.000    0.000 
#    0.000    0.000    0.000    0.000    0.000    0.000 
#
# Total GULP energy -396585.229569 kJ/mol
# GULP energy per Si atom -12393.288424 kJ/mol
# Density = 1.951868 g / cm^3
# Si number density = 19.563202 Si / 1000 Ang^3
#
#
#
# Elastic Constant Matrix: (Units=GPa)
#
#
# Indices 1 2 3 4 5 6 
#
# 1 88.0738 32.3483 31.2780 0.0000 0.0000 0.0000
# 2 32.3483 71.5176 16.2272 0.0000 0.0000 0.0000
# 3 31.2780 16.2272 68.4916 0.0000 0.0000 0.0000
# 4 0.0000 0.0000 0.0000 12.0944 0.0000 0.0000
# 5 0.0000 0.0000 0.0000 0.0000 28.0205 0.0000
# 6 0.0000 0.0000 0.0000 0.0000 0.0000 33.0050
#
#
#
# Elastic Compliance Matrix: (Units=1/GPa)
#
#
# Indices 1 2 3 4 5 6 
#
# 1 0.015480 -0.005704 -0.005718 0.000000 0.000000 0.000000
# 2 -0.005704 0.016879 -0.001394 0.000000 0.000000 0.000000
# 3 -0.005718 -0.001394 0.017542 0.000000 0.000000 0.000000
# 4 0.000000 0.000000 0.000000 0.082683 0.000000 0.000000
# 5 0.000000 0.000000 0.000000 0.000000 0.035688 0.000000
# 6 0.000000 0.000000 0.000000 0.000000 0.000000 0.030298
#
#
# Mechanical properties :
#
#
# Convention : Reuss Voigt Hill
#
# Bulk Modulus (GPa) = 41.20582 43.08779 42.14681
# Shear Modulus (GPa) = 21.52466 24.50593 23.01529
#
# Velocity S-wave (km/s) = 3.32062 3.54313 3.43368
# Velocity P-wave (km/s) = 5.98420 6.22985 6.10826
#
# Compressibility (1/GPa) = 0.02426842
#
# Stress axis : x y z
#
# Youngs Moduli (GPa) = 64.60039 59.24508 57.00712
#
# Poissons Ratio (x) = 0.33796 0.32595
# Poissons Ratio (y) = 0.36850 0.07947
# Poissons Ratio (z) = 0.36936 0.08259
#
# Static dielectric constant tensor:
#      x y z
#    x 3.518800 0.000000 0.000000 
#    y 0.000000 3.537610 0.000000 
#    z 0.000000 0.000000 3.498040 
# 
# 
# High freq. dielectric constant tensor:
#      x y z
#    x 1.769530 0.000000 0.000000 
#    y 0.000000 1.750450 0.000000 
#    z 0.000000 0.000000 1.752840 
# 
# From -- ./inp_files/23244.got.cif
#   From: 2010.03.12/outbox.cif.g09.slc.cpg/sg46_12_cif.got.tgz:23244.got - 2010.04.14 02:56:35.
