data_PCOD8192708
_publ_section_title
;
Structure prediction by ZEFSAII (Michael W. Deem and Ramdas Pophale) SiO2 
 PCOD8192708
Probable space group: I M A 2
;
_chemical_formula_sum "Si O2"
_cell_formula_units_Z 48
_cell_length_a 9.143370
_cell_length_b 28.041885
_cell_length_c 10.138359
_cell_angle_alpha 90.000000
_cell_angle_beta 90.000000
_cell_angle_gamma 90.000000
_cell_volume 2599.448179
_symmetry_space_group_name_H-M "I M A 2"
_symmetry_group_IT_number 46
_symmetry_cell_setting 'orthorhombic'
loop_
_space_group_symop_operation_xyz
x,y,z
-x,-y,z
1/2-x,y,z
1/2+x,-y,z
1/2+x,1/2+y,1/2+z
1/2-x,1/2-y,1/2+z
-x,1/2+y,1/2+z
x,1/2-y,1/2+z
loop_
_atom_site_type_symbol
_atom_site_label
_atom_site_fract_x
_atom_site_fract_y
_atom_site_fract_z
Si Si1 0.420838 0.046491 0.141660
Si Si2 0.923742 0.201709 0.006181
Si Si3 0.918052 0.799675 0.503020
Si Si4 0.082017 0.454743 0.339840
Si Si5 0.918989 0.648537 0.734841
Si Si6 0.419793 0.350840 0.272992
O O1 0.250000 0.037675 0.156168
O O2 0.470302 0.093755 0.220312
O O3 0.500000 0.000000 0.202094
O O4 0.469125 0.054119 0.990201
O O5 0.750000 0.200733 0.010161
O O6 0.977334 0.255149 0.980411
O O7 0.985279 0.183336 0.144896
O O8 0.979440 0.168846 0.888318
O O9 0.750000 0.782099 0.507360
O O10 0.942295 0.837125 0.385904
O O11 0.962638 0.825663 0.637481
O O12 0.250000 0.468363 0.335783
O O13 0.048598 0.407161 0.256561
O O14 0.000000 0.500000 0.276357
O O15 0.750000 0.653799 0.690589
O O16 0.250000 0.342320 0.310679
#
# Coordination Sequence:
#
# PCOD8192708 Si02
#       6
#     8   8   8   8   8   8
#     4   9  17  31  53  79 107 137 174 221 267 314
#     4  12  24  36  55  82 111 144 182 226 275 322
#     4  10  22  38  59  80 106 146 186 224 268 320
#     4   9  17  31  53  79 107 137 174 221 267 314
#     4  10  20  38  59  81 108 143 186 225 264 319
#     4  10  20  38  59  81 108 143 186 225 264 319
#
# _framework density 18.465457000000001
#
# number of rings (size 3 to 8) (size 9 to 14) (size 15 to 20)
#    0.000    2.000    1.667    2.500    0.000    6.667 
#    0.000    0.833    0.000    0.000    0.000    0.000 
#    0.000    0.000    0.000    0.000    0.000    0.000 
#
# Total GULP energy -297659.995790 kJ/mol
# GULP energy per Si atom -12402.499825 kJ/mol
# Density = 1.842343 g / cm^3
# Si number density = 18.465457 Si / 1000 Ang^3
#
#
#
# Elastic Constant Matrix: (Units=GPa)
#
#
# Indices 1 2 3 4 5 6 
#
# 1 68.3312 36.6603 21.1341 -0.0006 0.0035 -0.0003
# 2 36.6603 111.0567 9.9524 -0.0002 0.0014 -0.0010
# 3 21.1341 9.9524 55.6719 -0.0034 0.0097 -0.0002
# 4 -0.0006 -0.0002 -0.0034 12.6183 0.0008 -0.0001
# 5 0.0035 0.0014 0.0097 0.0008 11.6133 -0.0012
# 6 -0.0003 -0.0010 -0.0002 -0.0001 -0.0012 33.4213
#
#
#
# Elastic Compliance Matrix: (Units=1/GPa)
#
#
# Indices 1 2 3 4 5 6 
#
# 1 0.019836 -0.005969 -0.006463 -0.000001 0.000000 0.000000
# 2 -0.005969 0.010947 0.000309 0.000000 0.000000 0.000000
# 3 -0.006463 0.000309 0.020361 0.000005 -0.000015 0.000000
# 4 -0.000001 0.000000 0.000005 0.079250 -0.000005 0.000000
# 5 0.000000 0.000000 -0.000015 -0.000005 0.086108 0.000003
# 6 0.000000 0.000000 0.000000 0.000000 0.000003 0.029921
#
#
# Mechanical properties :
#
#
# Convention : Reuss Voigt Hill
#
# Bulk Modulus (GPa) = 37.17787 41.17260 39.17524
# Shear Modulus (GPa) = 17.88049 22.68477 20.28263
#
# Velocity S-wave (km/s) = 3.11516 3.50880 3.31782
# Velocity P-wave (km/s) = 5.75469 6.22584 5.99489
#
# Compressibility (1/GPa) = 0.02689772
#
# Stress axis : x y z
#
# Youngs Moduli (GPa) = 50.41386 91.34898 49.11433
#
# Poissons Ratio (x) = 0.54523 0.31743
# Poissons Ratio (y) = 0.30091 -0.01517
# Poissons Ratio (z) = 0.32583 -0.02821
#
# Static dielectric constant tensor:
#      x y z
#    x 3.343950 0.000000 0.000000 
#    y 0.000000 3.589060 0.000000 
#    z 0.000000 0.000000 3.253510 
# 
# 
# High freq. dielectric constant tensor:
#      x y z
#    x 1.703580 0.000000 0.000000 
#    y 0.000000 1.731710 0.000000 
#    z 0.000000 0.000000 1.697630 
# 
# From -- ./inp_files/3899.got.cif
#   From: 2010.03.12/outbox.cif.g09.slc.cpg/sg46_2_cif.got.tgz:3899.got - 2010.04.14 02:56:35.
