data_PCOD8192605
_publ_section_title
;
Structure prediction by ZEFSAII (Michael W. Deem and Ramdas Pophale) SiO2 
 PCOD8192605
Probable space group: I M A 2
;
_chemical_formula_sum "Si O2"
_cell_formula_units_Z 64
_cell_length_a 8.932653
_cell_length_b 33.009321
_cell_length_c 11.532436
_cell_angle_alpha 90.000000
_cell_angle_beta 90.000000
_cell_angle_gamma 90.000000
_cell_volume 3400.463423
_symmetry_space_group_name_H-M "I M A 2"
_symmetry_group_IT_number 46
_symmetry_cell_setting 'orthorhombic'
loop_
_space_group_symop_operation_xyz
x,y,z
-x,-y,z
1/2-x,y,z
1/2+x,-y,z
1/2+x,1/2+y,1/2+z
1/2-x,1/2-y,1/2+z
-x,1/2+y,1/2+z
x,1/2-y,1/2+z
loop_
_atom_site_type_symbol
_atom_site_label
_atom_site_fract_x
_atom_site_fract_y
_atom_site_fract_z
Si Si1 0.574245 0.120592 0.162000
Si Si2 0.572594 0.957160 0.058308
Si Si3 0.925538 0.351115 0.918343
Si Si4 0.414167 0.184563 0.758597
Si Si5 0.074393 0.225333 0.533401
Si Si6 0.927000 0.541604 0.294730
Si Si7 0.415603 0.104910 0.610812
Si Si8 0.424307 0.690123 0.485023
O O1 0.750000 0.111872 0.150589
O O2 0.487997 0.078689 0.139385
O O3 0.530338 0.137389 0.287744
O O4 0.521823 0.154756 0.070819
O O5 0.750000 0.960771 0.073023
O O6 0.500000 0.000000 0.095763
O O7 0.526016 0.946513 0.925750
O O8 0.750000 0.346253 0.934087
O O9 0.998230 0.308248 0.951523
O O10 0.980937 0.388370 0.998731
O O11 0.250000 0.193516 0.815005
O O12 0.463106 0.220272 0.670410
O O13 0.398927 0.146489 0.676855
O O14 0.539986 0.176286 0.854261
O O15 0.250000 0.221968 0.510078
O O16 0.016940 0.269347 0.502090
O O17 0.750000 0.538277 0.287317
O O18 0.989424 0.573546 0.201250
O O19 0.000000 0.500000 0.256815
O O20 0.250000 0.090351 0.570545
O O21 0.250000 0.699176 0.501061
#
# Coordination Sequence:
#
# PCOD8192605 Si02
#       8
#     8   8   8   8   8   8   8   8
#     4  10  23  40  56  82 116 150 191 237 282 338
#     4  10  20  36  60  87 116 151 187 231 285 339
#     4  10  21  38  58  80 109 147 189 233 283 334
#     4   9  19  36  55  77 104 137 179 226 273 327
#     4  10  22  39  57  79 108 144 186 230 279 336
#     4   9  18  32  53  83 115 143 177 224 277 332
#     4   9  18  35  56  78 107 142 181 224 271 328
#     4  11  23  36  55  82 112 144 182 233 284 332
#
# _framework density 18.820962999999999
#
# number of rings (size 3 to 8) (size 9 to 14) (size 15 to 20)
#    0.000    2.250    0.000    3.000    1.750    6.500 
#    0.000    0.625    0.000    1.500    0.000    0.000 
#    0.000    0.000    0.000    0.000    0.000    0.000 
#
# Total GULP energy -396744.057627 kJ/mol
# GULP energy per Si atom -12398.251801 kJ/mol
# Density = 1.877813 g / cm^3
# Si number density = 18.820963 Si / 1000 Ang^3
#
#
#
# Elastic Constant Matrix: (Units=GPa)
#
#
# Indices 1 2 3 4 5 6 
#
# 1 72.9281 46.1272 51.5946 -0.0008 -0.0001 -0.0002
# 2 46.1272 94.6237 50.6228 -0.0020 -0.0002 -0.0008
# 3 51.5946 50.6228 114.8021 0.0000 0.0004 -0.0006
# 4 -0.0008 -0.0020 0.0000 18.1326 0.0000 -0.0007
# 5 -0.0001 -0.0002 0.0004 0.0000 31.3603 -0.0001
# 6 -0.0002 -0.0008 -0.0006 -0.0007 -0.0001 31.5229
#
#
#
# Elastic Compliance Matrix: (Units=1/GPa)
#
#
# Indices 1 2 3 4 5 6 
#
# 1 0.023707 -0.007665 -0.007274 0.000000 0.000000 0.000000
# 2 -0.007665 0.016309 -0.003747 0.000001 0.000000 0.000000
# 3 -0.007274 -0.003747 0.013632 -0.000001 0.000000 0.000000
# 4 0.000000 0.000001 -0.000001 0.055149 0.000000 0.000001
# 5 0.000000 0.000000 0.000000 0.000000 0.031887 0.000000
# 6 0.000000 0.000000 0.000000 0.000001 0.000000 0.031723
#
#
# Mechanical properties :
#
#
# Convention : Reuss Voigt Hill
#
# Bulk Modulus (GPa) = 61.44134 64.33810 62.88972
# Shear Modulus (GPa) = 23.23366 25.13711 24.18539
#
# Velocity S-wave (km/s) = 3.51730 3.65854 3.58861
# Velocity P-wave (km/s) = 7.01507 7.21838 7.11745
#
# Compressibility (1/GPa) = 0.01627569
#
# Stress axis : x y z
#
# Youngs Moduli (GPa) = 42.18241 61.31524 73.35587
#
# Poissons Ratio (x) = 0.46996 0.53362
# Poissons Ratio (y) = 0.32332 0.27486
# Poissons Ratio (z) = 0.30685 0.22974
#
# Static dielectric constant tensor:
#      x y z
#    x 3.463360 0.000000 0.000000 
#    y 0.000000 3.543610 0.000000 
#    z 0.000000 0.000000 3.619600 
# 
# 
# High freq. dielectric constant tensor:
#      x y z
#    x 1.732070 0.000000 0.000000 
#    y 0.000000 1.730120 0.000000 
#    z 0.000000 0.000000 1.729740 
# 
# From -- ./inp_files/9754.got.cif
#   From: 2010.03.12/outbox.cif.g09.slc.cpg/sg46_5_cif.got.tgz:9754.got - 2010.04.14 02:56:35.
