data_PCOD8192680
_publ_section_title
;
Structure prediction by ZEFSAII (Michael W. Deem and Ramdas Pophale) SiO2 
 PCOD8192680
Probable space group: I M A 2
;
_chemical_formula_sum "Si O2"
_cell_formula_units_Z 40
_cell_length_a 8.619007
_cell_length_b 17.262394
_cell_length_c 12.550645
_cell_angle_alpha 90.000000
_cell_angle_beta 90.000000
_cell_angle_gamma 90.000000
_cell_volume 1867.343885
_symmetry_space_group_name_H-M "I M A 2"
_symmetry_group_IT_number 46
_symmetry_cell_setting 'orthorhombic'
loop_
_space_group_symop_operation_xyz
x,y,z
-x,-y,z
1/2-x,y,z
1/2+x,-y,z
1/2+x,1/2+y,1/2+z
1/2-x,1/2-y,1/2+z
-x,1/2+y,1/2+z
x,1/2-y,1/2+z
loop_
_atom_site_type_symbol
_atom_site_label
_atom_site_fract_x
_atom_site_fract_y
_atom_site_fract_z
Si Si1 0.576441 0.420683 0.250000
Si Si2 0.067742 0.087265 0.346855
Si Si3 0.068112 0.837268 0.138874
Si Si4 0.075830 0.821604 0.540647
Si Si5 0.068664 0.418622 0.450214
O O1 0.500000 0.500000 0.210330
O O2 0.750000 0.436496 0.293176
O O3 0.581989 0.368583 0.147647
O O4 0.479972 0.372008 0.342616
O O5 0.250000 0.077073 0.339255
O O6 0.011731 0.141389 0.249912
O O7 0.027046 0.133792 0.454122
O O8 0.000000 0.000000 0.344558
O O9 0.250000 0.829306 0.160571
O O10 0.002780 0.760950 0.077479
O O11 0.028791 0.904818 0.056465
O O12 0.250000 0.810482 0.493964
O O13 0.250000 0.414287 0.475390
O O14 0.000000 0.500000 0.408933
#
# Coordination Sequence:
#
# PCOD8192680 Si02
#       5
#     8   8   8   8   8
#     4  10  20  37  61  91 122 162 207 255 312 378
#     4  12  26  45  70  99 134 176 225 275 328 394
#     4  11  24  43  66  93 130 172 215 266 325 388
#     4  10  24  43  66  94 129 171 214 264 326 387
#     4  11  22  38  61  91 124 163 208 260 316 378
#
# _framework density 21.420801000000001
#
# number of rings (size 3 to 8) (size 9 to 14) (size 15 to 20)
#    0.000    1.200    0.000    7.200    2.800    4.800 
#    0.000    0.000    0.000    0.000    0.000    0.000 
#    0.000    0.000    0.000    0.000    0.000    0.000 
#
# Total GULP energy -247846.732320 kJ/mol
# GULP energy per Si atom -12392.336616 kJ/mol
# Density = 2.137205 g / cm^3
# Si number density = 21.420801 Si / 1000 Ang^3
#
#
#
# Elastic Constant Matrix: (Units=GPa)
#
#
# Indices 1 2 3 4 5 6 
#
# 1 129.6507 47.1110 49.7559 0.0000 0.0000 0.0000
# 2 47.1110 86.0056 33.9646 0.0000 0.0000 0.0000
# 3 49.7559 33.9646 121.0264 0.0001 0.0000 -0.0001
# 4 0.0000 0.0000 0.0001 35.4907 0.0000 0.0000
# 5 0.0000 0.0000 0.0000 0.0000 40.8538 0.0000
# 6 0.0000 0.0000 -0.0001 0.0000 0.0000 23.1479
#
#
#
# Elastic Compliance Matrix: (Units=1/GPa)
#
#
# Indices 1 2 3 4 5 6 
#
# 1 0.010545 -0.004571 -0.003053 0.000000 0.000000 0.000000
# 2 -0.004571 0.015058 -0.002347 0.000000 0.000000 0.000000
# 3 -0.003053 -0.002347 0.010176 0.000000 0.000000 0.000000
# 4 0.000000 0.000000 0.000000 0.028176 0.000000 0.000000
# 5 0.000000 0.000000 0.000000 0.000000 0.024478 0.000000
# 6 0.000000 0.000000 0.000000 0.000000 0.000000 0.043201
#
#
# Mechanical properties :
#
#
# Convention : Reuss Voigt Hill
#
# Bulk Modulus (GPa) = 63.13515 66.48284 64.80899
# Shear Modulus (GPa) = 31.87685 33.62190 32.74938
#
# Velocity S-wave (km/s) = 3.86181 3.96610 3.91430
# Velocity P-wave (km/s) = 7.03011 7.21646 7.12390
#
# Compressibility (1/GPa) = 0.01583904
#
# Stress axis : x y z
#
# Youngs Moduli (GPa) = 94.82739 66.41145 98.26873
#
# Poissons Ratio (x) = 0.30356 0.29998
# Poissons Ratio (y) = 0.43345 0.23059
# Poissons Ratio (z) = 0.28947 0.15584
#
# Static dielectric constant tensor:
#      x y z
#    x 4.146070 0.000000 0.000000 
#    y 0.000000 3.503370 0.000000 
#    z 0.000000 0.000000 3.986250 
# 
# 
# High freq. dielectric constant tensor:
#      x y z
#    x 1.842760 0.000000 0.000000 
#    y 0.000000 1.835420 0.000000 
#    z 0.000000 0.000000 1.866540 
# 
# From -- ./inp_files/9043.got.cif
#   From: 2010.03.12/outbox.cif.g09.slc.cpg/sg46_5_cif.got.tgz:9043.got - 2010.04.14 02:56:35.
