data_PCOD8192359
_publ_section_title
;
Structure prediction by ZEFSAII (Michael W. Deem and Ramdas Pophale) SiO2 
 PCOD8192359
Probable space group: I M A 2
;
_chemical_formula_sum "Si O2"
_cell_formula_units_Z 60
_cell_length_a 20.176340
_cell_length_b 8.320086
_cell_length_c 18.177108
_cell_angle_alpha 90.000000
_cell_angle_beta 90.000000
_cell_angle_gamma 90.000000
_cell_volume 3051.370834
_symmetry_space_group_name_H-M "I M A 2"
_symmetry_group_IT_number 46
_symmetry_cell_setting 'orthorhombic'
loop_
_space_group_symop_operation_xyz
x,y,z
-x,-y,z
1/2-x,y,z
1/2+x,-y,z
1/2+x,1/2+y,1/2+z
1/2-x,1/2-y,1/2+z
-x,1/2+y,1/2+z
x,1/2-y,1/2+z
loop_
_atom_site_type_symbol
_atom_site_label
_atom_site_fract_x
_atom_site_fract_y
_atom_site_fract_z
Si Si1 0.599834 0.398863 0.768560
Si Si2 0.500000 0.500000 0.332789
Si Si3 0.675738 0.935401 0.000070
Si Si4 0.924610 0.351528 0.049034
Si Si5 0.177360 0.678100 0.633518
Si Si6 0.934895 0.724080 0.073337
Si Si7 0.610732 0.309812 0.404792
Si Si8 0.543609 0.724897 0.740238
O O1 0.657169 0.408234 0.708481
O O2 0.632833 0.300279 0.835917
O O3 0.579972 0.583945 0.787143
O O4 0.535025 0.310510 0.735268
O O5 0.538864 0.379470 0.385572
O O6 0.449151 0.395795 0.282018
O O7 0.750000 0.859970 0.989152
O O8 0.658449 0.040148 0.926770
O O9 0.618961 0.803616 0.018380
O O10 0.676066 0.048560 0.069714
O O11 0.873632 0.318871 0.115096
O O12 0.937771 0.537496 0.055797
O O13 0.988422 0.231189 0.055817
O O14 0.891751 0.315372 0.971059
O O15 0.250000 0.754457 0.642114
O O16 0.922780 0.764360 0.159341
#
# Coordination Sequence:
#
# PCOD8192359 Si02
#       8
#     8   4   8   8   8   8   8   8
#     4  10  20  35  57  84 119 157 198 249 311 360
#     4  10  20  36  58  86 126 158 190 250 318 356
#     4  10  22  39  60  85 118 161 205 251 304 366
#     4  10  22  35  58  91 118 155 199 250 311 368
#     4  10  20  37  58  82 113 156 203 242 296 367
#     4  11  20  35  63  87 124 149 204 258 309 366
#     4  10  22  36  56  84 121 155 198 242 301 371
#     4  10  20  33  58  90 120 148 200 259 306 360
#
# _framework density 19.663295000000002
#
# number of rings (size 3 to 8) (size 9 to 14) (size 15 to 20)
#    0.000    1.867    2.667    1.600    1.867    8.000 
#    0.000    0.000    0.000    2.400    0.000    0.000 
#    0.000    0.000    0.000    0.000    0.000    0.000 
#
# Total GULP energy -371717.286323 kJ/mol
# GULP energy per Si atom -12390.576211 kJ/mol
# Density = 1.961854 g / cm^3
# Si number density = 19.663295 Si / 1000 Ang^3
#
#
#
# Elastic Constant Matrix: (Units=GPa)
#
#
# Indices 1 2 3 4 5 6 
#
# 1 117.3116 33.3475 35.2299 0.0000 0.0000 0.0000
# 2 33.3475 87.0492 38.2054 0.0000 0.0000 0.0000
# 3 35.2299 38.2054 85.8357 0.0000 0.0000 0.0000
# 4 0.0000 0.0000 0.0000 24.9760 0.0000 0.0000
# 5 0.0000 0.0000 0.0000 0.0000 15.5695 0.0000
# 6 0.0000 0.0000 0.0000 0.0000 0.0000 16.0394
#
#
#
# Elastic Compliance Matrix: (Units=1/GPa)
#
#
# Indices 1 2 3 4 5 6 
#
# 1 0.010163 -0.002563 -0.003030 0.000000 0.000000 0.000000
# 2 -0.002563 0.014923 -0.005590 0.000000 0.000000 0.000000
# 3 -0.003030 -0.005590 0.015382 0.000000 0.000000 0.000000
# 4 0.000000 0.000000 0.000000 0.040038 0.000000 0.000000
# 5 0.000000 0.000000 0.000000 0.000000 0.064228 0.000000
# 6 0.000000 0.000000 0.000000 0.000000 0.000000 0.062346
#
#
# Mechanical properties :
#
#
# Convention : Reuss Voigt Hill
#
# Bulk Modulus (GPa) = 55.24680 55.97358 55.61019
# Shear Modulus (GPa) = 21.23298 23.54457 22.38877
#
# Velocity S-wave (km/s) = 3.28964 3.46408 3.37799
# Velocity P-wave (km/s) = 6.52582 6.67290 6.59977
#
# Compressibility (1/GPa) = 0.01810060
#
# Stress axis : x y z
#
# Youngs Moduli (GPa) = 98.39609 67.00940 65.01053
#
# Poissons Ratio (x) = 0.17177 0.19700
# Poissons Ratio (y) = 0.25222 0.36343
# Poissons Ratio (z) = 0.29817 0.37460
#
# Static dielectric constant tensor:
#      x y z
#    x 3.828280 0.000000 0.000000 
#    y 0.000000 3.534330 0.000000 
#    z 0.000000 0.000000 3.622180 
# 
# 
# High freq. dielectric constant tensor:
#      x y z
#    x 1.744110 0.000000 0.000000 
#    y 0.000000 1.760080 0.000000 
#    z 0.000000 0.000000 1.765050 
# 
# From -- ./inp_files/19957.got.cif
#   From: 2010.03.12/outbox.cif.g09.slc.cpg/sg46_10_cif.got.tgz:19957.got - 2010.04.14 02:56:35.
