data_PCOD8192076
_publ_section_title
;
Structure prediction by ZEFSAII (Michael W. Deem and Ramdas Pophale) SiO2 
 PCOD8192076
Probable space group: I M A 2
;
_chemical_formula_sum "Si O2"
_cell_formula_units_Z 48
_cell_length_a 8.630282
_cell_length_b 27.708710
_cell_length_c 9.885518
_cell_angle_alpha 90.000000
_cell_angle_beta 90.000000
_cell_angle_gamma 90.000000
_cell_volume 2363.963275
_symmetry_space_group_name_H-M "I M A 2"
_symmetry_group_IT_number 46
_symmetry_cell_setting 'orthorhombic'
loop_
_space_group_symop_operation_xyz
x,y,z
-x,-y,z
1/2-x,y,z
1/2+x,-y,z
1/2+x,1/2+y,1/2+z
1/2-x,1/2-y,1/2+z
-x,1/2+y,1/2+z
x,1/2-y,1/2+z
loop_
_atom_site_type_symbol
_atom_site_label
_atom_site_fract_x
_atom_site_fract_y
_atom_site_fract_z
Si Si1 0.567274 0.719174 0.702810
Si Si2 0.567557 0.377250 0.609734
Si Si3 0.433477 0.598245 0.093688
Si Si4 0.566538 0.053137 0.868172
Si Si5 0.065429 0.797162 0.502141
Si Si6 0.569681 0.049008 0.330144
O O1 0.750000 0.727437 0.706597
O O2 0.527597 0.672042 0.614057
O O3 0.486309 0.762423 0.622755
O O4 0.505253 0.716830 0.856520
O O5 0.750000 0.365291 0.604393
O O6 0.515021 0.410566 0.485735
O O7 0.517071 0.405215 0.744204
O O8 0.250000 0.602447 0.104515
O O9 0.502792 0.578121 0.233483
O O10 0.497358 0.650458 0.049496
O O11 0.484152 0.558660 0.983033
O O12 0.750000 0.047911 0.861292
O O13 0.500000 0.000000 0.892529
O O14 0.250000 0.796336 0.485828
O O15 0.750000 0.042685 0.315492
O O16 0.500000 0.000000 0.272192
#
# Coordination Sequence:
#
# PCOD8192076 Si02
#       6
#     8   8   8   8   8   8
#     4  12  26  43  64  98 133 159 204 271 330 372
#     4  10  21  39  61  85 120 166 212 250 300 381
#     4   9  19  37  60  87 118 155 206 254 292 363
#     4  10  21  37  59  89 123 161 207 256 307 369
#     4  11  23  44  70  93 123 171 218 253 311 391
#     4  10  19  34  56  84 116 153 202 255 305 365
#
# _framework density 20.304883
#
# number of rings (size 3 to 8) (size 9 to 14) (size 15 to 20)
#    0.000    1.667    1.667    3.000    2.333    1.333 
#    0.000    1.667    0.000    0.000    0.000    0.000 
#    0.000    0.000    0.000    0.000    0.000    0.000 
#
# Total GULP energy -297560.339765 kJ/mol
# GULP energy per Si atom -12398.347490 kJ/mol
# Density = 2.025867 g / cm^3
# Si number density = 20.304883 Si / 1000 Ang^3
#
#
#
# Elastic Constant Matrix: (Units=GPa)
#
#
# Indices 1 2 3 4 5 6 
#
# 1 32.1738 12.6554 6.0266 -0.0006 0.0007 0.0002
# 2 12.6554 92.7906 6.7223 0.0001 -0.0004 -0.0003
# 3 6.0266 6.7223 91.5953 -0.0011 0.0005 -0.0001
# 4 -0.0006 0.0001 -0.0011 41.1663 0.0007 0.0001
# 5 0.0007 -0.0004 0.0005 0.0007 19.6091 -0.0005
# 6 0.0002 -0.0003 -0.0001 0.0001 -0.0005 31.5303
#
#
#
# Elastic Compliance Matrix: (Units=1/GPa)
#
#
# Indices 1 2 3 4 5 6 
#
# 1 0.033155 -0.004387 -0.001859 0.000000 -0.000001 0.000000
# 2 -0.004387 0.011415 -0.000549 0.000000 0.000000 0.000000
# 3 -0.001859 -0.000549 0.011080 0.000000 0.000000 0.000000
# 4 0.000000 0.000000 0.000000 0.024292 -0.000001 0.000000
# 5 -0.000001 0.000000 0.000000 -0.000001 0.050997 0.000001
# 6 0.000000 0.000000 0.000000 0.000000 0.000001 0.031716
#
#
# Mechanical properties :
#
#
# Convention : Reuss Voigt Hill
#
# Bulk Modulus (GPa) = 23.77618 29.70758 26.74188
# Shear Modulus (GPa) = 26.27902 31.20483 28.74192
#
# Velocity S-wave (km/s) = 3.60143 3.92447 3.76642
# Velocity P-wave (km/s) = 5.38783 5.93278 5.66686
#
# Compressibility (1/GPa) = 0.04205891
#
# Stress axis : x y z
#
# Youngs Moduli (GPa) = 30.16117 87.60332 90.25077
#
# Poissons Ratio (x) = 0.38434 0.16782
# Poissons Ratio (y) = 0.13232 0.04956
# Poissons Ratio (z) = 0.05608 0.04810
#
# Static dielectric constant tensor:
#      x y z
#    x 3.432740 0.000000 0.000000 
#    y 0.000000 3.809330 0.000000 
#    z 0.000000 0.000000 4.182730 
# 
# 
# High freq. dielectric constant tensor:
#      x y z
#    x 1.766500 0.000000 0.000000 
#    y 0.000000 1.808510 0.000000 
#    z 0.000000 0.000000 1.810130 
# 
# From -- ./inp_files/3960.got.cif
#   From: 2010.03.12/outbox.cif.g09.slc.cpg/sg46_2_cif.got.tgz:3960.got - 2010.04.14 02:56:35.
