data_PCOD8192564
_publ_section_title
;
Structure prediction by ZEFSAII (Michael W. Deem and Ramdas Pophale) SiO2 
 PCOD8192564
Probable space group: I M A 2
;
_chemical_formula_sum "Si O2"
_cell_formula_units_Z 40
_cell_length_a 8.870665
_cell_length_b 9.767354
_cell_length_c 24.546934
_cell_angle_alpha 90.000000
_cell_angle_beta 90.000000
_cell_angle_gamma 90.000000
_cell_volume 2126.818168
_symmetry_space_group_name_H-M "I M A 2"
_symmetry_group_IT_number 46
_symmetry_cell_setting 'orthorhombic'
loop_
_space_group_symop_operation_xyz
x,y,z
-x,-y,z
1/2-x,y,z
1/2+x,-y,z
1/2+x,1/2+y,1/2+z
1/2-x,1/2-y,1/2+z
-x,1/2+y,1/2+z
x,1/2-y,1/2+z
loop_
_atom_site_type_symbol
_atom_site_label
_atom_site_fract_x
_atom_site_fract_y
_atom_site_fract_z
Si Si1 0.072334 0.141500 0.522480
Si Si2 0.571184 0.850410 0.237882
Si Si3 0.426315 0.358493 0.145656
Si Si4 0.924752 0.143873 0.818601
Si Si5 0.576087 0.140982 0.945661
O O1 0.250000 0.131233 0.516985
O O2 0.023305 0.178876 0.584243
O O3 0.010537 0.249129 0.480481
O O4 0.000000 0.000000 0.504550
O O5 0.750000 0.864081 0.243685
O O6 0.523126 0.766771 0.183874
O O7 0.506997 0.769832 0.289670
O O8 0.500000 0.000000 0.234362
O O9 0.500000 0.500000 0.165887
O O10 0.250000 0.383113 0.149413
O O11 0.750000 0.137698 0.801705
O O12 0.945234 0.173235 0.882255
O O13 0.000000 0.000000 0.801612
O O14 0.750000 0.136988 0.962428
O O15 0.500000 0.000000 0.961727
#
# Coordination Sequence:
#
# PCOD8192564 Si02
#       5
#     8   8   8   8   8
#     4  10  20  36  57  82 112 145 183 224 269 321
#     4  11  23  38  56  81 112 144 181 225 274 323
#     4   9  20  37  57  81 108 142 182 223 268 322
#     4  10  21  38  59  82 109 143 183 224 269 324
#     4  10  21  37  57  82 111 144 182 224 271 322
#
# _framework density 18.807435999999999
#
# number of rings (size 3 to 8) (size 9 to 14) (size 15 to 20)
#    0.000    2.000    0.000    3.000    0.000    8.000 
#    0.000    2.000    0.000    0.000    0.000    0.000 
#    0.000    0.000    0.000    0.000    0.000    0.000 
#
# Total GULP energy -248059.354763 kJ/mol
# GULP energy per Si atom -12402.967738 kJ/mol
# Density = 1.876463 g / cm^3
# Si number density = 18.807436 Si / 1000 Ang^3
#
#
#
# Elastic Constant Matrix: (Units=GPa)
#
#
# Indices 1 2 3 4 5 6 
#
# 1 103.2482 73.5892 49.4671 0.0000 0.0000 0.0000
# 2 73.5892 174.7543 80.2897 0.0000 0.0000 0.0000
# 3 49.4671 80.2897 78.5367 0.0000 0.0000 0.0000
# 4 0.0000 0.0000 0.0000 38.6151 0.0000 0.0000
# 5 0.0000 0.0000 0.0000 0.0000 29.9990 0.0000
# 6 0.0000 0.0000 0.0000 0.0000 0.0000 41.4274
#
#
#
# Elastic Compliance Matrix: (Units=1/GPa)
#
#
# Indices 1 2 3 4 5 6 
#
# 1 0.015066 -0.003742 -0.005664 0.000000 0.000000 0.000000
# 2 -0.003742 0.011720 -0.009625 0.000000 0.000000 0.000000
# 3 -0.005664 -0.009625 0.026140 0.000000 0.000000 0.000000
# 4 0.000000 0.000000 0.000000 0.025897 0.000000 0.000000
# 5 0.000000 0.000000 0.000000 0.000000 0.033334 0.000000
# 6 0.000000 0.000000 0.000000 0.000000 0.000000 0.024139
#
#
# Mechanical properties :
#
#
# Convention : Reuss Voigt Hill
#
# Bulk Modulus (GPa) = 67.27350 84.80347 76.03848
# Shear Modulus (GPa) = 27.88428 32.22117 30.05272
#
# Velocity S-wave (km/s) = 3.85466 4.14359 4.00173
# Velocity P-wave (km/s) = 7.46046 8.25110 7.86572
#
# Compressibility (1/GPa) = 0.01486469
#
# Stress axis : x y z
#
# Youngs Moduli (GPa) = 66.37366 85.32311 38.25567
#
# Poissons Ratio (x) = 0.31929 0.21668
# Poissons Ratio (y) = 0.24838 0.36820
# Poissons Ratio (z) = 0.37594 0.82121
#
# Static dielectric constant tensor:
#      x y z
#    x 3.609600 0.000000 0.000000 
#    y 0.000000 3.462230 0.000000 
#    z 0.000000 0.000000 3.606870 
# 
# 
# High freq. dielectric constant tensor:
#      x y z
#    x 1.745120 0.000000 0.000000 
#    y 0.000000 1.732940 0.000000 
#    z 0.000000 0.000000 1.737630 
# 
# From -- ./inp_files/22726.got.cif
#   From: 2010.03.12/outbox.cif.g09.slc.cpg/sg46_12_cif.got.tgz:22726.got - 2010.04.14 02:56:35.
