data_PCOD8192613
_publ_section_title
;
Structure prediction by ZEFSAII (Michael W. Deem and Ramdas Pophale) SiO2 
 PCOD8192613
Probable space group: I M A 2
;
_chemical_formula_sum "Si O2"
_cell_formula_units_Z 64
_cell_length_a 8.578480
_cell_length_b 24.588190
_cell_length_c 15.066284
_cell_angle_alpha 90.000000
_cell_angle_beta 90.000000
_cell_angle_gamma 90.000000
_cell_volume 3177.920680
_symmetry_space_group_name_H-M "I M A 2"
_symmetry_group_IT_number 46
_symmetry_cell_setting 'orthorhombic'
loop_
_space_group_symop_operation_xyz
x,y,z
-x,-y,z
1/2-x,y,z
1/2+x,-y,z
1/2+x,1/2+y,1/2+z
1/2-x,1/2-y,1/2+z
-x,1/2+y,1/2+z
x,1/2-y,1/2+z
loop_
_atom_site_type_symbol
_atom_site_label
_atom_site_fract_x
_atom_site_fract_y
_atom_site_fract_z
Si Si1 0.933114 0.940911 0.970780
Si Si2 0.929927 0.855856 0.121137
Si Si3 0.929399 0.234370 0.012053
Si Si4 0.430206 0.857617 0.497428
Si Si5 0.931175 0.163130 0.297601
Si Si6 0.932077 0.556740 0.125501
Si Si7 0.433007 0.889053 0.794566
Si Si8 0.069255 0.222607 0.827596
O O1 0.750000 0.943300 0.950574
O O2 0.019026 0.914691 0.887696
O O3 0.972061 0.906244 0.058383
O O4 0.000000 0.000000 0.989852
O O5 0.750000 0.840611 0.114132
O O6 0.030002 0.802417 0.096394
O O7 0.975361 0.870420 0.222488
O O8 0.750000 0.227147 0.982981
O O9 0.962162 0.297194 0.035014
O O10 0.037516 0.213518 0.931929
O O11 0.250000 0.873787 0.511097
O O12 0.477893 0.860116 0.393869
O O13 0.539501 0.898528 0.550081
O O14 0.750000 0.155501 0.280154
O O15 0.971260 0.226867 0.291283
O O16 0.750000 0.551982 0.144906
O O17 0.000000 0.500000 0.089710
O O18 0.020268 0.570310 0.216480
O O19 0.250000 0.878942 0.793673
O O20 0.518614 0.831864 0.776499
O O21 0.250000 0.233986 0.810664
#
# Coordination Sequence:
#
# PCOD8192613 Si02
#       8
#     8   8   8   8   8   8   8   8
#     4  11  24  42  63  90 125 165 210 258 309 367
#     4  11  23  38  60  91 128 165 210 260 307 365
#     4  10  20  36  60  89 124 164 204 247 306 369
#     4   9  21  42  64  90 122 160 207 257 309 370
#     4  10  22  40  63  90 126 166 206 254 313 374
#     4  12  26  44  66  91 122 160 207 260 313 370
#     4  12  24  40  63  90 125 165 206 252 308 373
#     4  11  21  36  58  89 127 163 205 250 303 367
#
# _framework density 20.138954999999999
#
# number of rings (size 3 to 8) (size 9 to 14) (size 15 to 20)
#    0.000    1.250    1.250    6.000    1.750    4.500 
#    0.000    0.625    0.000    1.500    0.000    0.000 
#    0.000    0.000    0.000    0.000    0.000    0.000 
#
# Total GULP energy -396993.344582 kJ/mol
# GULP energy per Si atom -12406.042018 kJ/mol
# Density = 2.009312 g / cm^3
# Si number density = 20.138955 Si / 1000 Ang^3
#
#
#
# Elastic Constant Matrix: (Units=GPa)
#
#
# Indices 1 2 3 4 5 6 
#
# 1 82.5446 35.9086 32.2992 -0.0001 0.0000 0.0000
# 2 35.9086 95.0702 41.1247 0.0000 0.0000 0.0000
# 3 32.2992 41.1247 93.9644 0.0003 0.0000 -0.0001
# 4 -0.0001 0.0000 0.0003 26.9206 0.0000 0.0000
# 5 0.0000 0.0000 0.0000 0.0000 36.2318 0.0000
# 6 0.0000 0.0000 -0.0001 0.0000 0.0000 31.9020
#
#
#
# Elastic Compliance Matrix: (Units=1/GPa)
#
#
# Indices 1 2 3 4 5 6 
#
# 1 0.015316 -0.004327 -0.003371 0.000000 0.000000 0.000000
# 2 -0.004327 0.014197 -0.004726 0.000000 0.000000 0.000000
# 3 -0.003371 -0.004726 0.013870 0.000000 0.000000 0.000000
# 4 0.000000 0.000000 0.000000 0.037146 0.000000 0.000000
# 5 0.000000 0.000000 0.000000 0.000000 0.027600 0.000000
# 6 0.000000 0.000000 0.000000 0.000000 0.000000 0.031346
#
#
# Mechanical properties :
#
#
# Convention : Reuss Voigt Hill
#
# Bulk Modulus (GPa) = 53.95309 54.47160 54.21234
# Shear Modulus (GPa) = 29.32525 29.82733 29.57629
#
# Velocity S-wave (km/s) = 3.82009 3.85265 3.83640
# Velocity P-wave (km/s) = 6.80485 6.84815 6.82653
#
# Compressibility (1/GPa) = 0.01853462
#
# Stress axis : x y z
#
# Youngs Moduli (GPa) = 65.29148 70.43614 72.09995
#
# Poissons Ratio (x) = 0.30476 0.24305
# Poissons Ratio (y) = 0.28250 0.34077
# Poissons Ratio (z) = 0.22010 0.33291
#
# Static dielectric constant tensor:
#      x y z
#    x 3.661210 0.000000 0.000000 
#    y 0.000000 3.601900 0.000000 
#    z 0.000000 0.000000 3.691950 
# 
# 
# High freq. dielectric constant tensor:
#      x y z
#    x 1.797010 0.000000 0.000000 
#    y 0.000000 1.777970 0.000000 
#    z 0.000000 0.000000 1.787550 
# 
# From -- ./inp_files/14547.got.cif
#   From: 2010.03.12/outbox.cif.g09.slc.cpg/sg46_8_cif.got.tgz:14547.got - 2010.04.14 02:56:35.
