data_PCOD8192454
_publ_section_title
;
Structure prediction by ZEFSAII (Michael W. Deem and Ramdas Pophale) SiO2 
 PCOD8192454
Probable space group: I M A 2
;
_chemical_formula_sum "Si O2"
_cell_formula_units_Z 48
_cell_length_a 8.575245
_cell_length_b 9.582593
_cell_length_c 31.326337
_cell_angle_alpha 90.000000
_cell_angle_beta 90.000000
_cell_angle_gamma 90.000000
_cell_volume 2574.181681
_symmetry_space_group_name_H-M "I M A 2"
_symmetry_group_IT_number 46
_symmetry_cell_setting 'orthorhombic'
loop_
_space_group_symop_operation_xyz
x,y,z
-x,-y,z
1/2-x,y,z
1/2+x,-y,z
1/2+x,1/2+y,1/2+z
1/2-x,1/2-y,1/2+z
-x,1/2+y,1/2+z
x,1/2-y,1/2+z
loop_
_atom_site_type_symbol
_atom_site_label
_atom_site_fract_x
_atom_site_fract_y
_atom_site_fract_z
Si Si1 0.564211 0.649374 0.755840
Si Si2 0.065035 0.848092 0.164282
Si Si3 0.934389 0.846412 0.830734
Si Si4 0.565458 0.654324 0.514675
Si Si5 0.935382 0.844990 0.591651
Si Si6 0.933231 0.652091 0.422442
O O1 0.500000 0.500000 0.769182
O O2 0.750000 0.645936 0.751867
O O3 0.491856 0.697224 0.711055
O O4 0.501360 0.752088 0.792518
O O5 0.250000 0.854857 0.162854
O O6 0.002594 0.730091 0.133055
O O7 0.000000 0.000000 0.151242
O O8 0.750000 0.855590 0.827914
O O9 0.984750 0.777767 0.877144
O O10 0.000000 0.000000 0.824705
O O11 0.500000 0.500000 0.523076
O O12 0.750000 0.641986 0.517550
O O13 0.503086 0.760867 0.550226
O O14 0.511803 0.717534 0.467971
O O15 0.750000 0.848362 0.594223
O O16 0.000000 0.000000 0.588894
O O17 0.750000 0.641157 0.423469
O O18 0.000000 0.500000 0.420921
#
# Coordination Sequence:
#
# PCOD8192454 Si02
#       6
#     8   8   8   8   8   8
#     4  10  20  35  53  76 104 136 172 212 254 303
#     4  11  22  38  59  80 102 134 173 216 259 309
#     4   9  18  31  51  76 104 135 170 210 254 301
#     4   9  18  32  54  78 102 133 172 212 253 301
#     4  11  23  38  54  77 107 139 172 213 262 312
#     4   8  14  28  48  73 101 131 167 209 250 294
#
# _framework density 18.646702000000001
#
# number of rings (size 3 to 8) (size 9 to 14) (size 15 to 20)
#    0.000    2.333    0.000    4.000    0.000    4.667 
#    0.000    2.500    0.000    0.000    0.000    0.000 
#    0.000    0.000    0.000    0.000    0.000    0.000 
#
# Total GULP energy -297352.823671 kJ/mol
# GULP energy per Si atom -12389.700986 kJ/mol
# Density = 1.860426 g / cm^3
# Si number density = 18.646702 Si / 1000 Ang^3
#
#
#
# Elastic Constant Matrix: (Units=GPa)
#
#
# Indices 1 2 3 4 5 6 
#
# 1 62.2879 33.0942 42.6636 0.0000 0.0000 0.0000
# 2 33.0942 114.8538 107.1528 0.0000 0.0000 0.0000
# 3 42.6636 107.1528 189.8471 0.0000 0.0000 0.0000
# 4 0.0000 0.0000 0.0000 16.5607 0.0000 0.0000
# 5 0.0000 0.0000 0.0000 0.0000 29.7038 0.0000
# 6 0.0000 0.0000 0.0000 0.0000 0.0000 27.7101
#
#
#
# Elastic Compliance Matrix: (Units=1/GPa)
#
#
# Indices 1 2 3 4 5 6 
#
# 1 0.019529 -0.003237 -0.002561 0.000000 0.000000 0.000000
# 2 -0.003237 0.018928 -0.009955 0.000000 0.000000 0.000000
# 3 -0.002561 -0.009955 0.011462 0.000000 0.000000 0.000000
# 4 0.000000 0.000000 0.000000 0.060384 0.000000 0.000000
# 5 0.000000 0.000000 0.000000 0.000000 0.033666 0.000000
# 6 0.000000 0.000000 0.000000 0.000000 0.000000 0.036088
#
#
# Mechanical properties :
#
#
# Convention : Reuss Voigt Hill
#
# Bulk Modulus (GPa) = 54.31864 81.42334 67.87099
# Shear Modulus (GPa) = 22.96724 27.06680 25.01702
#
# Velocity S-wave (km/s) = 3.51337 3.81407 3.66680
# Velocity P-wave (km/s) = 6.75663 7.94716 7.37595
#
# Compressibility (1/GPa) = 0.01840989
#
# Stress axis : x y z
#
# Youngs Moduli (GPa) = 51.20594 52.83313 87.24464
#
# Poissons Ratio (x) = 0.17105 0.22347
# Poissons Ratio (y) = 0.16578 0.86856
# Poissons Ratio (z) = 0.13116 0.52598
#
# Static dielectric constant tensor:
#      x y z
#    x 3.439990 0.000000 0.000000 
#    y 0.000000 3.264750 0.000000 
#    z 0.000000 0.000000 4.313060 
# 
# 
# High freq. dielectric constant tensor:
#      x y z
#    x 1.726280 0.000000 0.000000 
#    y 0.000000 1.692790 0.000000 
#    z 0.000000 0.000000 1.754190 
# 
# From -- ./inp_files/25002.got.cif
#   From: 2010.03.12/outbox.cif.g09.slc.cpg/sg46_13_cif.got.tgz:25002.got - 2010.04.14 02:56:35.
