data_PCOD8192547
_publ_section_title
;
Structure prediction by ZEFSAII (Michael W. Deem and Ramdas Pophale) SiO2 
 PCOD8192547
Probable space group: I M A 2
;
_chemical_formula_sum "Si O2"
_cell_formula_units_Z 64
_cell_length_a 15.023396
_cell_length_b 17.414751
_cell_length_c 12.723833
_cell_angle_alpha 90.000000
_cell_angle_beta 90.000000
_cell_angle_gamma 90.000000
_cell_volume 3328.919893
_symmetry_space_group_name_H-M "I M A 2"
_symmetry_group_IT_number 46
_symmetry_cell_setting 'orthorhombic'
loop_
_space_group_symop_operation_xyz
x,y,z
-x,-y,z
1/2-x,y,z
1/2+x,-y,z
1/2+x,1/2+y,1/2+z
1/2-x,1/2-y,1/2+z
-x,1/2+y,1/2+z
x,1/2-y,1/2+z
loop_
_atom_site_type_symbol
_atom_site_label
_atom_site_fract_x
_atom_site_fract_y
_atom_site_fract_z
Si Si1 0.353808 0.755145 0.518500
Si Si2 0.068526 0.437302 0.423360
Si Si3 0.973509 0.183053 0.192153
Si Si4 0.441176 0.679325 0.334817
Si Si5 0.354508 0.531879 0.238236
Si Si6 0.851368 0.073691 0.516983
Si Si7 0.904903 0.466035 0.792186
Si Si8 0.151033 0.093248 0.135650
O O1 0.250000 0.750348 0.551794
O O2 0.415127 0.702689 0.591398
O O3 0.365035 0.720773 0.402476
O O4 0.394967 0.841434 0.517843
O O5 0.104920 0.464971 0.310270
O O6 0.143478 0.429276 0.512519
O O7 0.000000 0.500000 0.469398
O O8 0.019303 0.356486 0.406432
O O9 0.072139 0.151926 0.164402
O O10 0.988617 0.258722 0.260675
O O11 0.913793 0.120869 0.253259
O O12 0.391236 0.614943 0.268549
O O13 0.250000 0.529332 0.255076
O O14 0.384161 0.520671 0.115474
O O15 0.750000 0.091761 0.540213
O O16 0.859240 0.030280 0.406394
O O17 0.852151 0.516844 0.707389
O O18 0.000000 0.500000 0.812351
O O19 0.250000 0.129714 0.151223
#
# Coordination Sequence:
#
# PCOD8192547 Si02
#       8
#     8   8   8   8   8   8   8   8
#     4  11  22  35  58  91 124 153 188 241 306 364
#     4  10  21  38  60  87 118 153 198 245 296 350
#     4  11  22  40  60  89 122 153 200 247 297 358
#     4  11  21  37  60  87 119 154 195 242 300 356
#     4  10  21  36  56  87 122 157 195 242 295 356
#     4  10  20  36  55  85 123 153 188 236 299 366
#     4  10  22  37  59  85 116 157 200 245 297 349
#     4  11  23  41  62  85 118 161 204 250 294 343
#
# _framework density 19.225455
#
# number of rings (size 3 to 8) (size 9 to 14) (size 15 to 20)
#    0.000    1.500    3.750    2.250    1.750    3.000 
#    0.000    1.250    0.000    0.000    0.000    0.000 
#    0.000    0.000    0.000    0.000    0.000    0.000 
#
# Total GULP energy -396642.339942 kJ/mol
# GULP energy per Si atom -12395.073123 kJ/mol
# Density = 1.918170 g / cm^3
# Si number density = 19.225455 Si / 1000 Ang^3
#
#
#
# Elastic Constant Matrix: (Units=GPa)
#
#
# Indices 1 2 3 4 5 6 
#
# 1 92.8573 20.0574 24.7479 0.0000 0.0000 0.0000
# 2 20.0574 64.6489 21.5292 0.0000 0.0000 0.0000
# 3 24.7479 21.5292 111.8906 0.0000 0.0000 0.0000
# 4 0.0000 0.0000 0.0000 19.9544 0.0000 0.0000
# 5 0.0000 0.0000 0.0000 0.0000 25.9928 0.0000
# 6 0.0000 0.0000 0.0000 0.0000 0.0000 3.5682
#
#
#
# Elastic Compliance Matrix: (Units=1/GPa)
#
#
# Indices 1 2 3 4 5 6 
#
# 1 0.011974 -0.003027 -0.002066 0.000000 0.000000 0.000000
# 2 -0.003027 0.017292 -0.002658 0.000000 0.000000 0.000000
# 3 -0.002066 -0.002658 0.009906 0.000000 0.000000 0.000000
# 4 0.000000 0.000000 0.000000 0.050114 0.000000 0.000000
# 5 0.000000 0.000000 0.000000 0.000000 0.038472 0.000000
# 6 0.000000 0.000000 0.000000 0.000000 0.000000 0.280252
#
#
# Mechanical properties :
#
#
# Convention : Reuss Voigt Hill
#
# Bulk Modulus (GPa) = 42.24670 44.67397 43.46033
# Shear Modulus (GPa) = 11.59014 23.44056 17.51535
#
# Velocity S-wave (km/s) = 2.45797 3.49556 3.02164
# Velocity P-wave (km/s) = 5.48430 6.29120 5.90156
#
# Compressibility (1/GPa) = 0.02367049
#
# Stress axis : x y z
#
# Youngs Moduli (GPa) = 83.51694 57.82910 100.95262
#
# Poissons Ratio (x) = 0.17504 0.20856
# Poissons Ratio (y) = 0.25279 0.26831
# Poissons Ratio (z) = 0.17254 0.15370
#
# Static dielectric constant tensor:
#      x y z
#    x 3.478190 0.000000 0.000000 
#    y 0.000000 3.480460 0.000000 
#    z 0.000000 0.000000 3.764660 
# 
# 
# High freq. dielectric constant tensor:
#      x y z
#    x 1.736770 0.000000 0.000000 
#    y 0.000000 1.735010 0.000000 
#    z 0.000000 0.000000 1.766060 
# 
# From -- ./inp_files/11330.got.cif
#   From: 2010.03.12/outbox.cif.g09.slc.cpg/sg46_6_cif.got.tgz:11330.got - 2010.04.14 02:56:35.
