data_PCOD8192017
_publ_section_title
;
Structure prediction by ZEFSAII (Michael W. Deem and Ramdas Pophale) SiO2 
 PCOD8192017
Probable space group: I M A 2
;
_chemical_formula_sum "Si O2"
_cell_formula_units_Z 48
_cell_length_a 8.675305
_cell_length_b 28.016109
_cell_length_c 10.180875
_cell_angle_alpha 90.000000
_cell_angle_beta 90.000000
_cell_angle_gamma 90.000000
_cell_volume 2474.444264
_symmetry_space_group_name_H-M "I M A 2"
_symmetry_group_IT_number 46
_symmetry_cell_setting 'orthorhombic'
loop_
_space_group_symop_operation_xyz
x,y,z
-x,-y,z
1/2-x,y,z
1/2+x,-y,z
1/2+x,1/2+y,1/2+z
1/2-x,1/2-y,1/2+z
-x,1/2+y,1/2+z
x,1/2-y,1/2+z
loop_
_atom_site_type_symbol
_atom_site_label
_atom_site_fract_x
_atom_site_fract_y
_atom_site_fract_z
Si Si1 0.430268 0.142633 0.149010
Si Si2 0.072936 0.351139 0.172125
Si Si3 0.068649 0.549226 0.566253
Si Si4 0.570008 0.951491 0.781684
Si Si5 0.928981 0.699796 0.905004
Si Si6 0.071127 0.801395 0.912037
O O1 0.250000 0.132060 0.152901
O O2 0.518075 0.092323 0.160460
O O3 0.482435 0.174837 0.271054
O O4 0.470507 0.169101 0.014662
O O5 0.250000 0.340971 0.210684
O O6 0.034981 0.407375 0.185117
O O7 0.966906 0.319234 0.265932
O O8 0.039223 0.336927 0.022759
O O9 0.250000 0.544951 0.561724
O O10 0.000000 0.500000 0.622555
O O11 0.007109 0.559923 0.420743
O O12 0.750000 0.959154 0.805429
O O13 0.500000 0.000000 0.719575
O O14 0.750000 0.715076 0.898742
O O15 0.032929 0.745930 0.926022
O O16 0.250000 0.809837 0.942495
#
# Coordination Sequence:
#
# PCOD8192017 Si02
#       6
#     8   8   8   8   8   8
#     4  11  22  39  61  85 116 154 196 239 287 342
#     4  10  21  39  61  84 113 152 194 234 284 345
#     4  11  21  35  58  87 117 148 190 238 287 340
#     4  10  19  33  57  85 114 146 186 234 284 339
#     4  10  23  41  60  82 114 156 196 236 288 346
#     4  12  24  37  58  87 116 150 195 242 289 341
#
# _framework density 19.398295000000001
#
# number of rings (size 3 to 8) (size 9 to 14) (size 15 to 20)
#    0.000    1.333    1.667    6.000    0.000    6.667 
#    0.000    0.833    0.000    2.000    0.000    0.000 
#    0.000    0.000    0.000    0.000    0.000    0.000 
#
# Total GULP energy -297729.132116 kJ/mol
# GULP energy per Si atom -12405.380505 kJ/mol
# Density = 1.935414 g / cm^3
# Si number density = 19.398295 Si / 1000 Ang^3
#
#
#
# Elastic Constant Matrix: (Units=GPa)
#
#
# Indices 1 2 3 4 5 6 
#
# 1 96.6376 41.7040 15.0063 -0.0024 -0.0011 -0.0001
# 2 41.7040 134.2266 24.8578 -0.0029 -0.0032 -0.0005
# 3 15.0063 24.8578 60.4879 -0.0061 -0.0039 0.0009
# 4 -0.0024 -0.0029 -0.0061 14.1421 -0.0020 -0.0005
# 5 -0.0011 -0.0032 -0.0039 -0.0020 14.8781 -0.0017
# 6 -0.0001 -0.0005 0.0009 -0.0005 -0.0017 36.5723
#
#
#
# Elastic Compliance Matrix: (Units=1/GPa)
#
#
# Indices 1 2 3 4 5 6 
#
# 1 0.012087 -0.003464 -0.001575 0.000001 0.000000 0.000000
# 2 -0.003464 0.009056 -0.002862 0.000000 0.000001 0.000000
# 3 -0.001575 -0.002862 0.018099 0.000007 0.000004 0.000000
# 4 0.000001 0.000000 0.000007 0.070711 0.000009 0.000001
# 5 0.000000 0.000001 0.000004 0.000009 0.067213 0.000003
# 6 0.000000 0.000000 0.000000 0.000001 0.000003 0.027343
#
#
# Mechanical properties :
#
#
# Convention : Reuss Voigt Hill
#
# Bulk Modulus (GPa) = 42.66189 50.49870 46.58029
# Shear Modulus (GPa) = 21.91767 27.10409 24.51088
#
# Velocity S-wave (km/s) = 3.36501 3.74202 3.55851
# Velocity P-wave (km/s) = 6.09410 6.69025 6.39912
#
# Compressibility (1/GPa) = 0.02344012
#
# Stress axis : x y z
#
# Youngs Moduli (GPa) = 82.73103 110.41921 55.25053
#
# Poissons Ratio (x) = 0.38247 0.08703
# Poissons Ratio (y) = 0.28656 0.15815
# Poissons Ratio (z) = 0.13032 0.31607
#
# Static dielectric constant tensor:
#      x y z
#    x 3.571610 0.000000 0.000000 
#    y 0.000000 3.822940 0.000000 
#    z 0.000000 0.000000 3.385290 
# 
# 
# High freq. dielectric constant tensor:
#      x y z
#    x 1.759930 0.000000 0.000000 
#    y 0.000000 1.773760 0.000000 
#    z 0.000000 0.000000 1.732420 
# 
# From -- ./inp_files/3911.got.cif
#   From: 2010.03.12/outbox.cif.g09.slc.cpg/sg46_2_cif.got.tgz:3911.got - 2010.04.14 02:56:35.
