data_PCOD8192348
_publ_section_title
;
Structure prediction by ZEFSAII (Michael W. Deem and Ramdas Pophale) SiO2 
 PCOD8192348
Probable space group: I M A 2
;
_chemical_formula_sum "Si O2"
_cell_formula_units_Z 48
_cell_length_a 8.617383
_cell_length_b 9.118886
_cell_length_c 31.506438
_cell_angle_alpha 90.000000
_cell_angle_beta 90.000000
_cell_angle_gamma 90.000000
_cell_volume 2475.805300
_symmetry_space_group_name_H-M "I M A 2"
_symmetry_group_IT_number 46
_symmetry_cell_setting 'orthorhombic'
loop_
_space_group_symop_operation_xyz
x,y,z
-x,-y,z
1/2-x,y,z
1/2+x,-y,z
1/2+x,1/2+y,1/2+z
1/2-x,1/2-y,1/2+z
-x,1/2+y,1/2+z
x,1/2-y,1/2+z
loop_
_atom_site_type_symbol
_atom_site_label
_atom_site_fract_x
_atom_site_fract_y
_atom_site_fract_z
Si Si1 0.932084 0.838475 0.428880
Si Si2 0.566255 0.338960 0.089344
Si Si3 0.565905 0.838732 0.011323
Si Si4 0.568785 0.338821 0.844492
Si Si5 0.567849 0.339123 0.752710
Si Si6 0.433207 0.163743 0.167201
O O1 0.750000 0.851724 0.426928
O O2 0.986308 0.740935 0.468253
O O3 0.991417 0.759443 0.385215
O O4 0.000000 0.000000 0.434595
O O5 0.500000 0.500000 0.083111
O O6 0.750000 0.345803 0.091202
O O7 0.512940 0.241261 0.050384
O O8 0.503070 0.269955 0.132371
O O9 0.750000 0.839616 0.017618
O O10 0.500000 0.000000 0.009137
O O11 0.500000 0.500000 0.842859
O O12 0.750000 0.350123 0.852920
O O13 0.536551 0.259937 0.798587
O O14 0.500000 0.500000 0.756810
O O15 0.750000 0.346781 0.742682
O O16 0.480878 0.264373 0.712843
O O17 0.250000 0.157363 0.162333
O O18 0.500000 0.000000 0.162241
#
# Coordination Sequence:
#
# PCOD8192348 Si02
#       6
#     8   8   8   8   8   8
#     4  10  20  33  53  80 111 144 182 225 272 324
#     4  12  25  42  62  84 111 143 180 225 273 329
#     4  11  24  41  60  84 111 144 183 226 275 328
#     4   9  16  26  45  73 107 143 181 224 270 317
#     4   9  16  27  45  74 108 143 182 226 271 319
#     4  11  21  35  56  83 114 149 186 228 275 325
#
# _framework density 19.387630999999999
#
# number of rings (size 3 to 8) (size 9 to 14) (size 15 to 20)
#    0.000    1.667    0.000    8.000    0.000    6.000 
#    0.000    0.000    0.000    1.000    0.000    2.333 
#    0.000    0.000    0.000    0.000    0.000    0.000 
#
# Total GULP energy -297453.500891 kJ/mol
# GULP energy per Si atom -12393.895870 kJ/mol
# Density = 1.934350 g / cm^3
# Si number density = 19.387631 Si / 1000 Ang^3
#
#
#
# Elastic Constant Matrix: (Units=GPa)
#
#
# Indices 1 2 3 4 5 6 
#
# 1 118.1650 35.6683 64.4810 0.0000 0.0000 0.0000
# 2 35.6683 75.5360 55.6976 0.0000 0.0000 0.0000
# 3 64.4810 55.6976 192.0552 0.0000 0.0000 0.0000
# 4 0.0000 0.0000 0.0000 15.0012 0.0000 0.0000
# 5 0.0000 0.0000 0.0000 0.0000 44.8494 0.0000
# 6 0.0000 0.0000 0.0000 0.0000 0.0000 25.2155
#
#
#
# Elastic Compliance Matrix: (Units=1/GPa)
#
#
# Indices 1 2 3 4 5 6 
#
# 1 0.010909 -0.003117 -0.002759 0.000000 0.000000 0.000000
# 2 -0.003117 0.017730 -0.004095 0.000000 0.000000 0.000000
# 3 -0.002759 -0.004095 0.007321 0.000000 0.000000 0.000000
# 4 0.000000 0.000000 0.000000 0.066661 0.000000 0.000000
# 5 0.000000 0.000000 0.000000 0.000000 0.022297 0.000000
# 6 0.000000 0.000000 0.000000 0.000000 0.000000 0.039658
#
#
# Mechanical properties :
#
#
# Convention : Reuss Voigt Hill
#
# Bulk Modulus (GPa) = 62.43046 77.49442 69.96244
# Shear Modulus (GPa) = 26.33545 32.34051 29.33798
#
# Velocity S-wave (km/s) = 3.68960 4.08867 3.89425
# Velocity P-wave (km/s) = 7.10084 7.89604 7.50897
#
# Compressibility (1/GPa) = 0.01601782
#
# Stress axis : x y z
#
# Youngs Moduli (GPa) = 91.66750 56.40008 136.59850
#
# Poissons Ratio (x) = 0.17581 0.37682
# Poissons Ratio (y) = 0.28574 0.55943
# Poissons Ratio (z) = 0.25287 0.23098
#
# Static dielectric constant tensor:
#      x y z
#    x 3.776690 0.000000 0.000000 
#    y 0.000000 3.381110 0.000000 
#    z 0.000000 0.000000 4.713990 
# 
# 
# High freq. dielectric constant tensor:
#      x y z
#    x 1.776230 0.000000 0.000000 
#    y 0.000000 1.702240 0.000000 
#    z 0.000000 0.000000 1.791560 
# 
# From -- ./inp_files/25014.got.cif
#   From: 2010.03.12/outbox.cif.g09.slc.cpg/sg46_13_cif.got.tgz:25014.got - 2010.04.14 02:56:35.
