data_PCOD8192721
_publ_section_title
;
Structure prediction by ZEFSAII (Michael W. Deem and Ramdas Pophale) SiO2 
 PCOD8192721
Probable space group: I M A 2
;
_chemical_formula_sum "Si O2"
_cell_formula_units_Z 60
_cell_length_a 15.209360
_cell_length_b 10.920849
_cell_length_c 18.744896
_cell_angle_alpha 90.000000
_cell_angle_beta 90.000000
_cell_angle_gamma 90.000000
_cell_volume 3113.510804
_symmetry_space_group_name_H-M "I M A 2"
_symmetry_group_IT_number 46
_symmetry_cell_setting 'orthorhombic'
loop_
_space_group_symop_operation_xyz
x,y,z
-x,-y,z
1/2-x,y,z
1/2+x,-y,z
1/2+x,1/2+y,1/2+z
1/2-x,1/2-y,1/2+z
-x,1/2+y,1/2+z
x,1/2-y,1/2+z
loop_
_atom_site_type_symbol
_atom_site_label
_atom_site_fract_x
_atom_site_fract_y
_atom_site_fract_z
Si Si1 0.540246 0.705519 0.979660
Si Si2 0.487939 0.141001 0.637782
Si Si3 0.148371 0.224512 0.753888
Si Si4 0.350707 0.385705 0.399709
Si Si5 0.500000 0.500000 0.873342
Si Si6 0.848572 0.487235 0.772487
Si Si7 0.150785 0.676644 0.637080
Si Si8 0.081453 0.916285 0.995235
O O1 0.620830 0.795966 0.963511
O O2 0.545540 0.599724 0.922329
O O3 0.549674 0.650268 0.058078
O O4 0.450413 0.782460 0.970451
O O5 0.412846 0.195617 0.687365
O O6 0.580392 0.213626 0.644602
O O7 0.500000 0.000000 0.658498
O O8 0.250000 0.188829 0.737169
O O9 0.108660 0.150043 0.822466
O O10 0.140054 0.367912 0.767687
O O11 0.250000 0.366589 0.387830
O O12 0.372610 0.523460 0.425687
O O13 0.577556 0.437981 0.826801
O O14 0.750000 0.454383 0.799539
O O15 0.867361 0.424446 0.697006
O O16 0.250000 0.730863 0.643605
O O17 0.145119 0.602944 0.562447
O O18 0.000000 0.000000 0.021083
#
# Coordination Sequence:
#
# PCOD8192721 Si02
#       8
#     8   8   8   8   4   8   8   8
#     4  10  22  37  58  88 115 152 201 236 295 360
#     4  11  24  41  60  84 119 163 199 243 301 356
#     4  10  22  39  60  89 119 152 199 247 296 355
#     4  10  20  38  61  87 118 151 193 248 296 348
#     4  12  20  38  64  80 120 158 186 246 298 344
#     4  10  22  38  60  91 117 149 197 243 298 354
#     4  10  22  39  61  91 121 154 202 251 298 354
#     4   9  20  36  60  88 120 152 198 242 298 350
#
# _framework density 19.270849999999999
#
# number of rings (size 3 to 8) (size 9 to 14) (size 15 to 20)
#    0.000    1.867    2.000    1.200    6.533    2.667 
#    0.000    3.333    0.000    0.000    0.000    0.000 
#    0.000    0.000    0.000    0.000    0.000    0.000 
#
# Total GULP energy -371900.879297 kJ/mol
# GULP energy per Si atom -12396.695977 kJ/mol
# Density = 1.922699 g / cm^3
# Si number density = 19.270850 Si / 1000 Ang^3
#
#
#
# Elastic Constant Matrix: (Units=GPa)
#
#
# Indices 1 2 3 4 5 6 
#
# 1 90.4078 18.3944 50.2917 0.0000 0.0000 0.0000
# 2 18.3944 61.3376 30.4068 0.0000 0.0000 0.0000
# 3 50.2917 30.4068 108.6499 0.0000 0.0000 0.0000
# 4 0.0000 0.0000 0.0000 27.8582 0.0000 0.0000
# 5 0.0000 0.0000 0.0000 0.0000 23.6978 0.0000
# 6 0.0000 0.0000 0.0000 0.0000 0.0000 21.3586
#
#
#
# Elastic Compliance Matrix: (Units=1/GPa)
#
#
# Indices 1 2 3 4 5 6 
#
# 1 0.014976 -0.001225 -0.006589 0.000000 0.000000 0.000000
# 2 -0.001225 0.019030 -0.004759 0.000000 0.000000 0.000000
# 3 -0.006589 -0.004759 0.013586 0.000000 0.000000 0.000000
# 4 0.000000 0.000000 0.000000 0.035896 0.000000 0.000000
# 5 0.000000 0.000000 0.000000 0.000000 0.042198 0.000000
# 6 0.000000 0.000000 0.000000 0.000000 0.000000 0.046820
#
#
# Mechanical properties :
#
#
# Convention : Reuss Voigt Hill
#
# Bulk Modulus (GPa) = 44.55194 50.95345 47.75270
# Shear Modulus (GPa) = 24.37463 25.33639 24.85551
#
# Velocity S-wave (km/s) = 3.56032 3.62988 3.59527
# Velocity P-wave (km/s) = 6.33010 6.63824 6.48600
#
# Compressibility (1/GPa) = 0.02244571
#
# Stress axis : x y z
#
# Youngs Moduli (GPa) = 66.77563 52.54993 73.60715
#
# Poissons Ratio (x) = 0.06435 0.48501
# Poissons Ratio (y) = 0.08177 0.35028
# Poissons Ratio (z) = 0.43999 0.25007
#
# Static dielectric constant tensor:
#      x y z
#    x 3.588680 0.000000 0.000000 
#    y 0.000000 3.749390 0.000000 
#    z 0.000000 0.000000 3.701480 
# 
# 
# High freq. dielectric constant tensor:
#      x y z
#    x 1.748650 0.000000 0.000000 
#    y 0.000000 1.743850 0.000000 
#    z 0.000000 0.000000 1.755680 
# 
# From -- ./inp_files/19602.got.cif
#   From: 2010.03.12/outbox.cif.g09.slc.cpg/sg46_10_cif.got.tgz:19602.got - 2010.04.14 02:56:35.
