data_PCOD8192908
_publ_section_title
;
Structure prediction by ZEFSAII (Michael W. Deem and Ramdas Pophale) SiO2 
 PCOD8192908
Probable space group: I M A 2
;
_chemical_formula_sum "Si O2"
_cell_formula_units_Z 64
_cell_length_a 8.708228
_cell_length_b 30.957954
_cell_length_c 11.944461
_cell_angle_alpha 90.000000
_cell_angle_beta 90.000000
_cell_angle_gamma 90.000000
_cell_volume 3220.094363
_symmetry_space_group_name_H-M "I M A 2"
_symmetry_group_IT_number 46
_symmetry_cell_setting 'orthorhombic'
loop_
_space_group_symop_operation_xyz
x,y,z
-x,-y,z
1/2-x,y,z
1/2+x,-y,z
1/2+x,1/2+y,1/2+z
1/2-x,1/2-y,1/2+z
-x,1/2+y,1/2+z
x,1/2-y,1/2+z
loop_
_atom_site_type_symbol
_atom_site_label
_atom_site_fract_x
_atom_site_fract_y
_atom_site_fract_z
Si Si1 0.069023 0.373469 0.533480
Si Si2 0.932646 0.066163 0.661733
Si Si3 0.067714 0.456538 0.928089
Si Si4 0.568022 0.335666 0.161739
Si Si5 0.567547 0.201610 0.892614
Si Si6 0.567713 0.956538 0.895380
Si Si7 0.569022 0.873468 0.289998
Si Si8 0.067547 0.701611 0.930865
O O1 0.250000 0.368986 0.520964
O O2 0.008428 0.414861 0.464072
O O3 0.019170 0.379835 0.661739
O O4 0.993624 0.329690 0.488912
O O5 0.750000 0.061356 0.661724
O O6 0.988500 0.115437 0.661735
O O7 0.002456 0.043885 0.553195
O O8 0.002437 0.043886 0.770279
O O9 0.250000 0.458573 0.929063
O O10 0.008420 0.414860 0.859405
O O11 0.000000 0.500000 0.870504
O O12 0.750000 0.332764 0.161742
O O13 0.501494 0.312801 0.272194
O O14 0.501497 0.312799 0.051286
O O15 0.750000 0.199613 0.895536
O O16 0.506976 0.249999 0.911739
O O17 0.750000 0.958573 0.894391
O O18 0.500000 0.000000 0.952966
O O19 0.750000 0.868986 0.302516
O O20 0.493627 0.829689 0.334568
O O21 0.250000 0.699614 0.927940
#
# Coordination Sequence:
#
# PCOD8192908 Si02
#       8
#     8   8   8   8   8   8   8   8
#     4  10  23  42  60  82 117 155 193 239 289 343
#     4  11  20  36  61  87 120 154 190 237 289 343
#     4  11  23  39  60  86 116 151 193 239 291 347
#     4   9  18  34  56  87 121 150 185 237 288 333
#     4  10  21  37  61  90 119 152 193 239 288 339
#     4  11  23  39  60  86 116 151 193 239 291 347
#     4  10  23  42  60  82 117 155 193 239 289 343
#     4  10  21  37  61  90 119 152 193 239 288 339
#
# _framework density 19.875194
#
# number of rings (size 3 to 8) (size 9 to 14) (size 15 to 20)
#    0.000    1.750    2.500    1.500    1.750    2.500 
#    0.000    0.625    0.000    0.000    0.000    0.000 
#    0.000    0.000    0.000    0.000    0.000    0.000 
#
# Total GULP energy -396887.574673 kJ/mol
# GULP energy per Si atom -12402.736709 kJ/mol
# Density = 1.982996 g / cm^3
# Si number density = 19.875194 Si / 1000 Ang^3
#
#
#
# Elastic Constant Matrix: (Units=GPa)
#
#
# Indices 1 2 3 4 5 6 
#
# 1 42.7542 36.1987 25.3239 0.0001 0.0000 0.0000
# 2 36.1987 177.9849 58.8861 -0.0001 0.0004 0.0001
# 3 25.3239 58.8861 117.6011 0.0005 0.0013 0.0001
# 4 0.0001 -0.0001 0.0005 25.0091 0.0003 -0.0001
# 5 0.0000 0.0004 0.0013 0.0003 19.1203 0.0002
# 6 0.0000 0.0001 0.0001 -0.0001 0.0002 29.7662
#
#
#
# Elastic Compliance Matrix: (Units=1/GPa)
#
#
# Indices 1 2 3 4 5 6 
#
# 1 0.029783 -0.004717 -0.004052 0.000000 0.000000 0.000000
# 2 -0.004717 0.007481 -0.002730 0.000000 0.000000 0.000000
# 3 -0.004052 -0.002730 0.010743 0.000000 -0.000001 0.000000
# 4 0.000000 0.000000 0.000000 0.039985 -0.000001 0.000000
# 5 0.000000 0.000000 -0.000001 -0.000001 0.052300 0.000000
# 6 0.000000 0.000000 0.000000 0.000000 0.000000 0.033595
#
#
# Mechanical properties :
#
#
# Convention : Reuss Voigt Hill
#
# Bulk Modulus (GPa) = 39.98460 64.35083 52.16771
# Shear Modulus (GPa) = 24.36391 29.30789 26.83590
#
# Velocity S-wave (km/s) = 3.50501 3.84421 3.67852
# Velocity P-wave (km/s) = 6.04496 7.22161 6.65933
#
# Compressibility (1/GPa) = 0.02500963
#
# Stress axis : x y z
#
# Youngs Moduli (GPa) = 33.57632 133.67064 93.08484
#
# Poissons Ratio (x) = 0.63050 0.37713
# Poissons Ratio (y) = 0.15837 0.25415
# Poissons Ratio (z) = 0.13604 0.36496
#
# Static dielectric constant tensor:
#      x y z
#    x 3.343610 0.000000 0.000000 
#    y 0.000000 3.896830 0.000000 
#    z 0.000000 0.000000 3.768560 
# 
# 
# High freq. dielectric constant tensor:
#      x y z
#    x 1.755440 0.000000 0.000000 
#    y 0.000000 1.795770 0.000000 
#    z 0.000000 0.000000 1.777630 
# 
# From -- ./inp_files/9748.got.cif
#   From: 2010.03.12/outbox.cif.g09.slc.cpg/sg46_5_cif.got.tgz:9748.got - 2010.04.14 02:56:35.
