data_PCOD8192835
_publ_section_title
;
Structure prediction by ZEFSAII (Michael W. Deem and Ramdas Pophale) SiO2 
 PCOD8192835
Probable space group: I M A 2
;
_chemical_formula_sum "Si O2"
_cell_formula_units_Z 48
_cell_length_a 9.061112
_cell_length_b 23.420945
_cell_length_c 11.924017
_cell_angle_alpha 90.000000
_cell_angle_beta 90.000000
_cell_angle_gamma 90.000000
_cell_volume 2530.512572
_symmetry_space_group_name_H-M "I M A 2"
_symmetry_group_IT_number 46
_symmetry_cell_setting 'orthorhombic'
loop_
_space_group_symop_operation_xyz
x,y,z
-x,-y,z
1/2-x,y,z
1/2+x,-y,z
1/2+x,1/2+y,1/2+z
1/2-x,1/2-y,1/2+z
-x,1/2+y,1/2+z
x,1/2-y,1/2+z
loop_
_atom_site_type_symbol
_atom_site_label
_atom_site_fract_x
_atom_site_fract_y
_atom_site_fract_z
Si Si1 0.076704 0.153831 0.320090
Si Si2 0.576961 0.614807 0.409879
Si Si3 0.917912 0.776529 0.775692
Si Si4 0.082374 0.143855 0.578260
Si Si5 0.923040 0.561657 0.646862
Si Si6 0.922441 0.444825 0.218814
O O1 0.250000 0.154224 0.295716
O O2 0.004020 0.214373 0.281748
O O3 0.037917 0.149769 0.450123
O O4 0.013935 0.099103 0.251554
O O5 0.750000 0.609589 0.381401
O O6 0.517918 0.676824 0.365354
O O7 0.543618 0.601994 0.539460
O O8 0.490684 0.566719 0.340973
O O9 0.750000 0.767087 0.813129
O O10 0.929289 0.796715 0.646388
O O11 0.250000 0.119793 0.590967
O O12 0.958913 0.104168 0.631084
O O13 0.750000 0.549086 0.657371
O O14 0.000000 0.500000 0.641191
O O15 0.750000 0.453797 0.230597
O O16 0.000000 0.500000 0.167427
#
# Coordination Sequence:
#
# PCOD8192835 Si02
#       6
#     8   8   8   8   8   8
#     4   9  18  31  52  81 110 141 177 223 270 319
#     4   9  18  33  54  82 110 137 174 223 272 322
#     4   8  15  28  51  81 107 132 171 223 274 316
#     4   9  18  33  52  78 109 138 175 219 268 322
#     4  10  21  35  52  77 111 147 185 220 264 319
#     4  11  21  34  54  77 104 137 177 222 270 318
#
# _framework density 18.968489000000002
#
# number of rings (size 3 to 8) (size 9 to 14) (size 15 to 20)
#    0.000    2.667    0.000    3.000    2.333    2.667 
#    0.000    2.500    0.000    8.000    0.000    0.000 
#    0.000    0.000    0.000    0.000    0.000    0.000 
#
# Total GULP energy -297392.493360 kJ/mol
# GULP energy per Si atom -12391.353890 kJ/mol
# Density = 1.892532 g / cm^3
# Si number density = 18.968489 Si / 1000 Ang^3
#
#
#
# Elastic Constant Matrix: (Units=GPa)
#
#
# Indices 1 2 3 4 5 6 
#
# 1 58.8154 32.0777 28.2386 0.0000 0.0000 0.0000
# 2 32.0777 122.4860 60.0978 0.0002 0.0001 0.0000
# 3 28.2386 60.0978 141.4845 0.0000 0.0002 0.0000
# 4 0.0000 0.0002 0.0000 14.7491 0.0000 0.0000
# 5 0.0000 0.0001 0.0002 0.0000 13.4690 0.0000
# 6 0.0000 0.0000 0.0000 0.0000 0.0000 18.6827
#
#
#
# Elastic Compliance Matrix: (Units=1/GPa)
#
#
# Indices 1 2 3 4 5 6 
#
# 1 0.020400 -0.004225 -0.002277 0.000000 0.000000 0.000000
# 2 -0.004225 0.011189 -0.003909 0.000000 0.000000 0.000000
# 3 -0.002277 -0.003909 0.009183 0.000000 0.000000 0.000000
# 4 0.000000 0.000000 0.000000 0.067801 0.000000 0.000000
# 5 0.000000 0.000000 0.000000 0.000000 0.074245 0.000000
# 6 0.000000 0.000000 0.000000 0.000000 0.000000 0.053525
#
#
# Mechanical properties :
#
#
# Convention : Reuss Voigt Hill
#
# Bulk Modulus (GPa) = 50.12848 62.62377 56.37612
# Shear Modulus (GPa) = 18.95267 22.87162 20.91215
#
# Velocity S-wave (km/s) = 3.16439 3.47619 3.32395
# Velocity P-wave (km/s) = 6.31156 7.01414 6.67210
#
# Compressibility (1/GPa) = 0.01994874
#
# Stress axis : x y z
#
# Youngs Moduli (GPa) = 49.01954 89.37426 108.89836
#
# Poissons Ratio (x) = 0.37765 0.24794
# Poissons Ratio (y) = 0.20713 0.42572
# Poissons Ratio (z) = 0.11161 0.34939
#
# Static dielectric constant tensor:
#      x y z
#    x 3.041270 0.000000 0.000000 
#    y 0.000000 3.791410 0.000000 
#    z 0.000000 0.000000 3.518050 
# 
# 
# High freq. dielectric constant tensor:
#      x y z
#    x 1.686620 0.000000 0.000000 
#    y 0.000000 1.746380 0.000000 
#    z 0.000000 0.000000 1.739670 
# 
# From -- ./inp_files/9283.got.cif
#   From: 2010.03.12/outbox.cif.g09.slc.cpg/sg46_5_cif.got.tgz:9283.got - 2010.04.14 02:56:35.
