data_PCOD8192548
_publ_section_title
;
Structure prediction by ZEFSAII (Michael W. Deem and Ramdas Pophale) SiO2 
 PCOD8192548
Probable space group: I M A 2
;
_chemical_formula_sum "Si O2"
_cell_formula_units_Z 52
_cell_length_a 13.903911
_cell_length_b 19.617428
_cell_length_c 8.916911
_cell_angle_alpha 90.000000
_cell_angle_beta 90.000000
_cell_angle_gamma 90.000000
_cell_volume 2432.167486
_symmetry_space_group_name_H-M "I M A 2"
_symmetry_group_IT_number 46
_symmetry_cell_setting 'orthorhombic'
loop_
_space_group_symop_operation_xyz
x,y,z
-x,-y,z
1/2-x,y,z
1/2+x,-y,z
1/2+x,1/2+y,1/2+z
1/2-x,1/2-y,1/2+z
-x,1/2+y,1/2+z
x,1/2-y,1/2+z
loop_
_atom_site_type_symbol
_atom_site_label
_atom_site_fract_x
_atom_site_fract_y
_atom_site_fract_z
Si Si1 0.862369 0.994138 0.675390
Si Si2 0.355636 0.953634 0.994525
Si Si3 0.516880 0.161607 0.122707
Si Si4 0.637284 0.665072 0.143072
Si Si5 0.000000 0.500000 0.931063
Si Si6 0.857654 0.576222 0.715234
Si Si7 0.966979 0.759661 0.381881
O O1 0.750000 0.005615 0.649690
O O2 0.889440 0.913941 0.673085
O O3 0.897108 0.028829 0.830688
O O4 0.920170 0.033586 0.543023
O O5 0.250000 0.919864 0.980722
O O6 0.422865 0.906035 0.094299
O O7 0.347194 0.023498 0.082213
O O8 0.401694 0.144538 0.140387
O O9 0.543478 0.198106 0.279800
O O10 0.533236 0.212524 0.985832
O O11 0.750000 0.675035 0.138891
O O12 0.597454 0.711719 0.276402
O O13 0.596486 0.688357 0.981087
O O14 0.939005 0.554046 0.835018
O O15 0.750000 0.588819 0.785432
#
# Coordination Sequence:
#
# PCOD8192548 Si02
#       7
#     8   8   8   8   4   8   8
#     4  10  23  38  59  93 127 163 210 263 322 381
#     4  10  22  42  67  92 119 162 215 263 319 379
#     4  11  22  43  62  89 125 164 205 262 310 370
#     4  10  20  36  55  87 127 165 207 254 301 372
#     4  12  22  34  60  90 132 164 196 252 322 374
#     4  11  23  39  64  97 128 164 206 254 321 386
#     4  10  23  35  60  88 121 168 213 243 308 373
#
# _framework density 21.380106000000001
#
# number of rings (size 3 to 8) (size 9 to 14) (size 15 to 20)
#    0.000    1.538    1.538    2.769    4.308    6.154 
#    0.000    0.769    0.000    0.000    0.000    0.000 
#    0.000    0.000    0.000    0.000    0.000    0.000 
#
# Total GULP energy -322204.013440 kJ/mol
# GULP energy per Si atom -12392.462055 kJ/mol
# Density = 2.133144 g / cm^3
# Si number density = 21.380106 Si / 1000 Ang^3
#
#
#
# Elastic Constant Matrix: (Units=GPa)
#
#
# Indices 1 2 3 4 5 6 
#
# 1 83.3476 24.8366 39.4489 0.0000 0.0000 0.0000
# 2 24.8366 57.7306 29.4805 0.0000 0.0000 0.0000
# 3 39.4489 29.4805 137.2974 0.0000 0.0000 0.0000
# 4 0.0000 0.0000 0.0000 37.7369 0.0000 0.0000
# 5 0.0000 0.0000 0.0000 0.0000 29.0631 0.0000
# 6 0.0000 0.0000 0.0000 0.0000 0.0000 11.0461
#
#
#
# Elastic Compliance Matrix: (Units=1/GPa)
#
#
# Indices 1 2 3 4 5 6 
#
# 1 0.014970 -0.004766 -0.003278 0.000000 0.000000 0.000000
# 2 -0.004766 0.020973 -0.003134 0.000000 0.000000 0.000000
# 3 -0.003278 -0.003134 0.008898 0.000000 0.000000 0.000000
# 4 0.000000 0.000000 0.000000 0.026499 0.000000 0.000000
# 5 0.000000 0.000000 0.000000 0.000000 0.034408 0.000000
# 6 0.000000 0.000000 0.000000 0.000000 0.000000 0.090530
#
#
# Mechanical properties :
#
#
# Convention : Reuss Voigt Hill
#
# Bulk Modulus (GPa) = 44.47463 51.76751 48.12107
# Shear Modulus (GPa) = 22.11136 27.87652 24.99394
#
# Velocity S-wave (km/s) = 3.21939 3.61481 3.42281
# Velocity P-wave (km/s) = 5.88781 6.45662 6.17877
#
# Compressibility (1/GPa) = 0.02248473
#
# Stress axis : x y z
#
# Youngs Moduli (GPa) = 66.80192 47.68108 112.38345
#
# Poissons Ratio (x) = 0.22727 0.36836
# Poissons Ratio (y) = 0.31840 0.35218
# Poissons Ratio (z) = 0.21896 0.14942
#
# Static dielectric constant tensor:
#      x y z
#    x 3.921040 0.000000 0.000000 
#    y 0.000000 3.799790 0.000000 
#    z 0.000000 0.000000 4.241350 
# 
# 
# High freq. dielectric constant tensor:
#      x y z
#    x 1.819330 0.000000 0.000000 
#    y 0.000000 1.828410 0.000000 
#    z 0.000000 0.000000 1.865100 
# 
# From -- ./inp_files/5885.got.cif
#   From: 2010.03.12/outbox.cif.g09.slc.cpg/sg46_3_cif.got.tgz:5885.got - 2010.04.14 02:56:35.
