data_PCOD8192879
_publ_section_title
;
Structure prediction by ZEFSAII (Michael W. Deem and Ramdas Pophale) SiO2 
 PCOD8192879
Probable space group: I M A 2
;
_chemical_formula_sum "Si O2"
_cell_formula_units_Z 64
_cell_length_a 9.337254
_cell_length_b 24.373964
_cell_length_c 14.975598
_cell_angle_alpha 90.000000
_cell_angle_beta 90.000000
_cell_angle_gamma 90.000000
_cell_volume 3408.234842
_symmetry_space_group_name_H-M "I M A 2"
_symmetry_group_IT_number 46
_symmetry_cell_setting 'orthorhombic'
loop_
_space_group_symop_operation_xyz
x,y,z
-x,-y,z
1/2-x,y,z
1/2+x,-y,z
1/2+x,1/2+y,1/2+z
1/2-x,1/2-y,1/2+z
-x,1/2+y,1/2+z
x,1/2-y,1/2+z
loop_
_atom_site_type_symbol
_atom_site_label
_atom_site_fract_x
_atom_site_fract_y
_atom_site_fract_z
Si Si1 0.418153 0.555675 0.806880
Si Si2 0.916278 0.662637 0.490489
Si Si3 0.085405 0.358111 0.287750
Si Si4 0.414283 0.286132 0.960206
Si Si5 0.917929 0.355757 0.657479
Si Si6 0.415642 0.890187 0.490068
Si Si7 0.087168 0.267405 0.756218
Si Si8 0.582737 0.444895 0.175335
O O1 0.500000 0.500000 0.786103
O O2 0.250000 0.543356 0.811309
O O3 0.457386 0.597199 0.727738
O O4 0.473543 0.580566 0.900602
O O5 0.750000 0.656447 0.514445
O O6 0.946768 0.637979 0.393078
O O7 0.962585 0.726480 0.494130
O O8 0.010271 0.629312 0.562450
O O9 0.250000 0.374768 0.268452
O O10 0.055888 0.297078 0.252341
O O11 0.975903 0.397334 0.238290
O O12 0.250000 0.296255 0.985040
O O13 0.504893 0.332987 0.008924
O O14 0.439455 0.290539 0.854753
O O15 0.750000 0.349547 0.644529
O O16 0.980082 0.297581 0.689597
O O17 0.250000 0.875631 0.479179
O O18 0.445443 0.930558 0.572158
O O19 0.250000 0.279262 0.726241
O O20 0.500000 0.500000 0.199615
O O21 0.750000 0.452903 0.194969
#
# Coordination Sequence:
#
# PCOD8192879 Si02
#       8
#     8   8   8   8   8   8   8   8
#     4  10  22  39  57  80 113 152 193 235 281 336
#     4   9  20  38  58  83 116 152 192 236 283 340
#     4   9  20  40  62  83 113 150 192 242 291 340
#     4   9  18  33  55  83 113 151 192 226 272 335
#     4  11  22  35  55  85 119 153 190 236 287 338
#     4  10  21  37  55  82 119 152 185 232 285 340
#     4   9  18  34  56  83 114 150 190 229 277 341
#     4  11  24  40  60  85 114 150 196 242 292 345
#
# _framework density 18.778047999999998
#
# number of rings (size 3 to 8) (size 9 to 14) (size 15 to 20)
#    0.000    2.250    1.250    2.625    1.750    4.000 
#    0.000    3.125    0.000    1.500    0.000    0.000 
#    0.000    0.000    0.000    0.000    0.000    0.000 
#
# Total GULP energy -396885.823119 kJ/mol
# GULP energy per Si atom -12402.681972 kJ/mol
# Density = 1.873531 g / cm^3
# Si number density = 18.778048 Si / 1000 Ang^3
#
#
#
# Elastic Constant Matrix: (Units=GPa)
#
#
# Indices 1 2 3 4 5 6 
#
# 1 86.4194 57.4512 57.2922 0.0000 0.0000 0.0000
# 2 57.4512 92.3995 45.4814 0.0000 0.0000 0.0000
# 3 57.2922 45.4814 104.6230 0.0000 0.0000 0.0000
# 4 0.0000 0.0000 0.0000 22.9264 0.0000 0.0000
# 5 0.0000 0.0000 0.0000 0.0000 34.1933 0.0000
# 6 0.0000 0.0000 0.0000 0.0000 0.0000 34.8132
#
#
#
# Elastic Compliance Matrix: (Units=1/GPa)
#
#
# Indices 1 2 3 4 5 6 
#
# 1 0.024715 -0.011075 -0.008719 0.000000 0.000000 0.000000
# 2 -0.011075 0.018732 -0.002078 0.000000 0.000000 0.000000
# 3 -0.008719 -0.002078 0.015236 0.000000 0.000000 0.000000
# 4 0.000000 0.000000 0.000000 0.043618 0.000000 0.000000
# 5 0.000000 0.000000 0.000000 0.000000 0.029246 0.000000
# 6 0.000000 0.000000 0.000000 0.000000 0.000000 0.028725
#
#
# Mechanical properties :
#
#
# Convention : Reuss Voigt Hill
#
# Bulk Modulus (GPa) = 66.94589 67.09905 67.02247
# Shear Modulus (GPa) = 23.92405 26.60106 25.26256
#
# Velocity S-wave (km/s) = 3.57325 3.76786 3.67184
# Velocity P-wave (km/s) = 7.26310 7.39860 7.33117
#
# Compressibility (1/GPa) = 0.01493744
#
# Stress axis : x y z
#
# Youngs Moduli (GPa) = 40.46197 53.38591 65.63229
#
# Poissons Ratio (x) = 0.59124 0.57228
# Poissons Ratio (y) = 0.44811 0.13640
# Poissons Ratio (z) = 0.35281 0.11095
#
# Static dielectric constant tensor:
#      x y z
#    x 3.355280 0.000000 0.000000 
#    y 0.000000 3.261230 0.000000 
#    z 0.000000 0.000000 3.507220 
# 
# 
# High freq. dielectric constant tensor:
#      x y z
#    x 1.725410 0.000000 0.000000 
#    y 0.000000 1.718080 0.000000 
#    z 0.000000 0.000000 1.735980 
# 
# From -- ./inp_files/14452.got.cif
#   From: 2010.03.12/outbox.cif.g09.slc.cpg/sg46_8_cif.got.tgz:14452.got - 2010.04.14 02:56:35.
