data_PCOD8192277
_publ_section_title
;
Structure prediction by ZEFSAII (Michael W. Deem and Ramdas Pophale) SiO2 
 PCOD8192277
Probable space group: I M A 2
;
_chemical_formula_sum "Si O2"
_cell_formula_units_Z 64
_cell_length_a 8.904711
_cell_length_b 21.695572
_cell_length_c 21.011640
_cell_angle_alpha 90.000000
_cell_angle_beta 90.000000
_cell_angle_gamma 90.000000
_cell_volume 4059.297536
_symmetry_space_group_name_H-M "I M A 2"
_symmetry_group_IT_number 46
_symmetry_cell_setting 'orthorhombic'
loop_
_space_group_symop_operation_xyz
x,y,z
-x,-y,z
1/2-x,y,z
1/2+x,-y,z
1/2+x,1/2+y,1/2+z
1/2-x,1/2-y,1/2+z
-x,1/2+y,1/2+z
x,1/2-y,1/2+z
loop_
_atom_site_type_symbol
_atom_site_label
_atom_site_fract_x
_atom_site_fract_y
_atom_site_fract_z
Si Si1 0.918534 0.758678 0.705570
Si Si2 0.417068 0.746998 0.509931
Si Si3 0.424349 0.064540 0.529101
Si Si4 0.427823 0.837859 0.288261
Si Si5 0.581355 0.347283 0.120258
Si Si6 0.071560 0.433494 0.694345
Si Si7 0.423580 0.164972 0.421594
Si Si8 0.083906 0.339283 0.592949
O O1 0.750000 0.773505 0.729377
O O2 0.912549 0.712248 0.647041
O O3 0.011799 0.727838 0.762880
O O4 0.997471 0.822086 0.683237
O O5 0.250000 0.738532 0.481935
O O6 0.416172 0.794398 0.567696
O O7 0.527604 0.771246 0.455132
O O8 0.473988 0.680748 0.535846
O O9 0.250000 0.054649 0.542441
O O10 0.495786 0.093239 0.592922
O O11 0.452353 0.108309 0.468879
O O12 0.500000 0.000000 0.512585
O O13 0.250000 0.840277 0.279671
O O14 0.501936 0.894506 0.251419
O O15 0.471554 0.846134 0.361381
O O16 0.750000 0.366632 0.139072
O O17 0.250000 0.436177 0.704161
O O18 0.030146 0.402636 0.626202
O O19 0.000000 0.500000 0.695556
O O20 0.250000 0.170045 0.401461
O O21 0.250000 0.347069 0.563860
#
# Coordination Sequence:
#
# PCOD8192277 Si02
#       8
#     8   8   8   8   8   8   8   8
#     4   9  16  28  45  64  86 111 142 179 222 267
#     4   9  16  26  43  65  85 107 139 179 222 265
#     4  10  20  32  46  63  86 118 153 188 224 263
#     4  11  21  32  46  64  88 118 153 189 224 262
#     4   9  16  27  44  65  87 110 140 179 223 267
#     4  10  20  33  47  64  88 119 154 188 223 262
#     4  10  20  33  46  61  86 119 153 187 224 264
#     4   8  15  27  43  62  84 110 139 175 220 266
#
# _framework density 15.766273999999999
#
# number of rings (size 3 to 8) (size 9 to 14) (size 15 to 20)
#    0.000    2.500    0.000    4.125    0.000    8.500 
#    0.000    1.250    0.000    0.000    0.000    0.000 
#    0.000    1.000    0.000    8.500    0.000    6.500 
#
# Total GULP energy -396742.061232 kJ/mol
# GULP energy per Si atom -12398.189413 kJ/mol
# Density = 1.573039 g / cm^3
# Si number density = 15.766274 Si / 1000 Ang^3
#
#
#
# Elastic Constant Matrix: (Units=GPa)
#
#
# Indices 1 2 3 4 5 6 
#
# 1 124.5143 47.5274 45.2726 0.0000 0.0000 0.0000
# 2 47.5274 59.4404 54.8110 0.0000 0.0000 0.0000
# 3 45.2726 54.8110 48.8298 0.0000 0.0000 0.0000
# 4 0.0000 0.0000 0.0000 14.0514 0.0000 0.0000
# 5 0.0000 0.0000 0.0000 0.0000 25.0377 0.0000
# 6 0.0000 0.0000 0.0000 0.0000 0.0000 26.4898
#
#
#
# Elastic Compliance Matrix: (Units=1/GPa)
#
#
# Indices 1 2 3 4 5 6 
#
# 1 0.011398 -0.017992 0.009628 0.000000 0.000000 0.000000
# 2 -0.017992 -0.451304 0.523266 0.000000 0.000000 0.000000
# 3 0.009628 0.523266 -0.575810 0.000000 0.000000 0.000000
# 4 0.000000 0.000000 0.000000 0.071167 0.000000 0.000000
# 5 0.000000 0.000000 0.000000 0.000000 0.039940 0.000000
# 6 0.000000 0.000000 0.000000 0.000000 0.000000 0.037750
#
#
# Mechanical properties :
#
#
# Convention : Reuss Voigt Hill
#
# Bulk Modulus (GPa) = 70.97539 58.66739 64.82139
# Shear Modulus (GPa) = -2.64275 18.79401 8.07563
#
# Velocity S-wave (km/s) = -1.29609 3.45634 2.26566
# Velocity P-wave (km/s) = 6.54791 7.29519 6.93163
#
# Compressibility (1/GPa) = 0.01408939
#
# Stress axis : x y z
#
# Youngs Moduli (GPa) = 87.73425 -2.21580 -1.73668
#
# Poissons Ratio (x) = -0.03987 0.01672
# Poissons Ratio (y) = 1.57854 0.90875
# Poissons Ratio (z) = -0.84475 1.15946
#
# Static dielectric constant tensor:
#      x y z
#    x 3.245900 0.000000 0.000000 
#    y 0.000000 2.918870 0.000000 
#    z 0.000000 0.000000 2.814110 
# 
# 
# High freq. dielectric constant tensor:
#      x y z
#    x 1.626810 0.000000 0.000000 
#    y 0.000000 1.578450 0.000000 
#    z 0.000000 0.000000 1.572730 
# 
# From -- ./inp_files/21420.got.cif
#   From: 2010.03.12/outbox.cif.g09.slc.cpg/sg46_11_cif.got.tgz:21420.got - 2010.04.14 02:56:35.
