data_PCOD8192336
_publ_section_title
;
Structure prediction by ZEFSAII (Michael W. Deem and Ramdas Pophale) SiO2 
 PCOD8192336
Probable space group: I M A 2
;
_chemical_formula_sum "Si O2"
_cell_formula_units_Z 40
_cell_length_a 9.824674
_cell_length_b 14.349643
_cell_length_c 17.207741
_cell_angle_alpha 90.000000
_cell_angle_beta 90.000000
_cell_angle_gamma 90.000000
_cell_volume 2425.957040
_symmetry_space_group_name_H-M "I M A 2"
_symmetry_group_IT_number 46
_symmetry_cell_setting 'orthorhombic'
loop_
_space_group_symop_operation_xyz
x,y,z
-x,-y,z
1/2-x,y,z
1/2+x,-y,z
1/2+x,1/2+y,1/2+z
1/2-x,1/2-y,1/2+z
-x,1/2+y,1/2+z
x,1/2-y,1/2+z
loop_
_atom_site_type_symbol
_atom_site_label
_atom_site_fract_x
_atom_site_fract_y
_atom_site_fract_z
Si Si1 0.750000 0.810881 0.569000
Si Si2 0.901952 0.671831 0.660280
Si Si3 0.750000 0.983430 0.963808
Si Si4 0.750000 0.402027 0.307770
Si Si5 0.000000 0.500000 0.568147
Si Si6 0.968580 0.697488 0.289043
Si Si7 0.750000 0.775500 0.915011
Si Si8 0.250000 0.429176 0.208256
O O1 0.884867 0.754332 0.596717
O O2 0.750000 0.812701 0.475130
O O3 0.750000 0.911078 0.614308
O O4 0.750000 0.639329 0.687474
O O5 0.984878 0.587692 0.624315
O O6 0.984354 0.712343 0.733874
O O7 0.750000 0.871380 0.964188
O O8 0.750000 0.022378 0.876714
O O9 0.623401 0.021406 0.011342
O O10 0.617041 0.338125 0.313295
O O11 0.750000 0.460718 0.226917
O O12 0.887620 0.729842 0.365416
O O13 0.884114 0.616679 0.245910
#
# Coordination Sequence:
#
# PCOD8192336 Si02
#       8
#     4   8   4   4   4   8   4   4
#     4   8  16  32  50  73  98 136 178 203 236 317
#     4   9  18  36  50  75 104 139 180 200 257 320
#     4  12  22  28  50  86 115 130 159 211 288 310
#     4  12  22  29  48  86 115 128 166 218 264 310
#     4  12  20  34  54  80 108 138 168 220 258 320
#     4  10  20  33  52  75 105 143 171 209 258 311
#     4  11  16  34  55  74 105 136 172 209 255 321
#     4   9  18  33  51  69 105 144 177 197 247 324
#
# _framework density 16.488337000000001
#
# number of rings (size 3 to 8) (size 9 to 14) (size 15 to 20)
#    0.600    1.200    7.000    1.800    0.000    0.800 
#    0.000    0.000    0.000    0.000   10.400    0.000 
#    0.000    0.000    0.000    0.000    0.000    0.000 
#
# Total GULP energy -247862.695132 kJ/mol
# GULP energy per Si atom -12393.134757 kJ/mol
# Density = 1.645081 g / cm^3
# Si number density = 16.488337 Si / 1000 Ang^3
#
#
#
# Elastic Constant Matrix: (Units=GPa)
#
#
# Indices 1 2 3 4 5 6 
#
# 1 103.5941 26.2896 41.3782 0.0000 0.0000 0.0000
# 2 26.2896 56.1344 46.7111 0.0000 0.0000 0.0000
# 3 41.3782 46.7111 109.1316 0.0000 0.0000 0.0000
# 4 0.0000 0.0000 0.0000 34.3731 0.0000 0.0000
# 5 0.0000 0.0000 0.0000 0.0000 23.2268 0.0000
# 6 0.0000 0.0000 0.0000 0.0000 0.0000 -0.3095
#
#
#
# Elastic Compliance Matrix: (Units=1/GPa)
#
#
# Indices 1 2 3 4 5 6 
#
# 1 0.011646 -0.002764 -0.003232 0.000000 0.000000 0.000000
# 2 -0.002764 0.028326 -0.011076 0.000000 0.000000 0.000000
# 3 -0.003232 -0.011076 0.015130 0.000000 0.000000 0.000000
# 4 0.000000 0.000000 0.000000 0.029093 0.000000 0.000000
# 5 0.000000 0.000000 0.000000 0.000000 0.043054 0.000000
# 6 0.000000 0.000000 0.000000 0.000000 0.000000 -3.231033
#
#
# Mechanical properties :
#
#
# Convention : Reuss Voigt Hill
#
# Bulk Modulus (GPa) = 47.71985 55.29088 51.50536
# Shear Modulus (GPa) = -1.63257 21.75682 10.06213
#
# Velocity S-wave (km/s) = -0.99614 3.63647 2.47302
# Velocity P-wave (km/s) = 5.26131 7.15807 6.28170
#
# Compressibility (1/GPa) = 0.02095564
#
# Stress axis : x y z
#
# Youngs Moduli (GPa) = 85.86887 35.30364 66.09546
#
# Poissons Ratio (x) = 0.09759 0.21364
# Poissons Ratio (y) = 0.23737 0.73207
# Poissons Ratio (z) = 0.27756 0.39102
#
# Static dielectric constant tensor:
#      x y z
#    x 2.967210 0.000000 0.000000 
#    y 0.000000 2.823650 0.000000 
#    z 0.000000 0.000000 3.149110 
# 
# 
# High freq. dielectric constant tensor:
#      x y z
#    x 1.625080 0.000000 0.000000 
#    y 0.000000 1.599550 0.000000 
#    z 0.000000 0.000000 1.633280 
# 
# From -- ./inp_files/18099.got.cif
#   From: 2010.03.12/outbox.cif.g09.slc.cpg/sg46_10_cif.got.tgz:18099.got - 2010.04.14 02:56:35.
