data_PCOD8192518
_publ_section_title
;
Structure prediction by ZEFSAII (Michael W. Deem and Ramdas Pophale) SiO2 
 PCOD8192518
Probable space group: I M A 2
;
_chemical_formula_sum "Si O2"
_cell_formula_units_Z 60
_cell_length_a 25.973265
_cell_length_b 10.998335
_cell_length_c 9.358289
_cell_angle_alpha 90.000000
_cell_angle_beta 90.000000
_cell_angle_gamma 90.000000
_cell_volume 2673.313818
_symmetry_space_group_name_H-M "I M A 2"
_symmetry_group_IT_number 46
_symmetry_cell_setting 'orthorhombic'
loop_
_space_group_symop_operation_xyz
x,y,z
-x,-y,z
1/2-x,y,z
1/2+x,-y,z
1/2+x,1/2+y,1/2+z
1/2-x,1/2-y,1/2+z
-x,1/2+y,1/2+z
x,1/2-y,1/2+z
loop_
_atom_site_type_symbol
_atom_site_label
_atom_site_fract_x
_atom_site_fract_y
_atom_site_fract_z
Si Si1 0.808975 0.191072 0.621400
Si Si2 0.486804 0.230476 0.198559
Si Si3 0.809925 0.036539 0.103528
Si Si4 0.189930 0.469258 0.920321
Si Si5 0.471700 0.619831 0.439777
Si Si6 0.132110 0.537203 0.342544
Si Si7 0.000000 0.000000 0.405977
Si Si8 0.592833 0.894005 0.581858
O O1 0.750000 0.205611 0.661728
O O2 0.831548 0.325081 0.595155
O O3 0.817379 0.104711 0.483858
O O4 0.833318 0.134455 0.761961
O O5 0.501749 0.348244 0.289299
O O6 0.494032 0.115665 0.301937
O O7 0.431445 0.261039 0.121273
O O8 0.524015 0.221757 0.062351
O O9 0.750000 0.031626 0.078500
O O10 0.823808 0.972960 0.253086
O O11 0.835847 0.968270 0.968241
O O12 0.250000 0.425996 0.946745
O O13 0.146387 0.381503 0.991194
O O14 0.500000 0.500000 0.499541
O O15 0.411728 0.609643 0.423588
O O16 0.107786 0.440932 0.237122
O O17 0.051530 0.013527 0.504958
#
# Coordination Sequence:
#
# PCOD8192518 Si02
#       8
#     8   8   8   8   8   8   4   8
#     4   9  18  34  54  87 134 183 231 285 349 413
#     4  12  26  46  71  96 138 185 229 291 350 421
#     4  10  20  35  57  93 136 180 237 296 352 425
#     4   9  20  37  63  95 136 186 239 299 363 429
#     4  12  26  44  65 100 136 174 230 280 343 421
#     4  11  23  35  61  90 134 181 230 275 344 419
#     4  12  26  44  74 102 136 188 242 290 368 424
#     4  11  24  46  67  99 145 185 233 298 358 427
#
# _framework density 22.444054999999999
#
# number of rings (size 3 to 8) (size 9 to 14) (size 15 to 20)
#    0.000    1.333    3.333    2.000    3.733    3.733 
#    0.000    0.000    0.000    0.800    0.000    1.867 
#    0.000    0.000    0.000    0.000    0.000    0.000 
#
# Total GULP energy -371660.767951 kJ/mol
# GULP energy per Si atom -12388.692265 kJ/mol
# Density = 2.239297 g / cm^3
# Si number density = 22.444055 Si / 1000 Ang^3
#
#
#
# Elastic Constant Matrix: (Units=GPa)
#
#
# Indices 1 2 3 4 5 6 
#
# 1 108.4226 27.4843 81.4798 0.0000 0.0000 0.0000
# 2 27.4843 52.4910 32.1741 0.0000 0.0000 0.0000
# 3 81.4798 32.1741 180.1101 0.0000 0.0000 0.0000
# 4 0.0000 0.0000 0.0000 33.0803 0.0000 0.0000
# 5 0.0000 0.0000 0.0000 0.0000 50.0877 0.0000
# 6 0.0000 0.0000 0.0000 0.0000 0.0000 24.5634
#
#
#
# Elastic Compliance Matrix: (Units=1/GPa)
#
#
# Indices 1 2 3 4 5 6 
#
# 1 0.014709 -0.004068 -0.005927 0.000000 0.000000 0.000000
# 2 -0.004068 0.022519 -0.002182 0.000000 0.000000 0.000000
# 3 -0.005927 -0.002182 0.008623 0.000000 0.000000 0.000000
# 4 0.000000 0.000000 0.000000 0.030229 0.000000 0.000000
# 5 0.000000 0.000000 0.000000 0.000000 0.019965 0.000000
# 6 0.000000 0.000000 0.000000 0.000000 0.000000 0.040711
#
#
# Mechanical properties :
#
#
# Convention : Reuss Voigt Hill
#
# Bulk Modulus (GPa) = 46.52213 69.25557 57.88885
# Shear Modulus (GPa) = 29.71285 34.87198 32.29241
#
# Velocity S-wave (km/s) = 3.64244 3.94601 3.79726
# Velocity P-wave (km/s) = 6.20184 7.18925 6.71372
#
# Compressibility (1/GPa) = 0.02149515
#
# Stress axis : x y z
#
# Youngs Moduli (GPa) = 67.98593 44.40763 115.96280
#
# Poissons Ratio (x) = 0.18067 0.68736
# Poissons Ratio (y) = 0.27660 0.25305
# Poissons Ratio (z) = 0.40298 0.09690
#
# Static dielectric constant tensor:
#      x y z
#    x 4.177000 0.000000 0.000000 
#    y 0.000000 3.705680 0.000000 
#    z 0.000000 0.000000 4.436410 
# 
# 
# High freq. dielectric constant tensor:
#      x y z
#    x 1.889540 0.000000 0.000000 
#    y 0.000000 1.842420 0.000000 
#    z 0.000000 0.000000 1.913840 
# 
# From -- ./inp_files/8219.got.cif
#   From: 2010.03.12/outbox.cif.g09.slc.cpg/sg46_5_cif.got.tgz:8219.got - 2010.04.14 02:56:35.
