data_PCOD8192374
_publ_section_title
;
Structure prediction by ZEFSAII (Michael W. Deem and Ramdas Pophale) SiO2 
 PCOD8192374
Probable space group: I M A 2
;
_chemical_formula_sum "Si O2"
_cell_formula_units_Z 56
_cell_length_a 9.105281
_cell_length_b 20.048693
_cell_length_c 14.778200
_cell_angle_alpha 90.000000
_cell_angle_beta 90.000000
_cell_angle_gamma 90.000000
_cell_volume 2697.745387
_symmetry_space_group_name_H-M "I M A 2"
_symmetry_group_IT_number 46
_symmetry_cell_setting 'orthorhombic'
loop_
_space_group_symop_operation_xyz
x,y,z
-x,-y,z
1/2-x,y,z
1/2+x,-y,z
1/2+x,1/2+y,1/2+z
1/2-x,1/2-y,1/2+z
-x,1/2+y,1/2+z
x,1/2-y,1/2+z
loop_
_atom_site_type_symbol
_atom_site_label
_atom_site_fract_x
_atom_site_fract_y
_atom_site_fract_z
Si Si1 0.419642 0.175131 0.987830
Si Si2 0.425985 0.073064 0.833727
Si Si3 0.577425 0.180213 0.707778
Si Si4 0.910471 0.058941 0.238635
Si Si5 0.080834 0.695111 0.996341
Si Si6 0.076838 0.314369 0.696792
Si Si7 0.592171 0.442734 0.942115
O O1 0.250000 0.189479 0.975453
O O2 0.464828 0.110383 0.928731
O O3 0.500129 0.241468 0.953111
O O4 0.462743 0.167377 0.092733
O O5 0.250000 0.066383 0.820292
O O6 0.495475 0.117098 0.752782
O O7 0.500000 0.000000 0.835089
O O8 0.750000 0.179491 0.733225
O O9 0.550412 0.179789 0.601031
O O10 0.501370 0.249225 0.738620
O O11 0.750000 0.071081 0.191851
O O12 0.881460 0.033781 0.339926
O O13 0.008626 0.124164 0.249676
O O14 0.000000 0.000000 0.186366
O O15 0.250000 0.708081 0.975513
O O16 0.017074 0.629884 0.945947
O O17 0.250000 0.307727 0.712080
O O18 0.500000 0.500000 0.993541
O O19 0.750000 0.437558 0.992690
#
# Coordination Sequence:
#
# PCOD8192374 Si02
#       7
#     8   8   8   8   8   8   8
#     4   9  21  39  58  83 112 145 189 235 284 343
#     4  11  24  42  61  86 117 154 198 243 296 352
#     4  10  21  38  59  85 115 149 191 236 286 343
#     4  10  20  34  52  79 113 148 187 227 276 334
#     4   9  19  36  58  84 113 147 188 232 282 338
#     4  10  20  37  59  84 115 149 189 237 287 342
#     4   9  19  34  51  77 110 144 181 222 268 325
#
# _framework density 20.758075999999999
#
# number of rings (size 3 to 8) (size 9 to 14) (size 15 to 20)
#    0.000    2.286    0.000    1.714    2.000    4.571 
#    0.000    2.857    0.000    0.000    0.000    0.000 
#    0.000    0.000    0.000    0.000    0.000    0.000 
#
# Total GULP energy -346960.173892 kJ/mol
# GULP energy per Si atom -12391.434782 kJ/mol
# Density = 2.071083 g / cm^3
# Si number density = 20.758076 Si / 1000 Ang^3
#
#
#
# Elastic Constant Matrix: (Units=GPa)
#
#
# Indices 1 2 3 4 5 6 
#
# 1 113.1534 82.4885 29.6026 0.0000 0.0000 0.0000
# 2 82.4885 194.9159 31.4219 0.0000 0.0000 0.0000
# 3 29.6026 31.4219 37.1326 0.0000 0.0000 0.0000
# 4 0.0000 0.0000 0.0000 22.8102 0.0000 0.0000
# 5 0.0000 0.0000 0.0000 0.0000 16.9356 0.0000
# 6 0.0000 0.0000 0.0000 0.0000 0.0000 45.3959
#
#
#
# Elastic Compliance Matrix: (Units=1/GPa)
#
#
# Indices 1 2 3 4 5 6 
#
# 1 0.014295 -0.004878 -0.007268 0.000000 0.000000 0.000000
# 2 -0.004878 0.007605 -0.002547 0.000000 0.000000 0.000000
# 3 -0.007268 -0.002547 0.034880 0.000000 0.000000 0.000000
# 4 0.000000 0.000000 0.000000 0.043840 0.000000 0.000000
# 5 0.000000 0.000000 0.000000 0.000000 0.059047 0.000000
# 6 0.000000 0.000000 0.000000 0.000000 0.000000 0.022028
#
#
# Mechanical properties :
#
#
# Convention : Reuss Voigt Hill
#
# Bulk Modulus (GPa) = 36.50433 70.24755 53.37594
# Shear Modulus (GPa) = 22.70512 30.47427 26.58970
#
# Velocity S-wave (km/s) = 3.31085 3.83569 3.58289
# Velocity P-wave (km/s) = 5.67797 7.31651 6.54869
#
# Compressibility (1/GPa) = 0.02739401
#
# Stress axis : x y z
#
# Youngs Moduli (GPa) = 69.95394 131.48619 28.66945
#
# Poissons Ratio (x) = 0.64139 0.20838
# Poissons Ratio (y) = 0.34123 0.07302
# Poissons Ratio (z) = 0.50846 0.33489
#
# Static dielectric constant tensor:
#      x y z
#    x 4.070310 0.000000 0.000000 
#    y 0.000000 3.865580 0.000000 
#    z 0.000000 0.000000 3.567500 
# 
# 
# High freq. dielectric constant tensor:
#      x y z
#    x 1.820210 0.000000 0.000000 
#    y 0.000000 1.822980 0.000000 
#    z 0.000000 0.000000 1.788070 
# 
# From -- ./inp_files/14165.got.cif
#   From: 2010.03.12/outbox.cif.g09.slc.cpg/sg46_8_cif.got.tgz:14165.got - 2010.04.14 02:56:35.
