data_PCOD8192746
_publ_section_title
;
Structure prediction by ZEFSAII (Michael W. Deem and Ramdas Pophale) SiO2 
 PCOD8192746
Probable space group: I M A 2
;
_chemical_formula_sum "Si O2"
_cell_formula_units_Z 44
_cell_length_a 16.461244
_cell_length_b 24.327788
_cell_length_c 4.899329
_cell_angle_alpha 90.000000
_cell_angle_beta 90.000000
_cell_angle_gamma 90.000000
_cell_volume 1962.012993
_symmetry_space_group_name_H-M "I M A 2"
_symmetry_group_IT_number 46
_symmetry_cell_setting 'orthorhombic'
loop_
_space_group_symop_operation_xyz
x,y,z
-x,-y,z
1/2-x,y,z
1/2+x,-y,z
1/2+x,1/2+y,1/2+z
1/2-x,1/2-y,1/2+z
-x,1/2+y,1/2+z
x,1/2-y,1/2+z
loop_
_atom_site_type_symbol
_atom_site_label
_atom_site_fract_x
_atom_site_fract_y
_atom_site_fract_z
Si Si1 0.081287 0.428093 0.824040
Si Si2 0.902997 0.095226 0.114177
Si Si3 0.750000 0.715214 0.507168
Si Si4 0.342080 0.535162 0.084651
Si Si5 0.661057 0.618337 0.310479
Si Si6 0.843856 0.287136 0.496671
O O1 0.104426 0.484946 0.970292
O O2 0.132500 0.422682 0.547604
O O3 0.988308 0.422755 0.743513
O O4 0.101755 0.381033 0.049191
O O5 0.886739 0.058369 0.850305
O O6 0.900253 0.159696 0.041591
O O7 0.837962 0.082199 0.351352
O O8 0.750000 0.729208 0.827520
O O9 0.669028 0.679987 0.434927
O O10 0.250000 0.517720 0.156526
O O11 0.750000 0.597331 0.212436
O O12 0.750000 0.305912 0.519767
O O13 0.864042 0.237928 0.703216
#
# Coordination Sequence:
#
# PCOD8192746 Si02
#       6
#     8   8   4   8   8   8
#     4  12  24  43  64 100 136 184 218 289 356 416
#     4  12  26  44  67 103 142 175 228 291 352 409
#     4  10  20  38  64  94 128 172 240 302 336 386
#     4  12  25  43  70  98 136 182 234 278 338 425
#     4  10  22  39  66  89 130 175 238 278 337 417
#     4  10  21  41  69  96 130 175 222 274 337 408
#
# _framework density 22.425948999999999
#
# number of rings (size 3 to 8) (size 9 to 14) (size 15 to 20)
#    0.545    0.364    0.000    8.182    0.000    2.909 
#    0.000    5.455    0.000    0.000    0.000    0.000 
#    0.000    0.000    0.000    0.000    0.000    0.000 
#
# Total GULP energy -272763.180657 kJ/mol
# GULP energy per Si atom -12398.326394 kJ/mol
# Density = 2.237491 g / cm^3
# Si number density = 22.425949 Si / 1000 Ang^3
#
#
#
# Elastic Constant Matrix: (Units=GPa)
#
#
# Indices 1 2 3 4 5 6 
#
# 1 112.0252 57.5735 46.5965 0.0000 0.0000 0.0000
# 2 57.5735 94.0343 15.0703 0.0000 0.0000 0.0000
# 3 46.5965 15.0703 124.7964 0.0000 -0.0001 0.0000
# 4 0.0000 0.0000 0.0000 43.6415 0.0000 0.0000
# 5 0.0000 0.0000 -0.0001 0.0000 26.7081 0.0000
# 6 0.0000 0.0000 0.0000 0.0000 0.0000 -10.8557
#
#
#
# Elastic Compliance Matrix: (Units=1/GPa)
#
#
# Indices 1 2 3 4 5 6 
#
# 1 0.015299 -0.008618 -0.004672 0.000000 0.000000 0.000000
# 2 -0.008618 0.015699 0.001322 0.000000 0.000000 0.000000
# 3 -0.004672 0.001322 0.009598 0.000000 0.000000 0.000000
# 4 0.000000 0.000000 0.000000 0.022914 0.000000 0.000000
# 5 0.000000 0.000000 0.000000 0.000000 0.037442 0.000000
# 6 0.000000 0.000000 0.000000 0.000000 0.000000 -0.092117
#
#
# Mechanical properties :
#
#
# Convention : Reuss Voigt Hill
#
# Bulk Modulus (GPa) = 60.02320 63.25961 61.64141
# Shear Modulus (GPa) = 130.47047 26.00649 78.23848
#
# Velocity S-wave (km/s) = 7.63575 3.40907 5.91297
# Velocity P-wave (km/s) = 10.22559 6.61552 8.61185
#
# Compressibility (1/GPa) = 0.01666023
#
# Stress axis : x y z
#
# Youngs Moduli (GPa) = 65.36433 63.69780 104.19197
#
# Poissons Ratio (x) = 0.54896 0.48674
# Poissons Ratio (y) = 0.56332 -0.13775
# Poissons Ratio (z) = 0.30535 -0.08421
#
# Static dielectric constant tensor:
#      x y z
#    x 3.895630 0.000000 0.000000 
#    y 0.000000 3.922370 0.000000 
#    z 0.000000 0.000000 4.321110 
# 
# 
# High freq. dielectric constant tensor:
#      x y z
#    x 1.865660 0.000000 0.000000 
#    y 0.000000 1.882060 0.000000 
#    z 0.000000 0.000000 1.909070 
# 
# From -- ./inp_files/1676.got.cif
#   From: 2010.03.12/outbox.cif.g09.slc.cpg/sg46_1_cif.got.tgz:1676.got - 2010.04.14 02:56:35.
