data_PCOD8192245
_publ_section_title
;
Structure prediction by ZEFSAII (Michael W. Deem and Ramdas Pophale) SiO2 
 PCOD8192245
Probable space group: I M A 2
;
_chemical_formula_sum "Si O2"
_cell_formula_units_Z 52
_cell_length_a 14.147772
_cell_length_b 19.504902
_cell_length_c 8.836622
_cell_angle_alpha 90.000000
_cell_angle_beta 90.000000
_cell_angle_gamma 90.000000
_cell_volume 2438.473850
_symmetry_space_group_name_H-M "I M A 2"
_symmetry_group_IT_number 46
_symmetry_cell_setting 'orthorhombic'
loop_
_space_group_symop_operation_xyz
x,y,z
-x,-y,z
1/2-x,y,z
1/2+x,-y,z
1/2+x,1/2+y,1/2+z
1/2-x,1/2-y,1/2+z
-x,1/2+y,1/2+z
x,1/2-y,1/2+z
loop_
_atom_site_type_symbol
_atom_site_label
_atom_site_fract_x
_atom_site_fract_y
_atom_site_fract_z
Si Si1 0.854816 0.995848 0.657160
Si Si2 0.398435 0.967755 0.981957
Si Si3 0.516286 0.161267 0.115032
Si Si4 0.639287 0.663286 0.144193
Si Si5 0.000000 0.500000 0.926839
Si Si6 0.855275 0.574430 0.708791
Si Si7 0.961746 0.763308 0.381132
O O1 0.750000 0.997425 0.587479
O O2 0.852773 0.036384 0.816274
O O3 0.889087 0.916365 0.674628
O O4 0.923549 0.035808 0.539669
O O5 0.500000 0.000000 0.959543
O O6 0.407663 0.895456 0.067882
O O7 0.334564 0.013805 0.090829
O O8 0.535299 0.191224 0.282357
O O9 0.404506 0.137190 0.118912
O O10 0.527063 0.220819 0.993297
O O11 0.750000 0.672494 0.156919
O O12 0.594598 0.711641 0.271810
O O13 0.607354 0.685810 0.974883
O O14 0.062409 0.447376 0.828068
O O15 0.750000 0.593467 0.775967
#
# Coordination Sequence:
#
# PCOD8192245 Si02
#       7
#     8   8   8   8   4   8   8
#     4  11  23  37  59  90 123 162 205 257 317 369
#     4  10  19  38  60  83 118 159 201 254 301 357
#     4  10  21  39  57  85 122 159 201 248 300 361
#     4  10  20  33  51  82 122 160 200 242 290 366
#     4  12  22  36  56  86 132 156 194 252 314 366
#     4  11  22  38  62  91 124 163 201 248 312 372
#     4  10  21  33  55  82 119 164 205 235 296 366
#
# _framework density 21.324814
#
# number of rings (size 3 to 8) (size 9 to 14) (size 15 to 20)
#    0.000    1.538    3.077    4.154    0.000    6.154 
#    0.000    0.000    0.000    0.000    0.000    4.308 
#    0.000    0.000    0.000    0.000    0.000    0.000 
#
# Total GULP energy -322127.964228 kJ/mol
# GULP energy per Si atom -12389.537086 kJ/mol
# Density = 2.127628 g / cm^3
# Si number density = 21.324814 Si / 1000 Ang^3
#
#
#
# Elastic Constant Matrix: (Units=GPa)
#
#
# Indices 1 2 3 4 5 6 
#
# 1 78.1560 16.8253 22.2122 0.0000 0.0000 0.0000
# 2 16.8253 69.9457 29.2836 0.0000 0.0000 0.0000
# 3 22.2122 29.2836 130.9494 0.0000 0.0000 0.0000
# 4 0.0000 0.0000 0.0000 38.0725 0.0000 0.0000
# 5 0.0000 0.0000 0.0000 0.0000 14.1660 0.0000
# 6 0.0000 0.0000 0.0000 0.0000 0.0000 17.1871
#
#
#
# Elastic Compliance Matrix: (Units=1/GPa)
#
#
# Indices 1 2 3 4 5 6 
#
# 1 0.013856 -0.002592 -0.001771 0.000000 0.000000 0.000000
# 2 -0.002592 0.016258 -0.003196 0.000000 0.000000 0.000000
# 3 -0.001771 -0.003196 0.008652 0.000000 0.000000 0.000000
# 4 0.000000 0.000000 0.000000 0.026266 0.000000 0.000000
# 5 0.000000 0.000000 0.000000 0.000000 0.070591 0.000000
# 6 0.000000 0.000000 0.000000 0.000000 0.000000 0.058183
#
#
# Mechanical properties :
#
#
# Convention : Reuss Voigt Hill
#
# Bulk Modulus (GPa) = 42.28537 46.18815 44.23676
# Shear Modulus (GPa) = 23.06204 27.93380 25.49792
#
# Velocity S-wave (km/s) = 3.29213 3.62321 3.46163
# Velocity P-wave (km/s) = 5.85859 6.26178 6.06354
#
# Compressibility (1/GPa) = 0.02364884
#
# Stress axis : x y z
#
# Youngs Moduli (GPa) = 72.17025 61.50685 115.58500
#
# Poissons Ratio (x) = 0.15941 0.20467
# Poissons Ratio (y) = 0.18704 0.36943
# Poissons Ratio (z) = 0.12780 0.19659
#
# Static dielectric constant tensor:
#      x y z
#    x 3.575700 0.000000 0.000000 
#    y 0.000000 3.956360 0.000000 
#    z 0.000000 0.000000 4.283550 
# 
# 
# High freq. dielectric constant tensor:
#      x y z
#    x 1.800460 0.000000 0.000000 
#    y 0.000000 1.822130 0.000000 
#    z 0.000000 0.000000 1.860130 
# 
# From -- ./inp_files/5884.got.cif
#   From: 2010.03.12/outbox.cif.g09.slc.cpg/sg46_3_cif.got.tgz:5884.got - 2010.04.14 02:56:35.
