data_PCOD8192073
_publ_section_title
;
Structure prediction by ZEFSAII (Michael W. Deem and Ramdas Pophale) SiO2 
 PCOD8192073
Probable space group: I M A 2
;
_chemical_formula_sum "Si O2"
_cell_formula_units_Z 64
_cell_length_a 16.263187
_cell_length_b 9.129909
_cell_length_c 22.043517
_cell_angle_alpha 90.000000
_cell_angle_beta 90.000000
_cell_angle_gamma 90.000000
_cell_volume 3273.052648
_symmetry_space_group_name_H-M "I M A 2"
_symmetry_group_IT_number 46
_symmetry_cell_setting 'orthorhombic'
loop_
_space_group_symop_operation_xyz
x,y,z
-x,-y,z
1/2-x,y,z
1/2+x,-y,z
1/2+x,1/2+y,1/2+z
1/2-x,1/2-y,1/2+z
-x,1/2+y,1/2+z
x,1/2-y,1/2+z
loop_
_atom_site_type_symbol
_atom_site_label
_atom_site_fract_x
_atom_site_fract_y
_atom_site_fract_z
Si Si1 0.652838 0.577418 0.125000
Si Si2 0.656838 0.605865 0.930842
Si Si3 0.419138 0.590284 0.023192
Si Si4 0.965454 0.848933 0.320835
Si Si5 0.417868 0.914226 0.985769
Si Si6 0.845660 0.620905 0.262311
Si Si7 0.842699 0.680032 0.537551
Si Si8 0.580121 0.096968 0.853024
O O1 0.750000 0.565570 0.117209
O O2 0.612418 0.437592 0.091683
O O3 0.627254 0.575063 0.194890
O O4 0.614729 0.721624 0.090424
O O5 0.750000 0.605487 0.903523
O O6 0.586400 0.609538 0.880499
O O7 0.648365 0.463057 0.973860
O O8 0.642939 0.751046 0.971153
O O9 0.500000 0.500000 0.007525
O O10 0.436867 0.761206 0.017363
O O11 0.902950 0.759573 0.278107
O O12 0.049085 0.758455 0.334427
O O13 0.000000 0.000000 0.291165
O O14 0.375633 0.894494 0.919251
O O15 0.500000 0.000000 0.972356
O O16 0.367420 0.010159 0.034234
O O17 0.750000 0.668557 0.265255
O O18 0.857814 0.479016 0.305389
O O19 0.750000 0.682950 0.557947
O O20 0.500000 0.000000 0.855218
#
# Coordination Sequence:
#
# PCOD8192073 Si02
#       8
#     8   8   8   8   8   8   8   8
#     4   9  20  40  59  76 104 146 193 233 275 336
#     4  10  19  34  56  82 114 152 189 221 273 346
#     4  11  21  34  56  83 114 150 188 231 279 336
#     4  11  21  36  57  83 115 146 182 237 293 342
#     4  11  20  32  51  80 114 141 171 219 281 335
#     4  10  21  40  62  79 105 152 201 238 281 341
#     4   9  18  32  52  78 107 137 173 221 269 318
#     4   9  19  34  55  81 112 146 184 228 277 338
#
# _framework density 19.553612999999999
#
# number of rings (size 3 to 8) (size 9 to 14) (size 15 to 20)
#    0.000    2.000    0.000    7.125    0.000    4.000 
#    0.000    5.625    0.000    3.000    0.000    0.000 
#    0.000    0.000    0.000    0.000    0.000    0.000 
#
# Total GULP energy -396564.797955 kJ/mol
# GULP energy per Si atom -12392.649936 kJ/mol
# Density = 1.950911 g / cm^3
# Si number density = 19.553613 Si / 1000 Ang^3
#
#
#
# Elastic Constant Matrix: (Units=GPa)
#
#
# Indices 1 2 3 4 5 6 
#
# 1 53.8477 35.3665 36.5848 0.0000 0.0000 0.0000
# 2 35.3665 145.5244 48.0048 0.0000 0.0000 0.0000
# 3 36.5848 48.0048 121.9023 0.0000 0.0000 0.0000
# 4 0.0000 0.0000 0.0000 2.3162 0.0000 0.0000
# 5 0.0000 0.0000 0.0000 0.0000 16.7018 0.0000
# 6 0.0000 0.0000 0.0000 0.0000 0.0000 29.1139
#
#
#
# Elastic Compliance Matrix: (Units=1/GPa)
#
#
# Indices 1 2 3 4 5 6 
#
# 1 0.025382 -0.004201 -0.005963 0.000000 0.000000 0.000000
# 2 -0.004201 0.008593 -0.002123 0.000000 0.000000 0.000000
# 3 -0.005963 -0.002123 0.010829 0.000000 0.000000 0.000000
# 4 0.000000 0.000000 0.000000 0.431735 0.000000 0.000000
# 5 0.000000 0.000000 0.000000 0.000000 0.059874 0.000000
# 6 0.000000 0.000000 0.000000 0.000000 0.000000 0.034348
#
#
# Mechanical properties :
#
#
# Convention : Reuss Voigt Hill
#
# Bulk Modulus (GPa) = 49.43425 62.35407 55.89416
# Shear Modulus (GPa) = 8.30458 23.04760 15.67609
#
# Velocity S-wave (km/s) = 2.06308 3.43693 2.83450
# Velocity P-wave (km/s) = 5.56878 6.90709 6.27373
#
# Compressibility (1/GPa) = 0.02022889
#
# Stress axis : x y z
#
# Youngs Moduli (GPa) = 39.39855 116.37241 92.34551
#
# Poissons Ratio (x) = 0.48893 0.55065
# Poissons Ratio (y) = 0.16553 0.19605
# Poissons Ratio (z) = 0.23493 0.24706
#
# Static dielectric constant tensor:
#      x y z
#    x 3.602710 0.000000 0.000000 
#    y 0.000000 6.419900 0.000000 
#    z 0.000000 0.000000 3.731270 
# 
# 
# High freq. dielectric constant tensor:
#      x y z
#    x 1.755900 0.000000 0.000000 
#    y 0.000000 1.756600 0.000000 
#    z 0.000000 0.000000 1.743430 
# 
# From -- ./inp_files/22260.got.cif
#   From: 2010.03.12/outbox.cif.g09.slc.cpg/sg46_12_cif.got.tgz:22260.got - 2010.04.14 02:56:35.
