data_PCOD8192434
_publ_section_title
;
Structure prediction by ZEFSAII (Michael W. Deem and Ramdas Pophale) SiO2 
 PCOD8192434
Probable space group: I M A 2
;
_chemical_formula_sum "Si O2"
_cell_formula_units_Z 48
_cell_length_a 9.913004
_cell_length_b 9.095577
_cell_length_c 27.512820
_cell_angle_alpha 90.000000
_cell_angle_beta 90.000000
_cell_angle_gamma 90.000000
_cell_volume 2480.679416
_symmetry_space_group_name_H-M "I M A 2"
_symmetry_group_IT_number 46
_symmetry_cell_setting 'orthorhombic'
loop_
_space_group_symop_operation_xyz
x,y,z
-x,-y,z
1/2-x,y,z
1/2+x,-y,z
1/2+x,1/2+y,1/2+z
1/2-x,1/2-y,1/2+z
-x,1/2+y,1/2+z
x,1/2-y,1/2+z
loop_
_atom_site_type_symbol
_atom_site_label
_atom_site_fract_x
_atom_site_fract_y
_atom_site_fract_z
Si Si1 0.401447 0.132153 0.029360
Si Si2 0.601743 0.739657 0.845381
Si Si3 0.101580 0.741856 0.213260
Si Si4 0.091346 0.355820 0.639199
Si Si5 0.500000 0.500000 0.776175
Si Si6 0.500000 0.500000 0.281649
Si Si7 0.591689 0.862845 0.446049
O O1 0.250000 0.070657 0.024200
O O2 0.421899 0.196846 0.083716
O O3 0.500000 0.000000 0.018273
O O4 0.432237 0.256917 0.991129
O O5 0.750000 0.755709 0.865155
O O6 0.593528 0.600973 0.809630
O O7 0.526271 0.709840 0.896701
O O8 0.573954 0.889994 0.817743
O O9 0.250000 0.741038 0.188349
O O10 0.092091 0.892882 0.243898
O O11 0.096603 0.598482 0.247774
O O12 0.978961 0.733839 0.174055
O O13 0.250000 0.379523 0.653570
O O14 0.000000 0.500000 0.647551
O O15 0.750000 0.907215 0.441493
O O16 0.500000 0.000000 0.458911
#
# Coordination Sequence:
#
# PCOD8192434 Si02
#       7
#     8   8   8   8   4   4   8
#     4   9  20  38  61  88 118 148 187 235 286 340
#     4  10  20  37  57  81 114 152 188 233 283 338
#     4  11  22  37  58  86 116 152 195 239 287 343
#     4  10  20  36  60  87 116 150 192 239 285 340
#     4  10  20  34  58  84 112 148 188 238 280 342
#     4  10  24  38  54  82 118 158 190 240 284 342
#     4  10  21  39  61  87 117 149 189 235 285 342
#
# _framework density 19.349537000000002
#
# number of rings (size 3 to 8) (size 9 to 14) (size 15 to 20)
#    0.000    2.000    1.667    1.500    1.167    4.667 
#    1.500    0.833    0.000    0.000    0.000    0.000 
#    0.000    0.000    0.000    0.000    0.000    0.000 
#
# Total GULP energy -297352.763546 kJ/mol
# GULP energy per Si atom -12389.698481 kJ/mol
# Density = 1.930550 g / cm^3
# Si number density = 19.349537 Si / 1000 Ang^3
#
#
#
# Elastic Constant Matrix: (Units=GPa)
#
#
# Indices 1 2 3 4 5 6 
#
# 1 126.1302 56.5047 63.5292 0.0000 0.0000 0.0000
# 2 56.5047 118.0293 61.9192 0.0000 0.0000 0.0000
# 3 63.5292 61.9192 135.2235 0.0000 0.0000 0.0000
# 4 0.0000 0.0000 0.0000 36.3548 0.0000 0.0000
# 5 0.0000 0.0000 0.0000 0.0000 29.1524 0.0000
# 6 0.0000 0.0000 0.0000 0.0000 0.0000 17.7527
#
#
#
# Elastic Compliance Matrix: (Units=1/GPa)
#
#
# Indices 1 2 3 4 5 6 
#
# 1 0.011376 -0.003478 -0.003752 0.000000 0.000000 0.000000
# 2 -0.003478 0.012214 -0.003959 0.000000 0.000000 0.000000
# 3 -0.003752 -0.003959 0.010971 0.000000 0.000000 0.000000
# 4 0.000000 0.000000 0.000000 0.027507 0.000000 0.000000
# 5 0.000000 0.000000 0.000000 0.000000 0.034303 0.000000
# 6 0.000000 0.000000 0.000000 0.000000 0.000000 0.056329
#
#
# Mechanical properties :
#
#
# Convention : Reuss Voigt Hill
#
# Bulk Modulus (GPa) = 82.07920 82.58769 82.33345
# Shear Modulus (GPa) = 27.91126 29.81398 28.86262
#
# Velocity S-wave (km/s) = 3.80212 3.92957 3.86637
# Velocity P-wave (km/s) = 7.86041 7.96011 7.91042
#
# Compressibility (1/GPa) = 0.01218335
#
# Stress axis : x y z
#
# Youngs Moduli (GPa) = 87.90286 81.87070 91.15059
#
# Poissons Ratio (x) = 0.28473 0.34201
# Poissons Ratio (y) = 0.30570 0.36088
# Poissons Ratio (z) = 0.32983 0.32414
#
# Static dielectric constant tensor:
#      x y z
#    x 3.433400 0.000000 0.000000 
#    y 0.000000 3.164240 0.000000 
#    z 0.000000 0.000000 3.776880 
# 
# 
# High freq. dielectric constant tensor:
#      x y z
#    x 1.748860 0.000000 0.000000 
#    y 0.000000 1.738590 0.000000 
#    z 0.000000 0.000000 1.768940 
# 
# From -- ./inp_files/25028.got.cif
#   From: 2010.03.12/outbox.cif.g09.slc.cpg/sg46_13_cif.got.tgz:25028.got - 2010.04.14 02:56:35.
