data_PCOD8192355
_publ_section_title
;
Structure prediction by ZEFSAII (Michael W. Deem and Ramdas Pophale) SiO2 
 PCOD8192355
Probable space group: I M A 2
;
_chemical_formula_sum "Si O2"
_cell_formula_units_Z 64
_cell_length_a 8.906003
_cell_length_b 32.444624
_cell_length_c 11.627178
_cell_angle_alpha 90.000000
_cell_angle_beta 90.000000
_cell_angle_gamma 90.000000
_cell_volume 3359.695392
_symmetry_space_group_name_H-M "I M A 2"
_symmetry_group_IT_number 46
_symmetry_cell_setting 'orthorhombic'
loop_
_space_group_symop_operation_xyz
x,y,z
-x,-y,z
1/2-x,y,z
1/2+x,-y,z
1/2+x,1/2+y,1/2+z
1/2-x,1/2-y,1/2+z
-x,1/2+y,1/2+z
x,1/2-y,1/2+z
loop_
_atom_site_type_symbol
_atom_site_label
_atom_site_fract_x
_atom_site_fract_y
_atom_site_fract_z
Si Si1 0.428336 0.456405 0.459020
Si Si2 0.923431 0.721026 0.956341
Si Si3 0.075921 0.458326 0.198120
Si Si4 0.426032 0.851194 0.321674
Si Si5 0.923321 0.815006 0.895015
Si Si6 0.415854 0.686244 0.162064
Si Si7 0.572383 0.377295 0.567313
Si Si8 0.913609 0.101172 0.535493
O O1 0.500000 0.500000 0.496488
O O2 0.250000 0.458962 0.473960
O O3 0.475520 0.446015 0.327073
O O4 0.493323 0.420478 0.538519
O O5 0.750000 0.710357 0.976178
O O6 0.947993 0.766761 0.911003
O O7 0.986917 0.689854 0.860572
O O8 0.005815 0.719696 0.079697
O O9 0.250000 0.466261 0.196690
O O10 0.000000 0.500000 0.156407
O O11 0.036653 0.423788 0.105472
O O12 0.250000 0.840912 0.326992
O O13 0.477412 0.864033 0.194741
O O14 0.464072 0.890628 0.403625
O O15 0.750000 0.828199 0.907162
O O16 0.979817 0.825454 0.768345
O O17 0.020331 0.840979 0.984036
O O18 0.250000 0.702122 0.200819
O O19 0.396829 0.645971 0.087403
O O20 0.750000 0.383294 0.556155
O O21 0.750000 0.078900 0.541094
#
# Coordination Sequence:
#
# PCOD8192355 Si02
#       8
#     8   8   8   8   8   8   8   8
#     4  10  21  38  60  87 120 155 191 241 296 354
#     4  10  22  38  57  81 113 150 188 237 294 346
#     4  10  20  33  54  84 114 144 180 225 280 338
#     4   9  21  40  59  81 112 152 197 240 285 344
#     4  11  24  38  55  83 117 150 189 239 292 347
#     4  10  21  37  58  81 107 143 186 231 281 337
#     4  11  23  39  60  87 116 154 200 246 294 352
#     4   9  18  35  56  78 107 140 178 227 277 328
#
# _framework density 19.049346
#
# number of rings (size 3 to 8) (size 9 to 14) (size 15 to 20)
#    0.000    2.000    0.000    3.750    1.750    9.000 
#    0.000    0.625    0.000    0.000    0.000    0.000 
#    0.000    0.000    0.000    0.000    0.000    0.000 
#
# Total GULP energy -396814.974465 kJ/mol
# GULP energy per Si atom -12400.467952 kJ/mol
# Density = 1.900599 g / cm^3
# Si number density = 19.049346 Si / 1000 Ang^3
#
#
#
# Elastic Constant Matrix: (Units=GPa)
#
#
# Indices 1 2 3 4 5 6 
#
# 1 79.6594 42.2136 32.6383 0.0002 -0.0002 -0.0001
# 2 42.2136 79.5789 41.4063 0.0030 0.0012 0.0006
# 3 32.6383 41.4063 120.3452 0.0065 0.0012 0.0015
# 4 0.0002 0.0030 0.0065 11.0930 0.0004 0.0010
# 5 -0.0002 0.0012 0.0012 0.0004 25.4265 0.0007
# 6 -0.0001 0.0006 0.0015 0.0010 0.0007 35.6602
#
#
#
# Elastic Compliance Matrix: (Units=1/GPa)
#
#
# Indices 1 2 3 4 5 6 
#
# 1 0.017821 -0.008452 -0.001925 0.000003 0.000001 0.000000
# 2 -0.008452 0.019314 -0.004353 -0.000002 -0.000001 0.000000
# 3 -0.001925 -0.004353 0.010329 -0.000005 0.000000 0.000000
# 4 0.000003 -0.000002 -0.000005 0.090147 -0.000001 -0.000002
# 5 0.000001 -0.000001 0.000000 -0.000001 0.039329 -0.000001
# 6 0.000000 0.000000 0.000000 -0.000002 -0.000001 0.028042
#
#
# Mechanical properties :
#
#
# Convention : Reuss Voigt Hill
#
# Bulk Modulus (GPa) = 55.54152 56.90000 56.22076
# Shear Modulus (GPa) = 20.79476 25.32430 23.05953
#
# Velocity S-wave (km/s) = 3.30756 3.65006 3.48302
# Velocity P-wave (km/s) = 6.61865 6.90641 6.76406
#
# Compressibility (1/GPa) = 0.01800455
#
# Stress axis : x y z
#
# Youngs Moduli (GPa) = 56.11360 51.77459 96.81122
#
# Poissons Ratio (x) = 0.43758 0.18639
# Poissons Ratio (y) = 0.47425 0.42145
# Poissons Ratio (z) = 0.10803 0.22539
#
# Static dielectric constant tensor:
#      x y z
#    x 3.724230 0.000000 0.000000 
#    y 0.000000 3.414520 0.000000 
#    z 0.000000 0.000000 3.652560 
# 
# 
# High freq. dielectric constant tensor:
#      x y z
#    x 1.752530 0.000000 0.000000 
#    y 0.000000 1.733500 0.000000 
#    z 0.000000 0.000000 1.741600 
# 
# From -- ./inp_files/9724.got.cif
#   From: 2010.03.12/outbox.cif.g09.slc.cpg/sg46_5_cif.got.tgz:9724.got - 2010.04.14 02:56:35.
