data_PCOD8192706
_publ_section_title
;
Structure prediction by ZEFSAII (Michael W. Deem and Ramdas Pophale) SiO2 
 PCOD8192706
Probable space group: I M A 2
;
_chemical_formula_sum "Si O2"
_cell_formula_units_Z 52
_cell_length_a 15.018095
_cell_length_b 9.436286
_cell_length_c 20.036953
_cell_angle_alpha 90.000000
_cell_angle_beta 90.000000
_cell_angle_gamma 90.000000
_cell_volume 2839.537588
_symmetry_space_group_name_H-M "I M A 2"
_symmetry_group_IT_number 46
_symmetry_cell_setting 'orthorhombic'
loop_
_space_group_symop_operation_xyz
x,y,z
-x,-y,z
1/2-x,y,z
1/2+x,-y,z
1/2+x,1/2+y,1/2+z
1/2-x,1/2-y,1/2+z
-x,1/2+y,1/2+z
x,1/2-y,1/2+z
loop_
_atom_site_type_symbol
_atom_site_label
_atom_site_fract_x
_atom_site_fract_y
_atom_site_fract_z
Si Si1 0.750000 0.013199 0.529980
Si Si2 0.902768 0.533943 0.934785
Si Si3 0.598027 0.041604 0.998156
Si Si4 0.750000 0.083086 0.672985
Si Si5 0.146042 0.758052 0.885073
Si Si6 0.750000 0.182654 0.071726
Si Si7 0.350338 0.179152 0.890817
Si Si8 0.097952 0.536018 0.276843
O O1 0.750000 0.979071 0.608740
O O2 0.750000 0.185591 0.518023
O O3 0.662150 0.945410 0.497810
O O4 0.865161 0.410889 0.886466
O O5 0.909738 0.678937 0.892700
O O6 0.000000 0.500000 0.963054
O O7 0.592153 0.173132 0.946844
O O8 0.500000 0.000000 0.025421
O O9 0.638455 0.908971 0.958767
O O10 0.661937 0.086530 0.059841
O O11 0.750000 0.247786 0.646157
O O12 0.661885 0.047958 0.713746
O O13 0.250000 0.804570 0.886546
O O14 0.102340 0.815909 0.816845
O O15 0.250000 0.231977 0.885223
O O16 0.374439 0.089410 0.826209
O O17 0.000000 0.500000 0.249533
#
# Coordination Sequence:
#
# PCOD8192706 Si02
#       8
#     4   8   8   4   8   4   8   8
#     4  10  22  37  54  79 110 158 195 223 267 347
#     4  12  21  34  55  88 122 151 180 230 295 352
#     4  11  18  32  56  85 113 147 181 237 281 335
#     4  10  22  39  61  77 107 159 200 236 267 331
#     4  11  17  35  57  82 118 153 187 223 287 358
#     4  10  20  38  55  80 111 153 199 229 264 346
#     4  11  20  32  56  89 124 139 173 240 308 333
#     4  11  21  37  60  88 107 144 197 242 280 331
#
# _framework density 18.312840000000001
#
# number of rings (size 3 to 8) (size 9 to 14) (size 15 to 20)
#    0.462    0.615    6.154    4.615    0.000    0.615 
#    0.000    0.000    0.000    6.462    0.000    0.000 
#    0.000    0.000    0.000    0.000    0.000    0.000 
#
# Total GULP energy -322354.964528 kJ/mol
# GULP energy per Si atom -12398.267866 kJ/mol
# Density = 1.827116 g / cm^3
# Si number density = 18.312840 Si / 1000 Ang^3
#
#
#
# Elastic Constant Matrix: (Units=GPa)
#
#
# Indices 1 2 3 4 5 6 
#
# 1 152.2319 28.2574 58.2381 0.0000 0.0000 0.0000
# 2 28.2574 109.4501 41.5579 0.0000 0.0000 0.0000
# 3 58.2381 41.5579 103.8205 0.0000 0.0000 0.0000
# 4 0.0000 0.0000 0.0000 20.8721 0.0000 0.0000
# 5 0.0000 0.0000 0.0000 0.0000 12.0290 0.0000
# 6 0.0000 0.0000 0.0000 0.0000 0.0000 28.5945
#
#
#
# Elastic Compliance Matrix: (Units=1/GPa)
#
#
# Indices 1 2 3 4 5 6 
#
# 1 0.008382 -0.000447 -0.004523 0.000000 0.000000 0.000000
# 2 -0.000447 0.010798 -0.004072 0.000000 0.000000 0.000000
# 3 -0.004523 -0.004072 0.013799 0.000000 0.000000 0.000000
# 4 0.000000 0.000000 0.000000 0.047911 0.000000 0.000000
# 5 0.000000 0.000000 0.000000 0.000000 0.083132 0.000000
# 6 0.000000 0.000000 0.000000 0.000000 0.000000 0.034972
#
#
# Mechanical properties :
#
#
# Convention : Reuss Voigt Hill
#
# Bulk Modulus (GPa) = 67.13143 69.06771 68.09957
# Shear Modulus (GPa) = 22.51818 28.12907 25.32363
#
# Velocity S-wave (km/s) = 3.51043 3.92347 3.72268
# Velocity P-wave (km/s) = 7.29167 7.63690 7.46628
#
# Compressibility (1/GPa) = 0.01489615
#
# Stress axis : x y z
#
# Youngs Moduli (GPa) = 119.29979 92.61048 72.46808
#
# Poissons Ratio (x) = 0.04136 0.32779
# Poissons Ratio (y) = 0.05328 0.29507
# Poissons Ratio (z) = 0.53962 0.37708
#
# Static dielectric constant tensor:
#      x y z
#    x 3.525630 0.000000 0.000000 
#    y 0.000000 3.419910 0.000000 
#    z 0.000000 0.000000 2.985150 
# 
# 
# High freq. dielectric constant tensor:
#      x y z
#    x 1.728850 0.000000 0.000000 
#    y 0.000000 1.708500 0.000000 
#    z 0.000000 0.000000 1.661700 
# 
# From -- ./inp_files/23597.got.cif
#   From: 2010.03.12/outbox.cif.g09.slc.cpg/sg46_12_cif.got.tgz:23597.got - 2010.04.14 02:56:35.
