data_PCOD8192132
_publ_section_title
;
Structure prediction by ZEFSAII (Michael W. Deem and Ramdas Pophale) SiO2 
 PCOD8192132
Probable space group: I M A 2
;
_chemical_formula_sum "Si O2"
_cell_formula_units_Z 40
_cell_length_a 8.541342
_cell_length_b 13.505396
_cell_length_c 18.641598
_cell_angle_alpha 90.000000
_cell_angle_beta 90.000000
_cell_angle_gamma 90.000000
_cell_volume 2150.386737
_symmetry_space_group_name_H-M "I M A 2"
_symmetry_group_IT_number 46
_symmetry_cell_setting 'orthorhombic'
loop_
_space_group_symop_operation_xyz
x,y,z
-x,-y,z
1/2-x,y,z
1/2+x,-y,z
1/2+x,1/2+y,1/2+z
1/2-x,1/2-y,1/2+z
-x,1/2+y,1/2+z
x,1/2-y,1/2+z
loop_
_atom_site_type_symbol
_atom_site_label
_atom_site_fract_x
_atom_site_fract_y
_atom_site_fract_z
Si Si1 0.565493 0.298408 0.491980
Si Si2 0.565081 0.894300 0.426067
Si Si3 0.565851 0.800172 0.279081
Si Si4 0.435848 0.395438 0.353366
Si Si5 0.435582 0.109324 0.132822
O O1 0.750000 0.310690 0.496537
O O2 0.519124 0.185970 0.475560
O O3 0.500848 0.373836 0.432495
O O4 0.489239 0.323310 0.567636
O O5 0.750000 0.887154 0.438262
O O6 0.519657 0.874580 0.343243
O O7 0.500000 0.000000 0.449750
O O8 0.750000 0.794365 0.270709
O O9 0.504147 0.689722 0.298489
O O10 0.492873 0.841227 0.205324
O O11 0.500000 0.500000 0.325041
O O12 0.250000 0.397022 0.358052
O O13 0.250000 0.104452 0.136168
O O14 0.500000 0.000000 0.123405
#
# Coordination Sequence:
#
# PCOD8192132 Si02
#       5
#     8   8   8   8   8
#     4  11  22  36  53  78 107 141 180 219 260 311
#     4  10  19  35  57  82 108 139 175 217 262 311
#     4   8  18  34  54  78 107 138 174 215 261 312
#     4  10  19  35  56  80 106 138 176 219 265 314
#     4  11  21  36  55  78 107 140 173 216 266 316
#
# _framework density 18.601305
#
# number of rings (size 3 to 8) (size 9 to 14) (size 15 to 20)
#    0.000    2.000    0.000    6.000    0.000    0.000 
#    0.000   12.000    0.000    2.400    0.000    0.000 
#    0.000    0.000    0.000    0.000    0.000    0.000 
#
# Total GULP energy -248022.612139 kJ/mol
# GULP energy per Si atom -12401.130607 kJ/mol
# Density = 1.855897 g / cm^3
# Si number density = 18.601305 Si / 1000 Ang^3
#
#
#
# Elastic Constant Matrix: (Units=GPa)
#
#
# Indices 1 2 3 4 5 6 
#
# 1 61.3509 6.2070 12.6863 0.0000 0.0000 0.0000
# 2 6.2070 101.2284 29.4839 0.0000 0.0000 0.0000
# 3 12.6863 29.4839 109.4519 0.0000 0.0000 0.0000
# 4 0.0000 0.0000 0.0000 30.2521 0.0000 0.0000
# 5 0.0000 0.0000 0.0000 0.0000 18.9289 0.0000
# 6 0.0000 0.0000 0.0000 0.0000 0.0000 32.3628
#
#
#
# Elastic Compliance Matrix: (Units=1/GPa)
#
#
# Indices 1 2 3 4 5 6 
#
# 1 0.016723 -0.000500 -0.001804 0.000000 0.000000 0.000000
# 2 -0.000500 0.010735 -0.002834 0.000000 0.000000 0.000000
# 3 -0.001804 -0.002834 0.010109 0.000000 0.000000 0.000000
# 4 0.000000 0.000000 0.000000 0.033056 0.000000 0.000000
# 5 0.000000 0.000000 0.000000 0.000000 0.052829 0.000000
# 6 0.000000 0.000000 0.000000 0.000000 0.000000 0.030900
#
#
# Mechanical properties :
#
#
# Convention : Reuss Voigt Hill
#
# Bulk Modulus (GPa) = 36.64100 40.97621 38.80860
# Shear Modulus (GPa) = 28.78139 31.21902 30.00021
#
# Velocity S-wave (km/s) = 3.93781 4.10118 4.02033
# Velocity P-wave (km/s) = 6.35736 6.67104 6.51609
#
# Compressibility (1/GPa) = 0.02729183
#
# Stress axis : x y z
#
# Youngs Moduli (GPa) = 59.79705 93.15618 98.92340
#
# Poissons Ratio (x) = 0.04659 0.17842
# Poissons Ratio (y) = 0.02990 0.28032
# Poissons Ratio (z) = 0.10785 0.26398
#
# Static dielectric constant tensor:
#      x y z
#    x 3.351970 0.000000 0.000000 
#    y 0.000000 3.449810 0.000000 
#    z 0.000000 0.000000 3.590740 
# 
# 
# High freq. dielectric constant tensor:
#      x y z
#    x 1.720500 0.000000 0.000000 
#    y 0.000000 1.732940 0.000000 
#    z 0.000000 0.000000 1.712100 
# 
# From -- ./inp_files/13655.got.cif
#   From: 2010.03.12/outbox.cif.g09.slc.cpg/sg46_7_cif.got.tgz:13655.got - 2010.04.14 02:56:35.
