data_PCOD8192914
_publ_section_title
;
Structure prediction by ZEFSAII (Michael W. Deem and Ramdas Pophale) SiO2 
 PCOD8192914
Probable space group: I M A 2
;
_chemical_formula_sum "Si O2"
_cell_formula_units_Z 48
_cell_length_a 10.037471
_cell_length_b 8.598804
_cell_length_c 28.284164
_cell_angle_alpha 90.000000
_cell_angle_beta 90.000000
_cell_angle_gamma 90.000000
_cell_volume 2441.213147
_symmetry_space_group_name_H-M "I M A 2"
_symmetry_group_IT_number 46
_symmetry_cell_setting 'orthorhombic'
loop_
_space_group_symop_operation_xyz
x,y,z
-x,-y,z
1/2-x,y,z
1/2+x,-y,z
1/2+x,1/2+y,1/2+z
1/2-x,1/2-y,1/2+z
-x,1/2+y,1/2+z
x,1/2-y,1/2+z
loop_
_atom_site_type_symbol
_atom_site_label
_atom_site_fract_x
_atom_site_fract_y
_atom_site_fract_z
Si Si1 0.504987 0.183681 0.303530
Si Si2 0.004702 0.815013 0.586709
Si Si3 0.250000 0.307856 0.141475
Si Si4 0.405021 0.851783 0.894905
Si Si5 0.750000 0.180674 0.749432
Si Si6 0.250000 0.311344 0.250977
Si Si7 0.250000 0.678820 0.143867
Si Si8 0.405260 0.644975 0.986458
O O1 0.529161 0.236830 0.357042
O O2 0.621597 0.248953 0.272359
O O3 0.373667 0.251353 0.280447
O O4 0.500000 0.000000 0.302912
O O5 0.873670 0.743085 0.610898
O O6 0.123069 0.749064 0.618300
O O7 0.031500 0.768478 0.532260
O O8 0.000000 0.000000 0.588561
O O9 0.250000 0.250028 0.196317
O O10 0.250000 0.493031 0.142331
O O11 0.250000 0.893477 0.881920
O O12 0.409399 0.769071 0.945099
O O13 0.500000 0.000000 0.896940
O O14 0.750000 0.241530 0.696413
O O15 0.750000 0.996069 0.752460
O O16 0.500000 0.500000 0.973003
O O17 0.250000 0.592147 0.995816
#
# Coordination Sequence:
#
# PCOD8192914 Si02
#       8
#     8   8   4   8   4   4   4   8
#     4  12  25  42  63  92 126 166 206 262 319 376
#     4   9  16  29  51  86 122 157 197 252 308 353
#     4   9  18  31  52  89 122 155 206 259 300 359
#     4  11  25  45  66  91 121 160 209 260 316 380
#     4  11  21  39  62  93 124 165 214 259 310 369
#     4  11  23  39  66  93 128 167 214 263 312 367
#     4   9  16  29  54  83 118 155 200 253 302 353
#     4  10  21  37  61  94 129 161 202 255 314 371
#
# _framework density 19.662355000000002
#
# number of rings (size 3 to 8) (size 9 to 14) (size 15 to 20)
#    0.000    1.667    1.667    3.500    4.667    3.333 
#    0.000    0.000    0.000    6.000    0.000    0.000 
#    0.000    0.000    0.000    0.000    0.000    0.000 
#
# Total GULP energy -297481.353992 kJ/mol
# GULP energy per Si atom -12395.056416 kJ/mol
# Density = 1.961760 g / cm^3
# Si number density = 19.662355 Si / 1000 Ang^3
#
#
#
# Elastic Constant Matrix: (Units=GPa)
#
#
# Indices 1 2 3 4 5 6 
#
# 1 182.1510 45.4647 77.8082 0.0000 0.0000 0.0000
# 2 45.4647 82.8345 42.4540 0.0000 0.0000 0.0000
# 3 77.8082 42.4540 156.5433 0.0000 0.0000 0.0000
# 4 0.0000 0.0000 0.0000 21.3058 0.0000 0.0000
# 5 0.0000 0.0000 0.0000 0.0000 42.6735 0.0000
# 6 0.0000 0.0000 0.0000 0.0000 0.0000 102.5375
#
#
#
# Elastic Compliance Matrix: (Units=1/GPa)
#
#
# Indices 1 2 3 4 5 6 
#
# 1 0.007399 -0.002527 -0.002992 0.000000 0.000000 0.000000
# 2 -0.002527 0.014884 -0.002780 0.000000 0.000000 0.000000
# 3 -0.002992 -0.002780 0.008629 0.000000 0.000000 0.000000
# 4 0.000000 0.000000 0.000000 0.046936 0.000000 0.000000
# 5 0.000000 0.000000 0.000000 0.000000 0.023434 0.000000
# 6 0.000000 0.000000 0.000000 0.000000 0.000000 0.009753
#
#
# Mechanical properties :
#
#
# Convention : Reuss Voigt Hill
#
# Bulk Modulus (GPa) = 69.86790 83.66473 76.76631
# Shear Modulus (GPa) = 37.76283 50.35681 44.05982
#
# Velocity S-wave (km/s) = 4.38718 5.06620 4.73887
# Velocity P-wave (km/s) = 7.82778 8.76726 8.31081
#
# Compressibility (1/GPa) = 0.01431272
#
# Stress axis : x y z
#
# Youngs Moduli (GPa) = 135.15474 67.18412 115.88523
#
# Poissons Ratio (x) = 0.16981 0.34674
# Poissons Ratio (y) = 0.34160 0.32220
# Poissons Ratio (z) = 0.40440 0.18680
#
# Static dielectric constant tensor:
#      x y z
#    x 3.969580 0.000000 0.000000 
#    y 0.000000 3.233070 0.000000 
#    z 0.000000 0.000000 3.974560 
# 
# 
# High freq. dielectric constant tensor:
#      x y z
#    x 1.789710 0.000000 0.000000 
#    y 0.000000 1.724970 0.000000 
#    z 0.000000 0.000000 1.791280 
# 
# From -- ./inp_files/25078.got.cif
#   From: 2010.03.12/outbox.cif.g09.slc.cpg/sg46_13_cif.got.tgz:25078.got - 2010.04.14 02:56:35.
