data_PCOD8192399
_publ_section_title
;
Structure prediction by ZEFSAII (Michael W. Deem and Ramdas Pophale) SiO2 
 PCOD8192399
Probable space group: I M A 2
;
_chemical_formula_sum "Si O2"
_cell_formula_units_Z 64
_cell_length_a 8.839646
_cell_length_b 24.943098
_cell_length_c 14.903203
_cell_angle_alpha 90.000000
_cell_angle_beta 90.000000
_cell_angle_gamma 90.000000
_cell_volume 3285.979755
_symmetry_space_group_name_H-M "I M A 2"
_symmetry_group_IT_number 46
_symmetry_cell_setting 'orthorhombic'
loop_
_space_group_symop_operation_xyz
x,y,z
-x,-y,z
1/2-x,y,z
1/2+x,-y,z
1/2+x,1/2+y,1/2+z
1/2-x,1/2-y,1/2+z
-x,1/2+y,1/2+z
x,1/2-y,1/2+z
loop_
_atom_site_type_symbol
_atom_site_label
_atom_site_fract_x
_atom_site_fract_y
_atom_site_fract_z
Si Si1 0.572333 0.345544 0.311040
Si Si2 0.423284 0.235717 0.281884
Si Si3 0.423604 0.636889 0.698096
Si Si4 0.927339 0.444048 0.192972
Si Si5 0.578104 0.715656 0.990281
Si Si6 0.927191 0.107290 0.506580
Si Si7 0.071650 0.057833 0.331242
Si Si8 0.422617 0.823502 0.010806
O O1 0.750000 0.336622 0.294492
O O2 0.483766 0.295680 0.268208
O O3 0.513171 0.398774 0.261555
O O4 0.532791 0.351198 0.416642
O O5 0.250000 0.232733 0.249343
O O6 0.527301 0.196582 0.224366
O O7 0.438940 0.216981 0.383769
O O8 0.250000 0.627465 0.726806
O O9 0.527265 0.592534 0.744628
O O10 0.444128 0.632974 0.590158
O O11 0.750000 0.450048 0.202937
O O12 0.971903 0.429023 0.091373
O O13 0.000000 0.500000 0.220694
O O14 0.750000 0.705234 0.019879
O O15 0.474166 0.668136 0.028573
O O16 0.525306 0.771882 0.031702
O O17 0.750000 0.104596 0.485672
O O18 0.018193 0.086347 0.421430
O O19 0.250000 0.052019 0.334928
O O20 0.000000 0.000000 0.321272
O O21 0.250000 0.803174 0.006578
#
# Coordination Sequence:
#
# PCOD8192399 Si02
#       8
#     8   8   8   8   8   8   8   8
#     4   9  19  39  61  83 114 153 195 242 291 350
#     4  10  20  34  54  85 118 151 191 237 288 347
#     4  11  22  37  59  87 118 157 198 242 293 350
#     4  10  23  40  60  85 113 150 197 244 293 348
#     4  10  20  34  54  84 121 157 193 235 287 345
#     4  11  22  37  58  86 119 157 196 239 291 353
#     4  12  25  42  62  86 117 156 199 245 297 356
#     4   9  20  37  59  84 117 157 197 240 291 349
#
# _framework density 19.476687999999999
#
# number of rings (size 3 to 8) (size 9 to 14) (size 15 to 20)
#    0.000    1.750    1.250    3.000    1.750    4.500 
#    0.000    0.625    0.000    1.500    0.000    0.000 
#    0.000    0.000    0.000    0.000    0.000    0.000 
#
# Total GULP energy -396917.166114 kJ/mol
# GULP energy per Si atom -12403.661441 kJ/mol
# Density = 1.943236 g / cm^3
# Si number density = 19.476688 Si / 1000 Ang^3
#
#
#
# Elastic Constant Matrix: (Units=GPa)
#
#
# Indices 1 2 3 4 5 6 
#
# 1 93.5337 45.6921 35.3283 -0.0001 0.0000 0.0000
# 2 45.6921 120.5796 39.6160 -0.0002 0.0002 0.0000
# 3 35.3283 39.6160 63.5785 -0.0006 0.0009 0.0001
# 4 -0.0001 -0.0002 -0.0006 26.2034 0.0001 0.0000
# 5 0.0000 0.0002 0.0009 0.0001 16.0710 -0.0001
# 6 0.0000 0.0000 0.0001 0.0000 -0.0001 37.8205
#
#
#
# Elastic Compliance Matrix: (Units=1/GPa)
#
#
# Indices 1 2 3 4 5 6 
#
# 1 0.014694 -0.003628 -0.005904 0.000000 0.000000 0.000000
# 2 -0.003628 0.011324 -0.005040 0.000000 0.000000 0.000000
# 3 -0.005904 -0.005040 0.022150 0.000000 -0.000001 0.000000
# 4 0.000000 0.000000 0.000000 0.038163 0.000000 0.000000
# 5 0.000000 0.000000 -0.000001 0.000000 0.062224 0.000000
# 6 0.000000 0.000000 0.000000 0.000000 0.000000 0.026441
#
#
# Mechanical properties :
#
#
# Convention : Reuss Voigt Hill
#
# Bulk Modulus (GPa) = 52.56797 57.66272 55.11535
# Shear Modulus (GPa) = 23.75518 26.48934 25.12226
#
# Velocity S-wave (km/s) = 3.49617 3.69189 3.59536
# Velocity P-wave (km/s) = 6.58380 6.91691 6.75241
#
# Compressibility (1/GPa) = 0.01902299
#
# Stress axis : x y z
#
# Youngs Moduli (GPa) = 68.05604 88.30792 45.14746
#
# Poissons Ratio (x) = 0.32041 0.26655
# Poissons Ratio (y) = 0.24693 0.22754
# Poissons Ratio (z) = 0.40180 0.44507
#
# Static dielectric constant tensor:
#      x y z
#    x 3.602880 0.000000 0.000000 
#    y 0.000000 3.579000 0.000000 
#    z 0.000000 0.000000 3.680550 
# 
# 
# High freq. dielectric constant tensor:
#      x y z
#    x 1.763380 0.000000 0.000000 
#    y 0.000000 1.749500 0.000000 
#    z 0.000000 0.000000 1.761160 
# 
# From -- ./inp_files/14479.got.cif
#   From: 2010.03.12/outbox.cif.g09.slc.cpg/sg46_8_cif.got.tgz:14479.got - 2010.04.14 02:56:35.
