data_PCOD8192380
_publ_section_title
;
Structure prediction by ZEFSAII (Michael W. Deem and Ramdas Pophale) SiO2 
 PCOD8192380
Probable space group: I M A 2
;
_chemical_formula_sum "Si O2"
_cell_formula_units_Z 64
_cell_length_a 8.813068
_cell_length_b 15.630167
_cell_length_c 22.832284
_cell_angle_alpha 90.000000
_cell_angle_beta 90.000000
_cell_angle_gamma 90.000000
_cell_volume 3145.140833
_symmetry_space_group_name_H-M "I M A 2"
_symmetry_group_IT_number 46
_symmetry_cell_setting 'orthorhombic'
loop_
_space_group_symop_operation_xyz
x,y,z
-x,-y,z
1/2-x,y,z
1/2+x,-y,z
1/2+x,1/2+y,1/2+z
1/2-x,1/2-y,1/2+z
-x,1/2+y,1/2+z
x,1/2-y,1/2+z
loop_
_atom_site_type_symbol
_atom_site_label
_atom_site_fract_x
_atom_site_fract_y
_atom_site_fract_z
Si Si1 0.071351 0.909342 0.872670
Si Si2 0.571541 0.410473 0.798310
Si Si3 0.078919 0.136535 0.753115
Si Si4 0.927516 0.585146 0.125003
Si Si5 0.569788 0.594140 0.911868
Si Si6 0.923417 0.243748 0.088782
Si Si7 0.075059 0.743502 0.456917
Si Si8 0.423012 0.179334 0.198403
O O1 0.250000 0.918241 0.879085
O O2 0.012118 0.831672 0.914063
O O3 0.033752 0.889347 0.804874
O O4 0.000000 0.000000 0.892189
O O5 0.500000 0.500000 0.814830
O O6 0.750000 0.409268 0.803865
O O7 0.496094 0.359013 0.852259
O O8 0.523326 0.388510 0.732912
O O9 0.250000 0.119803 0.775201
O O10 0.043232 0.082776 0.694855
O O11 0.055824 0.234251 0.734700
O O12 0.750000 0.592304 0.110913
O O13 0.000000 0.500000 0.097782
O O14 0.011747 0.661241 0.092642
O O15 0.500000 0.500000 0.927503
O O16 0.750000 0.584079 0.909122
O O17 0.521714 0.668148 0.957508
O O18 0.750000 0.244830 0.110074
O O19 0.018351 0.183140 0.132205
O O20 0.938835 0.207699 0.023199
O O21 0.250000 0.764834 0.441655
O O22 0.250000 0.148881 0.197053
#
# Coordination Sequence:
#
# PCOD8192380 Si02
#       8
#     8   8   8   8   8   8   8   8
#     4  11  23  38  58  83 112 146 187 235 284 336
#     4  11  21  35  56  83 115 147 182 226 280 339
#     4   9  19  34  54  81 112 143 176 218 269 330
#     4  10  20  34  53  80 113 145 179 221 272 333
#     4  11  22  37  60  89 121 155 191 234 287 347
#     4  10  21  38  58  78 105 144 189 234 281 333
#     4  10  23  42  60  81 112 152 198 244 287 338
#     4  10  20  36  57  83 113 144 183 228 278 338
#
# _framework density 20.348849999999999
#
# number of rings (size 3 to 8) (size 9 to 14) (size 15 to 20)
#    0.000    1.750    0.000    6.375    0.000    8.500 
#    0.000    0.625    0.000    1.500    0.000    0.000 
#    0.000    0.000    0.000    0.000    0.000    0.000 
#
# Total GULP energy -396652.407635 kJ/mol
# GULP energy per Si atom -12395.387739 kJ/mol
# Density = 2.030254 g / cm^3
# Si number density = 20.348850 Si / 1000 Ang^3
#
#
#
# Elastic Constant Matrix: (Units=GPa)
#
#
# Indices 1 2 3 4 5 6 
#
# 1 123.5791 35.0320 31.0430 0.0000 0.0000 0.0000
# 2 35.0320 54.4013 23.9982 0.0000 0.0000 0.0000
# 3 31.0430 23.9982 76.4854 0.0000 0.0000 0.0000
# 4 0.0000 0.0000 0.0000 16.2933 0.0000 0.0000
# 5 0.0000 0.0000 0.0000 0.0000 29.4414 0.0000
# 6 0.0000 0.0000 0.0000 0.0000 0.0000 32.6561
#
#
#
# Elastic Compliance Matrix: (Units=1/GPa)
#
#
# Indices 1 2 3 4 5 6 
#
# 1 0.010274 -0.005544 -0.002430 0.000000 0.000000 0.000000
# 2 -0.005544 0.024326 -0.005383 0.000000 0.000000 0.000000
# 3 -0.002430 -0.005383 0.015750 0.000000 0.000000 0.000000
# 4 0.000000 0.000000 0.000000 0.061375 0.000000 0.000000
# 5 0.000000 0.000000 0.000000 0.000000 0.033966 0.000000
# 6 0.000000 0.000000 0.000000 0.000000 0.000000 0.030622
#
#
# Mechanical properties :
#
#
# Convention : Reuss Voigt Hill
#
# Bulk Modulus (GPa) = 42.30793 48.29026 45.29909
# Shear Modulus (GPa) = 23.70728 26.63766 25.17247
#
# Velocity S-wave (km/s) = 3.41698 3.62200 3.52098
# Velocity P-wave (km/s) = 6.03358 6.42453 6.23212
#
# Compressibility (1/GPa) = 0.02363623
#
# Stress axis : x y z
#
# Youngs Moduli (GPa) = 97.33218 41.10765 63.49332
#
# Poissons Ratio (x) = 0.22790 0.15432
# Poissons Ratio (y) = 0.53960 0.34176
# Poissons Ratio (z) = 0.23656 0.22127
#
# Static dielectric constant tensor:
#      x y z
#    x 3.676560 0.000000 0.000000 
#    y 0.000000 3.609450 0.000000 
#    z 0.000000 0.000000 3.699150 
# 
# 
# High freq. dielectric constant tensor:
#      x y z
#    x 1.802240 0.000000 0.000000 
#    y 0.000000 1.781660 0.000000 
#    z 0.000000 0.000000 1.794530 
# 
# From -- ./inp_files/21339.got.cif
#   From: 2010.03.12/outbox.cif.g09.slc.cpg/sg46_11_cif.got.tgz:21339.got - 2010.04.14 02:56:35.
