data_PCOD8192571
_publ_section_title
;
Structure prediction by ZEFSAII (Michael W. Deem and Ramdas Pophale) SiO2 
 PCOD8192571
Probable space group: I M A 2
;
_chemical_formula_sum "Si O2"
_cell_formula_units_Z 48
_cell_length_a 24.145429
_cell_length_b 11.253598
_cell_length_c 8.849948
_cell_angle_alpha 90.000000
_cell_angle_beta 90.000000
_cell_angle_gamma 90.000000
_cell_volume 2404.733991
_symmetry_space_group_name_H-M "I M A 2"
_symmetry_group_IT_number 46
_symmetry_cell_setting 'orthorhombic'
loop_
_space_group_symop_operation_xyz
x,y,z
-x,-y,z
1/2-x,y,z
1/2+x,-y,z
1/2+x,1/2+y,1/2+z
1/2-x,1/2-y,1/2+z
-x,1/2+y,1/2+z
x,1/2-y,1/2+z
loop_
_atom_site_type_symbol
_atom_site_label
_atom_site_fract_x
_atom_site_fract_y
_atom_site_fract_z
Si Si1 0.536959 0.712112 0.744140
Si Si2 0.936830 0.002384 0.087987
Si Si3 0.862202 0.295728 0.561453
Si Si4 0.312512 0.606101 0.271430
Si Si5 0.581747 0.530370 0.248591
Si Si6 0.964379 0.154016 0.524645
O O1 0.580833 0.625958 0.655993
O O2 0.573180 0.829968 0.769516
O O3 0.484206 0.746257 0.643489
O O4 0.511492 0.649372 0.894937
O O5 0.896475 0.102943 0.155619
O O6 0.937246 0.025890 0.907841
O O7 0.000000 0.000000 0.150355
O O8 0.821419 0.360579 0.445565
O O9 0.824051 0.224076 0.675809
O O10 0.905068 0.207227 0.473053
O O11 0.250000 0.561950 0.245588
O O12 0.353540 0.499147 0.222459
O O13 0.545325 0.472747 0.112109
#
# Coordination Sequence:
#
# PCOD8192571 Si02
#       6
#     8   8   8   8   8   8
#     4  12  21  36  56  86 126 164 194 231 295 369
#     4  11  20  35  55  82 130 160 187 236 291 370
#     4  10  20  36  57  87 116 145 197 242 298 364
#     4  10  21  39  64  82 110 151 201 263 310 339
#     4  10  22  39  55  86 120 157 205 244 295 361
#     4  11  21  36  59  85 126 163 190 238 296 368
#
# _framework density 19.960626999999999
#
# number of rings (size 3 to 8) (size 9 to 14) (size 15 to 20)
#    0.000    1.333    3.333    5.000    0.000    1.333 
#    3.000    0.000    0.000    5.000    0.000    0.000 
#    0.000    0.000    0.000    0.000    0.000    0.000 
#
# Total GULP energy -297316.538266 kJ/mol
# GULP energy per Si atom -12388.189094 kJ/mol
# Density = 1.991520 g / cm^3
# Si number density = 19.960627 Si / 1000 Ang^3
#
#
#
# Elastic Constant Matrix: (Units=GPa)
#
#
# Indices 1 2 3 4 5 6 
#
# 1 129.2809 45.5482 33.1306 0.0000 0.0000 0.0000
# 2 45.5482 83.9861 41.1129 0.0000 0.0000 0.0000
# 3 33.1306 41.1129 81.5212 0.0000 0.0000 0.0000
# 4 0.0000 0.0000 0.0000 33.1893 0.0000 0.0000
# 5 0.0000 0.0000 0.0000 0.0000 22.2457 0.0000
# 6 0.0000 0.0000 0.0000 0.0000 0.0000 22.6748
#
#
#
# Elastic Compliance Matrix: (Units=1/GPa)
#
#
# Indices 1 2 3 4 5 6 
#
# 1 0.009740 -0.004441 -0.001719 0.000000 0.000000 0.000000
# 2 -0.004441 0.017835 -0.007190 0.000000 0.000000 0.000000
# 3 -0.001719 -0.007190 0.016591 0.000000 0.000000 0.000000
# 4 0.000000 0.000000 0.000000 0.030130 0.000000 0.000000
# 5 0.000000 0.000000 0.000000 0.000000 0.044952 0.000000
# 6 0.000000 0.000000 0.000000 0.000000 0.000000 0.044102
#
#
# Mechanical properties :
#
#
# Convention : Reuss Voigt Hill
#
# Bulk Modulus (GPa) = 57.24985 59.37462 58.31224
# Shear Modulus (GPa) = 25.52694 27.28841 26.40767
#
# Velocity S-wave (km/s) = 3.58000 3.70146 3.64124
# Velocity P-wave (km/s) = 6.76995 6.93384 6.85239
#
# Compressibility (1/GPa) = 0.01746729
#
# Stress axis : x y z
#
# Youngs Moduli (GPa) = 102.66704 56.07051 60.27331
#
# Poissons Ratio (x) = 0.24901 0.10359
# Poissons Ratio (y) = 0.45595 0.43334
# Poissons Ratio (z) = 0.17646 0.40312
#
# Static dielectric constant tensor:
#      x y z
#    x 3.351590 0.000000 0.000000 
#    y 0.000000 3.887070 0.000000 
#    z 0.000000 0.000000 3.605590 
# 
# 
# High freq. dielectric constant tensor:
#      x y z
#    x 1.737850 0.000000 0.000000 
#    y 0.000000 1.784730 0.000000 
#    z 0.000000 0.000000 1.778780 
# 
# From -- ./inp_files/7822.got.cif
#   From: 2010.03.12/outbox.cif.g09.slc.cpg/sg46_4_cif.got.tgz:7822.got - 2010.04.14 02:56:35.
