data_PCOD8192191
_publ_section_title
;
Structure prediction by ZEFSAII (Michael W. Deem and Ramdas Pophale) SiO2 
 PCOD8192191
Probable space group: I M A 2
;
_chemical_formula_sum "Si O2"
_cell_formula_units_Z 64
_cell_length_a 8.761386
_cell_length_b 20.712062
_cell_length_c 19.438717
_cell_angle_alpha 90.000000
_cell_angle_beta 90.000000
_cell_angle_gamma 90.000000
_cell_volume 3527.473412
_symmetry_space_group_name_H-M "I M A 2"
_symmetry_group_IT_number 46
_symmetry_cell_setting 'orthorhombic'
loop_
_space_group_symop_operation_xyz
x,y,z
-x,-y,z
1/2-x,y,z
1/2+x,-y,z
1/2+x,1/2+y,1/2+z
1/2-x,1/2-y,1/2+z
-x,1/2+y,1/2+z
x,1/2-y,1/2+z
loop_
_atom_site_type_symbol
_atom_site_label
_atom_site_fract_x
_atom_site_fract_y
_atom_site_fract_z
Si Si1 0.424503 0.255174 0.715850
Si Si2 0.573387 0.880852 0.576280
Si Si3 0.075381 0.269257 0.564630
Si Si4 0.429504 0.433931 0.932448
Si Si5 0.926489 0.806147 0.360188
Si Si6 0.571926 0.380304 0.218067
Si Si7 0.069623 0.433153 0.351939
Si Si8 0.928420 0.184656 0.932574
O O1 0.250000 0.228833 0.712201
O O2 0.463835 0.289769 0.643367
O O3 0.445184 0.305815 0.777562
O O4 0.533477 0.194717 0.729379
O O5 0.750000 0.891168 0.594377
O O6 0.542426 0.806691 0.556447
O O7 0.520698 0.923459 0.511550
O O8 0.475124 0.903035 0.641738
O O9 0.250000 0.285123 0.545921
O O10 0.968106 0.309327 0.513381
O O11 0.500000 0.500000 0.904134
O O12 0.250000 0.438420 0.925556
O O13 0.490283 0.374679 0.886212
O O14 0.750000 0.796454 0.382306
O O15 0.023138 0.749421 0.393723
O O16 0.750000 0.391354 0.229148
O O17 0.483094 0.422713 0.273612
O O18 0.250000 0.436930 0.354405
O O19 0.000000 0.500000 0.379871
O O20 0.015558 0.375838 0.401051
O O21 0.750000 0.173429 0.922976
#
# Coordination Sequence:
#
# PCOD8192191 Si02
#       8
#     8   8   8   8   8   8   8   8
#     4   9  18  33  57  82 108 146 189 229 277 329
#     4   9  18  34  53  75 108 153 195 228 270 330
#     4   9  17  33  55  81 109 143 186 230 276 327
#     4  10  21  36  54  78 110 148 191 232 279 331
#     4  10  19  36  59  81 107 147 189 232 279 333
#     4  11  21  33  52  82 115 147 184 227 275 330
#     4  12  25  42  60  80 111 149 187 231 279 336
#     4  12  23  35  56  87 114 144 184 230 281 335
#
# _framework density 18.143297
#
# number of rings (size 3 to 8) (size 9 to 14) (size 15 to 20)
#    0.000    1.750    2.500    4.125    0.000    3.500 
#    0.000    1.250    0.000    0.750    0.000    1.750 
#    0.000    0.000    0.000    0.000    0.000    0.000 
#
# Total GULP energy -396858.448524 kJ/mol
# GULP energy per Si atom -12401.826516 kJ/mol
# Density = 1.810200 g / cm^3
# Si number density = 18.143297 Si / 1000 Ang^3
#
#
#
# Elastic Constant Matrix: (Units=GPa)
#
#
# Indices 1 2 3 4 5 6 
#
# 1 104.5586 42.2216 40.1381 0.0000 0.0000 0.0000
# 2 42.2216 108.7479 57.1089 0.0000 0.0000 0.0000
# 3 40.1381 57.1089 106.4539 0.0000 0.0000 0.0000
# 4 0.0000 0.0000 0.0000 21.9173 0.0000 0.0000
# 5 0.0000 0.0000 0.0000 0.0000 19.2369 0.0000
# 6 0.0000 0.0000 0.0000 0.0000 0.0000 27.0585
#
#
#
# Elastic Compliance Matrix: (Units=1/GPa)
#
#
# Indices 1 2 3 4 5 6 
#
# 1 0.011913 -0.003155 -0.002799 0.000000 0.000000 0.000000
# 2 -0.003155 0.013638 -0.006127 0.000000 0.000000 0.000000
# 3 -0.002799 -0.006127 0.013736 0.000000 0.000000 0.000000
# 4 0.000000 0.000000 0.000000 0.045626 0.000000 0.000000
# 5 0.000000 0.000000 0.000000 0.000000 0.051984 0.000000
# 6 0.000000 0.000000 0.000000 0.000000 0.000000 0.036957
#
#
# Mechanical properties :
#
#
# Convention : Reuss Voigt Hill
#
# Bulk Modulus (GPa) = 66.11670 66.52194 66.31932
# Shear Modulus (GPa) = 24.62371 25.66197 25.14284
#
# Velocity S-wave (km/s) = 3.68799 3.76494 3.72666
# Velocity P-wave (km/s) = 7.39294 7.45949 7.42629
#
# Compressibility (1/GPa) = 0.01512477
#
# Stress axis : x y z
#
# Youngs Moduli (GPa) = 83.94488 73.32439 72.80233
#
# Poissons Ratio (x) = 0.23135 0.20377
# Poissons Ratio (y) = 0.26486 0.44604
# Poissons Ratio (z) = 0.23496 0.44923
#
# Static dielectric constant tensor:
#      x y z
#    x 3.257240 0.000000 0.000000 
#    y 0.000000 3.229980 0.000000 
#    z 0.000000 0.000000 3.588150 
# 
# 
# High freq. dielectric constant tensor:
#      x y z
#    x 1.699020 0.000000 0.000000 
#    y 0.000000 1.676300 0.000000 
#    z 0.000000 0.000000 1.710050 
# 
# From -- ./inp_files/21432.got.cif
#   From: 2010.03.12/outbox.cif.g09.slc.cpg/sg46_11_cif.got.tgz:21432.got - 2010.04.14 02:56:35.
