data_PCOD8192377
_publ_section_title
;
Structure prediction by ZEFSAII (Michael W. Deem and Ramdas Pophale) SiO2 
 PCOD8192377
Probable space group: I M A 2
;
_chemical_formula_sum "Si O2"
_cell_formula_units_Z 40
_cell_length_a 8.951636
_cell_length_b 25.673745
_cell_length_c 9.458613
_cell_angle_alpha 90.000000
_cell_angle_beta 90.000000
_cell_angle_gamma 90.000000
_cell_volume 2173.797546
_symmetry_space_group_name_H-M "I M A 2"
_symmetry_group_IT_number 46
_symmetry_cell_setting 'orthorhombic'
loop_
_space_group_symop_operation_xyz
x,y,z
-x,-y,z
1/2-x,y,z
1/2+x,-y,z
1/2+x,1/2+y,1/2+z
1/2-x,1/2-y,1/2+z
-x,1/2+y,1/2+z
x,1/2-y,1/2+z
loop_
_atom_site_type_symbol
_atom_site_label
_atom_site_fract_x
_atom_site_fract_y
_atom_site_fract_z
Si Si1 0.425149 0.444570 0.377940
Si Si2 0.421082 0.827300 0.375245
Si Si3 0.420513 0.137377 0.640954
Si Si4 0.922928 0.718112 0.379752
Si Si5 0.078110 0.863944 0.067394
O O1 0.500000 0.500000 0.361378
O O2 0.250000 0.451002 0.401712
O O3 0.461593 0.412144 0.236803
O O4 0.489976 0.414487 0.513405
O O5 0.250000 0.809740 0.394683
O O6 0.471257 0.862991 0.506413
O O7 0.524298 0.776879 0.365900
O O8 0.441182 0.861974 0.235765
O O9 0.250000 0.134225 0.588992
O O10 0.447647 0.190129 0.729525
O O11 0.750000 0.716576 0.424031
O O12 0.014239 0.689188 0.501954
O O13 0.250000 0.869131 0.022328
#
# Coordination Sequence:
#
# PCOD8192377 Si02
#       5
#     8   8   8   8   8
#     4  10  21  39  62  83 102 132 174 218 267 319
#     4  11  22  33  50  79 112 144 177 216 262 309
#     4   9  20  36  54  78 106 139 178 216 259 313
#     4  10  20  34  53  77 107 146 185 217 257 311
#     4  10  21  36  54  79 109 141 179 219 260 310
#
# _framework density 18.400977999999999
#
# number of rings (size 3 to 8) (size 9 to 14) (size 15 to 20)
#    0.000    2.000    0.000    4.800    0.000   11.200 
#    0.000    1.000    0.000    2.400    0.000    0.000 
#    0.000    0.000    0.000    0.000    0.000    0.000 
#
# Total GULP energy -248094.731156 kJ/mol
# GULP energy per Si atom -12404.736558 kJ/mol
# Density = 1.835910 g / cm^3
# Si number density = 18.400978 Si / 1000 Ang^3
#
#
#
# Elastic Constant Matrix: (Units=GPa)
#
#
# Indices 1 2 3 4 5 6 
#
# 1 119.4222 55.2951 67.8706 -0.0005 0.0001 0.0004
# 2 55.2951 118.6518 46.3343 0.0000 0.0007 0.0002
# 3 67.8706 46.3343 113.1917 0.0054 0.0005 0.0052
# 4 -0.0005 0.0000 0.0054 10.0355 -0.0009 0.0010
# 5 0.0001 0.0007 0.0005 -0.0009 33.9260 0.0012
# 6 0.0004 0.0002 0.0052 0.0010 0.0012 33.8188
#
#
#
# Elastic Compliance Matrix: (Units=1/GPa)
#
#
# Indices 1 2 3 4 5 6 
#
# 1 0.014058 -0.003880 -0.006841 0.000004 0.000000 0.000001
# 2 -0.003880 0.011102 -0.002218 0.000001 0.000000 0.000000
# 3 -0.006841 -0.002218 0.013845 -0.000008 0.000000 -0.000002
# 4 0.000004 0.000001 -0.000008 0.099647 0.000003 -0.000003
# 5 0.000000 0.000000 0.000000 0.000003 0.029476 -0.000001
# 6 0.000001 0.000000 -0.000002 -0.000003 -0.000001 0.029569
#
#
# Mechanical properties :
#
#
# Convention : Reuss Voigt Hill
#
# Bulk Modulus (GPa) = 76.18197 76.69617 76.43907
# Shear Modulus (GPa) = 21.93452 27.67377 24.80415
#
# Velocity S-wave (km/s) = 3.45632 3.88226 3.67547
# Velocity P-wave (km/s) = 7.57754 7.86555 7.72289
#
# Compressibility (1/GPa) = 0.01312647
#
# Stress axis : x y z
#
# Youngs Moduli (GPa) = 71.13309 90.07022 72.23046
#
# Poissons Ratio (x) = 0.34947 0.49414
# Poissons Ratio (y) = 0.27600 0.16022
# Poissons Ratio (z) = 0.48663 0.19980
#
# Static dielectric constant tensor:
#      x y z
#    x 3.523950 0.000000 0.000000 
#    y 0.000000 3.201820 0.000000 
#    z 0.000000 0.000000 3.389690 
# 
# 
# High freq. dielectric constant tensor:
#      x y z
#    x 1.730120 0.000000 0.000000 
#    y 0.000000 1.697470 0.000000 
#    z 0.000000 0.000000 1.714110 
# 
# From -- ./inp_files/3509.got.cif
#   From: 2010.03.12/outbox.cif.g09.slc.cpg/sg46_2_cif.got.tgz:3509.got - 2010.04.14 02:56:35.
