data_PCOD8192925
_publ_section_title
;
Structure prediction by ZEFSAII (Michael W. Deem and Ramdas Pophale) SiO2 
 PCOD8192925
Probable space group: I M A 2
;
_chemical_formula_sum "Si O2"
_cell_formula_units_Z 64
_cell_length_a 8.872624
_cell_length_b 29.543045
_cell_length_c 12.590648
_cell_angle_alpha 90.000000
_cell_angle_beta 90.000000
_cell_angle_gamma 90.000000
_cell_volume 3300.315173
_symmetry_space_group_name_H-M "I M A 2"
_symmetry_group_IT_number 46
_symmetry_cell_setting 'orthorhombic'
loop_
_space_group_symop_operation_xyz
x,y,z
-x,-y,z
1/2-x,y,z
1/2+x,-y,z
1/2+x,1/2+y,1/2+z
1/2-x,1/2-y,1/2+z
-x,1/2+y,1/2+z
x,1/2-y,1/2+z
loop_
_atom_site_type_symbol
_atom_site_label
_atom_site_fract_x
_atom_site_fract_y
_atom_site_fract_z
Si Si1 0.573000 0.047348 0.563500
Si Si2 0.415860 0.217521 0.641619
Si Si3 0.070697 0.873765 0.164294
Si Si4 0.572999 0.646121 0.447422
Si Si5 0.916719 0.796038 0.292929
Si Si6 0.575232 0.257461 0.457109
Si Si7 0.924486 0.618882 0.214284
Si Si8 0.427273 0.547393 0.823273
O O1 0.750000 0.041510 0.569474
O O2 0.523849 0.083232 0.651125
O O3 0.523845 0.061695 0.443324
O O4 0.500000 0.000000 0.594902
O O5 0.250000 0.216755 0.584693
O O6 0.399363 0.245365 0.749321
O O7 0.544285 0.244148 0.577985
O O8 0.471277 0.167594 0.669361
O O9 0.250000 0.869770 0.159331
O O10 0.017513 0.914981 0.239496
O O11 0.003180 0.828022 0.211473
O O12 0.007091 0.879893 0.045163
O O13 0.750000 0.650298 0.471693
O O14 0.509023 0.696226 0.429688
O O15 0.542475 0.617021 0.340699
O O16 0.750000 0.816112 0.317771
O O17 0.014639 0.787850 0.398067
O O18 0.750000 0.264831 0.434310
O O19 0.750000 0.608669 0.192310
O O20 0.500000 0.500000 0.789932
O O21 0.250000 0.541225 0.816707
#
# Coordination Sequence:
#
# PCOD8192925 Si02
#       8
#     8   8   8   8   8   8   8   8
#     4  10  21  40  65  92 120 151 187 236 297 357
#     4  10  21  38  57  80 114 156 203 243 287 347
#     4  11  23  39  59  90 123 154 198 250 300 348
#     4  11  22  40  60  82 118 162 205 243 292 355
#     4  11  22  38  58  81 115 161 204 241 289 351
#     4  12  24  36  54  81 117 156 199 253 300 342
#     4  10  22  40  61  86 116 154 200 248 291 348
#     4   9  21  41  64  90 121 150 186 238 295 356
#
# _framework density 19.392087
#
# number of rings (size 3 to 8) (size 9 to 14) (size 15 to 20)
#    0.000    1.500    2.500    2.625    1.750    3.500 
#    0.000    0.625    0.000    1.500    0.000    0.000 
#    0.000    0.000    0.000    0.000    0.000    0.000 
#
# Total GULP energy -396734.695619 kJ/mol
# GULP energy per Si atom -12397.959238 kJ/mol
# Density = 1.934795 g / cm^3
# Si number density = 19.392087 Si / 1000 Ang^3
#
#
#
# Elastic Constant Matrix: (Units=GPa)
#
#
# Indices 1 2 3 4 5 6 
#
# 1 97.9037 45.2506 47.8772 0.0004 -0.0001 0.0002
# 2 45.2506 110.0651 56.5108 0.0001 0.0001 0.0003
# 3 47.8772 56.5108 104.1487 0.0012 0.0004 0.0009
# 4 0.0004 0.0001 0.0012 33.9018 0.0003 0.0002
# 5 -0.0001 0.0001 0.0004 0.0003 32.7587 0.0002
# 6 0.0002 0.0003 0.0009 0.0002 0.0002 31.0718
#
#
#
# Elastic Compliance Matrix: (Units=1/GPa)
#
#
# Indices 1 2 3 4 5 6 
#
# 1 0.014042 -0.003408 -0.004606 0.000000 0.000000 0.000000
# 2 -0.003408 0.013421 -0.005716 0.000000 0.000000 0.000000
# 3 -0.004606 -0.005716 0.014820 0.000000 0.000000 0.000000
# 4 0.000000 0.000000 0.000000 0.029497 0.000000 0.000000
# 5 0.000000 0.000000 0.000000 0.000000 0.030526 0.000000
# 6 0.000000 0.000000 0.000000 0.000000 0.000000 0.032184
#
#
# Mechanical properties :
#
#
# Convention : Reuss Voigt Hill
#
# Bulk Modulus (GPa) = 67.45750 67.93276 67.69513
# Shear Modulus (GPa) = 29.95983 30.37840 30.16911
#
# Velocity S-wave (km/s) = 3.93485 3.96224 3.94857
# Velocity P-wave (km/s) = 7.45021 7.48597 7.46811
#
# Compressibility (1/GPa) = 0.01482415
#
# Stress axis : x y z
#
# Youngs Moduli (GPa) = 71.21671 74.50851 67.47565
#
# Poissons Ratio (x) = 0.25394 0.31077
# Poissons Ratio (y) = 0.24272 0.38566
# Poissons Ratio (z) = 0.32800 0.42586
#
# Static dielectric constant tensor:
#      x y z
#    x 3.544270 0.000000 0.000000 
#    y 0.000000 3.371840 0.000000 
#    z 0.000000 0.000000 3.676030 
# 
# 
# High freq. dielectric constant tensor:
#      x y z
#    x 1.760030 0.000000 0.000000 
#    y 0.000000 1.738260 0.000000 
#    z 0.000000 0.000000 1.762020 
# 
# From -- ./inp_files/9658.got.cif
#   From: 2010.03.12/outbox.cif.g09.slc.cpg/sg46_5_cif.got.tgz:9658.got - 2010.04.14 02:56:35.
