data_PCOD8192146
_publ_section_title
;
Structure prediction by ZEFSAII (Michael W. Deem and Ramdas Pophale) SiO2 
 PCOD8192146
Probable space group: I M A 2
;
_chemical_formula_sum "Si O2"
_cell_formula_units_Z 64
_cell_length_a 9.234365
_cell_length_b 28.100994
_cell_length_c 12.391189
_cell_angle_alpha 90.000000
_cell_angle_beta 90.000000
_cell_angle_gamma 90.000000
_cell_volume 3215.449551
_symmetry_space_group_name_H-M "I M A 2"
_symmetry_group_IT_number 46
_symmetry_cell_setting 'orthorhombic'
loop_
_space_group_symop_operation_xyz
x,y,z
-x,-y,z
1/2-x,y,z
1/2+x,-y,z
1/2+x,1/2+y,1/2+z
1/2-x,1/2-y,1/2+z
-x,1/2+y,1/2+z
x,1/2-y,1/2+z
loop_
_atom_site_type_symbol
_atom_site_label
_atom_site_fract_x
_atom_site_fract_y
_atom_site_fract_z
Si Si1 0.081982 0.907357 0.565490
Si Si2 0.082326 0.383986 0.664696
Si Si3 0.419947 0.209989 0.049813
Si Si4 0.078054 0.550510 0.832854
Si Si5 0.587707 0.329118 0.351070
Si Si6 0.584655 0.581735 0.269322
Si Si7 0.589210 0.200283 0.615243
Si Si8 0.909857 0.542406 0.491947
O O1 0.250000 0.913797 0.593450
O O2 0.040704 0.931213 0.452627
O O3 0.041577 0.851357 0.568559
O O4 0.992230 0.934884 0.658773
O O5 0.250000 0.390025 0.699482
O O6 0.043990 0.328378 0.644897
O O7 0.048369 0.407770 0.548000
O O8 0.981249 0.408407 0.753941
O O9 0.250000 0.208691 0.023713
O O10 0.466373 0.262490 0.083868
O O11 0.508165 0.200435 0.942102
O O12 0.250000 0.544616 0.816083
O O13 0.000000 0.500000 0.811719
O O14 0.750000 0.343393 0.388842
O O15 0.496500 0.374929 0.323256
O O16 0.596799 0.297523 0.244028
O O17 0.750000 0.595449 0.243414
O O18 0.575684 0.541857 0.362121
O O19 0.750000 0.213206 0.569420
O O20 0.750000 0.529282 0.527633
O O21 0.000000 0.500000 0.544123
#
# Coordination Sequence:
#
# PCOD8192146 Si02
#       8
#     8   8   8   8   8   8   8   8
#     4   9  21  41  61  84 119 158 201 249 299 362
#     4  10  22  41  59  82 119 156 198 250 301 359
#     4  11  22  37  59  88 121 155 198 252 306 361
#     4  11  24  42  64  89 120 162 210 259 311 369
#     4  10  20  36  58  81 113 154 192 237 292 354
#     4  10  19  35  58  84 114 147 188 240 297 348
#     4   9  20  38  58  85 117 155 202 248 297 357
#     4  10  21  36  54  81 115 147 182 235 289 346
#
# _framework density 19.903904000000001
#
# number of rings (size 3 to 8) (size 9 to 14) (size 15 to 20)
#    0.000    2.000    1.250    2.625    0.000    8.500 
#    0.000    6.250    0.000    0.000    0.000    0.000 
#    0.000    0.000    0.000    0.000    0.000    0.000 
#
# Total GULP energy -396663.900627 kJ/mol
# GULP energy per Si atom -12395.746895 kJ/mol
# Density = 1.985860 g / cm^3
# Si number density = 19.903904 Si / 1000 Ang^3
#
#
#
# Elastic Constant Matrix: (Units=GPa)
#
#
# Indices 1 2 3 4 5 6 
#
# 1 92.4053 27.3016 38.3410 0.0002 -0.0002 0.0001
# 2 27.3016 54.8263 7.4818 0.0002 0.0000 0.0002
# 3 38.3410 7.4818 79.1483 0.0016 0.0004 -0.0011
# 4 0.0002 0.0002 0.0016 18.6780 0.0000 0.0000
# 5 -0.0002 0.0000 0.0004 0.0000 34.4974 0.0001
# 6 0.0001 0.0002 -0.0011 0.0000 0.0001 26.6984
#
#
#
# Elastic Compliance Matrix: (Units=1/GPa)
#
#
# Indices 1 2 3 4 5 6 
#
# 1 0.015755 -0.006893 -0.006980 0.000000 0.000000 0.000000
# 2 -0.006893 0.021493 0.001307 0.000000 0.000000 0.000000
# 3 -0.006980 0.001307 0.015892 -0.000001 0.000000 0.000001
# 4 0.000000 0.000000 -0.000001 0.053539 0.000000 0.000000
# 5 0.000000 0.000000 0.000000 0.000000 0.028988 0.000000
# 6 0.000000 0.000000 0.000001 0.000000 0.000000 0.037455
#
#
# Mechanical properties :
#
#
# Convention : Reuss Voigt Hill
#
# Bulk Modulus (GPa) = 35.70312 41.40318 38.55315
# Shear Modulus (GPa) = 24.08590 26.19179 25.13885
#
# Velocity S-wave (km/s) = 3.48244 3.63149 3.55774
# Velocity P-wave (km/s) = 5.84350 6.19922 6.02399
#
# Compressibility (1/GPa) = 0.02800876
#
# Stress axis : x y z
#
# Youngs Moduli (GPa) = 63.47330 46.52604 62.92342
#
# Poissons Ratio (x) = 0.32069 0.43922
# Poissons Ratio (y) = 0.43750 -0.08225
# Poissons Ratio (z) = 0.44306 -0.06082
#
# Static dielectric constant tensor:
#      x y z
#    x 3.720160 0.000000 0.000000 
#    y 0.000000 3.453170 0.000000 
#    z 0.000000 0.000000 3.880620 
# 
# 
# High freq. dielectric constant tensor:
#      x y z
#    x 1.784890 0.000000 0.000000 
#    y 0.000000 1.766370 0.000000 
#    z 0.000000 0.000000 1.776540 
# 
# From -- ./inp_files/9672.got.cif
#   From: 2010.03.12/outbox.cif.g09.slc.cpg/sg46_5_cif.got.tgz:9672.got - 2010.04.14 02:56:35.
