data_PCOD8192515
_publ_section_title
;
Structure prediction by ZEFSAII (Michael W. Deem and Ramdas Pophale) SiO2 
 PCOD8192515
Probable space group: I M A 2
;
_chemical_formula_sum "Si O2"
_cell_formula_units_Z 64
_cell_length_a 17.569620
_cell_length_b 19.306132
_cell_length_c 9.277179
_cell_angle_alpha 90.000000
_cell_angle_beta 90.000000
_cell_angle_gamma 90.000000
_cell_volume 3146.832132
_symmetry_space_group_name_H-M "I M A 2"
_symmetry_group_IT_number 46
_symmetry_cell_setting 'orthorhombic'
loop_
_space_group_symop_operation_xyz
x,y,z
-x,-y,z
1/2-x,y,z
1/2+x,-y,z
1/2+x,1/2+y,1/2+z
1/2-x,1/2-y,1/2+z
-x,1/2+y,1/2+z
x,1/2-y,1/2+z
loop_
_atom_site_type_symbol
_atom_site_label
_atom_site_fract_x
_atom_site_fract_y
_atom_site_fract_z
Si Si1 0.943344 0.148231 0.965070
Si Si2 0.165109 0.444193 0.066733
Si Si3 0.661817 0.815185 0.374040
Si Si4 0.025240 0.386687 0.200368
Si Si5 0.162864 0.635706 0.703227
Si Si6 0.385189 0.904356 0.514277
Si Si7 0.928544 0.737556 0.612981
Si Si8 0.333541 0.706821 0.240934
O O1 0.894331 0.200118 0.867018
O O2 0.987049 0.095978 0.855360
O O3 0.887096 0.104222 0.070758
O O4 0.001645 0.192372 0.058561
O O5 0.250000 0.430864 0.127594
O O6 0.105258 0.426867 0.193282
O O7 0.158018 0.522878 0.018472
O O8 0.149523 0.393315 0.931611
O O9 0.750000 0.796930 0.353523
O O10 0.626632 0.759819 0.484094
O O11 0.619848 0.809367 0.221888
O O12 0.036828 0.304142 0.193397
O O13 0.972508 0.412172 0.067173
O O14 0.250000 0.607346 0.704820
O O15 0.160727 0.717507 0.672079
O O16 0.118738 0.620079 0.850277
O O17 0.343497 0.848849 0.614270
O O18 0.250000 0.695693 0.309251
#
# Coordination Sequence:
#
# PCOD8192515 Si02
#       8
#     8   8   8   8   8   8   8   8
#     4  11  21  34  54  86 121 160 196 249 309 364
#     4  10  22  41  65  90 120 161 213 261 306 372
#     4  10  22  38  63  92 123 158 206 261 317 370
#     4  10  22  38  60  91 119 161 205 254 300 374
#     4  11  22  34  57  93 127 159 202 253 308 363
#     4  11  22  39  67  90 120 162 214 252 309 370
#     4  11  20  37  61  91 125 157 200 254 320 363
#     4  10  20  35  57  88 124 162 204 251 302 363
#
# _framework density 20.337913
#
# number of rings (size 3 to 8) (size 9 to 14) (size 15 to 20)
#    0.000    1.500    1.250    5.250    3.500    2.500 
#    0.000    0.000   11.000    0.000    0.000    0.000 
#    0.000    0.000    0.000    0.000    0.000    0.000 
#
# Total GULP energy -396800.338013 kJ/mol
# GULP energy per Si atom -12400.010563 kJ/mol
# Density = 2.029162 g / cm^3
# Si number density = 20.337913 Si / 1000 Ang^3
#
#
#
# Elastic Constant Matrix: (Units=GPa)
#
#
# Indices 1 2 3 4 5 6 
#
# 1 149.5556 30.6250 69.2227 0.0000 0.0000 0.0000
# 2 30.6250 63.9452 32.0744 0.0000 0.0000 0.0000
# 3 69.2227 32.0744 131.8012 0.0000 0.0000 0.0000
# 4 0.0000 0.0000 0.0000 12.0696 0.0000 0.0000
# 5 0.0000 0.0000 0.0000 0.0000 37.2209 0.0000
# 6 0.0000 0.0000 0.0000 0.0000 0.0000 18.4215
#
#
#
# Elastic Compliance Matrix: (Units=1/GPa)
#
#
# Indices 1 2 3 4 5 6 
#
# 1 0.009106 -0.002235 -0.004239 0.000000 0.000000 0.000000
# 2 -0.002235 0.018361 -0.003294 0.000000 0.000000 0.000000
# 3 -0.004239 -0.003294 0.010615 0.000000 0.000000 0.000000
# 4 0.000000 0.000000 0.000000 0.082853 0.000000 0.000000
# 5 0.000000 0.000000 0.000000 0.000000 0.026867 0.000000
# 6 0.000000 0.000000 0.000000 0.000000 0.000000 0.054284
#
#
# Mechanical properties :
#
#
# Convention : Reuss Voigt Hill
#
# Bulk Modulus (GPa) = 53.91962 67.68291 60.80126
# Shear Modulus (GPa) = 21.94867 27.76774 24.85821
#
# Velocity S-wave (km/s) = 3.28868 3.69903 3.49988
# Velocity P-wave (km/s) = 6.40234 7.18298 6.80387
#
# Compressibility (1/GPa) = 0.01854613
#
# Stress axis : x y z
#
# Youngs Moduli (GPa) = 109.81738 54.46246 94.20592
#
# Poissons Ratio (x) = 0.12173 0.39930
# Poissons Ratio (y) = 0.24545 0.31036
# Poissons Ratio (z) = 0.46547 0.17942
#
# Static dielectric constant tensor:
#      x y z
#    x 4.099240 0.000000 0.000000 
#    y 0.000000 3.433700 0.000000 
#    z 0.000000 0.000000 3.692210 
# 
# 
# High freq. dielectric constant tensor:
#      x y z
#    x 1.821240 0.000000 0.000000 
#    y 0.000000 1.761650 0.000000 
#    z 0.000000 0.000000 1.788940 
# 
# From -- ./inp_files/6937.got.cif
#   From: 2010.03.12/outbox.cif.g09.slc.cpg/sg46_4_cif.got.tgz:6937.got - 2010.04.14 02:56:35.
