data_PCOD8192919
_publ_section_title
;
Structure prediction by ZEFSAII (Michael W. Deem and Ramdas Pophale) SiO2 
 PCOD8192919
Probable space group: I M A 2
;
_chemical_formula_sum "Si O2"
_cell_formula_units_Z 56
_cell_length_a 14.003574
_cell_length_b 21.072635
_cell_length_c 9.969068
_cell_angle_alpha 90.000000
_cell_angle_beta 90.000000
_cell_angle_gamma 90.000000
_cell_volume 2941.794244
_symmetry_space_group_name_H-M "I M A 2"
_symmetry_group_IT_number 46
_symmetry_cell_setting 'orthorhombic'
loop_
_space_group_symop_operation_xyz
x,y,z
-x,-y,z
1/2-x,y,z
1/2+x,-y,z
1/2+x,1/2+y,1/2+z
1/2-x,1/2-y,1/2+z
-x,1/2+y,1/2+z
x,1/2-y,1/2+z
loop_
_atom_site_type_symbol
_atom_site_label
_atom_site_fract_x
_atom_site_fract_y
_atom_site_fract_z
Si Si1 0.750000 0.320981 0.461841
Si Si2 0.641283 0.490412 0.736879
Si Si3 0.043821 0.662884 0.410040
Si Si4 0.477710 0.395799 0.669236
Si Si5 0.945685 0.186761 0.385912
Si Si6 0.518275 0.102058 0.630872
Si Si7 0.250000 0.795029 0.268520
Si Si8 0.640214 0.989895 0.549087
O O1 0.847773 0.360534 0.444492
O O2 0.750000 0.273094 0.337186
O O3 0.750000 0.286372 0.607232
O O4 0.750000 0.473909 0.698532
O O5 0.573348 0.438078 0.673082
O O6 0.615459 0.559913 0.679116
O O7 0.624259 0.490779 0.895648
O O8 0.974191 0.642061 0.529831
O O9 0.039028 0.738413 0.394074
O O10 0.004592 0.629621 0.278115
O O11 0.474492 0.345468 0.791662
O O12 0.948843 0.159177 0.535174
O O13 0.844110 0.167762 0.317855
O O14 0.417355 0.074185 0.581139
O O15 0.599060 0.047715 0.636798
O O16 0.750000 0.977898 0.585343
#
# Coordination Sequence:
#
# PCOD8192919 Si02
#       8
#     4   8   8   8   8   8   4   8
#     4  10  22  36  48  84 122 158 194 222 279 348
#     4  10  21  37  64  87 109 150 201 248 285 337
#     4  11  25  35  56  86 128 152 187 235 291 348
#     4  11  20  39  59  88 114 153 193 237 288 344
#     4  11  21  37  59  82 120 158 190 230 283 353
#     4  11  22  39  60  89 115 155 194 236 291 349
#     4  10  22  32  52  82 120 160 192 226 277 344
#     4  10  21  39  62  87 111 149 200 248 287 335
#
# _framework density 19.036002
#
# number of rings (size 3 to 8) (size 9 to 14) (size 15 to 20)
#    0.000    1.429    4.286    1.714   10.000    2.286 
#    0.000    2.143    0.000    5.143    0.000    0.000 
#    0.000    0.000    0.000    0.000    0.000    0.000 
#
# Total GULP energy -347230.426670 kJ/mol
# GULP energy per Si atom -12401.086667 kJ/mol
# Density = 1.899267 g / cm^3
# Si number density = 19.036002 Si / 1000 Ang^3
#
#
#
# Elastic Constant Matrix: (Units=GPa)
#
#
# Indices 1 2 3 4 5 6 
#
# 1 74.6870 17.7676 8.2714 -0.0001 0.0000 0.0000
# 2 17.7676 79.4925 22.2548 -0.0001 0.0000 0.0000
# 3 8.2714 22.2548 101.7949 -0.0010 0.0001 0.0000
# 4 -0.0001 -0.0001 -0.0010 11.9296 0.0001 0.0000
# 5 0.0000 0.0000 0.0001 0.0001 20.1149 0.0000
# 6 0.0000 0.0000 0.0000 0.0000 0.0000 25.1047
#
#
#
# Elastic Compliance Matrix: (Units=1/GPa)
#
#
# Indices 1 2 3 4 5 6 
#
# 1 0.014164 -0.003029 -0.000489 0.000000 0.000000 0.000000
# 2 -0.003029 0.014048 -0.002825 0.000000 0.000000 0.000000
# 3 -0.000489 -0.002825 0.010481 0.000001 0.000000 0.000000
# 4 0.000000 0.000000 0.000001 0.083825 0.000000 0.000000
# 5 0.000000 0.000000 0.000000 0.000000 0.049714 0.000000
# 6 0.000000 0.000000 0.000000 0.000000 0.000000 0.039833
#
#
# Mechanical properties :
#
#
# Convention : Reuss Voigt Hill
#
# Bulk Modulus (GPa) = 38.45091 39.17354 38.81223
# Shear Modulus (GPa) = 21.42066 25.27523 23.34795
#
# Velocity S-wave (km/s) = 3.35815 3.64780 3.50596
# Velocity P-wave (km/s) = 5.93962 6.19397 6.06813
#
# Compressibility (1/GPa) = 0.02600719
#
# Stress axis : x y z
#
# Youngs Moduli (GPa) = 70.60191 71.18586 95.41074
#
# Poissons Ratio (x) = 0.21562 0.04662
# Poissons Ratio (y) = 0.21385 0.26954
# Poissons Ratio (z) = 0.03450 0.20110
#
# Static dielectric constant tensor:
#      x y z
#    x 3.520670 0.000000 0.000000 
#    y 0.000000 3.440420 0.000000 
#    z 0.000000 0.000000 3.443650 
# 
# 
# High freq. dielectric constant tensor:
#      x y z
#    x 1.716140 0.000000 0.000000 
#    y 0.000000 1.739160 0.000000 
#    z 0.000000 0.000000 1.743850 
# 
# From -- ./inp_files/5962.got.cif
#   From: 2010.03.12/outbox.cif.g09.slc.cpg/sg46_3_cif.got.tgz:5962.got - 2010.04.14 02:56:35.
