data_PCOD8192074
_publ_section_title
;
Structure prediction by ZEFSAII (Michael W. Deem and Ramdas Pophale) SiO2 
 PCOD8192074
Probable space group: I M A 2
;
_chemical_formula_sum "Si O2"
_cell_formula_units_Z 64
_cell_length_a 8.474085
_cell_length_b 16.515690
_cell_length_c 22.373659
_cell_angle_alpha 90.000000
_cell_angle_beta 90.000000
_cell_angle_gamma 90.000000
_cell_volume 3131.313520
_symmetry_space_group_name_H-M "I M A 2"
_symmetry_group_IT_number 46
_symmetry_cell_setting 'orthorhombic'
loop_
_space_group_symop_operation_xyz
x,y,z
-x,-y,z
1/2-x,y,z
1/2+x,-y,z
1/2+x,1/2+y,1/2+z
1/2-x,1/2-y,1/2+z
-x,1/2+y,1/2+z
x,1/2-y,1/2+z
loop_
_atom_site_type_symbol
_atom_site_label
_atom_site_fract_x
_atom_site_fract_y
_atom_site_fract_z
Si Si1 0.434265 0.580839 0.529920
Si Si2 0.566379 0.276179 0.943432
Si Si3 0.566754 0.885604 0.905186
Si Si4 0.931386 0.746861 0.563862
Si Si5 0.066166 0.262208 0.197451
Si Si6 0.563008 0.414102 0.273873
Si Si7 0.937286 0.086654 0.229764
Si Si8 0.565192 0.080614 0.363492
O O1 0.500000 0.500000 0.561173
O O2 0.250000 0.592142 0.541288
O O3 0.469139 0.573644 0.459023
O O4 0.526049 0.652118 0.563095
O O5 0.750000 0.255037 0.932297
O O6 0.453816 0.209301 0.915029
O O7 0.504831 0.352719 0.908393
O O8 0.538373 0.290659 0.013917
O O9 0.750000 0.910119 0.908626
O O10 0.497221 0.911577 0.841733
O O11 0.750000 0.756398 0.545761
O O12 0.963794 0.786760 0.628348
O O13 0.250000 0.258685 0.213264
O O14 0.990728 0.332989 0.238294
O O15 0.997521 0.171016 0.201743
O O16 0.500000 0.500000 0.245964
O O17 0.750000 0.415185 0.272632
O O18 0.750000 0.085745 0.223976
O O19 0.003303 0.092530 0.297262
O O20 0.000000 0.000000 0.202365
O O21 0.750000 0.079207 0.359030
O O22 0.500000 0.000000 0.393130
#
# Coordination Sequence:
#
# PCOD8192074 Si02
#       8
#     8   8   8   8   8   8   8   8
#     4  11  21  35  56  83 116 150 186 228 279 337
#     4  10  19  34  56  83 113 146 186 230 281 338
#     4  11  21  35  57  86 118 150 185 227 283 345
#     4  10  22  39  57  79 108 144 189 235 280 336
#     4  11  24  42  62  85 115 154 200 247 295 349
#     4  12  25  42  63  88 118 152 195 244 296 353
#     4  10  20  36  59  88 122 157 193 236 288 347
#     4   9  19  33  52  80 111 141 176 221 272 331
#
# _framework density 20.438707999999998
#
# number of rings (size 3 to 8) (size 9 to 14) (size 15 to 20)
#    0.000    1.500    0.000    7.500    0.000    5.000 
#    0.000    0.625    0.000    1.500    0.000    0.000 
#    0.000    0.000    0.000    0.000    0.000    0.000 
#
# Total GULP energy -396548.849372 kJ/mol
# GULP energy per Si atom -12392.151543 kJ/mol
# Density = 2.039219 g / cm^3
# Si number density = 20.438708 Si / 1000 Ang^3
#
#
#
# Elastic Constant Matrix: (Units=GPa)
#
#
# Indices 1 2 3 4 5 6 
#
# 1 82.4473 22.8733 18.5560 0.0000 0.0000 0.0000
# 2 22.8733 96.5528 30.4792 0.0000 0.0000 0.0000
# 3 18.5560 30.4792 68.8047 0.0000 0.0000 0.0000
# 4 0.0000 0.0000 0.0000 -141.1816 0.0000 0.0000
# 5 0.0000 0.0000 0.0000 0.0000 23.9709 0.0000
# 6 0.0000 0.0000 0.0000 0.0000 0.0000 36.5054
#
#
#
# Elastic Compliance Matrix: (Units=1/GPa)
#
#
# Indices 1 2 3 4 5 6 
#
# 1 0.013359 -0.002357 -0.002559 0.000000 0.000000 0.000000
# 2 -0.002357 0.012457 -0.004882 0.000000 0.000000 0.000000
# 3 -0.002559 -0.004882 0.017387 0.000000 0.000000 0.000000
# 4 0.000000 0.000000 0.000000 -0.007083 0.000000 0.000000
# 5 0.000000 0.000000 0.000000 0.000000 0.041717 0.000000
# 6 0.000000 0.000000 0.000000 0.000000 0.000000 0.027393
#
#
# Mechanical properties :
#
#
# Convention : Reuss Voigt Hill
#
# Bulk Modulus (GPa) = 42.36195 43.51353 42.93774
# Shear Modulus (GPa) = 37.68062 -4.41465 16.63299
#
# Velocity S-wave (km/s) = 4.29836 -1.47127 2.85581
# Velocity P-wave (km/s) = 6.73839 4.29532 5.65047
#
# Compressibility (1/GPa) = 0.02360609
#
# Stress axis : x y z
#
# Youngs Moduli (GPa) = 74.85749 80.27846 57.51509
#
# Poissons Ratio (x) = 0.18922 0.14716
# Poissons Ratio (y) = 0.17644 0.28081
# Poissons Ratio (z) = 0.19153 0.39195
#
# Static dielectric constant tensor:
#      x y z
#    x 3.925530 0.000000 0.000000 
#    y 0.000000 4.316520 0.000000 
#    z 0.000000 0.000000 3.811740 
# 
# 
# High freq. dielectric constant tensor:
#      x y z
#    x 1.809040 0.000000 0.000000 
#    y 0.000000 1.801600 0.000000 
#    z 0.000000 0.000000 1.792270 
# 
# From -- ./inp_files/23175.got.cif
#   From: 2010.03.12/outbox.cif.g09.slc.cpg/sg46_12_cif.got.tgz:23175.got - 2010.04.14 02:56:35.
