data_PCOD8192588
_publ_section_title
;
Structure prediction by ZEFSAII (Michael W. Deem and Ramdas Pophale) SiO2 
 PCOD8192588
Probable space group: I M A 2
;
_chemical_formula_sum "Si O2"
_cell_formula_units_Z 64
_cell_length_a 14.158477
_cell_length_b 25.085141
_cell_length_c 9.192890
_cell_angle_alpha 90.000000
_cell_angle_beta 90.000000
_cell_angle_gamma 90.000000
_cell_volume 3265.014765
_symmetry_space_group_name_H-M "I M A 2"
_symmetry_group_IT_number 46
_symmetry_cell_setting 'orthorhombic'
loop_
_space_group_symop_operation_xyz
x,y,z
-x,-y,z
1/2-x,y,z
1/2+x,-y,z
1/2+x,1/2+y,1/2+z
1/2-x,1/2-y,1/2+z
-x,1/2+y,1/2+z
x,1/2-y,1/2+z
loop_
_atom_site_type_symbol
_atom_site_label
_atom_site_fract_x
_atom_site_fract_y
_atom_site_fract_z
Si Si1 0.860960 0.518295 0.456910
Si Si2 0.978331 0.184557 0.154652
Si Si3 0.855299 0.611392 0.670995
Si Si4 0.471682 0.792195 0.490826
Si Si5 0.857557 0.369737 0.183602
Si Si6 0.144442 0.896810 0.003214
Si Si7 0.031021 0.445832 0.176344
Si Si8 0.856684 0.632604 0.998760
O O1 0.750000 0.519514 0.410314
O O2 0.879991 0.554424 0.599254
O O3 0.894324 0.457186 0.482126
O O4 0.930460 0.542829 0.337258
O O5 0.082177 0.161576 0.122876
O O6 0.956383 0.204776 0.317555
O O7 0.910020 0.134523 0.128445
O O8 0.967246 0.231107 0.037775
O O9 0.750000 0.628317 0.626973
O O10 0.868454 0.605354 0.842732
O O11 0.388569 0.819965 0.584186
O O12 0.573957 0.817508 0.526966
O O13 0.750000 0.386170 0.139719
O O14 0.860756 0.360206 0.357536
O O15 0.932292 0.415870 0.159503
O O16 0.250000 0.902135 0.061063
O O17 0.117752 0.415255 0.105075
O O18 0.000000 0.500000 0.096112
O O19 0.750000 0.652510 0.027967
#
# Coordination Sequence:
#
# PCOD8192588 Si02
#       8
#     8   8   8   8   8   8   8   8
#     4  10  20  36  58  89 122 156 193 234 283 338
#     4  11  22  39  61  85 114 146 197 245 292 349
#     4   9  20  38  59  85 119 154 189 233 290 349
#     4  10  23  40  60  85 110 151 192 244 300 343
#     4  10  21  38  57  81 115 151 192 235 282 337
#     4  10  21  37  58  84 115 155 195 237 285 336
#     4  11  20  33  57  88 117 154 190 232 282 334
#     4   9  20  40  59  84 120 153 189 235 288 353
#
# _framework density 19.601749000000002
#
# number of rings (size 3 to 8) (size 9 to 14) (size 15 to 20)
#    0.000    2.000    1.250    1.875    0.000    3.000 
#    6.750    0.000    0.000    0.000    0.000    0.000 
#    0.000    0.000    0.000    0.000    0.000    0.000 
#
# Total GULP energy -396522.743340 kJ/mol
# GULP energy per Si atom -12391.335729 kJ/mol
# Density = 1.955713 g / cm^3
# Si number density = 19.601749 Si / 1000 Ang^3
#
#
#
# Elastic Constant Matrix: (Units=GPa)
#
#
# Indices 1 2 3 4 5 6 
#
# 1 105.0764 47.7670 38.5204 0.0013 -0.0006 -0.0001
# 2 47.7670 120.5142 59.6515 -0.0023 -0.0023 -0.0014
# 3 38.5204 59.6515 77.6912 0.0039 -0.0077 -0.0042
# 4 0.0013 -0.0023 0.0039 35.0678 -0.0051 -0.0028
# 5 -0.0006 -0.0023 -0.0077 -0.0051 28.2449 0.0003
# 6 -0.0001 -0.0014 -0.0042 -0.0028 0.0003 22.5155
#
#
#
# Elastic Compliance Matrix: (Units=1/GPa)
#
#
# Indices 1 2 3 4 5 6 
#
# 1 0.012263 -0.002986 -0.003788 0.000000 -0.000001 -0.000001
# 2 -0.002986 0.014111 -0.009354 0.000002 -0.000001 -0.000001
# 3 -0.003788 -0.009354 0.021932 -0.000003 0.000005 0.000003
# 4 0.000000 0.000002 -0.000003 0.028516 0.000005 0.000004
# 5 -0.000001 -0.000001 0.000005 0.000005 0.035405 0.000000
# 6 -0.000001 -0.000001 0.000003 0.000004 0.000000 0.044414
#
#
# Mechanical properties :
#
#
# Convention : Reuss Voigt Hill
#
# Bulk Modulus (GPa) = 62.30360 66.12883 64.21622
# Shear Modulus (GPa) = 25.74057 27.65516 26.69787
#
# Velocity S-wave (km/s) = 3.62771 3.76021 3.69455
# Velocity P-wave (km/s) = 7.02857 7.25683 7.14361
#
# Compressibility (1/GPa) = 0.01605044
#
# Stress axis : x y z
#
# Youngs Moduli (GPa) = 81.54840 70.86486 45.59599
#
# Poissons Ratio (x) = 0.21158 0.17270
# Poissons Ratio (y) = 0.24348 0.42652
# Poissons Ratio (z) = 0.30887 0.66290
#
# Static dielectric constant tensor:
#      x y z
#    x 3.855000 -0.000010 0.000000 
#    y -0.000010 3.528310 -0.000010 
#    z 0.000000 -0.000010 3.556710 
# 
# 
# High freq. dielectric constant tensor:
#      x y z
#    x 1.780340 0.000000 0.000000 
#    y 0.000000 1.758820 0.000000 
#    z 0.000000 0.000000 1.752660 
# 
# From -- ./inp_files/6088.got.cif
#   From: 2010.03.12/outbox.cif.g09.slc.cpg/sg46_4_cif.got.tgz:6088.got - 2010.04.14 02:56:35.
