data_PCOD8192853
_publ_section_title
;
Structure prediction by ZEFSAII (Michael W. Deem and Ramdas Pophale) SiO2 
 PCOD8192853
Probable space group: I M A 2
;
_chemical_formula_sum "Si O2"
_cell_formula_units_Z 56
_cell_length_a 8.995009
_cell_length_b 19.813064
_cell_length_c 15.115144
_cell_angle_alpha 90.000000
_cell_angle_beta 90.000000
_cell_angle_gamma 90.000000
_cell_volume 2693.801148
_symmetry_space_group_name_H-M "I M A 2"
_symmetry_group_IT_number 46
_symmetry_cell_setting 'orthorhombic'
loop_
_space_group_symop_operation_xyz
x,y,z
-x,-y,z
1/2-x,y,z
1/2+x,-y,z
1/2+x,1/2+y,1/2+z
1/2-x,1/2-y,1/2+z
-x,1/2+y,1/2+z
x,1/2-y,1/2+z
loop_
_atom_site_type_symbol
_atom_site_label
_atom_site_fract_x
_atom_site_fract_y
_atom_site_fract_z
Si Si1 0.574748 0.820085 0.304530
Si Si2 0.588453 0.439783 0.869287
Si Si3 0.925674 0.426207 0.461526
Si Si4 0.574267 0.175346 0.118549
Si Si5 0.910941 0.439918 0.068176
Si Si6 0.079290 0.330678 0.323079
Si Si7 0.422353 0.185980 0.617471
O O1 0.750000 0.824518 0.287559
O O2 0.514050 0.873487 0.374209
O O3 0.494114 0.841177 0.213677
O O4 0.533918 0.746780 0.344417
O O5 0.500000 0.500000 0.818720
O O6 0.750000 0.427337 0.823079
O O7 0.619079 0.463805 0.968626
O O8 0.750000 0.436275 0.453476
O O9 0.968235 0.383869 0.549473
O O10 0.000000 0.500000 0.465121
O O11 0.978861 0.383902 0.375771
O O12 0.750000 0.184109 0.125680
O O13 0.503773 0.245871 0.087532
O O14 0.750000 0.428461 0.115144
O O15 0.000000 0.500000 0.118657
O O16 0.007665 0.372965 0.060517
O O17 0.250000 0.345034 0.348281
O O18 0.052307 0.336846 0.218507
O O19 0.250000 0.195592 0.595321
#
# Coordination Sequence:
#
# PCOD8192853 Si02
#       7
#     8   8   8   8   8   8   8
#     4  10  21  38  61  89 118 155 197 240 295 354
#     4  10  21  36  55  82 117 154 193 238 287 344
#     4  11  25  42  63  89 119 157 201 247 302 358
#     4  10  22  40  60  87 118 152 197 246 295 351
#     4  10  21  36  55  83 117 154 194 237 288 346
#     4   9  21  40  60  86 117 151 195 241 291 350
#     4  10  21  38  61  88 117 155 198 243 296 353
#
# _framework density 20.788468000000002
#
# number of rings (size 3 to 8) (size 9 to 14) (size 15 to 20)
#    0.000    2.000    0.000    3.429    2.000    8.571 
#    0.000    1.429    0.000    0.000    0.000    0.000 
#    0.000    0.000    0.000    0.000    0.000    0.000 
#
# Total GULP energy -347045.033095 kJ/mol
# GULP energy per Si atom -12394.465468 kJ/mol
# Density = 2.074115 g / cm^3
# Si number density = 20.788468 Si / 1000 Ang^3
#
#
#
# Elastic Constant Matrix: (Units=GPa)
#
#
# Indices 1 2 3 4 5 6 
#
# 1 145.9265 84.2645 40.7353 0.0000 0.0000 0.0000
# 2 84.2645 167.7785 41.4016 0.0000 0.0000 0.0000
# 3 40.7353 41.4016 47.0083 0.0001 0.0000 0.0000
# 4 0.0000 0.0000 0.0001 23.6724 0.0000 0.0000
# 5 0.0000 0.0000 0.0000 0.0000 28.3638 0.0000
# 6 0.0000 0.0000 0.0000 0.0000 0.0000 41.7965
#
#
#
# Elastic Compliance Matrix: (Units=1/GPa)
#
#
# Indices 1 2 3 4 5 6 
#
# 1 0.010776 -0.003971 -0.005841 0.000000 0.000000 0.000000
# 2 -0.003971 0.009079 -0.004555 0.000000 0.000000 0.000000
# 3 -0.005841 -0.004555 0.030346 0.000000 0.000000 0.000000
# 4 0.000000 0.000000 0.000000 0.042243 0.000000 0.000000
# 5 0.000000 0.000000 0.000000 0.000000 0.035256 0.000000
# 6 0.000000 0.000000 0.000000 0.000000 0.000000 0.023925
#
#
# Mechanical properties :
#
#
# Convention : Reuss Voigt Hill
#
# Bulk Modulus (GPa) = 46.58207 77.05737 61.81972
# Shear Modulus (GPa) = 26.66462 31.72066 29.19264
#
# Velocity S-wave (km/s) = 3.58532 3.91049 3.75143
# Velocity P-wave (km/s) = 6.29250 7.58532 6.96895
#
# Compressibility (1/GPa) = 0.02146749
#
# Stress axis : x y z
#
# Youngs Moduli (GPa) = 92.79689 110.15033 32.95347
#
# Poissons Ratio (x) = 0.43739 0.19248
# Poissons Ratio (y) = 0.36849 0.15009
# Poissons Ratio (z) = 0.54202 0.50170
#
# Static dielectric constant tensor:
#      x y z
#    x 4.131090 0.000000 0.000000 
#    y 0.000000 3.838870 0.000000 
#    z 0.000000 0.000000 3.494210 
# 
# 
# High freq. dielectric constant tensor:
#      x y z
#    x 1.831730 0.000000 0.000000 
#    y 0.000000 1.822530 0.000000 
#    z 0.000000 0.000000 1.789860 
# 
# From -- ./inp_files/14197.got.cif
#   From: 2010.03.12/outbox.cif.g09.slc.cpg/sg46_8_cif.got.tgz:14197.got - 2010.04.14 02:56:35.
