data_PCOD8192020
_publ_section_title
;
Structure prediction by ZEFSAII (Michael W. Deem and Ramdas Pophale) SiO2 
 PCOD8192020
Probable space group: I M A 2
;
_chemical_formula_sum "Si O2"
_cell_formula_units_Z 64
_cell_length_a 17.492635
_cell_length_b 9.525700
_cell_length_c 19.067410
_cell_angle_alpha 90.000000
_cell_angle_beta 90.000000
_cell_angle_gamma 90.000000
_cell_volume 3177.194772
_symmetry_space_group_name_H-M "I M A 2"
_symmetry_group_IT_number 46
_symmetry_cell_setting 'orthorhombic'
loop_
_space_group_symop_operation_xyz
x,y,z
-x,-y,z
1/2-x,y,z
1/2+x,-y,z
1/2+x,1/2+y,1/2+z
1/2-x,1/2-y,1/2+z
-x,1/2+y,1/2+z
x,1/2-y,1/2+z
loop_
_atom_site_type_symbol
_atom_site_label
_atom_site_fract_x
_atom_site_fract_y
_atom_site_fract_z
Si Si1 0.897801 0.738753 0.985650
Si Si2 0.070988 0.694907 0.481573
Si Si3 0.914057 0.035301 0.561271
Si Si4 0.659708 0.033344 0.698393
Si Si5 0.160964 0.256839 0.844345
Si Si6 0.836903 0.975393 0.065614
Si Si7 0.087830 0.542271 0.338143
Si Si8 0.339934 0.211417 0.192282
O O1 0.885932 0.674665 0.907971
O O2 0.979691 0.816768 0.989831
O O3 0.879219 0.613170 0.038368
O O4 0.836968 0.860212 0.003342
O O5 0.091525 0.857616 0.495642
O O6 0.110218 0.604878 0.543293
O O7 0.099061 0.648269 0.403919
O O8 0.867761 0.105310 0.626038
O O9 0.000000 0.000000 0.584042
O O10 0.750000 0.048751 0.709661
O O11 0.616236 0.108625 0.763947
O O12 0.631814 0.872165 0.686822
O O13 0.250000 0.275514 0.857169
O O14 0.137514 0.334323 0.771739
O O15 0.142177 0.091726 0.845855
O O16 0.750000 0.027656 0.077935
O O17 0.873494 0.898023 0.135019
O O18 0.000000 0.500000 0.332794
O O19 0.250000 0.211297 0.180880
#
# Coordination Sequence:
#
# PCOD8192020 Si02
#       8
#     8   8   8   8   8   8   8   8
#     4  11  20  37  59  83 114 156 197 244 283 351
#     4  11  23  38  55  88 121 152 192 245 298 349
#     4  10  23  40  59  82 119 160 199 237 294 353
#     4  10  20  36  58  85 114 151 201 245 285 349
#     4  10  19  33  57  88 113 148 198 245 288 342
#     4  11  20  34  59  86 114 149 191 243 301 348
#     4  11  19  34  59  85 119 150 189 243 297 347
#     4   8  17  32  53  83 113 139 185 242 287 338
#
# _framework density 20.143554999999999
#
# number of rings (size 3 to 8) (size 9 to 14) (size 15 to 20)
#    0.000    1.750    3.750    2.250    0.000    1.500 
#    0.000    1.250    0.000    4.500    0.000    0.000 
#    0.000    0.000    0.000    0.000    0.000    0.000 
#
# Total GULP energy -396492.801034 kJ/mol
# GULP energy per Si atom -12390.400032 kJ/mol
# Density = 2.009771 g / cm^3
# Si number density = 20.143555 Si / 1000 Ang^3
#
#
#
# Elastic Constant Matrix: (Units=GPa)
#
#
# Indices 1 2 3 4 5 6 
#
# 1 71.1724 30.0818 43.3785 0.0000 0.0000 0.0000
# 2 30.0818 49.6181 32.8505 0.0000 0.0000 0.0000
# 3 43.3785 32.8505 151.3641 0.0000 0.0000 0.0000
# 4 0.0000 0.0000 0.0000 30.9114 0.0000 0.0000
# 5 0.0000 0.0000 0.0000 0.0000 32.8032 0.0000
# 6 0.0000 0.0000 0.0000 0.0000 0.0000 14.9044
#
#
#
# Elastic Compliance Matrix: (Units=1/GPa)
#
#
# Indices 1 2 3 4 5 6 
#
# 1 0.020539 -0.009991 -0.003718 0.000000 0.000000 0.000000
# 2 -0.009991 0.028395 -0.003300 0.000000 0.000000 0.000000
# 3 -0.003718 -0.003300 0.008388 0.000000 0.000000 0.000000
# 4 0.000000 0.000000 0.000000 0.032350 0.000000 0.000000
# 5 0.000000 0.000000 0.000000 0.000000 0.030485 0.000000
# 6 0.000000 0.000000 0.000000 0.000000 0.000000 0.067094
#
#
# Mechanical properties :
#
#
# Convention : Reuss Voigt Hill
#
# Bulk Modulus (GPa) = 42.90636 53.86403 48.38519
# Shear Modulus (GPa) = 21.83053 26.78006 24.30530
#
# Velocity S-wave (km/s) = 3.29560 3.65013 3.47739
# Velocity P-wave (km/s) = 5.98564 6.67553 6.33998
#
# Compressibility (1/GPa) = 0.02330657
#
# Stress axis : x y z
#
# Youngs Moduli (GPa) = 48.68778 35.21697 119.21555
#
# Poissons Ratio (x) = 0.35184 0.44323
# Poissons Ratio (y) = 0.48642 0.39335
# Poissons Ratio (z) = 0.18102 0.11620
#
# Static dielectric constant tensor:
#      x y z
#    x 3.535190 0.000000 0.000000 
#    y 0.000000 3.359620 0.000000 
#    z 0.000000 0.000000 4.260550 
# 
# 
# High freq. dielectric constant tensor:
#      x y z
#    x 1.775100 0.000000 0.000000 
#    y 0.000000 1.745230 0.000000 
#    z 0.000000 0.000000 1.806850 
# 
# From -- ./inp_files/22274.got.cif
#   From: 2010.03.12/outbox.cif.g09.slc.cpg/sg46_12_cif.got.tgz:22274.got - 2010.04.14 02:56:35.
