data_PCOD8192538
_publ_section_title
;
Structure prediction by ZEFSAII (Michael W. Deem and Ramdas Pophale) SiO2 
 PCOD8192538
Probable space group: I M A 2
;
_chemical_formula_sum "Si O2"
_cell_formula_units_Z 48
_cell_length_a 24.347990
_cell_length_b 10.588367
_cell_length_c 9.084341
_cell_angle_alpha 90.000000
_cell_angle_beta 90.000000
_cell_angle_gamma 90.000000
_cell_volume 2341.992654
_symmetry_space_group_name_H-M "I M A 2"
_symmetry_group_IT_number 46
_symmetry_cell_setting 'orthorhombic'
loop_
_space_group_symop_operation_xyz
x,y,z
-x,-y,z
1/2-x,y,z
1/2+x,-y,z
1/2+x,1/2+y,1/2+z
1/2-x,1/2-y,1/2+z
-x,1/2+y,1/2+z
x,1/2-y,1/2+z
loop_
_atom_site_type_symbol
_atom_site_label
_atom_site_fract_x
_atom_site_fract_y
_atom_site_fract_z
Si Si1 0.652682 0.903133 0.550870
Si Si2 0.687306 0.704000 0.754622
Si Si3 0.443909 0.576516 0.959116
Si Si4 0.188372 0.539507 0.575232
Si Si5 0.308914 0.904519 0.762291
Si Si6 0.899986 0.226386 0.187864
O O1 0.645667 0.810992 0.692812
O O2 0.682234 0.818064 0.428459
O O3 0.597519 0.961488 0.486978
O O4 0.688870 0.020713 0.607914
O O5 0.750000 0.742948 0.717368
O O6 0.669886 0.575554 0.675144
O O7 0.500000 0.500000 0.966605
O O8 0.436253 0.640131 0.797886
O O9 0.439085 0.686570 0.083834
O O10 0.250000 0.585727 0.621574
O O11 0.189116 0.500468 0.402630
O O12 0.142468 0.646929 0.590434
O O13 0.250000 0.831912 0.763677
O O14 0.360322 0.812909 0.786373
#
# Coordination Sequence:
#
# PCOD8192538 Si02
#       6
#     8   8   8   8   8   8
#     4  11  23  39  61  90 135 172 219 263 310 373
#     4  11  21  35  58  93 136 175 206 249 315 391
#     4  11  26  46  70  94 121 170 223 276 324 368
#     4  10  20  35  60  95 131 174 208 248 322 390
#     4  10  20  35  60  94 130 169 207 252 319 391
#     4  11  21  44  65  92 131 159 212 270 322 382
#
# _framework density 20.495367999999999
#
# number of rings (size 3 to 8) (size 9 to 14) (size 15 to 20)
#    0.000    1.333    3.333    3.000    0.000    2.667 
#    0.000    0.833    0.000    0.000    0.000    0.000 
#    0.000    0.000    0.000    0.000    0.000    0.000 
#
# Total GULP energy -297343.852912 kJ/mol
# GULP energy per Si atom -12389.327205 kJ/mol
# Density = 2.044872 g / cm^3
# Si number density = 20.495368 Si / 1000 Ang^3
#
#
#
# Elastic Constant Matrix: (Units=GPa)
#
#
# Indices 1 2 3 4 5 6 
#
# 1 102.9005 48.7461 42.2093 0.0000 0.0000 0.0000
# 2 48.7461 89.0004 38.6883 0.0000 0.0000 0.0000
# 3 42.2093 38.6883 104.7451 0.0000 0.0000 0.0000
# 4 0.0000 0.0000 0.0000 43.5985 0.0000 0.0000
# 5 0.0000 0.0000 0.0000 0.0000 31.5363 0.0000
# 6 0.0000 0.0000 0.0000 0.0000 0.0000 30.0525
#
#
#
# Elastic Compliance Matrix: (Units=1/GPa)
#
#
# Indices 1 2 3 4 5 6 
#
# 1 0.014049 -0.006235 -0.003359 0.000000 0.000000 0.000000
# 2 -0.006235 0.016152 -0.003453 0.000000 0.000000 0.000000
# 3 -0.003359 -0.003453 0.012176 0.000000 0.000000 0.000000
# 4 0.000000 0.000000 0.000000 0.022937 0.000000 0.000000
# 5 0.000000 0.000000 0.000000 0.000000 0.031710 0.000000
# 6 0.000000 0.000000 0.000000 0.000000 0.000000 0.033275
#
#
# Mechanical properties :
#
#
# Convention : Reuss Voigt Hill
#
# Bulk Modulus (GPa) = 61.41170 61.77037 61.59103
# Shear Modulus (GPa) = 30.89848 32.17094 31.53471
#
# Velocity S-wave (km/s) = 3.88697 3.96620 3.92679
# Velocity P-wave (km/s) = 7.08333 7.15391 7.11871
#
# Compressibility (1/GPa) = 0.01628354
#
# Stress axis : x y z
#
# Youngs Moduli (GPa) = 71.17715 61.91178 82.12947
#
# Poissons Ratio (x) = 0.38602 0.27584
# Poissons Ratio (y) = 0.44379 0.28362
# Poissons Ratio (z) = 0.23905 0.21380
#
# Static dielectric constant tensor:
#      x y z
#    x 3.351070 0.000000 0.000000 
#    y 0.000000 3.762770 0.000000 
#    z 0.000000 0.000000 3.784570 
# 
# 
# High freq. dielectric constant tensor:
#      x y z
#    x 1.765740 0.000000 0.000000 
#    y 0.000000 1.803820 0.000000 
#    z 0.000000 0.000000 1.817950 
# 
# From -- ./inp_files/7824.got.cif
#   From: 2010.03.12/outbox.cif.g09.slc.cpg/sg46_4_cif.got.tgz:7824.got - 2010.04.14 02:56:35.
