data_PCOD8192519
_publ_section_title
;
Structure prediction by ZEFSAII (Michael W. Deem and Ramdas Pophale) SiO2 
 PCOD8192519
Probable space group: I M A 2
;
_chemical_formula_sum "Si O2"
_cell_formula_units_Z 48
_cell_length_a 8.843070
_cell_length_b 18.925837
_cell_length_c 15.035884
_cell_angle_alpha 90.000000
_cell_angle_beta 90.000000
_cell_angle_gamma 90.000000
_cell_volume 2516.443157
_symmetry_space_group_name_H-M "I M A 2"
_symmetry_group_IT_number 46
_symmetry_cell_setting 'orthorhombic'
loop_
_space_group_symop_operation_xyz
x,y,z
-x,-y,z
1/2-x,y,z
1/2+x,-y,z
1/2+x,1/2+y,1/2+z
1/2-x,1/2-y,1/2+z
-x,1/2+y,1/2+z
x,1/2-y,1/2+z
loop_
_atom_site_type_symbol
_atom_site_label
_atom_site_fract_x
_atom_site_fract_y
_atom_site_fract_z
Si Si1 0.426339 0.178994 0.839130
Si Si2 0.427630 0.073970 0.679753
Si Si3 0.073048 0.428127 0.488658
Si Si4 0.928582 0.425674 0.994539
Si Si5 0.926488 0.328734 0.830419
Si Si6 0.927979 0.927148 0.190656
O O1 0.250000 0.199681 0.842825
O O2 0.463064 0.132871 0.752603
O O3 0.477490 0.136388 0.926681
O O4 0.528596 0.247718 0.837538
O O5 0.250000 0.062453 0.666451
O O6 0.500519 0.100048 0.587451
O O7 0.500000 0.000000 0.710556
O O8 0.250000 0.439743 0.481968
O O9 0.021009 0.412076 0.589340
O O10 0.000000 0.500000 0.452628
O O11 0.750000 0.435010 0.005415
O O12 0.971811 0.367665 0.921430
O O13 0.000000 0.500000 0.964600
O O14 0.750000 0.335934 0.811068
O O15 0.015552 0.362000 0.748288
O O16 0.750000 0.934301 0.199608
O O17 0.000000 0.000000 0.225885
#
# Coordination Sequence:
#
# PCOD8192519 Si02
#       6
#     8   8   8   8   8   8
#     4  10  22  38  55  79 112 147 180 217 267 324
#     4  10  20  35  58  84 108 140 180 222 269 318
#     4   9  19  36  58  83 109 140 179 221 267 319
#     4  10  21  37  57  81 107 139 180 224 270 318
#     4  11  24  38  54  79 110 146 184 223 271 321
#     4  10  20  36  59  84 110 142 180 223 269 318
#
# _framework density 19.074542000000001
#
# number of rings (size 3 to 8) (size 9 to 14) (size 15 to 20)
#    0.000    2.000    0.000    4.000    0.000    8.000 
#    0.000    5.000    0.000    0.000    0.000    0.000 
#    0.000    0.000    0.000    0.000    0.000    0.000 
#
# Total GULP energy -297700.063636 kJ/mol
# GULP energy per Si atom -12404.169318 kJ/mol
# Density = 1.903113 g / cm^3
# Si number density = 19.074542 Si / 1000 Ang^3
#
#
#
# Elastic Constant Matrix: (Units=GPa)
#
#
# Indices 1 2 3 4 5 6 
#
# 1 77.6908 45.8674 48.4735 0.0000 0.0000 0.0000
# 2 45.8674 127.2946 72.6458 0.0000 0.0000 0.0000
# 3 48.4735 72.6458 112.4456 0.0000 0.0000 0.0000
# 4 0.0000 0.0000 0.0000 17.6835 0.0000 0.0000
# 5 0.0000 0.0000 0.0000 0.0000 28.3358 0.0000
# 6 0.0000 0.0000 0.0000 0.0000 0.0000 37.2591
#
#
#
# Elastic Compliance Matrix: (Units=1/GPa)
#
#
# Indices 1 2 3 4 5 6 
#
# 1 0.018464 -0.003343 -0.005800 0.000000 0.000000 0.000000
# 2 -0.003343 0.013049 -0.006989 0.000000 0.000000 0.000000
# 3 -0.005800 -0.006989 0.015909 0.000000 0.000000 0.000000
# 4 0.000000 0.000000 0.000000 0.056550 0.000000 0.000000
# 5 0.000000 0.000000 0.000000 0.000000 0.035291 0.000000
# 6 0.000000 0.000000 0.000000 0.000000 0.000000 0.026839
#
#
# Mechanical properties :
#
#
# Convention : Reuss Voigt Hill
#
# Bulk Modulus (GPa) = 65.97330 72.37825 69.17577
# Shear Modulus (GPa) = 24.57991 26.68531 25.63261
#
# Velocity S-wave (km/s) = 3.59364 3.74438 3.66978
# Velocity P-wave (km/s) = 7.20286 7.53135 7.36893
#
# Compressibility (1/GPa) = 0.01515765
#
# Stress axis : x y z
#
# Youngs Moduli (GPa) = 54.15999 76.63367 62.85880
#
# Poissons Ratio (x) = 0.25620 0.36455
# Poissons Ratio (y) = 0.18107 0.43933
# Poissons Ratio (z) = 0.31410 0.53561
#
# Static dielectric constant tensor:
#      x y z
#    x 3.506540 0.000000 0.000000 
#    y 0.000000 3.400810 0.000000 
#    z 0.000000 0.000000 3.761640 
# 
# 
# High freq. dielectric constant tensor:
#      x y z
#    x 1.749130 0.000000 0.000000 
#    y 0.000000 1.737220 0.000000 
#    z 0.000000 0.000000 1.754650 
# 
# From -- ./inp_files/13886.got.cif
#   From: 2010.03.12/outbox.cif.g09.slc.cpg/sg46_7_cif.got.tgz:13886.got - 2010.04.14 02:56:35.
