data_PCOD8192256
_publ_section_title
;
Structure prediction by ZEFSAII (Michael W. Deem and Ramdas Pophale) SiO2 
 PCOD8192256
Probable space group: I M A 2
;
_chemical_formula_sum "Si O2"
_cell_formula_units_Z 52
_cell_length_a 14.328920
_cell_length_b 21.418558
_cell_length_c 8.664125
_cell_angle_alpha 90.000000
_cell_angle_beta 90.000000
_cell_angle_gamma 90.000000
_cell_volume 2659.061586
_symmetry_space_group_name_H-M "I M A 2"
_symmetry_group_IT_number 46
_symmetry_cell_setting 'orthorhombic'
loop_
_space_group_symop_operation_xyz
x,y,z
-x,-y,z
1/2-x,y,z
1/2+x,-y,z
1/2+x,1/2+y,1/2+z
1/2-x,1/2-y,1/2+z
-x,1/2+y,1/2+z
x,1/2-y,1/2+z
loop_
_atom_site_type_symbol
_atom_site_label
_atom_site_fract_x
_atom_site_fract_y
_atom_site_fract_z
Si Si1 0.969700 0.657314 0.436670
Si Si2 0.647175 0.945921 0.805350
Si Si3 0.352004 0.805631 0.392179
Si Si4 0.472871 0.760990 0.658551
Si Si5 0.086965 0.543207 0.510204
Si Si6 0.500000 0.500000 0.082150
Si Si7 0.147602 0.552460 0.850138
O O1 0.962861 0.705920 0.581222
O O2 0.969584 0.695568 0.275631
O O3 0.063620 0.615398 0.467738
O O4 0.881320 0.610559 0.423862
O O5 0.750000 0.930239 0.734411
O O6 0.563801 0.951516 0.679121
O O7 0.662003 0.012724 0.893142
O O8 0.250000 0.781533 0.447749
O O9 0.430224 0.803035 0.523657
O O10 0.383737 0.765486 0.246946
O O11 0.343338 0.874628 0.330817
O O12 0.116980 0.528247 0.683654
O O13 0.000000 0.500000 0.470208
O O14 0.428563 0.538459 0.978492
O O15 0.250000 0.524195 0.893962
#
# Coordination Sequence:
#
# PCOD8192256 Si02
#       7
#     8   8   8   8   8   4   8
#     4  10  20  39  61  87 118 159 199 247 306 364
#     4  11  23  41  65  91 119 160 208 255 309 367
#     4  10  20  32  48  77 112 148 196 242 285 354
#     4  10  20  35  57  80 113 164 195 238 310 351
#     4  10  19  39  60  83 121 159 196 249 300 365
#     4  12  22  38  58  86 126 154 198 256 308 364
#     4  11  22  35  55  85 119 158 199 245 303 367
#
# _framework density 19.555772000000001
#
# number of rings (size 3 to 8) (size 9 to 14) (size 15 to 20)
#    0.000    1.538    4.615    2.308    0.000    0.000 
#    0.000    2.308    0.000    0.000    0.000    0.000 
#    0.000    0.000    0.000    0.000    0.000    0.000 
#
# Total GULP energy -322090.861899 kJ/mol
# GULP energy per Si atom -12388.110073 kJ/mol
# Density = 1.951126 g / cm^3
# Si number density = 19.555772 Si / 1000 Ang^3
#
#
#
# Elastic Constant Matrix: (Units=GPa)
#
#
# Indices 1 2 3 4 5 6 
#
# 1 102.9206 21.3703 28.5809 0.0000 0.0000 0.0000
# 2 21.3703 79.6636 26.3928 0.0000 0.0000 0.0000
# 3 28.5809 26.3928 98.5056 0.0004 0.0002 0.0000
# 4 0.0000 0.0000 0.0004 29.8913 0.0001 0.0000
# 5 0.0000 0.0000 0.0002 0.0001 13.3973 0.0000
# 6 0.0000 0.0000 0.0000 0.0000 0.0000 17.1494
#
#
#
# Elastic Compliance Matrix: (Units=1/GPa)
#
#
# Indices 1 2 3 4 5 6 
#
# 1 0.010865 -0.002052 -0.002603 0.000000 0.000000 0.000000
# 2 -0.002052 0.014163 -0.003199 0.000000 0.000000 0.000000
# 3 -0.002603 -0.003199 0.011764 0.000000 0.000000 0.000000
# 4 0.000000 0.000000 0.000000 0.033455 0.000000 0.000000
# 5 0.000000 0.000000 0.000000 0.000000 0.074642 0.000000
# 6 0.000000 0.000000 0.000000 0.000000 0.000000 0.058311
#
#
# Mechanical properties :
#
#
# Convention : Reuss Voigt Hill
#
# Bulk Modulus (GPa) = 47.42953 48.19751 47.81352
# Shear Modulus (GPa) = 22.13012 25.73732 23.93372
#
# Velocity S-wave (km/s) = 3.36764 3.63174 3.50218
# Velocity P-wave (km/s) = 6.27913 6.50275 6.39192
#
# Compressibility (1/GPa) = 0.02108391
#
# Stress axis : x y z
#
# Youngs Moduli (GPa) = 92.03770 70.60504 85.00495
#
# Poissons Ratio (x) = 0.14491 0.22123
# Poissons Ratio (y) = 0.18890 0.27196
# Poissons Ratio (z) = 0.23953 0.22589
#
# Static dielectric constant tensor:
#      x y z
#    x 3.583380 0.000000 0.000000 
#    y 0.000000 3.681280 0.000000 
#    z 0.000000 0.000000 3.577830 
# 
# 
# High freq. dielectric constant tensor:
#      x y z
#    x 1.741970 0.000000 0.000000 
#    y 0.000000 1.757700 0.000000 
#    z 0.000000 0.000000 1.766440 
# 
# From -- ./inp_files/5862.got.cif
#   From: 2010.03.12/outbox.cif.g09.slc.cpg/sg46_3_cif.got.tgz:5862.got - 2010.04.14 02:56:35.
