data_PCOD8192678
_publ_section_title
;
Structure prediction by ZEFSAII (Michael W. Deem and Ramdas Pophale) SiO2 
 PCOD8192678
Probable space group: I M A 2
;
_chemical_formula_sum "Si O2"
_cell_formula_units_Z 64
_cell_length_a 17.481979
_cell_length_b 18.945858
_cell_length_c 9.580465
_cell_angle_alpha 90.000000
_cell_angle_beta 90.000000
_cell_angle_gamma 90.000000
_cell_volume 3173.156272
_symmetry_space_group_name_H-M "I M A 2"
_symmetry_group_IT_number 46
_symmetry_cell_setting 'orthorhombic'
loop_
_space_group_symop_operation_xyz
x,y,z
-x,-y,z
1/2-x,y,z
1/2+x,-y,z
1/2+x,1/2+y,1/2+z
1/2-x,1/2-y,1/2+z
-x,1/2+y,1/2+z
x,1/2-y,1/2+z
loop_
_atom_site_type_symbol
_atom_site_label
_atom_site_fract_x
_atom_site_fract_y
_atom_site_fract_z
Si Si1 0.340743 0.022563 0.889770
Si Si2 0.661657 0.107480 0.697402
Si Si3 0.930247 0.259621 0.304070
Si Si4 0.336140 0.225386 0.050781
Si Si5 0.660543 0.123171 0.379952
Si Si6 0.165079 0.333911 0.266739
Si Si7 0.006964 0.177764 0.059280
Si Si8 0.427178 0.958915 0.144728
O O1 0.250000 0.028621 0.916297
O O2 0.362760 0.962497 0.779663
O O3 0.377025 0.095606 0.825377
O O4 0.379018 0.007483 0.039337
O O5 0.750000 0.124276 0.720629
O O6 0.618538 0.173688 0.759502
O O7 0.643754 0.094421 0.534718
O O8 0.874234 0.201227 0.369173
O O9 0.974120 0.229754 0.173655
O O10 0.995804 0.283512 0.411489
O O11 0.250000 0.204446 0.104999
O O12 0.363959 0.299780 0.120550
O O13 0.401665 0.167459 0.088573
O O14 0.334773 0.229122 0.882357
O O15 0.750000 0.128570 0.346771
O O16 0.624463 0.067763 0.271871
O O17 0.250000 0.361330 0.236356
O O18 0.960571 0.105702 0.055719
O O19 0.500000 0.000000 0.208559
#
# Coordination Sequence:
#
# PCOD8192678 Si02
#       8
#     8   8   8   8   8   8   8   8
#     4  10  20  38  63  91 123 160 204 253 309 380
#     4  10  20  37  61  89 125 164 203 250 307 378
#     4  11  20  37  57  92 127 159 203 252 320 371
#     4  10  20  38  60  84 114 155 206 257 305 355
#     4  10  22  40  61  89 126 167 212 260 312 378
#     4   9  19  36  60  87 114 148 200 257 305 355
#     4  11  22  35  59  86 123 158 202 261 309 371
#     4  11  23  39  59  86 126 165 209 254 310 374
#
# _framework density 20.169193
#
# number of rings (size 3 to 8) (size 9 to 14) (size 15 to 20)
#    0.000    1.750    2.500    2.250    0.000    0.000 
#    0.000    6.250    0.000    9.000    0.000    0.000 
#    0.000    0.000    0.000    0.000    0.000    0.000 
#
# Total GULP energy -396542.282028 kJ/mol
# GULP energy per Si atom -12391.946313 kJ/mol
# Density = 2.012329 g / cm^3
# Si number density = 20.169193 Si / 1000 Ang^3
#
#
#
# Elastic Constant Matrix: (Units=GPa)
#
#
# Indices 1 2 3 4 5 6 
#
# 1 84.9367 37.6681 34.2923 0.0000 0.0000 0.0000
# 2 37.6681 94.4363 47.2061 0.0000 0.0000 0.0000
# 3 34.2923 47.2061 79.9291 0.0000 0.0000 0.0000
# 4 0.0000 0.0000 0.0000 26.1228 0.0000 0.0000
# 5 0.0000 0.0000 0.0000 0.0000 20.5435 0.0000
# 6 0.0000 0.0000 0.0000 0.0000 0.0000 28.5807
#
#
#
# Elastic Compliance Matrix: (Units=1/GPa)
#
#
# Indices 1 2 3 4 5 6 
#
# 1 0.015228 -0.003985 -0.004180 0.000000 0.000000 0.000000
# 2 -0.003985 0.016067 -0.007780 0.000000 0.000000 0.000000
# 3 -0.004180 -0.007780 0.018899 0.000000 0.000000 0.000000
# 4 0.000000 0.000000 0.000000 0.038281 0.000000 0.000000
# 5 0.000000 0.000000 0.000000 0.000000 0.048677 0.000000
# 6 0.000000 0.000000 0.000000 0.000000 0.000000 0.034989
#
#
# Mechanical properties :
#
#
# Convention : Reuss Voigt Hill
#
# Bulk Modulus (GPa) = 54.62766 55.29279 54.96022
# Shear Modulus (GPa) = 23.79447 24.39177 24.09312
#
# Velocity S-wave (km/s) = 3.43847 3.48135 3.45998
# Velocity P-wave (km/s) = 6.55039 6.60559 6.57804
#
# Compressibility (1/GPa) = 0.01830575
#
# Stress axis : x y z
#
# Youngs Moduli (GPa) = 65.66735 62.23756 52.91191
#
# Poissons Ratio (x) = 0.24799 0.22118
# Poissons Ratio (y) = 0.26166 0.41165
# Poissons Ratio (z) = 0.27450 0.48420
#
# Static dielectric constant tensor:
#      x y z
#    x 3.836150 0.000000 0.000000 
#    y 0.000000 3.852020 0.000000 
#    z 0.000000 0.000000 3.731530 
# 
# 
# High freq. dielectric constant tensor:
#      x y z
#    x 1.795820 0.000000 0.000000 
#    y 0.000000 1.780380 0.000000 
#    z 0.000000 0.000000 1.788130 
# 
# From -- ./inp_files/6932.got.cif
#   From: 2010.03.12/outbox.cif.g09.slc.cpg/sg46_4_cif.got.tgz:6932.got - 2010.04.14 02:56:35.
