data_PCOD8192584
_publ_section_title
;
Structure prediction by ZEFSAII (Michael W. Deem and Ramdas Pophale) SiO2 
 PCOD8192584
Probable space group: I M A 2
;
_chemical_formula_sum "Si O2"
_cell_formula_units_Z 60
_cell_length_a 27.843286
_cell_length_b 11.158351
_cell_length_c 8.934899
_cell_angle_alpha 90.000000
_cell_angle_beta 90.000000
_cell_angle_gamma 90.000000
_cell_volume 2775.940509
_symmetry_space_group_name_H-M "I M A 2"
_symmetry_group_IT_number 46
_symmetry_cell_setting 'orthorhombic'
loop_
_space_group_symop_operation_xyz
x,y,z
-x,-y,z
1/2-x,y,z
1/2+x,-y,z
1/2+x,1/2+y,1/2+z
1/2-x,1/2-y,1/2+z
-x,1/2+y,1/2+z
x,1/2-y,1/2+z
loop_
_atom_site_type_symbol
_atom_site_label
_atom_site_fract_x
_atom_site_fract_y
_atom_site_fract_z
Si Si1 0.900070 0.916655 0.402510
Si Si2 0.694636 0.880873 0.892109
Si Si3 0.031767 0.786704 0.162546
Si Si4 0.148255 0.884304 0.929217
Si Si5 0.500000 0.500000 0.836528
Si Si6 0.538595 0.401656 0.373806
Si Si7 0.138611 0.255671 0.650219
Si Si8 0.636601 0.143543 0.264168
O O1 0.951346 0.982025 0.432115
O O2 0.888599 0.848407 0.557134
O O3 0.898601 0.825159 0.259961
O O4 0.861445 0.023030 0.366581
O O5 0.750000 0.858107 0.927423
O O6 0.680580 0.802086 0.749233
O O7 0.684450 0.020311 0.855728
O O8 0.662838 0.848122 0.036476
O O9 0.023986 0.648518 0.210781
O O10 0.082654 0.827073 0.223993
O O11 0.995742 0.883351 0.230426
O O12 0.029429 0.787432 0.983435
O O13 0.094253 0.937964 0.895777
O O14 0.158526 0.755372 0.855048
O O15 0.162381 0.875679 0.104618
O O16 0.500000 0.500000 0.420410
#
# Coordination Sequence:
#
# PCOD8192584 Si02
#       8
#     8   8   8   8   4   8   8   8
#     4  10  21  40  65  95 131 178 217 278 324 389
#     4  11  23  43  69  99 129 167 216 277 340 398
#     4   9  19  34  53  76 113 158 195 248 296 357
#     4  10  21  38  63  87 122 166 208 262 321 393
#     4  10  20  36  58  86 130 164 212 262 312 370
#     4  10  20  37  56  81 116 157 207 250 303 367
#     4  10  23  41  69  95 132 173 219 270 336 402
#     4   9  19  37  60  85 120 164 205 250 325 376
#
# _framework density 21.614297000000001
#
# number of rings (size 3 to 8) (size 9 to 14) (size 15 to 20)
#    0.000    2.133    2.000    0.400    1.867    3.200 
#    3.600    2.000    0.000    0.800    0.000    0.000 
#    0.000    0.000    0.000    0.000    0.000    0.000 
#
# Total GULP energy -371744.219538 kJ/mol
# GULP energy per Si atom -12391.473985 kJ/mol
# Density = 2.156510 g / cm^3
# Si number density = 21.614297 Si / 1000 Ang^3
#
#
#
# Elastic Constant Matrix: (Units=GPa)
#
#
# Indices 1 2 3 4 5 6 
#
# 1 73.1207 22.3281 23.6069 0.0000 0.0000 0.0000
# 2 22.3281 106.9150 37.0551 0.0000 0.0000 0.0000
# 3 23.6069 37.0551 79.0204 0.0000 0.0000 0.0000
# 4 0.0000 0.0000 0.0000 37.5157 0.0000 0.0000
# 5 0.0000 0.0000 0.0000 0.0000 15.4401 0.0000
# 6 0.0000 0.0000 0.0000 0.0000 0.0000 20.4412
#
#
#
# Elastic Compliance Matrix: (Units=1/GPa)
#
#
# Indices 1 2 3 4 5 6 
#
# 1 0.015467 -0.001945 -0.003709 0.000000 0.000000 0.000000
# 2 -0.001945 0.011413 -0.004771 0.000000 0.000000 0.000000
# 3 -0.003709 -0.004771 0.016000 0.000000 0.000000 0.000000
# 4 0.000000 0.000000 0.000000 0.026656 0.000000 0.000000
# 5 0.000000 0.000000 0.000000 0.000000 0.064766 0.000000
# 6 0.000000 0.000000 0.000000 0.000000 0.000000 0.048921
#
#
# Mechanical properties :
#
#
# Convention : Reuss Voigt Hill
#
# Bulk Modulus (GPa) = 45.38970 47.22625 46.30798
# Shear Modulus (GPa) = 23.65010 26.41713 25.03362
#
# Velocity S-wave (km/s) = 3.31144 3.49980 3.40692
# Velocity P-wave (km/s) = 5.97213 6.18292 6.07843
#
# Compressibility (1/GPa) = 0.02203143
#
# Stress axis : x y z
#
# Youngs Moduli (GPa) = 64.65271 87.62031 62.49939
#
# Poissons Ratio (x) = 0.17040 0.23180
# Poissons Ratio (y) = 0.12573 0.29818
# Poissons Ratio (z) = 0.23978 0.41802
#
# Static dielectric constant tensor:
#      x y z
#    x 3.427720 0.000000 0.000000 
#    y 0.000000 4.481690 0.000000 
#    z 0.000000 0.000000 4.096400 
# 
# 
# High freq. dielectric constant tensor:
#      x y z
#    x 1.801350 0.000000 0.000000 
#    y 0.000000 1.860610 0.000000 
#    z 0.000000 0.000000 1.853890 
# 
# From -- ./inp_files/8225.got.cif
#   From: 2010.03.12/outbox.cif.g09.slc.cpg/sg46_5_cif.got.tgz:8225.got - 2010.04.14 02:56:35.
