data_PCOD8192901
_publ_section_title
;
Structure prediction by ZEFSAII (Michael W. Deem and Ramdas Pophale) SiO2 
 PCOD8192901
Probable space group: I M A 2
;
_chemical_formula_sum "Si O2"
_cell_formula_units_Z 48
_cell_length_a 8.484254
_cell_length_b 15.146824
_cell_length_c 18.797102
_cell_angle_alpha 90.000000
_cell_angle_beta 90.000000
_cell_angle_gamma 90.000000
_cell_volume 2415.606219
_symmetry_space_group_name_H-M "I M A 2"
_symmetry_group_IT_number 46
_symmetry_cell_setting 'orthorhombic'
loop_
_space_group_symop_operation_xyz
x,y,z
-x,-y,z
1/2-x,y,z
1/2+x,-y,z
1/2+x,1/2+y,1/2+z
1/2-x,1/2-y,1/2+z
-x,1/2+y,1/2+z
x,1/2-y,1/2+z
loop_
_atom_site_type_symbol
_atom_site_label
_atom_site_fract_x
_atom_site_fract_y
_atom_site_fract_z
Si Si1 0.934414 0.094714 0.522480
Si Si2 0.564555 0.406173 0.662858
Si Si3 0.433225 0.237706 0.421510
Si Si4 0.564699 0.248663 0.266685
Si Si5 0.063809 0.097688 0.673568
Si Si6 0.434576 0.092950 0.008771
O O1 0.750000 0.086661 0.538866
O O2 0.964356 0.162355 0.458938
O O3 0.020985 0.128729 0.593761
O O4 0.000000 0.000000 0.498477
O O5 0.500000 0.500000 0.689687
O O6 0.750000 0.411631 0.659829
O O7 0.507186 0.330965 0.716570
O O8 0.504241 0.381289 0.584937
O O9 0.250000 0.218255 0.435312
O O10 0.468443 0.238026 0.338652
O O11 0.483350 0.332484 0.452700
O O12 0.750000 0.244879 0.282302
O O13 0.521762 0.340704 0.230331
O O14 0.250000 0.101869 0.684887
O O15 0.000000 0.000000 0.686917
O O16 0.250000 0.083788 0.017870
O O17 0.500000 0.000000 0.980157
#
# Coordination Sequence:
#
# PCOD8192901 Si02
#       6
#     8   8   8   8   8   8
#     4  11  22  39  63  89 117 152 194 243 293 348
#     4  10  21  37  60  86 113 147 189 235 284 336
#     4  11  24  40  58  85 119 157 196 238 291 348
#     4  11  24  40  58  85 119 157 196 238 291 348
#     4  11  22  39  63  89 117 152 194 243 293 348
#     4  10  21  37  60  86 113 147 189 235 284 336
#
# _framework density 19.870787
#
# number of rings (size 3 to 8) (size 9 to 14) (size 15 to 20)
#    0.000    1.333    0.000    8.000    0.000    9.333 
#    0.000    3.333    0.000    0.000    0.000    0.000 
#    0.000    0.000    0.000    0.000    0.000    0.000 
#
# Total GULP energy -297749.949475 kJ/mol
# GULP energy per Si atom -12406.247895 kJ/mol
# Density = 1.982556 g / cm^3
# Si number density = 19.870787 Si / 1000 Ang^3
#
#
#
# Elastic Constant Matrix: (Units=GPa)
#
#
# Indices 1 2 3 4 5 6 
#
# 1 82.7792 -33.8762 -43.5303 0.0000 0.0000 0.0000
# 2 -33.8762 683.4741 571.9883 0.0000 0.0000 0.0000
# 3 -43.5303 571.9883 549.8566 0.0000 0.0000 0.0000
# 4 0.0000 0.0000 0.0000 4.1847 0.0000 0.0000
# 5 0.0000 0.0000 0.0000 0.0000 25.4333 0.0000
# 6 0.0000 0.0000 0.0000 0.0000 0.0000 34.6279
#
#
#
# Elastic Compliance Matrix: (Units=1/GPa)
#
#
# Indices 1 2 3 4 5 6 
#
# 1 0.012843 -0.001656 0.002739 0.000000 0.000000 0.000000
# 2 -0.001656 0.011518 -0.012112 0.000000 0.000000 0.000000
# 3 0.002739 -0.012112 0.014635 0.000000 0.000000 0.000000
# 4 0.000000 0.000000 0.000000 0.238963 0.000000 0.000000
# 5 0.000000 0.000000 0.000000 0.000000 0.039319 0.000000
# 6 0.000000 0.000000 0.000000 0.000000 0.000000 0.028878
#
#
# Mechanical properties :
#
#
# Convention : Reuss Voigt Hill
#
# Bulk Modulus (GPa) = 59.03763 256.14151 157.58957
# Shear Modulus (GPa) = 13.37399 67.61772 40.49586
#
# Velocity S-wave (km/s) = 2.59713 5.83974 4.51927
# Velocity P-wave (km/s) = 6.22645 13.21565 10.33011
#
# Compressibility (1/GPa) = 0.01693835
#
# Stress axis : x y z
#
# Youngs Moduli (GPa) = 77.86235 86.82337 68.32766
#
# Poissons Ratio (x) = 0.14378 -0.18718
# Poissons Ratio (y) = 0.12894 0.82761
# Poissons Ratio (z) = -0.21329 1.05163
#
# Static dielectric constant tensor:
#      x y z
#    x 3.786630 0.000000 0.000000 
#    y 0.000000 3.933670 0.000000 
#    z 0.000000 0.000000 2.403250 
# 
# 
# High freq. dielectric constant tensor:
#      x y z
#    x 1.792150 0.000000 0.000000 
#    y 0.000000 1.788650 0.000000 
#    z 0.000000 0.000000 1.770060 
# 
# From -- ./inp_files/13925.got.cif
#   From: 2010.03.12/outbox.cif.g09.slc.cpg/sg46_7_cif.got.tgz:13925.got - 2010.04.14 02:56:35.
