data_PCOD8192204
_publ_section_title
;
Structure prediction by ZEFSAII (Michael W. Deem and Ramdas Pophale) SiO2 
 PCOD8192204
Probable space group: I M A 2
;
_chemical_formula_sum "Si O2"
_cell_formula_units_Z 64
_cell_length_a 13.552949
_cell_length_b 28.442463
_cell_length_c 8.739429
_cell_angle_alpha 90.000000
_cell_angle_beta 90.000000
_cell_angle_gamma 90.000000
_cell_volume 3368.868540
_symmetry_space_group_name_H-M "I M A 2"
_symmetry_group_IT_number 46
_symmetry_cell_setting 'orthorhombic'
loop_
_space_group_symop_operation_xyz
x,y,z
-x,-y,z
1/2-x,y,z
1/2+x,-y,z
1/2+x,1/2+y,1/2+z
1/2-x,1/2-y,1/2+z
-x,1/2+y,1/2+z
x,1/2-y,1/2+z
loop_
_atom_site_type_symbol
_atom_site_label
_atom_site_fract_x
_atom_site_fract_y
_atom_site_fract_z
Si Si1 0.133847 0.432747 0.596060
Si Si2 0.002650 0.895136 0.342738
Si Si3 0.642135 0.021864 0.929429
Si Si4 0.360515 0.281222 0.232721
Si Si5 0.139082 0.189728 0.393883
Si Si6 0.470233 0.553056 0.145557
Si Si7 0.538179 0.629440 0.364464
Si Si8 0.638238 0.382495 0.573405
O O1 0.250000 0.438286 0.634696
O O2 0.070457 0.430624 0.752029
O O3 0.085344 0.475508 0.493474
O O4 0.112646 0.385149 0.501275
O O5 0.935900 0.852994 0.404064
O O6 0.055330 0.922057 0.484502
O O7 0.089025 0.872740 0.238181
O O8 0.750000 0.001119 0.905855
O O9 0.616809 0.044938 0.766649
O O10 0.639126 0.061030 0.060590
O O11 0.250000 0.289216 0.298188
O O12 0.397318 0.228655 0.272216
O O13 0.431995 0.320507 0.300314
O O14 0.361090 0.282939 0.052098
O O15 0.250000 0.171120 0.355009
O O16 0.500000 0.500000 0.106026
O O17 0.545528 0.588619 0.233397
O O18 0.427985 0.637277 0.433659
O O19 0.750000 0.361821 0.565236
#
# Coordination Sequence:
#
# PCOD8192204 Si02
#       8
#     8   8   8   8   8   8   8   8
#     4  10  20  34  54  82 115 150 191 232 285 355
#     4  11  23  35  58  84 117 157 191 248 304 354
#     4   9  19  37  55  76 106 149 198 240 281 339
#     4  10  21  37  59  88 122 152 186 233 294 368
#     4  10  22  39  58  89 124 153 189 236 299 367
#     4  11  21  35  52  80 115 149 196 243 295 338
#     4  10  19  36  61  82 109 154 195 236 292 351
#     4   9  21  37  57  79 108 148 196 239 279 335
#
# _framework density 18.997475999999999
#
# number of rings (size 3 to 8) (size 9 to 14) (size 15 to 20)
#    0.000    2.000    2.500    0.750    5.250    0.500 
#    0.000    1.250    0.000    0.750    0.000    0.000 
#    0.000    0.000    0.000    0.000    0.000    0.000 
#
# Total GULP energy -396434.840915 kJ/mol
# GULP energy per Si atom -12388.588779 kJ/mol
# Density = 1.895424 g / cm^3
# Si number density = 18.997476 Si / 1000 Ang^3
#
#
#
# Elastic Constant Matrix: (Units=GPa)
#
#
# Indices 1 2 3 4 5 6 
#
# 1 72.4563 24.8347 21.8359 0.0010 0.0002 -0.0001
# 2 24.8347 77.4791 29.7080 -0.0002 0.0003 0.0000
# 3 21.8359 29.7080 92.7607 0.0060 -0.0052 -0.0018
# 4 0.0010 -0.0002 0.0060 34.4222 -0.0017 -0.0002
# 5 0.0002 0.0003 -0.0052 -0.0017 18.5918 0.0003
# 6 -0.0001 0.0000 -0.0018 -0.0002 0.0003 26.3187
#
#
#
# Elastic Compliance Matrix: (Units=1/GPa)
#
#
# Indices 1 2 3 4 5 6 
#
# 1 0.015966 -0.004191 -0.002416 0.000000 -0.000001 0.000000
# 2 -0.004191 0.015814 -0.004078 0.000001 -0.000001 0.000000
# 3 -0.002416 -0.004078 0.012655 -0.000002 0.000004 0.000001
# 4 0.000000 0.000001 -0.000002 0.029051 0.000003 0.000000
# 5 -0.000001 -0.000001 0.000004 0.000003 0.053787 -0.000001
# 6 0.000000 0.000000 0.000001 0.000000 -0.000001 0.037996
#
#
# Mechanical properties :
#
#
# Convention : Reuss Voigt Hill
#
# Bulk Modulus (GPa) = 43.35687 43.93927 43.64807
# Shear Modulus (GPa) = 25.72969 26.95437 26.34203
#
# Velocity S-wave (km/s) = 3.68417 3.77084 3.72776
# Velocity P-wave (km/s) = 6.40074 6.49139 6.44623
#
# Compressibility (1/GPa) = 0.02306439
#
# Stress axis : x y z
#
# Youngs Moduli (GPa) = 62.63259 63.23598 79.01888
#
# Poissons Ratio (x) = 0.26504 0.19092
# Poissons Ratio (y) = 0.26251 0.32224
# Poissons Ratio (z) = 0.15133 0.25787
#
# Static dielectric constant tensor:
#      x y z
#    x 3.444880 0.000000 0.000000 
#    y 0.000000 3.367800 0.000000 
#    z 0.000000 0.000000 3.591940 
# 
# 
# High freq. dielectric constant tensor:
#      x y z
#    x 1.718660 0.000000 0.000000 
#    y 0.000000 1.726980 0.000000 
#    z 0.000000 0.000000 1.744250 
# 
# From -- ./inp_files/6210.got.cif
#   From: 2010.03.12/outbox.cif.g09.slc.cpg/sg46_4_cif.got.tgz:6210.got - 2010.04.14 02:56:35.
