data_PCOD8192138
_publ_section_title
;
Structure prediction by ZEFSAII (Michael W. Deem and Ramdas Pophale) SiO2 
 PCOD8192138
Probable space group: I M A 2
;
_chemical_formula_sum "Si O2"
_cell_formula_units_Z 64
_cell_length_a 9.027777
_cell_length_b 24.770727
_cell_length_c 15.041807
_cell_angle_alpha 90.000000
_cell_angle_beta 90.000000
_cell_angle_gamma 90.000000
_cell_volume 3363.718066
_symmetry_space_group_name_H-M "I M A 2"
_symmetry_group_IT_number 46
_symmetry_cell_setting 'orthorhombic'
loop_
_space_group_symop_operation_xyz
x,y,z
-x,-y,z
1/2-x,y,z
1/2+x,-y,z
1/2+x,1/2+y,1/2+z
1/2-x,1/2-y,1/2+z
-x,1/2+y,1/2+z
x,1/2-y,1/2+z
loop_
_atom_site_type_symbol
_atom_site_label
_atom_site_fract_x
_atom_site_fract_y
_atom_site_fract_z
Si Si1 0.078048 0.242177 0.343000
Si Si2 0.078280 0.110922 0.564717
Si Si3 0.580136 0.638987 0.732128
Si Si4 0.576836 0.556299 0.249185
Si Si5 0.574251 0.557089 0.881069
Si Si6 0.580170 0.165890 0.062423
Si Si7 0.076833 0.785492 0.520888
Si Si8 0.925373 0.351357 0.360550
O O1 0.250000 0.256441 0.358134
O O2 0.056546 0.200509 0.262777
O O3 0.015158 0.213071 0.430067
O O4 0.987892 0.296017 0.318724
O O5 0.250000 0.127660 0.558041
O O6 0.047910 0.071862 0.647204
O O7 0.023897 0.080242 0.476450
O O8 0.981495 0.164904 0.580239
O O9 0.750000 0.624840 0.719292
O O10 0.514551 0.597428 0.804645
O O11 0.505728 0.631555 0.636228
O O12 0.500000 0.500000 0.269300
O O13 0.750000 0.552341 0.270607
O O14 0.503370 0.599006 0.314306
O O15 0.500000 0.500000 0.863978
O O16 0.750000 0.550667 0.878619
O O17 0.750000 0.153262 0.078787
O O18 0.546732 0.229692 0.072496
O O19 0.532468 0.146423 0.964564
O O20 0.250000 0.791586 0.498637
O O21 0.750000 0.352742 0.345087
#
# Coordination Sequence:
#
# PCOD8192138 Si02
#       8
#     8   8   8   8   8   8   8   8
#     4  10  19  35  57  84 118 155 192 237 292 351
#     4  10  21  38  58  83 120 157 193 237 288 352
#     4  10  21  36  57  84 117 154 194 238 290 346
#     4  11  24  41  63  89 116 155 201 248 302 354
#     4  10  21  39  58  83 116 153 194 237 285 342
#     4   9  21  38  56  83 118 152 192 241 293 345
#     4  10  20  34  54  85 119 155 194 234 289 347
#     4  10  22  41  61  85 118 154 196 249 298 353
#
# _framework density 19.026565999999999
#
# number of rings (size 3 to 8) (size 9 to 14) (size 15 to 20)
#    0.000    2.000    1.250    2.625    1.750    6.000 
#    0.000    0.625    0.000    1.500    0.000    0.000 
#    0.000    0.000    0.000    0.000    0.000    0.000 
#
# Total GULP energy -396885.047884 kJ/mol
# GULP energy per Si atom -12402.657746 kJ/mol
# Density = 1.898326 g / cm^3
# Si number density = 19.026566 Si / 1000 Ang^3
#
#
#
# Elastic Constant Matrix: (Units=GPa)
#
#
# Indices 1 2 3 4 5 6 
#
# 1 85.3377 58.2612 52.8007 0.0000 -0.0001 0.0000
# 2 58.2612 132.0949 60.4743 0.0000 0.0001 0.0000
# 3 52.8007 60.4743 103.6946 -0.0004 0.0002 0.0001
# 4 0.0000 0.0000 -0.0004 28.0615 0.0001 0.0000
# 5 -0.0001 0.0001 0.0002 0.0001 21.8346 0.0000
# 6 0.0000 0.0000 0.0001 0.0000 0.0000 36.3825
#
#
#
# Elastic Compliance Matrix: (Units=1/GPa)
#
#
# Indices 1 2 3 4 5 6 
#
# 1 0.019740 -0.005600 -0.006786 0.000000 0.000000 0.000000
# 2 -0.005600 0.011916 -0.004098 0.000000 0.000000 0.000000
# 3 -0.006786 -0.004098 0.015489 0.000000 0.000000 0.000000
# 4 0.000000 0.000000 0.000000 0.035636 0.000000 0.000000
# 5 0.000000 0.000000 0.000000 0.000000 0.045799 0.000000
# 6 0.000000 0.000000 0.000000 0.000000 0.000000 0.027486
#
#
# Mechanical properties :
#
#
# Convention : Reuss Voigt Hill
#
# Bulk Modulus (GPa) = 70.53255 73.79994 72.16625
# Shear Modulus (GPa) = 25.80534 27.22844 26.51689
#
# Velocity S-wave (km/s) = 3.68677 3.78706 3.73725
# Velocity P-wave (km/s) = 7.43465 7.61541 7.52557
#
# Compressibility (1/GPa) = 0.01417785
#
# Stress axis : x y z
#
# Youngs Moduli (GPa) = 50.65968 83.91860 64.56241
#
# Poissons Ratio (x) = 0.46993 0.43809
# Poissons Ratio (y) = 0.28368 0.26459
# Poissons Ratio (z) = 0.34375 0.34391
#
# Static dielectric constant tensor:
#      x y z
#    x 3.481500 0.000000 0.000000 
#    y 0.000000 3.375920 0.000000 
#    z 0.000000 0.000000 3.463530 
# 
# 
# High freq. dielectric constant tensor:
#      x y z
#    x 1.742790 0.000000 0.000000 
#    y 0.000000 1.734310 0.000000 
#    z 0.000000 0.000000 1.737700 
# 
# From -- ./inp_files/14426.got.cif
#   From: 2010.03.12/outbox.cif.g09.slc.cpg/sg46_8_cif.got.tgz:14426.got - 2010.04.14 02:56:35.
