data_PCOD8192343
_publ_section_title
;
Structure prediction by ZEFSAII (Michael W. Deem and Ramdas Pophale) SiO2 
 PCOD8192343
Probable space group: I M A 2
;
_chemical_formula_sum "Si O2"
_cell_formula_units_Z 64
_cell_length_a 9.011677
_cell_length_b 24.994450
_cell_length_c 15.006818
_cell_angle_alpha 90.000000
_cell_angle_beta 90.000000
_cell_angle_gamma 90.000000
_cell_volume 3380.164352
_symmetry_space_group_name_H-M "I M A 2"
_symmetry_group_IT_number 46
_symmetry_cell_setting 'orthorhombic'
loop_
_space_group_symop_operation_xyz
x,y,z
-x,-y,z
1/2-x,y,z
1/2+x,-y,z
1/2+x,1/2+y,1/2+z
1/2-x,1/2-y,1/2+z
-x,1/2+y,1/2+z
x,1/2-y,1/2+z
loop_
_atom_site_type_symbol
_atom_site_label
_atom_site_fract_x
_atom_site_fract_y
_atom_site_fract_z
Si Si1 0.575927 0.399700 0.426800
Si Si2 0.572530 0.443281 0.238003
Si Si3 0.421154 0.783246 0.884978
Si Si4 0.920016 0.758465 0.707492
Si Si5 0.578593 0.863514 0.602604
Si Si6 0.573675 0.054579 0.110398
Si Si7 0.076017 0.652560 0.729419
Si Si8 0.578539 0.333327 0.932409
O O1 0.750000 0.408042 0.425691
O O2 0.512151 0.423489 0.334518
O O3 0.537601 0.336816 0.439290
O O4 0.510329 0.430672 0.512156
O O5 0.500000 0.500000 0.216152
O O6 0.750000 0.447298 0.235136
O O7 0.519543 0.401833 0.163663
O O8 0.250000 0.784090 0.853535
O O9 0.519756 0.784344 0.797475
O O10 0.451385 0.730417 0.943706
O O11 0.750000 0.743760 0.721950
O O12 0.942989 0.801971 0.630537
O O13 0.003931 0.703973 0.681972
O O14 0.750000 0.881417 0.607675
O O15 0.520927 0.866938 0.501095
O O16 0.750000 0.048791 0.110212
O O17 0.520863 0.099440 0.180091
O O18 0.500000 0.000000 0.142754
O O19 0.250000 0.660463 0.718758
O O20 0.030719 0.649037 0.833100
O O21 0.750000 0.346926 0.950599
#
# Coordination Sequence:
#
# PCOD8192343 Si02
#       8
#     8   8   8   8   8   8   8   8
#     4   9  18  33  56  85 114 149 187 224 273 335
#     4  11  22  38  60  83 114 152 192 235 281 335
#     4   9  17  33  55  82 113 148 189 223 269 336
#     4  10  20  33  52  81 115 146 181 229 282 333
#     4  11  23  37  54  82 117 152 190 231 283 341
#     4  10  21  38  59  84 113 146 189 236 280 334
#     4   9  20  38  60  82 109 148 193 235 280 338
#     4   9  19  34  56  83 111 146 188 235 282 333
#
# _framework density 18.933992
#
# number of rings (size 3 to 8) (size 9 to 14) (size 15 to 20)
#    0.000    2.250    1.250    2.250    1.750    4.000 
#    0.000    1.875    0.000    1.500    0.000    0.000 
#    0.000    0.000    0.000    0.000    0.000    0.000 
#
# Total GULP energy -396793.685270 kJ/mol
# GULP energy per Si atom -12399.802665 kJ/mol
# Density = 1.889090 g / cm^3
# Si number density = 18.933992 Si / 1000 Ang^3
#
#
#
# Elastic Constant Matrix: (Units=GPa)
#
#
# Indices 1 2 3 4 5 6 
#
# 1 59.2887 41.8223 39.7926 0.0001 0.0000 0.0000
# 2 41.8223 126.1125 53.7394 -0.0001 0.0000 0.0000
# 3 39.7926 53.7394 93.2151 -0.0002 0.0000 0.0000
# 4 0.0001 -0.0001 -0.0002 29.1382 0.0000 0.0000
# 5 0.0000 0.0000 0.0000 0.0000 21.7684 0.0000
# 6 0.0000 0.0000 0.0000 0.0000 0.0000 29.8940
#
#
#
# Elastic Compliance Matrix: (Units=1/GPa)
#
#
# Indices 1 2 3 4 5 6 
#
# 1 0.025938 -0.005148 -0.008105 0.000000 0.000000 0.000000
# 2 -0.005148 0.011534 -0.004452 0.000000 0.000000 0.000000
# 3 -0.008105 -0.004452 0.016754 0.000000 0.000000 0.000000
# 4 0.000000 0.000000 0.000000 0.034319 0.000000 0.000000
# 5 0.000000 0.000000 0.000000 0.000000 0.045938 0.000000
# 6 0.000000 0.000000 0.000000 0.000000 0.000000 0.033452
#
#
# Mechanical properties :
#
#
# Convention : Reuss Voigt Hill
#
# Bulk Modulus (GPa) = 53.14410 61.03610 57.09010
# Shear Modulus (GPa) = 23.85326 25.71091 24.78208
#
# Velocity S-wave (km/s) = 3.55323 3.68900 3.62175
# Velocity P-wave (km/s) = 6.70544 7.10290 6.90703
#
# Compressibility (1/GPa) = 0.01881676
#
# Stress axis : x y z
#
# Youngs Moduli (GPa) = 38.55402 86.70343 59.68714
#
# Poissons Ratio (x) = 0.44635 0.48374
# Poissons Ratio (y) = 0.19848 0.26570
# Poissons Ratio (z) = 0.31247 0.38597
#
# Static dielectric constant tensor:
#      x y z
#    x 3.293590 0.000000 0.000000 
#    y 0.000000 3.513180 0.000000 
#    z 0.000000 0.000000 3.492420 
# 
# 
# High freq. dielectric constant tensor:
#      x y z
#    x 1.721490 0.000000 0.000000 
#    y 0.000000 1.734470 0.000000 
#    z 0.000000 0.000000 1.730920 
# 
# From -- ./inp_files/14498.got.cif
#   From: 2010.03.12/outbox.cif.g09.slc.cpg/sg46_8_cif.got.tgz:14498.got - 2010.04.14 02:56:35.
