data_PCOD8192008
_publ_section_title
;
Structure prediction by ZEFSAII (Michael W. Deem and Ramdas Pophale) SiO2 
 PCOD8192008
Probable space group: I M A 2
;
_chemical_formula_sum "Si O2"
_cell_formula_units_Z 48
_cell_length_a 8.945338
_cell_length_b 28.019590
_cell_length_c 10.206475
_cell_angle_alpha 90.000000
_cell_angle_beta 90.000000
_cell_angle_gamma 90.000000
_cell_volume 2558.198897
_symmetry_space_group_name_H-M "I M A 2"
_symmetry_group_IT_number 46
_symmetry_cell_setting 'orthorhombic'
loop_
_space_group_symop_operation_xyz
x,y,z
-x,-y,z
1/2-x,y,z
1/2+x,-y,z
1/2+x,1/2+y,1/2+z
1/2-x,1/2-y,1/2+z
-x,1/2+y,1/2+z
x,1/2-y,1/2+z
loop_
_atom_site_type_symbol
_atom_site_label
_atom_site_fract_x
_atom_site_fract_y
_atom_site_fract_z
Si Si1 0.576090 0.195702 0.238060
Si Si2 0.074781 0.296384 0.240433
Si Si3 0.422824 0.647718 0.469211
Si Si4 0.421791 0.351652 0.980032
Si Si5 0.424265 0.046797 0.579667
Si Si6 0.426093 0.547568 0.358202
O O1 0.750000 0.207133 0.248262
O O2 0.492200 0.244799 0.214002
O O3 0.526362 0.170309 0.370490
O O4 0.538368 0.160588 0.118237
O O5 0.250000 0.290801 0.254993
O O6 0.030510 0.330349 0.120020
O O7 0.015675 0.318279 0.374695
O O8 0.250000 0.656621 0.436103
O O9 0.465361 0.592262 0.450682
O O10 0.250000 0.338982 0.948486
O O11 0.447176 0.408581 0.983150
O O12 0.250000 0.037376 0.606587
O O13 0.504134 0.057748 0.716610
O O14 0.500000 0.000000 0.514179
O O15 0.500000 0.500000 0.420463
O O16 0.250000 0.539805 0.343818
#
# Coordination Sequence:
#
# PCOD8192008 Si02
#       6
#     8   8   8   8   8   8
#     4  11  24  39  56  81 115 151 189 231 279 334
#     4  11  22  38  60  84 111 146 190 235 279 331
#     4  10  22  39  58  84 114 148 189 231 277 334
#     4  10  22  39  58  84 115 148 189 231 276 334
#     4  10  19  34  56  85 114 142 184 230 277 331
#     4  10  19  33  56  84 113 143 183 230 278 330
#
# _framework density 18.763200000000001
#
# number of rings (size 3 to 8) (size 9 to 14) (size 15 to 20)
#    0.000    1.667    1.667    4.000    0.000    7.333 
#    0.000    0.833    0.000    4.000    0.000    0.000 
#    0.000    0.000    0.000    0.000    0.000    0.000 
#
# Total GULP energy -297673.140435 kJ/mol
# GULP energy per Si atom -12403.047518 kJ/mol
# Density = 1.872049 g / cm^3
# Si number density = 18.763200 Si / 1000 Ang^3
#
#
#
# Elastic Constant Matrix: (Units=GPa)
#
#
# Indices 1 2 3 4 5 6 
#
# 1 86.2073 45.6983 33.8312 0.0018 -0.0003 0.0001
# 2 45.6983 119.0897 18.7479 0.0035 -0.0003 0.0002
# 3 33.8312 18.7479 55.6437 0.0007 -0.0002 -0.0008
# 4 0.0018 0.0035 0.0007 8.8893 -0.0010 0.0003
# 5 -0.0003 -0.0003 -0.0002 -0.0010 27.0503 0.0004
# 6 0.0001 0.0002 -0.0008 0.0003 0.0004 34.6819
#
#
#
# Elastic Compliance Matrix: (Units=1/GPa)
#
#
# Indices 1 2 3 4 5 6 
#
# 1 0.018114 -0.005509 -0.009157 -0.000001 0.000000 0.000000
# 2 -0.005509 0.010543 -0.000203 -0.000003 0.000000 0.000000
# 3 -0.009157 -0.000203 0.023607 0.000000 0.000000 0.000001
# 4 -0.000001 -0.000003 0.000000 0.112495 0.000004 -0.000001
# 5 0.000000 0.000000 0.000000 0.000004 0.036968 0.000000
# 6 0.000000 0.000000 0.000001 -0.000001 0.000000 0.028834
#
#
# Mechanical properties :
#
#
# Convention : Reuss Voigt Hill
#
# Bulk Modulus (GPa) = 44.39243 50.83282 47.61262
# Shear Modulus (GPa) = 18.67011 24.96850 21.81931
#
# Velocity S-wave (km/s) = 3.15785 3.65186 3.41380
# Velocity P-wave (km/s) = 6.08331 6.70313 6.40073
#
# Compressibility (1/GPa) = 0.02252636
#
# Stress axis : x y z
#
# Youngs Moduli (GPa) = 55.20582 94.84956 42.35995
#
# Poissons Ratio (x) = 0.52256 0.38789
# Poissons Ratio (y) = 0.30415 0.00858
# Poissons Ratio (z) = 0.50552 0.01921
#
# Static dielectric constant tensor:
#      x y z
#    x 3.542260 0.000000 0.000000 
#    y 0.000000 3.903930 0.000000 
#    z 0.000000 0.000000 3.239600 
# 
# 
# High freq. dielectric constant tensor:
#      x y z
#    x 1.740570 0.000000 0.000000 
#    y 0.000000 1.747540 0.000000 
#    z 0.000000 0.000000 1.707760 
# 
# From -- ./inp_files/3922.got.cif
#   From: 2010.03.12/outbox.cif.g09.slc.cpg/sg46_2_cif.got.tgz:3922.got - 2010.04.14 02:56:35.
