data_PCOD8192285
_publ_section_title
;
Structure prediction by ZEFSAII (Michael W. Deem and Ramdas Pophale) SiO2 
 PCOD8192285
Probable space group: I M A 2
;
_chemical_formula_sum "Si O2"
_cell_formula_units_Z 48
_cell_length_a 8.613063
_cell_length_b 23.689015
_cell_length_c 13.708382
_cell_angle_alpha 90.000000
_cell_angle_beta 90.000000
_cell_angle_gamma 90.000000
_cell_volume 2796.989428
_symmetry_space_group_name_H-M "I M A 2"
_symmetry_group_IT_number 46
_symmetry_cell_setting 'orthorhombic'
loop_
_space_group_symop_operation_xyz
x,y,z
-x,-y,z
1/2-x,y,z
1/2+x,-y,z
1/2+x,1/2+y,1/2+z
1/2-x,1/2-y,1/2+z
-x,1/2+y,1/2+z
x,1/2-y,1/2+z
loop_
_atom_site_type_symbol
_atom_site_label
_atom_site_fract_x
_atom_site_fract_y
_atom_site_fract_z
Si Si1 0.067073 0.560163 0.704680
Si Si2 0.931144 0.558901 0.912946
Si Si3 0.432321 0.335646 0.600456
Si Si4 0.568214 0.830249 0.526331
Si Si5 0.067812 0.728640 0.201783
Si Si6 0.068235 0.774296 0.924347
O O1 0.250000 0.556264 0.707143
O O2 0.000000 0.500000 0.672188
O O3 0.008144 0.577704 0.811687
O O4 0.014631 0.605963 0.626146
O O5 0.750000 0.551343 0.893202
O O6 0.965522 0.605798 0.994499
O O7 0.000000 0.500000 0.951851
O O8 0.250000 0.343778 0.609230
O O9 0.485487 0.287149 0.674879
O O10 0.478335 0.319682 0.490160
O O11 0.750000 0.816196 0.528628
O O12 0.496614 0.821560 0.633765
O O13 0.487389 0.788732 0.449206
O O14 0.250000 0.736575 0.184850
O O15 0.028655 0.712337 0.312448
O O16 0.250000 0.778889 0.946276
#
# Coordination Sequence:
#
# PCOD8192285 Si02
#       6
#     8   8   8   8   8   8
#     4  11  21  34  52  74 101 131 164 202 244 291
#     4  10  20  33  50  74 101 131 166 202 245 292
#     4  11  21  33  51  74 101 132 164 201 245 292
#     4  10  20  32  49  73 100 130 163 201 244 293
#     4  10  20  33  51  74 100 131 165 203 246 292
#     4  10  20  33  50  73  99 129 164 201 244 292
#
# _framework density 17.161308999999999
#
# number of rings (size 3 to 8) (size 9 to 14) (size 15 to 20)
#    0.000    1.667    0.000    9.000    0.000    8.000 
#    0.000    0.000    0.000    1.000    0.000    2.333 
#    0.000    0.000    0.000    0.000    0.000    0.000 
#
# Total GULP energy -297681.079934 kJ/mol
# GULP energy per Si atom -12403.378331 kJ/mol
# Density = 1.712225 g / cm^3
# Si number density = 17.161309 Si / 1000 Ang^3
#
#
#
# Elastic Constant Matrix: (Units=GPa)
#
#
# Indices 1 2 3 4 5 6 
#
# 1 118.3566 48.9061 42.0085 0.0000 0.0000 0.0000
# 2 48.9061 111.2347 61.6585 0.0001 0.0000 0.0000
# 3 42.0085 61.6585 109.2203 0.0006 -0.0001 0.0000
# 4 0.0000 0.0001 0.0006 26.5875 0.0000 0.0000
# 5 0.0000 0.0000 -0.0001 0.0000 26.2422 0.0000
# 6 0.0000 0.0000 0.0000 0.0000 0.0000 30.4397
#
#
#
# Elastic Compliance Matrix: (Units=1/GPa)
#
#
# Indices 1 2 3 4 5 6 
#
# 1 0.010650 -0.003510 -0.002115 0.000000 0.000000 0.000000
# 2 -0.003510 0.014242 -0.006690 0.000000 0.000000 0.000000
# 3 -0.002115 -0.006690 0.013746 0.000000 0.000000 0.000000
# 4 0.000000 0.000000 0.000000 0.037612 0.000000 0.000000
# 5 0.000000 0.000000 0.000000 0.000000 0.038107 0.000000
# 6 0.000000 0.000000 0.000000 0.000000 0.000000 0.032852
#
#
# Mechanical properties :
#
#
# Convention : Reuss Voigt Hill
#
# Bulk Modulus (GPa) = 71.38710 71.55087 71.46898
# Shear Modulus (GPa) = 28.32768 29.06978 28.69873
#
# Velocity S-wave (km/s) = 4.06725 4.12018 4.09380
# Velocity P-wave (km/s) = 7.98403 8.02609 8.00509
#
# Compressibility (1/GPa) = 0.01400813
#
# Stress axis : x y z
#
# Youngs Moduli (GPa) = 93.89610 70.21718 72.75042
#
# Poissons Ratio (x) = 0.24649 0.15383
# Poissons Ratio (y) = 0.32961 0.48668
# Poissons Ratio (z) = 0.19855 0.46973
#
# Static dielectric constant tensor:
#      x y z
#    x 3.405850 0.000000 0.000000 
#    y 0.000000 3.107820 0.000000 
#    z 0.000000 0.000000 3.197740 
# 
# 
# High freq. dielectric constant tensor:
#      x y z
#    x 1.687520 0.000000 0.000000 
#    y 0.000000 1.652500 0.000000 
#    z 0.000000 0.000000 1.652840 
# 
# From -- ./inp_files/14023.got.cif
#   From: 2010.03.12/outbox.cif.g09.slc.cpg/sg46_8_cif.got.tgz:14023.got - 2010.04.14 02:56:35.
