data_PCOD8192275
_publ_section_title
;
Structure prediction by ZEFSAII (Michael W. Deem and Ramdas Pophale) SiO2 
 PCOD8192275
Probable space group: I M A 2
;
_chemical_formula_sum "Si O2"
_cell_formula_units_Z 64
_cell_length_a 9.078884
_cell_length_b 18.470317
_cell_length_c 22.981160
_cell_angle_alpha 90.000000
_cell_angle_beta 90.000000
_cell_angle_gamma 90.000000
_cell_volume 3853.707629
_symmetry_space_group_name_H-M "I M A 2"
_symmetry_group_IT_number 46
_symmetry_cell_setting 'orthorhombic'
loop_
_space_group_symop_operation_xyz
x,y,z
-x,-y,z
1/2-x,y,z
1/2+x,-y,z
1/2+x,1/2+y,1/2+z
1/2-x,1/2-y,1/2+z
-x,1/2+y,1/2+z
x,1/2-y,1/2+z
loop_
_atom_site_type_symbol
_atom_site_label
_atom_site_fract_x
_atom_site_fract_y
_atom_site_fract_z
Si Si1 0.072790 0.075319 0.440350
Si Si2 0.423843 0.427527 0.691747
Si Si3 0.426122 0.793646 0.376262
Si Si4 0.413058 0.203521 0.643632
Si Si5 0.910525 0.206888 0.983360
Si Si6 0.086018 0.859081 0.546475
Si Si7 0.923290 0.716753 0.757413
Si Si8 0.411965 0.144891 0.078517
O O1 0.250000 0.072140 0.437863
O O2 0.012525 0.133913 0.394444
O O3 0.020391 0.092998 0.506021
O O4 0.000000 0.000000 0.420918
O O5 0.500000 0.500000 0.714919
O O6 0.250000 0.438333 0.689128
O O7 0.464167 0.363682 0.736025
O O8 0.484387 0.408122 0.626833
O O9 0.250000 0.807365 0.379378
O O10 0.473704 0.728810 0.420130
O O11 0.477369 0.767154 0.313284
O O12 0.250000 0.169053 0.647182
O O13 0.520261 0.145822 0.612041
O O14 0.468319 0.224134 0.708466
O O15 0.403811 0.275900 0.605947
O O16 0.750000 0.172460 0.975902
O O17 0.902475 0.279155 0.021266
O O18 0.003480 0.145976 0.017061
O O19 0.250000 0.893913 0.548976
O O20 0.750000 0.722281 0.771743
O O21 0.250000 0.116632 0.063442
#
# Coordination Sequence:
#
# PCOD8192275 Si02
#       8
#     8   8   8   8   8   8   8   8
#     4  11  21  33  47  62  84 115 149 182 217 255
#     4   9  18  30  42  59  83 111 144 178 208 244
#     4  10  20  32  44  62  87 114 147 182 215 254
#     4   8  14  26  43  61  81 107 139 175 215 255
#     4   8  15  26  40  59  81 103 131 170 212 254
#     4   9  16  27  43  64  86 106 134 173 217 261
#     4   9  18  31  44  60  85 117 152 184 213 249
#     4   8  14  25  41  59  78 101 132 170 210 250
#
# _framework density 16.607382999999999
#
# number of rings (size 3 to 8) (size 9 to 14) (size 15 to 20)
#    0.000    3.000    0.000    4.125    0.000    5.500 
#    0.000    3.750    0.000    0.000    0.000    0.000 
#    0.000    1.000    0.000    9.000    0.000    7.500 
#
# Total GULP energy -396536.989294 kJ/mol
# GULP energy per Si atom -12391.780915 kJ/mol
# Density = 1.656958 g / cm^3
# Si number density = 16.607383 Si / 1000 Ang^3
#
#
#
# Elastic Constant Matrix: (Units=GPa)
#
#
# Indices 1 2 3 4 5 6 
#
# 1 78.8117 7.3790 45.0922 0.0000 0.0000 0.0000
# 2 7.3790 4.4973 15.4024 0.0000 0.0000 0.0000
# 3 45.0922 15.4024 119.4744 0.0000 0.0000 0.0000
# 4 0.0000 0.0000 0.0000 13.6525 0.0000 0.0000
# 5 0.0000 0.0000 0.0000 0.0000 27.5033 0.0000
# 6 0.0000 0.0000 0.0000 0.0000 0.0000 19.0863
#
#
#
# Elastic Compliance Matrix: (Units=1/GPa)
#
#
# Indices 1 2 3 4 5 6 
#
# 1 0.016443 -0.010251 -0.004884 0.000000 0.000000 0.000000
# 2 -0.010251 0.404531 -0.048283 0.000000 0.000000 0.000000
# 3 -0.004884 -0.048283 0.016438 0.000000 0.000000 0.000000
# 4 0.000000 0.000000 0.000000 0.073247 0.000000 0.000000
# 5 0.000000 0.000000 0.000000 0.000000 0.036359 0.000000
# 6 0.000000 0.000000 0.000000 0.000000 0.000000 0.052394
#
#
# Mechanical properties :
#
#
# Convention : Reuss Voigt Hill
#
# Bulk Modulus (GPa) = 3.21982 37.61451 20.41716
# Shear Modulus (GPa) = 6.02575 21.04240 13.53407
#
# Velocity S-wave (km/s) = 1.90689 3.56343 2.85782
# Velocity P-wave (km/s) = 2.60601 6.29517 4.81770
#
# Compressibility (1/GPa) = 0.31057666
#
# Stress axis : x y z
#
# Youngs Moduli (GPa) = 60.81675 2.47200 60.83479
#
# Poissons Ratio (x) = 0.02534 0.29714
# Poissons Ratio (y) = 0.62342 2.93726
# Poissons Ratio (z) = 0.29705 0.11935
#
# Static dielectric constant tensor:
#      x y z
#    x 3.302820 0.000000 0.000000 
#    y 0.000000 2.779670 0.000000 
#    z 0.000000 0.000000 3.202860 
# 
# 
# High freq. dielectric constant tensor:
#      x y z
#    x 1.644020 0.000000 0.000000 
#    y 0.000000 1.584570 0.000000 
#    z 0.000000 0.000000 1.633730 
# 
# From -- ./inp_files/18661.got.cif
#   From: 2010.03.12/outbox.cif.g09.slc.cpg/sg46_10_cif.got.tgz:18661.got - 2010.04.14 02:56:35.
