data_PCOD8192045
_publ_section_title
;
Structure prediction by ZEFSAII (Michael W. Deem and Ramdas Pophale) SiO2 
 PCOD8192045
Probable space group: I M A 2
;
_chemical_formula_sum "Si O2"
_cell_formula_units_Z 40
_cell_length_a 8.925240
_cell_length_b 13.314390
_cell_length_c 18.499872
_cell_angle_alpha 90.000000
_cell_angle_beta 90.000000
_cell_angle_gamma 90.000000
_cell_volume 2198.416124
_symmetry_space_group_name_H-M "I M A 2"
_symmetry_group_IT_number 46
_symmetry_cell_setting 'orthorhombic'
loop_
_space_group_symop_operation_xyz
x,y,z
-x,-y,z
1/2-x,y,z
1/2+x,-y,z
1/2+x,1/2+y,1/2+z
1/2-x,1/2-y,1/2+z
-x,1/2+y,1/2+z
x,1/2-y,1/2+z
loop_
_atom_site_type_symbol
_atom_site_label
_atom_site_fract_x
_atom_site_fract_y
_atom_site_fract_z
Si Si1 0.926278 0.608485 0.295630
Si Si2 0.075963 0.599826 0.583070
Si Si3 0.425668 0.100073 0.520692
Si Si4 0.422581 0.307259 0.450935
Si Si5 0.073534 0.806284 0.656430
O O1 0.750000 0.596761 0.282137
O O2 0.962721 0.667981 0.368855
O O3 0.000000 0.500000 0.298389
O O4 0.999567 0.674849 0.233364
O O5 0.250000 0.579845 0.578048
O O6 0.036536 0.691543 0.635954
O O7 0.000000 0.500000 0.615059
O O8 0.018958 0.621277 0.502257
O O9 0.250000 0.084053 0.531774
O O10 0.461166 0.190617 0.465574
O O11 0.500337 0.119536 0.598344
O O12 0.500000 0.000000 0.487285
O O13 0.250000 0.329343 0.468716
O O14 0.250000 0.827394 0.658981
#
# Coordination Sequence:
#
# PCOD8192045 Si02
#       5
#     8   8   8   8   8
#     4  11  22  36  54  77 105 137 170 210 258 307
#     4  10  20  34  55  79 104 135 172 212 256 303
#     4  10  19  34  55  78 104 136 172 213 257 303
#     4   9  20  36  54  77 105 136 173 212 254 304
#     4  10  21  36  53  77 105 136 174 213 253 303
#
# _framework density 18.194917
#
# number of rings (size 3 to 8) (size 9 to 14) (size 15 to 20)
#    0.000    2.000    0.000    3.600    0.000    6.400 
#    0.000    1.000    0.000    4.800    0.000    0.000 
#    0.000    0.000    0.000    0.000    0.000    0.000 
#
# Total GULP energy -248085.182956 kJ/mol
# GULP energy per Si atom -12404.259148 kJ/mol
# Density = 1.815350 g / cm^3
# Si number density = 18.194917 Si / 1000 Ang^3
#
#
#
# Elastic Constant Matrix: (Units=GPa)
#
#
# Indices 1 2 3 4 5 6 
#
# 1 104.4850 65.8663 57.5176 0.0000 0.0000 0.0000
# 2 65.8663 135.0402 60.4116 0.0000 0.0000 0.0000
# 3 57.5176 60.4116 119.8689 0.0000 0.0000 0.0000
# 4 0.0000 0.0000 0.0000 19.5523 0.0000 0.0000
# 5 0.0000 0.0000 0.0000 0.0000 27.5165 0.0000
# 6 0.0000 0.0000 0.0000 0.0000 0.0000 36.7215
#
#
#
# Elastic Compliance Matrix: (Units=1/GPa)
#
#
# Indices 1 2 3 4 5 6 
#
# 1 0.015654 -0.005519 -0.004730 0.000000 0.000000 0.000000
# 2 -0.005519 0.011507 -0.003151 0.000000 0.000000 0.000000
# 3 -0.004730 -0.003151 0.012200 0.000000 0.000000 0.000000
# 4 0.000000 0.000000 0.000000 0.051145 0.000000 0.000000
# 5 0.000000 0.000000 0.000000 0.000000 0.036342 0.000000
# 6 0.000000 0.000000 0.000000 0.000000 0.000000 0.027232
#
#
# Mechanical properties :
#
#
# Convention : Reuss Voigt Hill
#
# Bulk Modulus (GPa) = 79.61243 80.77611 80.19427
# Shear Modulus (GPa) = 27.01748 28.46464 27.74106
#
# Velocity S-wave (km/s) = 3.85761 3.95958 3.90893
# Velocity P-wave (km/s) = 7.98072 8.08675 8.03391
#
# Compressibility (1/GPa) = 0.01256085
#
# Stress axis : x y z
#
# Youngs Moduli (GPa) = 63.88305 86.90503 81.96823
#
# Poissons Ratio (x) = 0.47965 0.38767
# Poissons Ratio (y) = 0.35259 0.25827
# Poissons Ratio (z) = 0.30214 0.27383
#
# Static dielectric constant tensor:
#      x y z
#    x 3.497390 0.000000 0.000000 
#    y 0.000000 3.518890 0.000000 
#    z 0.000000 0.000000 3.258830 
# 
# 
# High freq. dielectric constant tensor:
#      x y z
#    x 1.721240 0.000000 0.000000 
#    y 0.000000 1.716600 0.000000 
#    z 0.000000 0.000000 1.689050 
# 
# From -- ./inp_files/13646.got.cif
#   From: 2010.03.12/outbox.cif.g09.slc.cpg/sg46_7_cif.got.tgz:13646.got - 2010.04.14 02:56:35.
