data_PCOD8192608
_publ_section_title
;
Structure prediction by ZEFSAII (Michael W. Deem and Ramdas Pophale) SiO2 
 PCOD8192608
Probable space group: I M A 2
;
_chemical_formula_sum "Si O2"
_cell_formula_units_Z 64
_cell_length_a 29.719273
_cell_length_b 6.637295
_cell_length_c 16.815061
_cell_angle_alpha 90.000000
_cell_angle_beta 90.000000
_cell_angle_gamma 90.000000
_cell_volume 3316.864645
_symmetry_space_group_name_H-M "I M A 2"
_symmetry_group_IT_number 46
_symmetry_cell_setting 'orthorhombic'
loop_
_space_group_symop_operation_xyz
x,y,z
-x,-y,z
1/2-x,y,z
1/2+x,-y,z
1/2+x,1/2+y,1/2+z
1/2-x,1/2-y,1/2+z
-x,1/2+y,1/2+z
x,1/2-y,1/2+z
loop_
_atom_site_type_symbol
_atom_site_label
_atom_site_fract_x
_atom_site_fract_y
_atom_site_fract_z
Si Si1 0.669560 0.401910 0.927620
Si Si2 0.799953 0.746992 0.033584
Si Si3 0.382512 0.349619 0.639930
Si Si4 0.599990 0.309026 0.529143
Si Si5 0.954121 0.586397 0.058521
Si Si6 0.375237 0.265758 0.821968
Si Si7 0.955392 0.890926 0.922466
Si Si8 0.700068 0.003890 0.881957
O O1 0.636937 0.544939 0.877075
O O2 0.699522 0.248975 0.874326
O O3 0.699569 0.535040 0.986482
O O4 0.642436 0.232459 0.974861
O O5 0.750000 0.770031 0.071887
O O6 0.838626 0.744837 0.100526
O O7 0.809831 0.926952 0.971904
O O8 0.385226 0.580626 0.610666
O O9 0.429030 0.239418 0.617148
O O10 0.379118 0.349980 0.733933
O O11 0.566493 0.451346 0.481898
O O12 0.579389 0.095719 0.547983
O O13 0.000000 0.500000 0.097284
O O14 0.966422 0.691483 0.974191
O O15 0.422335 0.168488 0.850391
O O16 0.336251 0.096956 0.823351
O O17 0.000000 0.000000 0.887278
O O18 0.750000 0.930960 0.856320
#
# Coordination Sequence:
#
# PCOD8192608 Si02
#       8
#     8   8   8   8   8   8   8   8
#     4  11  18  38  64  86 110 157 211 247 292 347
#     4  10  20  36  60  88 114 151 205 253 290 348
#     4  11  24  38  57  89 127 161 191 243 314 362
#     4  11  19  38  64  87 113 154 207 246 288 355
#     4  11  21  38  67  89 113 155 204 253 292 351
#     4  11  24  38  57  89 130 159 190 248 310 362
#     4  11  21  36  64  92 114 154 206 248 292 355
#     4  10  20  37  63  88 114 154 207 255 293 347
#
# _framework density 19.295331999999998
#
# number of rings (size 3 to 8) (size 9 to 14) (size 15 to 20)
#    0.000    1.250    6.250    1.875    0.000    2.500 
#    0.000    0.000    5.500    0.000    0.000    0.000 
#    0.000    0.000    0.000    0.000    0.000    0.000 
#
# Total GULP energy -396682.527869 kJ/mol
# GULP energy per Si atom -12396.328996 kJ/mol
# Density = 1.925142 g / cm^3
# Si number density = 19.295332 Si / 1000 Ang^3
#
#
#
# Elastic Constant Matrix: (Units=GPa)
#
#
# Indices 1 2 3 4 5 6 
#
# 1 119.2465 32.5233 38.1412 0.0000 0.0000 0.0000
# 2 32.5233 114.2207 27.3006 0.0000 0.0000 0.0000
# 3 38.1412 27.3006 86.1317 0.0000 0.0000 0.0000
# 4 0.0000 0.0000 0.0000 22.4158 0.0000 0.0000
# 5 0.0000 0.0000 0.0000 0.0000 15.0899 0.0000
# 6 0.0000 0.0000 0.0000 0.0000 0.0000 27.7669
#
#
#
# Elastic Compliance Matrix: (Units=1/GPa)
#
#
# Indices 1 2 3 4 5 6 
#
# 1 0.010162 -0.001967 -0.003877 0.000000 0.000000 0.000000
# 2 -0.001967 0.009853 -0.002252 0.000000 0.000000 0.000000
# 3 -0.003877 -0.002252 0.014041 0.000000 0.000000 0.000000
# 4 0.000000 0.000000 0.000000 0.044611 0.000000 0.000000
# 5 0.000000 0.000000 0.000000 0.000000 0.066269 0.000000
# 6 0.000000 0.000000 0.000000 0.000000 0.000000 0.036014
#
#
# Mechanical properties :
#
#
# Convention : Reuss Voigt Hill
#
# Bulk Modulus (GPa) = 55.97610 57.28101 56.62856
# Shear Modulus (GPa) = 24.61864 27.83009 26.22437
#
# Velocity S-wave (km/s) = 3.57583 3.80191 3.69060
# Velocity P-wave (km/s) = 6.79131 7.00169 6.89730
#
# Compressibility (1/GPa) = 0.01786477
#
# Stress axis : x y z
#
# Youngs Moduli (GPa) = 98.40134 101.48805 71.22175
#
# Poissons Ratio (x) = 0.19963 0.27611
# Poissons Ratio (y) = 0.19356 0.16040
# Poissons Ratio (z) = 0.38147 0.22856
#
# Static dielectric constant tensor:
#      x y z
#    x 3.668860 0.000000 0.000000 
#    y 0.000000 3.762500 0.000000 
#    z 0.000000 0.000000 3.082600 
# 
# 
# High freq. dielectric constant tensor:
#      x y z
#    x 1.764720 0.000000 0.000000 
#    y 0.000000 1.769840 0.000000 
#    z 0.000000 0.000000 1.701520 
# 
# From -- ./inp_files/20569.got.cif
#   From: 2010.03.12/outbox.cif.g09.slc.cpg/sg46_11_cif.got.tgz:20569.got - 2010.04.14 02:56:35.
