data_PCOD8192426
_publ_section_title
;
Structure prediction by ZEFSAII (Michael W. Deem and Ramdas Pophale) SiO2 
 PCOD8192426
Probable space group: I M A 2
;
_chemical_formula_sum "Si O2"
_cell_formula_units_Z 64
_cell_length_a 8.695010
_cell_length_b 20.673474
_cell_length_c 19.326980
_cell_angle_alpha 90.000000
_cell_angle_beta 90.000000
_cell_angle_gamma 90.000000
_cell_volume 3474.141838
_symmetry_space_group_name_H-M "I M A 2"
_symmetry_group_IT_number 46
_symmetry_cell_setting 'orthorhombic'
loop_
_space_group_symop_operation_xyz
x,y,z
-x,-y,z
1/2-x,y,z
1/2+x,-y,z
1/2+x,1/2+y,1/2+z
1/2-x,1/2-y,1/2+z
-x,1/2+y,1/2+z
x,1/2-y,1/2+z
loop_
_atom_site_type_symbol
_atom_site_label
_atom_site_fract_x
_atom_site_fract_y
_atom_site_fract_z
Si Si1 0.069747 0.883865 0.892520
Si Si2 0.068474 0.566366 0.674245
Si Si3 0.431265 0.119739 0.037700
Si Si4 0.573340 0.234191 0.386027
Si Si5 0.069011 0.189051 0.670647
Si Si6 0.428837 0.316917 0.754785
Si Si7 0.431393 0.434010 0.256733
Si Si8 0.428510 0.742067 0.041000
O O1 0.250000 0.896488 0.889997
O O2 0.028260 0.809223 0.879135
O O3 0.988013 0.927044 0.835183
O O4 0.007509 0.905299 0.967100
O O5 0.250000 0.561605 0.667076
O O6 0.000000 0.500000 0.705438
O O7 0.994017 0.575956 0.599230
O O8 0.027096 0.624081 0.726054
O O9 0.250000 0.112163 0.032490
O O10 0.471608 0.194032 0.053626
O O11 0.750000 0.223019 0.365064
O O12 0.466020 0.192194 0.335874
O O13 0.542062 0.212055 0.465011
O O14 0.250000 0.186102 0.657043
O O15 0.022713 0.251803 0.714929
O O16 0.009248 0.125921 0.710925
O O17 0.980040 0.189647 0.597594
O O18 0.250000 0.332460 0.744831
O O19 0.500000 0.500000 0.225084
O O20 0.250000 0.437510 0.256050
O O21 0.250000 0.761327 0.048835
#
# Coordination Sequence:
#
# PCOD8192426 Si02
#       8
#     8   8   8   8   8   8   8   8
#     4  10  20  35  55  81 113 151 193 233 278 333
#     4  12  25  41  59  82 114 151 190 234 282 336
#     4  11  21  35  55  81 115 152 190 231 277 333
#     4   9  19  34  54  84 116 146 184 232 281 333
#     4  10  21  36  57  84 115 148 190 235 284 338
#     4  11  21  36  59  87 114 148 189 233 283 335
#     4  11  23  39  56  81 114 152 193 236 284 337
#     4  10  20  34  56  86 116 147 188 234 284 334
#
# _framework density 18.421814999999999
#
# number of rings (size 3 to 8) (size 9 to 14) (size 15 to 20)
#    0.000    1.500    2.500    4.500    0.000    4.500 
#    0.000    2.500    0.000    0.750    0.000    1.750 
#    0.000    0.000    0.000    0.000    0.000    0.000 
#
# Total GULP energy -396960.925500 kJ/mol
# GULP energy per Si atom -12405.028922 kJ/mol
# Density = 1.837989 g / cm^3
# Si number density = 18.421815 Si / 1000 Ang^3
#
#
#
# Elastic Constant Matrix: (Units=GPa)
#
#
# Indices 1 2 3 4 5 6 
#
# 1 48.2159 22.7727 19.2901 0.0000 0.0000 0.0000
# 2 22.7727 94.9567 41.9738 0.0000 0.0000 0.0000
# 3 19.2901 41.9738 95.5342 0.0000 0.0000 0.0000
# 4 0.0000 0.0000 0.0000 22.2016 0.0000 0.0000
# 5 0.0000 0.0000 0.0000 0.0000 35.2859 0.0000
# 6 0.0000 0.0000 0.0000 0.0000 0.0000 28.7975
#
#
#
# Elastic Compliance Matrix: (Units=1/GPa)
#
#
# Indices 1 2 3 4 5 6 
#
# 1 0.024010 -0.004486 -0.002877 0.000000 0.000000 0.000000
# 2 -0.004486 0.013908 -0.005205 0.000000 0.000000 0.000000
# 3 -0.002877 -0.005205 0.013335 0.000000 0.000000 0.000000
# 4 0.000000 0.000000 0.000000 0.045042 0.000000 0.000000
# 5 0.000000 0.000000 0.000000 0.000000 0.028340 0.000000
# 6 0.000000 0.000000 0.000000 0.000000 0.000000 0.034725
#
#
# Mechanical properties :
#
#
# Convention : Reuss Voigt Hill
#
# Bulk Modulus (GPa) = 38.28942 45.19777 41.74360
# Shear Modulus (GPa) = 25.87979 27.56835 26.72407
#
# Velocity S-wave (km/s) = 3.75219 3.87267 3.81290
# Velocity P-wave (km/s) = 6.29300 6.67719 6.48794
#
# Compressibility (1/GPa) = 0.02611687
#
# Stress axis : x y z
#
# Youngs Moduli (GPa) = 41.64928 71.90300 74.99054
#
# Poissons Ratio (x) = 0.32259 0.21574
# Poissons Ratio (y) = 0.18686 0.39029
# Poissons Ratio (z) = 0.11982 0.37422
#
# Static dielectric constant tensor:
#      x y z
#    x 3.381660 0.000000 0.000000 
#    y 0.000000 3.281480 0.000000 
#    z 0.000000 0.000000 3.481660 
# 
# 
# High freq. dielectric constant tensor:
#      x y z
#    x 1.725900 0.000000 0.000000 
#    y 0.000000 1.691770 0.000000 
#    z 0.000000 0.000000 1.715280 
# 
# From -- ./inp_files/18590.got.cif
#   From: 2010.03.12/outbox.cif.g09.slc.cpg/sg46_10_cif.got.tgz:18590.got - 2010.04.14 02:56:35.
