data_PCOD8192757
_publ_section_title
;
Structure prediction by ZEFSAII (Michael W. Deem and Ramdas Pophale) SiO2 
 PCOD8192757
Probable space group: I M A 2
;
_chemical_formula_sum "Si O2"
_cell_formula_units_Z 48
_cell_length_a 14.493788
_cell_length_b 12.007296
_cell_length_c 13.512846
_cell_angle_alpha 90.000000
_cell_angle_beta 90.000000
_cell_angle_gamma 90.000000
_cell_volume 2351.656841
_symmetry_space_group_name_H-M "I M A 2"
_symmetry_group_IT_number 46
_symmetry_cell_setting 'orthorhombic'
loop_
_space_group_symop_operation_xyz
x,y,z
-x,-y,z
1/2-x,y,z
1/2+x,-y,z
1/2+x,1/2+y,1/2+z
1/2-x,1/2-y,1/2+z
-x,1/2+y,1/2+z
x,1/2-y,1/2+z
loop_
_atom_site_type_symbol
_atom_site_label
_atom_site_fract_x
_atom_site_fract_y
_atom_site_fract_z
Si Si1 0.519158 0.239904 0.696370
Si Si2 0.354669 0.907961 0.309051
Si Si3 0.038220 0.876987 0.497864
Si Si4 0.855323 0.483067 0.480364
Si Si5 0.482964 0.164386 0.903834
Si Si6 0.646775 0.896558 0.179668
O O1 0.589053 0.331723 0.734247
O O2 0.563924 0.170558 0.606107
O O3 0.496141 0.156738 0.786041
O O4 0.424583 0.297805 0.659360
O O5 0.250000 0.878040 0.287875
O O6 0.374317 0.886219 0.424686
O O7 0.375756 0.037734 0.282077
O O8 0.967633 0.790742 0.443258
O O9 0.000000 0.000000 0.511885
O O10 0.750000 0.456726 0.446192
O O11 0.891848 0.593412 0.425059
O O12 0.859618 0.507699 0.596536
O O13 0.923817 0.380886 0.457246
O O14 0.750000 0.844870 0.181851
#
# Coordination Sequence:
#
# PCOD8192757 Si02
#       6
#     8   8   8   8   8   8
#     4  11  22  38  65  89 129 164 205 254 317 373
#     4  10  22  39  63  94 123 164 214 260 307 362
#     4  11  23  40  61  89 129 169 203 248 312 377
#     4  10  21  39  66  94 121 156 211 267 307 358
#     4  10  22  38  62  94 121 164 208 252 316 366
#     4  10  20  38  67  95 118 158 215 264 306 359
#
# _framework density 20.411141000000001
#
# number of rings (size 3 to 8) (size 9 to 14) (size 15 to 20)
#    0.000    1.667    1.667    3.500    4.667    4.000 
#    0.000    1.667    0.000    0.000    0.000    0.000 
#    0.000    0.000    0.000    0.000    0.000    0.000 
#
# Total GULP energy -297500.326538 kJ/mol
# GULP energy per Si atom -12395.846939 kJ/mol
# Density = 2.036468 g / cm^3
# Si number density = 20.411141 Si / 1000 Ang^3
#
#
#
# Elastic Constant Matrix: (Units=GPa)
#
#
# Indices 1 2 3 4 5 6 
#
# 1 113.3641 40.5639 28.9207 0.0000 0.0000 0.0000
# 2 40.5639 87.9534 21.0659 0.0000 0.0000 0.0000
# 3 28.9207 21.0659 95.0728 0.0000 0.0000 0.0000
# 4 0.0000 0.0000 0.0000 38.0719 0.0000 0.0000
# 5 0.0000 0.0000 0.0000 0.0000 26.4995 0.0000
# 6 0.0000 0.0000 0.0000 0.0000 0.0000 15.4571
#
#
#
# Elastic Compliance Matrix: (Units=1/GPa)
#
#
# Indices 1 2 3 4 5 6 
#
# 1 0.011043 -0.004529 -0.002356 0.000000 0.000000 0.000000
# 2 -0.004529 0.013864 -0.001694 0.000000 0.000000 0.000000
# 3 -0.002356 -0.001694 0.011610 0.000000 0.000000 0.000000
# 4 0.000000 0.000000 0.000000 0.026266 0.000000 0.000000
# 5 0.000000 0.000000 0.000000 0.000000 0.037736 0.000000
# 6 0.000000 0.000000 0.000000 0.000000 0.000000 0.064695
#
#
# Mechanical properties :
#
#
# Convention : Reuss Voigt Hill
#
# Bulk Modulus (GPa) = 51.65392 53.05460 52.35426
# Shear Modulus (GPa) = 26.47952 29.72835 28.10393
#
# Velocity S-wave (km/s) = 3.60572 3.82052 3.71467
# Velocity P-wave (km/s) = 6.53427 6.74620 6.64108
#
# Compressibility (1/GPa) = 0.01935962
#
# Stress axis : x y z
#
# Youngs Moduli (GPa) = 90.55917 72.12906 86.13064
#
# Poissons Ratio (x) = 0.32664 0.20289
# Poissons Ratio (y) = 0.41010 0.14594
# Poissons Ratio (z) = 0.21333 0.12221
#
# Static dielectric constant tensor:
#      x y z
#    x 3.600320 0.000000 0.000000 
#    y 0.000000 3.701860 0.000000 
#    z 0.000000 0.000000 3.933130 
# 
# 
# High freq. dielectric constant tensor:
#      x y z
#    x 1.780530 0.000000 0.000000 
#    y 0.000000 1.792450 0.000000 
#    z 0.000000 0.000000 1.809010 
# 
# From -- ./inp_files/15859.got.cif
#   From: 2010.03.12/outbox.cif.g09.slc.cpg/sg46_8_cif.got.tgz:15859.got - 2010.04.14 02:56:35.
