data_PCOD8192381
_publ_section_title
;
Structure prediction by ZEFSAII (Michael W. Deem and Ramdas Pophale) SiO2 
 PCOD8192381
Probable space group: I M A 2
;
_chemical_formula_sum "Si O2"
_cell_formula_units_Z 56
_cell_length_a 8.832187
_cell_length_b 15.429997
_cell_length_c 19.634168
_cell_angle_alpha 90.000000
_cell_angle_beta 90.000000
_cell_angle_gamma 90.000000
_cell_volume 2675.756567
_symmetry_space_group_name_H-M "I M A 2"
_symmetry_group_IT_number 46
_symmetry_cell_setting 'orthorhombic'
loop_
_space_group_symop_operation_xyz
x,y,z
-x,-y,z
1/2-x,y,z
1/2+x,-y,z
1/2+x,1/2+y,1/2+z
1/2-x,1/2-y,1/2+z
-x,1/2+y,1/2+z
x,1/2-y,1/2+z
loop_
_atom_site_type_symbol
_atom_site_label
_atom_site_fract_x
_atom_site_fract_y
_atom_site_fract_z
Si Si1 0.424325 0.416378 0.942670
Si Si2 0.571960 0.256695 0.880071
Si Si3 0.427921 0.237268 0.238059
Si Si4 0.916047 0.113601 0.568510
Si Si5 0.919123 0.082259 0.719518
Si Si6 0.424974 0.811109 0.104331
Si Si7 0.070240 0.593432 0.469204
O O1 0.500000 0.500000 0.905234
O O2 0.250000 0.407174 0.921501
O O3 0.521140 0.329850 0.932423
O O4 0.447951 0.428327 0.024140
O O5 0.750000 0.257287 0.869130
O O6 0.492383 0.289289 0.811139
O O7 0.520587 0.162940 0.910610
O O8 0.250000 0.227579 0.238677
O O9 0.475452 0.336265 0.230804
O O10 0.489361 0.176175 0.176722
O O11 0.750000 0.104602 0.532329
O O12 0.906935 0.063781 0.639674
O O13 0.953014 0.214233 0.579850
O O14 0.750000 0.096969 0.750822
O O15 0.000000 0.000000 0.755176
O O16 0.250000 0.829195 0.119324
O O17 0.485379 0.874833 0.044353
O O18 0.250000 0.585912 0.469638
O O19 0.000000 0.500000 0.451916
#
# Coordination Sequence:
#
# PCOD8192381 Si02
#       7
#     8   8   8   8   8   8   8
#     4  12  24  37  58  88 120 155 196 245 304 369
#     4  11  23  44  65  87 124 168 210 262 318 378
#     4  11  23  38  59  88 119 159 207 258 318 383
#     4   9  17  33  56  82 116 152 192 238 293 355
#     4  10  20  34  53  80 115 155 197 244 297 360
#     4   9  18  38  62  87 119 161 206 252 308 370
#     4  10  22  40  66  96 128 167 215 266 322 379
#
# _framework density 20.928660000000001
#
# number of rings (size 3 to 8) (size 9 to 14) (size 15 to 20)
#    0.000    1.714    1.429    4.714    0.000    6.286 
#    0.000    2.143    0.000    1.714    0.000    0.000 
#    0.000    0.000    0.000    0.000    0.000    0.000 
#
# Total GULP energy -347003.274430 kJ/mol
# GULP energy per Si atom -12392.974087 kJ/mol
# Density = 2.088103 g / cm^3
# Si number density = 20.928660 Si / 1000 Ang^3
#
#
#
# Elastic Constant Matrix: (Units=GPa)
#
#
# Indices 1 2 3 4 5 6 
#
# 1 104.6827 28.4263 36.6763 0.0000 0.0000 0.0000
# 2 28.4263 80.8731 3.9132 0.0000 0.0000 0.0000
# 3 36.6763 3.9132 78.3986 0.0000 0.0000 0.0000
# 4 0.0000 0.0000 0.0000 9.6916 0.0000 0.0000
# 5 0.0000 0.0000 0.0000 0.0000 29.0400 0.0000
# 6 0.0000 0.0000 0.0000 0.0000 0.0000 32.3870
#
#
#
# Elastic Compliance Matrix: (Units=1/GPa)
#
#
# Indices 1 2 3 4 5 6 
#
# 1 0.012697 -0.004186 -0.005731 0.000000 0.000000 0.000000
# 2 -0.004186 0.013775 0.001271 0.000000 0.000000 0.000000
# 3 -0.005731 0.001271 0.015373 0.000000 0.000000 0.000000
# 4 0.000000 0.000000 0.000000 0.103182 0.000000 0.000000
# 5 0.000000 0.000000 0.000000 0.000000 0.034435 0.000000
# 6 0.000000 0.000000 0.000000 0.000000 0.000000 0.030877
#
#
# Mechanical properties :
#
#
# Convention : Reuss Voigt Hill
#
# Bulk Modulus (GPa) = 40.72871 44.66511 42.69691
# Shear Modulus (GPa) = 21.20302 27.21963 24.21132
#
# Velocity S-wave (km/s) = 3.18639 3.61028 3.40494
# Velocity P-wave (km/s) = 5.74808 6.22630 5.99196
#
# Compressibility (1/GPa) = 0.02455271
#
# Stress axis : x y z
#
# Youngs Moduli (GPa) = 78.75758 72.59634 65.04906
#
# Poissons Ratio (x) = 0.30386 0.37280
# Poissons Ratio (y) = 0.32965 -0.08265
# Poissons Ratio (z) = 0.45136 -0.09224
#
# Static dielectric constant tensor:
#      x y z
#    x 3.716220 0.000000 0.000000 
#    y 0.000000 3.754720 0.000000 
#    z 0.000000 0.000000 4.012690 
# 
# 
# High freq. dielectric constant tensor:
#      x y z
#    x 1.814610 0.000000 0.000000 
#    y 0.000000 1.811240 0.000000 
#    z 0.000000 0.000000 1.814170 
# 
# From -- ./inp_files/21104.got.cif
#   From: 2010.03.12/outbox.cif.g09.slc.cpg/sg46_11_cif.got.tgz:21104.got - 2010.04.14 02:56:35.
