data_PCOD8192558
_publ_section_title
;
Structure prediction by ZEFSAII (Michael W. Deem and Ramdas Pophale) SiO2 
 PCOD8192558
Probable space group: I M A 2
;
_chemical_formula_sum "Si O2"
_cell_formula_units_Z 60
_cell_length_a 14.902904
_cell_length_b 19.793227
_cell_length_c 10.312795
_cell_angle_alpha 90.000000
_cell_angle_beta 90.000000
_cell_angle_gamma 90.000000
_cell_volume 3042.032812
_symmetry_space_group_name_H-M "I M A 2"
_symmetry_group_IT_number 46
_symmetry_cell_setting 'orthorhombic'
loop_
_space_group_symop_operation_xyz
x,y,z
-x,-y,z
1/2-x,y,z
1/2+x,-y,z
1/2+x,1/2+y,1/2+z
1/2-x,1/2-y,1/2+z
-x,1/2+y,1/2+z
x,1/2-y,1/2+z
loop_
_atom_site_type_symbol
_atom_site_label
_atom_site_fract_x
_atom_site_fract_y
_atom_site_fract_z
Si Si1 0.000000 0.000000 0.432431
Si Si2 0.351854 0.685963 0.052558
Si Si3 0.851264 0.409959 0.814856
Si Si4 0.146338 0.657514 0.542706
Si Si5 0.504779 0.574348 0.428344
Si Si6 0.853310 0.822341 0.999278
Si Si7 0.515192 0.607693 0.145560
Si Si8 0.646985 0.780766 0.716414
O O1 0.965192 0.939594 0.522935
O O2 0.081637 0.971985 0.345015
O O3 0.250000 0.680681 0.107263
O O4 0.382025 0.763989 0.045489
O O5 0.418163 0.644467 0.145345
O O6 0.359668 0.653238 0.911243
O O7 0.750000 0.439381 0.817851
O O8 0.875528 0.377824 0.678078
O O9 0.250000 0.650409 0.502224
O O10 0.086032 0.617950 0.439439
O O11 0.500000 0.500000 0.491470
O O12 0.587363 0.610666 0.499180
O O13 0.523776 0.564776 0.276259
O O14 0.750000 0.844391 0.992585
O O15 0.877034 0.776352 0.870750
O O16 0.875204 0.787196 0.136721
O O17 0.593035 0.662234 0.141771
O O18 0.750000 0.799905 0.697843
#
# Coordination Sequence:
#
# PCOD8192558 Si02
#       8
#     4   8   8   8   8   8   8   8
#     4  10  20  38  58  80 114 152 188 234 276 330
#     4   9  19  36  59  85 111 142 184 236 287 331
#     4   9  20  38  59  84 114 148 190 234 279 337
#     4  10  22  38  58  84 114 149 188 233 285 338
#     4  11  23  37  55  80 116 152 188 225 276 339
#     4   9  19  38  60  83 111 144 185 237 287 335
#     4  10  20  36  56  84 111 145 189 232 278 337
#     4   9  18  35  58  83 111 142 185 237 287 333
#
# _framework density 19.723654
#
# number of rings (size 3 to 8) (size 9 to 14) (size 15 to 20)
#    0.000    2.400    0.667    0.800    2.800    1.600 
#    7.200    0.000    0.000    0.000    0.000    0.000 
#    0.000    0.000    0.000    0.000    0.000    0.000 
#
# Total GULP energy -371913.478910 kJ/mol
# GULP energy per Si atom -12397.115964 kJ/mol
# Density = 1.967876 g / cm^3
# Si number density = 19.723654 Si / 1000 Ang^3
#
#
#
# Elastic Constant Matrix: (Units=GPa)
#
#
# Indices 1 2 3 4 5 6 
#
# 1 80.7310 62.7180 32.5195 0.0000 0.0000 0.0000
# 2 62.7180 124.3644 27.2753 0.0000 0.0000 0.0000
# 3 32.5195 27.2753 54.3361 0.0000 0.0000 0.0000
# 4 0.0000 0.0000 0.0000 15.7166 0.0000 0.0000
# 5 0.0000 0.0000 0.0000 0.0000 22.8594 0.0000
# 6 0.0000 0.0000 0.0000 0.0000 0.0000 36.1833
#
#
#
# Elastic Compliance Matrix: (Units=1/GPa)
#
#
# Indices 1 2 3 4 5 6 
#
# 1 0.023912 -0.010024 -0.009279 0.000000 0.000000 0.000000
# 2 -0.010024 0.013238 -0.000646 0.000000 0.000000 0.000000
# 3 -0.009279 -0.000646 0.024282 0.000000 0.000000 0.000000
# 4 0.000000 0.000000 0.000000 0.063627 0.000000 0.000000
# 5 0.000000 0.000000 0.000000 0.000000 0.043746 0.000000
# 6 0.000000 0.000000 0.000000 0.000000 0.000000 0.027637
#
#
# Mechanical properties :
#
#
# Convention : Reuss Voigt Hill
#
# Bulk Modulus (GPa) = 46.43954 56.05079 51.24517
# Shear Modulus (GPa) = 20.53247 24.07978 22.30612
#
# Velocity S-wave (km/s) = 3.22997 3.49787 3.36658
# Velocity P-wave (km/s) = 6.12425 6.69277 6.41481
#
# Compressibility (1/GPa) = 0.02153337
#
# Stress axis : x y z
#
# Youngs Moduli (GPa) = 41.82011 75.54215 41.18338
#
# Poissons Ratio (x) = 0.75723 0.38215
# Poissons Ratio (y) = 0.41920 0.02660
# Poissons Ratio (z) = 0.38806 0.04878
#
# Static dielectric constant tensor:
#      x y z
#    x 3.687550 0.000000 0.000000 
#    y 0.000000 3.480810 0.000000 
#    z 0.000000 0.000000 3.578640 
# 
# 
# High freq. dielectric constant tensor:
#      x y z
#    x 1.775880 0.000000 0.000000 
#    y 0.000000 1.758690 0.000000 
#    z 0.000000 0.000000 1.767700 
# 
# From -- ./inp_files/11272.got.cif
#   From: 2010.03.12/outbox.cif.g09.slc.cpg/sg46_6_cif.got.tgz:11272.got - 2010.04.14 02:56:35.
