data_PCOD8192826
_publ_section_title
;
Structure prediction by ZEFSAII (Michael W. Deem and Ramdas Pophale) SiO2 
 PCOD8192826
Probable space group: I M A 2
;
_chemical_formula_sum "Si O2"
_cell_formula_units_Z 64
_cell_length_a 18.059690
_cell_length_b 7.413777
_cell_length_c 24.417108
_cell_angle_alpha 90.000000
_cell_angle_beta 90.000000
_cell_angle_gamma 90.000000
_cell_volume 3269.219149
_symmetry_space_group_name_H-M "I M A 2"
_symmetry_group_IT_number 46
_symmetry_cell_setting 'orthorhombic'
loop_
_space_group_symop_operation_xyz
x,y,z
-x,-y,z
1/2-x,y,z
1/2+x,-y,z
1/2+x,1/2+y,1/2+z
1/2-x,1/2-y,1/2+z
-x,1/2+y,1/2+z
x,1/2-y,1/2+z
loop_
_atom_site_type_symbol
_atom_site_label
_atom_site_fract_x
_atom_site_fract_y
_atom_site_fract_z
Si Si1 0.837835 0.715498 0.625000
Si Si2 0.336185 0.614506 0.821486
Si Si3 0.917123 0.461768 0.444125
Si Si4 0.663187 0.088489 0.047754
Si Si5 0.661957 0.496512 0.036196
Si Si6 0.085786 0.543791 0.927456
Si Si7 0.912913 0.497326 0.323361
Si Si8 0.335671 0.284219 0.747241
O O1 0.750000 0.720801 0.628015
O O2 0.864548 0.523459 0.600450
O O3 0.870075 0.732276 0.686179
O O4 0.865482 0.877499 0.585858
O O5 0.250000 0.658446 0.832716
O O6 0.369503 0.497831 0.872053
O O7 0.380291 0.799477 0.810894
O O8 0.346173 0.488859 0.768148
O O9 0.864894 0.520110 0.494032
O O10 0.902687 0.253399 0.435096
O O11 0.898095 0.559545 0.386586
O O12 0.000000 0.500000 0.462997
O O13 0.750000 0.083685 0.043420
O O14 0.635500 0.294294 0.052066
O O15 0.750000 0.508295 0.026850
O O16 0.620862 0.558517 0.980036
O O17 0.000000 0.500000 0.920067
O O18 0.876663 0.642263 0.284702
O O19 0.000000 0.500000 0.312229
O O20 0.250000 0.230038 0.747552
#
# Coordination Sequence:
#
# PCOD8192826 Si02
#       8
#     8   8   8   8   8   8   8   8
#     4   9  19  35  56  82 108 145 191 238 282 331
#     4  10  22  38  60  87 118 153 196 243 292 350
#     4   9  20  34  52  80 109 143 181 223 285 347
#     4   9  18  33  55  80 108 142 180 228 281 335
#     4   9  18  34  55  80 111 143 184 233 283 341
#     4  10  21  33  55  84 114 150 182 231 291 355
#     4  10  22  38  60  85 117 154 189 241 297 352
#     4  10  22  38  59  85 114 153 203 246 286 343
#
# _framework density 19.576540000000001
#
# number of rings (size 3 to 8) (size 9 to 14) (size 15 to 20)
#    0.000    2.500    0.000    0.750    7.000    4.500 
#    0.000    6.875    2.750    0.000    0.000    0.000 
#    0.000    0.000    0.000    0.000    0.000    0.000 
#
# Total GULP energy -396677.055280 kJ/mol
# GULP energy per Si atom -12396.157977 kJ/mol
# Density = 1.953198 g / cm^3
# Si number density = 19.576540 Si / 1000 Ang^3
#
#
#
# Elastic Constant Matrix: (Units=GPa)
#
#
# Indices 1 2 3 4 5 6 
#
# 1 71.5893 36.0583 50.8397 0.0000 0.0000 0.0000
# 2 36.0583 63.3237 39.1682 0.0000 0.0000 0.0000
# 3 50.8397 39.1682 126.1486 0.0000 0.0000 0.0000
# 4 0.0000 0.0000 0.0000 31.5716 0.0000 0.0000
# 5 0.0000 0.0000 0.0000 0.0000 7.9010 0.0000
# 6 0.0000 0.0000 0.0000 0.0000 0.0000 25.5913
#
#
#
# Elastic Compliance Matrix: (Units=1/GPa)
#
#
# Indices 1 2 3 4 5 6 
#
# 1 0.023220 -0.009201 -0.006501 0.000000 0.000000 0.000000
# 2 -0.009201 0.023191 -0.003493 0.000000 0.000000 0.000000
# 3 -0.006501 -0.003493 0.011632 0.000000 0.000000 0.000000
# 4 0.000000 0.000000 0.000000 0.031674 0.000000 0.000000
# 5 0.000000 0.000000 0.000000 0.000000 0.126566 0.000000
# 6 0.000000 0.000000 0.000000 0.000000 0.000000 0.039076
#
#
# Mechanical properties :
#
#
# Convention : Reuss Voigt Hill
#
# Bulk Modulus (GPa) = 50.88123 57.02154 53.95139
# Shear Modulus (GPa) = 16.65007 22.01249 19.33128
#
# Velocity S-wave (km/s) = 2.91952 3.35689 3.14582
# Velocity P-wave (km/s) = 6.11654 6.64949 6.38858
#
# Compressibility (1/GPa) = 0.01965361
#
# Stress axis : x y z
#
# Youngs Moduli (GPa) = 43.06711 43.11938 85.97230
#
# Poissons Ratio (x) = 0.39673 0.55891
# Poissons Ratio (y) = 0.39625 0.30028
# Poissons Ratio (z) = 0.27998 0.15061
#
# Static dielectric constant tensor:
#      x y z
#    x 3.398280 0.000000 0.000000 
#    y 0.000000 3.686680 0.000000 
#    z 0.000000 0.000000 4.008170 
# 
# 
# High freq. dielectric constant tensor:
#      x y z
#    x 1.744310 0.000000 0.000000 
#    y 0.000000 1.766260 0.000000 
#    z 0.000000 0.000000 1.765230 
# 
# From -- ./inp_files/22209.got.cif
#   From: 2010.03.12/outbox.cif.g09.slc.cpg/sg46_12_cif.got.tgz:22209.got - 2010.04.14 02:56:35.
