data_PCOD8192927
_publ_section_title
;
Structure prediction by ZEFSAII (Michael W. Deem and Ramdas Pophale) SiO2 
 PCOD8192927
Probable space group: I M A 2
;
_chemical_formula_sum "Si O2"
_cell_formula_units_Z 60
_cell_length_a 13.470111
_cell_length_b 8.768728
_cell_length_c 26.114068
_cell_angle_alpha 90.000000
_cell_angle_beta 90.000000
_cell_angle_gamma 90.000000
_cell_volume 3084.482453
_symmetry_space_group_name_H-M "I M A 2"
_symmetry_group_IT_number 46
_symmetry_cell_setting 'orthorhombic'
loop_
_space_group_symop_operation_xyz
x,y,z
-x,-y,z
1/2-x,y,z
1/2+x,-y,z
1/2+x,1/2+y,1/2+z
1/2-x,1/2-y,1/2+z
-x,1/2+y,1/2+z
x,1/2-y,1/2+z
loop_
_atom_site_type_symbol
_atom_site_label
_atom_site_fract_x
_atom_site_fract_y
_atom_site_fract_z
Si Si1 0.862986 0.710169 0.032140
Si Si2 0.028579 0.829757 0.606132
Si Si3 0.639248 0.073127 0.797935
Si Si4 0.953252 0.726630 0.333709
Si Si5 0.524401 0.826125 0.945086
Si Si6 0.635558 0.367638 0.004865
Si Si7 0.000000 0.500000 0.768136
Si Si8 0.634749 0.280588 0.705071
O O1 0.750000 0.723459 0.049385
O O2 0.889342 0.548303 0.005036
O O3 0.927456 0.742911 0.083051
O O4 0.890823 0.832624 0.988732
O O5 0.113283 0.815943 0.562858
O O6 0.069982 0.738591 0.654190
O O7 0.000000 0.000000 0.622948
O O8 0.750000 0.103461 0.817706
O O9 0.613907 0.894845 0.802985
O O10 0.568257 0.173643 0.833648
O O11 0.627379 0.126063 0.738824
O O12 0.927152 0.745730 0.393593
O O13 0.939455 0.884410 0.304263
O O14 0.500000 0.000000 0.932085
O O15 0.430792 0.725114 0.964167
O O16 0.750000 0.336312 0.991464
O O17 0.085267 0.578870 0.734692
O O18 0.750000 0.317678 0.692607
#
# Coordination Sequence:
#
# PCOD8192927 Si02
#       8
#     8   8   8   8   8   8   4   8
#     4   9  20  39  59  87 119 150 193 239 284 349
#     4   9  18  34  65  87 115 150 195 236 289 343
#     4   9  19  37  59  81 110 145 192 243 286 340
#     4  10  21  38  57  83 115 153 193 238 294 345
#     4  11  21  35  57  86 116 153 194 238 292 343
#     4   9  19  37  59  85 115 151 193 240 289 347
#     4  10  24  38  60  80 124 156 194 242 298 342
#     4  10  21  39  62  88 115 151 196 245 296 350
#
# _framework density 19.452210999999998
#
# number of rings (size 3 to 8) (size 9 to 14) (size 15 to 20)
#    0.000    2.400    1.333    1.600    5.600    2.667 
#    4.800    0.667    0.000    0.000    0.000    0.000 
#    0.000    0.000    0.000    0.000    0.000    0.000 
#
# Total GULP energy -371876.839046 kJ/mol
# GULP energy per Si atom -12395.894635 kJ/mol
# Density = 1.940794 g / cm^3
# Si number density = 19.452211 Si / 1000 Ang^3
#
#
#
# Elastic Constant Matrix: (Units=GPa)
#
#
# Indices 1 2 3 4 5 6 
#
# 1 115.3051 24.4258 48.4549 0.0000 0.0000 0.0000
# 2 24.4258 75.9674 51.1819 0.0000 0.0000 0.0000
# 3 48.4549 51.1819 129.2048 0.0000 0.0000 0.0000
# 4 0.0000 0.0000 0.0000 28.0110 0.0000 0.0000
# 5 0.0000 0.0000 0.0000 0.0000 17.1542 0.0000
# 6 0.0000 0.0000 0.0000 0.0000 0.0000 22.2295
#
#
#
# Elastic Compliance Matrix: (Units=1/GPa)
#
#
# Indices 1 2 3 4 5 6 
#
# 1 0.010347 -0.000972 -0.003496 0.000000 0.000000 0.000000
# 2 -0.000972 0.018047 -0.006784 0.000000 0.000000 0.000000
# 3 -0.003496 -0.006784 0.011738 0.000000 0.000000 0.000000
# 4 0.000000 0.000000 0.000000 0.035700 0.000000 0.000000
# 5 0.000000 0.000000 0.000000 0.000000 0.058295 0.000000
# 6 0.000000 0.000000 0.000000 0.000000 0.000000 0.044985
#
#
# Mechanical properties :
#
#
# Convention : Reuss Voigt Hill
#
# Bulk Modulus (GPa) = 56.72581 63.17806 59.95193
# Shear Modulus (GPa) = 24.09722 26.57326 25.33524
#
# Velocity S-wave (km/s) = 3.52346 3.70006 3.61284
# Velocity P-wave (km/s) = 6.76594 7.12763 6.94914
#
# Compressibility (1/GPa) = 0.01762866
#
# Stress axis : x y z
#
# Youngs Moduli (GPa) = 96.64201 55.41103 85.19295
#
# Poissons Ratio (x) = 0.05386 0.29779
# Poissons Ratio (y) = 0.09393 0.57798
# Poissons Ratio (z) = 0.33781 0.37593
#
# Static dielectric constant tensor:
#      x y z
#    x 3.559130 0.000000 0.000000 
#    y 0.000000 3.458990 0.000000 
#    z 0.000000 0.000000 3.454440 
# 
# 
# High freq. dielectric constant tensor:
#      x y z
#    x 1.756870 0.000000 0.000000 
#    y 0.000000 1.742490 0.000000 
#    z 0.000000 0.000000 1.755290 
# 
# From -- ./inp_files/23611.got.cif
#   From: 2010.03.12/outbox.cif.g09.slc.cpg/sg46_12_cif.got.tgz:23611.got - 2010.04.14 02:56:35.
