data_PCOD8192221
_publ_section_title
;
Structure prediction by ZEFSAII (Michael W. Deem and Ramdas Pophale) SiO2 
 PCOD8192221
Probable space group: I M A 2
;
_chemical_formula_sum "Si O2"
_cell_formula_units_Z 64
_cell_length_a 16.624605
_cell_length_b 7.637607
_cell_length_c 24.274607
_cell_angle_alpha 90.000000
_cell_angle_beta 90.000000
_cell_angle_gamma 90.000000
_cell_volume 3082.200243
_symmetry_space_group_name_H-M "I M A 2"
_symmetry_group_IT_number 46
_symmetry_cell_setting 'orthorhombic'
loop_
_space_group_symop_operation_xyz
x,y,z
-x,-y,z
1/2-x,y,z
1/2+x,-y,z
1/2+x,1/2+y,1/2+z
1/2-x,1/2-y,1/2+z
-x,1/2+y,1/2+z
x,1/2-y,1/2+z
loop_
_atom_site_type_symbol
_atom_site_label
_atom_site_fract_x
_atom_site_fract_y
_atom_site_fract_z
Si Si1 0.342618 0.428723 0.703640
Si Si2 0.655718 0.419920 0.586222
Si Si3 0.406736 0.548411 0.086458
Si Si4 0.844282 0.080080 0.321058
Si Si5 0.093264 0.951589 0.820821
Si Si6 0.655919 0.756802 0.392548
Si Si7 0.655919 0.756802 0.014732
Si Si8 0.591810 0.553545 0.203640
O O1 0.250000 0.363479 0.703640
O O2 0.361929 0.544119 0.650303
O O3 0.361929 0.544119 0.756977
O O4 0.400795 0.262521 0.703640
O O5 0.750000 0.389221 0.575843
O O6 0.606817 0.247992 0.567943
O O7 0.620897 0.580550 0.549929
O O8 0.500000 0.500000 0.085483
O O9 0.359977 0.425871 0.044362
O O10 0.368424 0.522104 0.147710
O O11 0.750000 0.110778 0.331437
O O12 0.893182 0.252008 0.339337
O O13 0.879103 0.919450 0.357351
O O14 0.131576 0.977896 0.759570
O O15 0.140024 0.074129 0.862918
O O16 0.000000 0.000000 0.821798
O O17 0.750000 0.786786 0.397530
O O18 0.616916 0.749999 0.453640
O O19 0.750000 0.786784 0.009750
O O20 0.500000 0.500000 0.203640
#
# Coordination Sequence:
#
# PCOD8192221 Si02
#       8
#     8   8   8   8   8   8   8   8
#     4  10  19  36  64  92 119 156 202 256 304 352
#     4  10  21  38  63  91 118 154 202 253 303 355
#     4  11  23  40  59  92 124 163 199 243 306 368
#     4  10  21  38  63  91 118 154 202 253 303 355
#     4  11  23  40  59  92 124 163 199 243 306 368
#     4  10  22  42  64  87 118 160 208 256 301 351
#     4  10  22  42  64  87 118 160 208 256 301 351
#     4  10  21  38  58  90 125 160 196 233 308 370
#
# _framework density 20.764386999999999
#
# number of rings (size 3 to 8) (size 9 to 14) (size 15 to 20)
#    0.000    1.750    2.500    1.500    0.000    3.000 
#    4.500    6.250    0.000    0.000    0.000    0.000 
#    0.000    0.000    0.000    0.000    0.000    0.000 
#
# Total GULP energy -396841.178941 kJ/mol
# GULP energy per Si atom -12401.286842 kJ/mol
# Density = 2.071713 g / cm^3
# Si number density = 20.764387 Si / 1000 Ang^3
#
#
#
# Elastic Constant Matrix: (Units=GPa)
#
#
# Indices 1 2 3 4 5 6 
#
# 1 36.4873 36.0705 13.6175 0.0000 0.0000 0.0000
# 2 36.0705 187.9013 68.6962 0.0000 0.0000 0.0000
# 3 13.6175 68.6962 169.9441 0.0000 0.0000 0.0000
# 4 0.0000 0.0000 0.0000 4.7760 0.0000 0.0000
# 5 0.0000 0.0000 0.0000 0.0000 13.2798 0.0000
# 6 0.0000 0.0000 0.0000 0.0000 0.0000 38.6694
#
#
#
# Elastic Compliance Matrix: (Units=1/GPa)
#
#
# Indices 1 2 3 4 5 6 
#
# 1 0.033827 -0.006457 -0.000100 0.000000 0.000000 0.000000
# 2 -0.006457 0.007477 -0.002505 0.000000 0.000000 0.000000
# 3 -0.000100 -0.002505 0.006905 0.000000 0.000000 0.000000
# 4 0.000000 0.000000 0.000000 0.209379 0.000000 0.000000
# 5 0.000000 0.000000 0.000000 0.000000 0.075302 0.000000
# 6 0.000000 0.000000 0.000000 0.000000 0.000000 0.025860
#
#
# Mechanical properties :
#
#
# Convention : Reuss Voigt Hill
#
# Bulk Modulus (GPa) = 33.23961 70.12235 51.68098
# Shear Modulus (GPa) = 12.92310 29.74162 21.33236
#
# Velocity S-wave (km/s) = 2.49744 3.78873 3.20871
# Velocity P-wave (km/s) = 4.93548 7.27895 6.21861
#
# Compressibility (1/GPa) = 0.03008459
#
# Stress axis : x y z
#
# Youngs Moduli (GPa) = 29.56177 133.73752 144.82267
#
# Poissons Ratio (x) = 0.86354 0.01455
# Poissons Ratio (y) = 0.19088 0.36280
# Poissons Ratio (z) = 0.00297 0.33503
#
# Static dielectric constant tensor:
#      x y z
#    x 3.399020 0.000000 0.000000 
#    y 0.000000 3.756730 0.000000 
#    z 0.000000 0.000000 4.307810 
# 
# 
# High freq. dielectric constant tensor:
#      x y z
#    x 1.784230 0.000000 0.000000 
#    y 0.000000 1.821570 0.000000 
#    z 0.000000 0.000000 1.819480 
# 
# From -- ./inp_files/24734.got.cif
#   From: 2010.03.12/outbox.cif.g09.slc.cpg/sg46_13_cif.got.tgz:24734.got - 2010.04.14 02:56:35.
