data_PCOD8192586
_publ_section_title
;
Structure prediction by ZEFSAII (Michael W. Deem and Ramdas Pophale) SiO2 
 PCOD8192586
Probable space group: I M A 2
;
_chemical_formula_sum "Si O2"
_cell_formula_units_Z 48
_cell_length_a 8.835868
_cell_length_b 20.284842
_cell_length_c 14.312074
_cell_angle_alpha 90.000000
_cell_angle_beta 90.000000
_cell_angle_gamma 90.000000
_cell_volume 2565.212938
_symmetry_space_group_name_H-M "I M A 2"
_symmetry_group_IT_number 46
_symmetry_cell_setting 'orthorhombic'
loop_
_space_group_symop_operation_xyz
x,y,z
-x,-y,z
1/2-x,y,z
1/2+x,-y,z
1/2+x,1/2+y,1/2+z
1/2-x,1/2-y,1/2+z
-x,1/2+y,1/2+z
x,1/2-y,1/2+z
loop_
_atom_site_type_symbol
_atom_site_label
_atom_site_fract_x
_atom_site_fract_y
_atom_site_fract_z
Si Si1 0.424972 0.869460 0.119800
Si Si2 0.426021 0.569250 0.817310
Si Si3 0.072591 0.269924 0.115982
Si Si4 0.429034 0.687726 0.295535
Si Si5 0.071920 0.930837 0.925850
Si Si6 0.428715 0.193427 0.407387
O O1 0.250000 0.847849 0.109165
O O2 0.450570 0.916382 0.207969
O O3 0.525752 0.805204 0.133315
O O4 0.481750 0.908826 0.028777
O O5 0.500000 0.500000 0.842187
O O6 0.250000 0.568450 0.843363
O O7 0.509582 0.622143 0.881375
O O8 0.250000 0.276804 0.131861
O O9 0.988251 0.317505 0.189572
O O10 0.022923 0.292314 0.013406
O O11 0.250000 0.694259 0.297087
O O12 0.484369 0.623467 0.351643
O O13 0.496225 0.752999 0.341096
O O14 0.250000 0.939244 0.922516
O O15 0.000000 0.000000 0.897766
O O16 0.250000 0.196408 0.393350
#
# Coordination Sequence:
#
# PCOD8192586 Si02
#       6
#     8   8   8   8   8   8
#     4  10  20  36  58  87 122 156 192 236 294 356
#     4  11  23  38  60  88 121 162 197 243 298 353
#     4  11  23  37  59  90 120 153 196 247 294 345
#     4  11  22  38  61  87 118 157 198 243 294 352
#     4  10  22  38  58  86 120 157 196 239 292 351
#     4  11  23  39  60  88 119 155 199 246 296 351
#
# _framework density 18.711897
#
# number of rings (size 3 to 8) (size 9 to 14) (size 15 to 20)
#    0.000    1.333    3.333    2.500    0.000    4.667 
#    0.000    0.833    0.000    2.000    0.000    0.000 
#    0.000    0.000    0.000    0.000    0.000    0.000 
#
# Total GULP energy -297742.424929 kJ/mol
# GULP energy per Si atom -12405.934372 kJ/mol
# Density = 1.866931 g / cm^3
# Si number density = 18.711897 Si / 1000 Ang^3
#
#
#
# Elastic Constant Matrix: (Units=GPa)
#
#
# Indices 1 2 3 4 5 6 
#
# 1 52.9601 19.7768 26.9312 0.0000 0.0000 0.0000
# 2 19.7768 106.9225 29.3824 0.0001 0.0000 0.0000
# 3 26.9312 29.3824 89.7048 0.0002 0.0000 0.0000
# 4 0.0000 0.0001 0.0002 33.0397 0.0000 0.0000
# 5 0.0000 0.0000 0.0000 0.0000 29.4825 0.0000
# 6 0.0000 0.0000 0.0000 0.0000 0.0000 33.8681
#
#
#
# Elastic Compliance Matrix: (Units=1/GPa)
#
#
# Indices 1 2 3 4 5 6 
#
# 1 0.022914 -0.002580 -0.006034 0.000000 0.000000 0.000000
# 2 -0.002580 0.010568 -0.002687 0.000000 0.000000 0.000000
# 3 -0.006034 -0.002687 0.013839 0.000000 0.000000 0.000000
# 4 0.000000 0.000000 0.000000 0.030267 0.000000 0.000000
# 5 0.000000 0.000000 0.000000 0.000000 0.033918 0.000000
# 6 0.000000 0.000000 0.000000 0.000000 0.000000 0.029526
#
#
# Mechanical properties :
#
#
# Convention : Reuss Voigt Hill
#
# Bulk Modulus (GPa) = 40.45440 44.64089 42.54765
# Shear Modulus (GPa) = 29.09088 30.84453 29.96771
#
# Velocity S-wave (km/s) = 3.94721 4.06444 4.00626
# Velocity P-wave (km/s) = 6.51464 6.77754 6.64739
#
# Compressibility (1/GPa) = 0.02471919
#
# Stress axis : x y z
#
# Youngs Moduli (GPa) = 43.64127 94.62375 72.25767
#
# Poissons Ratio (x) = 0.24414 0.43602
# Poissons Ratio (y) = 0.11260 0.19415
# Poissons Ratio (z) = 0.26334 0.25425
#
# Static dielectric constant tensor:
#      x y z
#    x 3.460970 0.000000 0.000000 
#    y 0.000000 3.402640 0.000000 
#    z 0.000000 0.000000 3.715180 
# 
# 
# High freq. dielectric constant tensor:
#      x y z
#    x 1.733960 0.000000 0.000000 
#    y 0.000000 1.722690 0.000000 
#    z 0.000000 0.000000 1.733740 
# 
# From -- ./inp_files/13874.got.cif
#   From: 2010.03.12/outbox.cif.g09.slc.cpg/sg46_7_cif.got.tgz:13874.got - 2010.04.14 02:56:35.
