data_PCOD8192978
_publ_section_title
;
Structure prediction by ZEFSAII (Michael W. Deem and Ramdas Pophale) SiO2 
 PCOD8192978
Probable space group: I M A 2
;
_chemical_formula_sum "Si O2"
_cell_formula_units_Z 64
_cell_length_a 14.910194
_cell_length_b 18.216757
_cell_length_c 11.906394
_cell_angle_alpha 90.000000
_cell_angle_beta 90.000000
_cell_angle_gamma 90.000000
_cell_volume 3233.959742
_symmetry_space_group_name_H-M "I M A 2"
_symmetry_group_IT_number 46
_symmetry_cell_setting 'orthorhombic'
loop_
_space_group_symop_operation_xyz
x,y,z
-x,-y,z
1/2-x,y,z
1/2+x,-y,z
1/2+x,1/2+y,1/2+z
1/2-x,1/2-y,1/2+z
-x,1/2+y,1/2+z
x,1/2-y,1/2+z
loop_
_atom_site_type_symbol
_atom_site_label
_atom_site_fract_x
_atom_site_fract_y
_atom_site_fract_z
Si Si1 0.416004 0.447971 0.140320
Si Si2 0.649039 0.357439 0.904816
Si Si3 0.404912 0.533090 0.552190
Si Si4 0.349264 0.559478 0.303964
Si Si5 0.606602 0.514330 0.905379
Si Si6 0.150819 0.101636 0.196413
Si Si7 0.962695 0.170529 0.193433
Si Si8 0.054144 0.664737 0.139915
O O1 0.500000 0.500000 0.120258
O O2 0.368128 0.477475 0.253133
O O3 0.450456 0.363536 0.141945
O O4 0.358497 0.459546 0.027770
O O5 0.750000 0.321700 0.899493
O O6 0.659426 0.441745 0.869476
O O7 0.576674 0.321090 0.819997
O O8 0.608770 0.358833 0.029963
O O9 0.500000 0.500000 0.518932
O O10 0.357950 0.556687 0.437513
O O11 0.351283 0.469314 0.615571
O O12 0.410790 0.604951 0.630672
O O13 0.250000 0.581955 0.272176
O O14 0.407059 0.625142 0.251042
O O15 0.500000 0.500000 0.891291
O O16 0.637646 0.578296 0.824080
O O17 0.250000 0.138185 0.180938
O O18 0.069743 0.159007 0.177724
O O19 0.941223 0.248099 0.137903
#
# Coordination Sequence:
#
# PCOD8192978 Si02
#       8
#     8   8   8   8   8   8   8   8
#     4   9  18  36  60  81 112 152 193 239 289 341
#     4  12  23  38  61  90 121 154 198 247 295 355
#     4  10  21  39  60  85 114 158 200 241 296 348
#     4  11  22  37  59  89 116 150 201 248 292 352
#     4  11  16  35  63  91 118 145 194 249 305 342
#     4  11  21  38  65  90 115 151 202 255 294 346
#     4  11  25  41  59  87 125 163 194 237 303 359
#     4  11  23  40  58  84 118 164 194 236 296 362
#
# _framework density 19.789981000000001
#
# number of rings (size 3 to 8) (size 9 to 14) (size 15 to 20)
#    0.000    1.250    6.250    2.625    1.750    2.000 
#    0.000    0.625    0.000    0.750    0.000    0.000 
#    0.000    0.000    0.000    0.000    0.000    0.000 
#
# Total GULP energy -396460.085635 kJ/mol
# GULP energy per Si atom -12389.377676 kJ/mol
# Density = 1.974494 g / cm^3
# Si number density = 19.789981 Si / 1000 Ang^3
#
#
#
# Elastic Constant Matrix: (Units=GPa)
#
#
# Indices 1 2 3 4 5 6 
#
# 1 104.8528 19.6318 23.9803 0.0000 0.0000 0.0000
# 2 19.6318 75.4509 12.4840 0.0000 0.0000 0.0000
# 3 23.9803 12.4840 103.8001 0.0000 0.0000 0.0000
# 4 0.0000 0.0000 0.0000 15.4766 0.0000 0.0000
# 5 0.0000 0.0000 0.0000 0.0000 5.9087 0.0000
# 6 0.0000 0.0000 0.0000 0.0000 0.0000 12.7421
#
#
#
# Elastic Compliance Matrix: (Units=1/GPa)
#
#
# Indices 1 2 3 4 5 6 
#
# 1 0.010469 -0.002371 -0.002133 0.000000 0.000000 0.000000
# 2 -0.002371 0.014060 -0.001143 0.000000 0.000000 0.000000
# 3 -0.002133 -0.001143 0.010264 0.000000 0.000000 0.000000
# 4 0.000000 0.000000 0.000000 0.064614 0.000000 0.000000
# 5 0.000000 0.000000 0.000000 0.000000 0.169243 0.000000
# 6 0.000000 0.000000 0.000000 0.000000 0.000000 0.078480
#
#
# Mechanical properties :
#
#
# Convention : Reuss Voigt Hill
#
# Bulk Modulus (GPa) = 42.55719 44.03288 43.29504
# Shear Modulus (GPa) = 13.65162 22.02599 17.83880
#
# Velocity S-wave (km/s) = 2.62930 3.33977 3.00560
# Velocity P-wave (km/s) = 5.54696 6.09676 5.82834
#
# Compressibility (1/GPa) = 0.02349779
#
# Stress axis : x y z
#
# Youngs Moduli (GPa) = 95.51990 71.12516 97.42530
#
# Poissons Ratio (x) = 0.16864 0.20785
# Poissons Ratio (y) = 0.22647 0.11138
# Poissons Ratio (z) = 0.20379 0.08131
#
# Static dielectric constant tensor:
#      x y z
#    x 3.970490 0.000000 0.000000 
#    y 0.000000 3.494760 0.000000 
#    z 0.000000 0.000000 3.720950 
# 
# 
# High freq. dielectric constant tensor:
#      x y z
#    x 1.765080 0.000000 0.000000 
#    y 0.000000 1.738920 0.000000 
#    z 0.000000 0.000000 1.782210 
# 
# From -- ./inp_files/11309.got.cif
#   From: 2010.03.12/outbox.cif.g09.slc.cpg/sg46_6_cif.got.tgz:11309.got - 2010.04.14 02:56:35.
