data_PCOD8192600
_publ_section_title
;
Structure prediction by ZEFSAII (Michael W. Deem and Ramdas Pophale) SiO2 
 PCOD8192600
Probable space group: I M A 2
;
_chemical_formula_sum "Si O2"
_cell_formula_units_Z 56
_cell_length_a 17.958206
_cell_length_b 11.889528
_cell_length_c 13.537677
_cell_angle_alpha 90.000000
_cell_angle_beta 90.000000
_cell_angle_gamma 90.000000
_cell_volume 2890.491596
_symmetry_space_group_name_H-M "I M A 2"
_symmetry_group_IT_number 46
_symmetry_cell_setting 'orthorhombic'
loop_
_space_group_symop_operation_xyz
x,y,z
-x,-y,z
1/2-x,y,z
1/2+x,-y,z
1/2+x,1/2+y,1/2+z
1/2-x,1/2-y,1/2+z
-x,1/2+y,1/2+z
x,1/2-y,1/2+z
loop_
_atom_site_type_symbol
_atom_site_label
_atom_site_fract_x
_atom_site_fract_y
_atom_site_fract_z
Si Si1 0.334390 0.583800 0.148200
Si Si2 0.445308 0.390478 0.924859
Si Si3 0.581250 0.222450 0.490256
Si Si4 0.167080 0.734242 0.795858
Si Si5 0.408262 0.602039 0.640139
Si Si6 0.163619 0.157551 0.595493
Si Si7 0.570029 0.854960 0.197183
O O1 0.250000 0.616599 0.116204
O O2 0.391041 0.625954 0.064589
O O3 0.354125 0.643490 0.251928
O O4 0.341304 0.450707 0.167127
O O5 0.500000 0.500000 0.928868
O O6 0.415634 0.369313 0.813980
O O7 0.492953 0.287867 0.971163
O O8 0.371402 0.388228 0.992506
O O9 0.615618 0.199092 0.384648
O O10 0.602001 0.347187 0.529998
O O11 0.250000 0.732482 0.836907
O O12 0.159161 0.641145 0.709682
O O13 0.409957 0.468242 0.636957
O O14 0.482207 0.664177 0.682919
O O15 0.250000 0.193360 0.577669
O O16 0.119483 0.256603 0.650501
#
# Coordination Sequence:
#
# PCOD8192600 Si02
#       7
#     8   8   8   8   8   8   8
#     4   9  20  37  58  89 124 157 200 253 312 372
#     4  12  21  38  68  94 119 162 217 260 307 374
#     4  11  19  35  61  91 118 159 203 258 309 370
#     4  10  20  36  59  90 122 155 200 258 318 367
#     4  10  21  37  61  89 122 156 207 256 311 369
#     4  11  25  43  63  92 129 167 209 259 321 388
#     4  11  22  42  61  88 123 163 204 260 304 376
#
# _framework density 19.373866
#
# number of rings (size 3 to 8) (size 9 to 14) (size 15 to 20)
#    0.000    1.429    5.714    0.429    0.000    1.714 
#    2.571    0.000    0.000    0.000    0.000    0.000 
#    0.000    0.000    0.000    0.000    0.000    0.000 
#
# Total GULP energy -347040.458547 kJ/mol
# GULP energy per Si atom -12394.302091 kJ/mol
# Density = 1.932977 g / cm^3
# Si number density = 19.373866 Si / 1000 Ang^3
#
#
#
# Elastic Constant Matrix: (Units=GPa)
#
#
# Indices 1 2 3 4 5 6 
#
# 1 77.0444 31.5811 18.3912 0.0000 0.0000 0.0000
# 2 31.5811 107.8693 25.1115 0.0000 0.0000 0.0000
# 3 18.3912 25.1115 59.6894 0.0000 0.0000 0.0000
# 4 0.0000 0.0000 0.0000 18.2472 0.0000 0.0000
# 5 0.0000 0.0000 0.0000 0.0000 19.8473 0.0000
# 6 0.0000 0.0000 0.0000 0.0000 0.0000 29.6996
#
#
#
# Elastic Compliance Matrix: (Units=1/GPa)
#
#
# Indices 1 2 3 4 5 6 
#
# 1 0.015259 -0.003739 -0.003128 0.000000 0.000000 0.000000
# 2 -0.003739 0.011193 -0.003557 0.000000 0.000000 0.000000
# 3 -0.003128 -0.003557 0.019214 0.000000 0.000000 0.000000
# 4 0.000000 0.000000 0.000000 0.054803 0.000000 0.000000
# 5 0.000000 0.000000 0.000000 0.000000 0.050385 0.000000
# 6 0.000000 0.000000 0.000000 0.000000 0.000000 0.033670
#
#
# Mechanical properties :
#
#
# Convention : Reuss Voigt Hill
#
# Bulk Modulus (GPa) = 40.29510 43.86342 42.07926
# Shear Modulus (GPa) = 23.40324 24.86009 24.13167
#
# Velocity S-wave (km/s) = 3.47937 3.58603 3.53310
# Velocity P-wave (km/s) = 6.08155 6.31156 6.19762
#
# Compressibility (1/GPa) = 0.02481691
#
# Stress axis : x y z
#
# Youngs Moduli (GPa) = 65.53495 89.33977 52.04605
#
# Poissons Ratio (x) = 0.33405 0.16283
# Poissons Ratio (y) = 0.24504 0.18512
# Poissons Ratio (z) = 0.20503 0.31778
#
# Static dielectric constant tensor:
#      x y z
#    x 3.725260 0.000000 0.000000 
#    y 0.000000 3.512170 0.000000 
#    z 0.000000 0.000000 3.451470 
# 
# 
# High freq. dielectric constant tensor:
#      x y z
#    x 1.755990 0.000000 0.000000 
#    y 0.000000 1.748400 0.000000 
#    z 0.000000 0.000000 1.746590 
# 
# From -- ./inp_files/12377.got.cif
#   From: 2010.03.12/outbox.cif.g09.slc.cpg/sg46_7_cif.got.tgz:12377.got - 2010.04.14 02:56:35.
