data_PCOD8192972
_publ_section_title
;
Structure prediction by ZEFSAII (Michael W. Deem and Ramdas Pophale) SiO2 
 PCOD8192972
Probable space group: I M A 2
;
_chemical_formula_sum "Si O2"
_cell_formula_units_Z 36
_cell_length_a 14.848425
_cell_length_b 9.037554
_cell_length_c 13.777671
_cell_angle_alpha 90.000000
_cell_angle_beta 90.000000
_cell_angle_gamma 90.000000
_cell_volume 1848.873105
_symmetry_space_group_name_H-M "I M A 2"
_symmetry_group_IT_number 46
_symmetry_cell_setting 'orthorhombic'
loop_
_space_group_symop_operation_xyz
x,y,z
-x,-y,z
1/2-x,y,z
1/2+x,-y,z
1/2+x,1/2+y,1/2+z
1/2-x,1/2-y,1/2+z
-x,1/2+y,1/2+z
x,1/2-y,1/2+z
loop_
_atom_site_type_symbol
_atom_site_label
_atom_site_fract_x
_atom_site_fract_y
_atom_site_fract_z
Si Si1 0.750000 0.753800 0.575060
Si Si2 0.750000 0.889165 0.284789
Si Si3 0.750000 0.910584 0.890647
Si Si4 0.152609 0.857316 0.369476
Si Si5 0.904385 0.076797 0.782195
Si Si6 0.393110 0.507973 0.069914
O O1 0.750000 0.681330 0.680116
O O2 0.750000 0.608131 0.507024
O O3 0.840555 0.851914 0.559889
O O4 0.839353 0.989680 0.307436
O O5 0.750000 0.759861 0.361412
O O6 0.839845 0.989773 0.854883
O O7 0.250000 0.775250 0.367086
O O8 0.082253 0.745606 0.319505
O O9 0.131619 0.885140 0.481808
O O10 0.863481 0.078058 0.673267
O O11 0.000000 0.000000 0.783553
O O12 0.500000 0.500000 0.067605
#
# Coordination Sequence:
#
# PCOD8192972 Si02
#       6
#     4   4   4   8   8   8
#     4  12  22  40  68  96 128 168 226 264 324 380
#     4  10  21  38  69  93 123 169 211 269 317 377
#     4  12  21  40  65  93 123 171 215 265 317 389
#     4  10  22  42  65  96 122 172 212 264 325 379
#     4  11  25  42  67  94 131 169 214 269 329 385
#     4  11  23  40  66  92 130 175 210 265 329 386
#
# _framework density 19.471321
#
# number of rings (size 3 to 8) (size 9 to 14) (size 15 to 20)
#    0.667    0.444    6.667    0.000    3.111    1.778 
#    0.000    0.000    0.000    0.000    0.000    0.000 
#    0.000    0.000    0.000    0.000    0.000    0.000 
#
# Total GULP energy -223044.564525 kJ/mol
# GULP energy per Si atom -12391.364696 kJ/mol
# Density = 1.942700 g / cm^3
# Si number density = 19.471321 Si / 1000 Ang^3
#
#
#
# Elastic Constant Matrix: (Units=GPa)
#
#
# Indices 1 2 3 4 5 6 
#
# 1 83.3811 24.1118 18.9208 0.0000 0.0000 0.0000
# 2 24.1118 102.0776 33.9688 0.0000 0.0000 0.0000
# 3 18.9208 33.9688 109.8211 0.0000 0.0000 0.0000
# 4 0.0000 0.0000 0.0000 40.8006 0.0000 0.0000
# 5 0.0000 0.0000 0.0000 0.0000 21.9009 0.0000
# 6 0.0000 0.0000 0.0000 0.0000 0.0000 27.5223
#
#
#
# Elastic Compliance Matrix: (Units=1/GPa)
#
#
# Indices 1 2 3 4 5 6 
#
# 1 0.013075 -0.002607 -0.001446 0.000000 0.000000 0.000000
# 2 -0.002607 0.011440 -0.003089 0.000000 0.000000 0.000000
# 3 -0.001446 -0.003089 0.010310 0.000000 0.000000 0.000000
# 4 0.000000 0.000000 0.000000 0.024509 0.000000 0.000000
# 5 0.000000 0.000000 0.000000 0.000000 0.045660 0.000000
# 6 0.000000 0.000000 0.000000 0.000000 0.000000 0.036334
#
#
# Mechanical properties :
#
#
# Convention : Reuss Voigt Hill
#
# Bulk Modulus (GPa) = 48.68481 49.92028 49.30254
# Shear Modulus (GPa) = 30.77629 32.59663 31.68646
#
# Velocity S-wave (km/s) = 3.97998 4.09600 4.03841
# Velocity P-wave (km/s) = 6.79544 6.93275 6.86444
#
# Compressibility (1/GPa) = 0.02054029
#
# Stress axis : x y z
#
# Youngs Moduli (GPa) = 76.48025 87.40939 96.98861
#
# Poissons Ratio (x) = 0.22790 0.14027
# Poissons Ratio (y) = 0.19940 0.29964
# Poissons Ratio (z) = 0.11061 0.27005
#
# Static dielectric constant tensor:
#      x y z
#    x 3.523750 0.000000 0.000000 
#    y 0.000000 3.524580 0.000000 
#    z 0.000000 0.000000 3.846920 
# 
# 
# High freq. dielectric constant tensor:
#      x y z
#    x 1.748610 0.000000 0.000000 
#    y 0.000000 1.753420 0.000000 
#    z 0.000000 0.000000 1.775150 
# 
# From -- ./inp_files/16361.got.cif
#   From: 2010.03.12/outbox.cif.g09.slc.cpg/sg46_9_cif.got.tgz:16361.got - 2010.04.14 02:56:35.
