data_PCOD8192634
_publ_section_title
;
Structure prediction by ZEFSAII (Michael W. Deem and Ramdas Pophale) SiO2 
 PCOD8192634
Probable space group: I M A 2
;
_chemical_formula_sum "Si O2"
_cell_formula_units_Z 64
_cell_length_a 23.714337
_cell_length_b 9.087893
_cell_length_c 13.171976
_cell_angle_alpha 90.000000
_cell_angle_beta 90.000000
_cell_angle_gamma 90.000000
_cell_volume 2838.736769
_symmetry_space_group_name_H-M "I M A 2"
_symmetry_group_IT_number 46
_symmetry_cell_setting 'orthorhombic'
loop_
_space_group_symop_operation_xyz
x,y,z
-x,-y,z
1/2-x,y,z
1/2+x,-y,z
1/2+x,1/2+y,1/2+z
1/2-x,1/2-y,1/2+z
-x,1/2+y,1/2+z
x,1/2-y,1/2+z
loop_
_atom_site_type_symbol
_atom_site_label
_atom_site_fract_x
_atom_site_fract_y
_atom_site_fract_z
Si Si1 0.897887 0.858680 0.057620
Si Si2 0.051929 0.603555 0.437458
Si Si3 0.007667 0.676402 0.086317
Si Si4 0.104099 0.786639 0.740117
Si Si5 0.813944 0.420206 0.852459
Si Si6 0.812692 0.740881 0.391036
Si Si7 0.186818 0.928085 0.581722
Si Si8 0.688874 0.770735 0.675462
O O1 0.854868 0.860861 0.151880
O O2 0.946710 0.749304 0.093836
O O3 0.917802 0.023083 0.032786
O O4 0.865075 0.799303 0.959473
O O5 0.034000 0.764352 0.479727
O O6 0.092408 0.618384 0.341136
O O7 0.000000 0.500000 0.403844
O O8 0.044234 0.736287 0.182495
O O9 0.000000 0.500000 0.084250
O O10 0.138675 0.642698 0.775824
O O11 0.142110 0.871996 0.661063
O O12 0.750000 0.365786 0.825449
O O13 0.816568 0.594566 0.848019
O O14 0.828302 0.372055 0.968853
O O15 0.750000 0.709891 0.439343
O O16 0.820057 0.650394 0.284927
O O17 0.250000 0.877318 0.611543
O O18 0.183585 0.106603 0.585668
O O19 0.750000 0.695752 0.671942
#
# Coordination Sequence:
#
# PCOD8192634 Si02
#       8
#     8   8   8   8   8   8   8   8
#     4  11  22  41  68  93 134 171 214 286 343 394
#     4  10  25  45  61  92 132 166 218 292 344 404
#     4  11  26  44  67  93 126 178 234 278 349 416
#     4  12  23  40  67  91 128 175 229 283 332 414
#     4  10  22  40  62  96 138 178 223 283 349 419
#     4  10  21  38  64 101 138 178 226 274 344 422
#     4  10  20  38  63  94 132 178 224 275 343 418
#     4  10  20  36  65  97 129 172 224 275 336 416
#
# _framework density 22.545238999999999
#
# number of rings (size 3 to 8) (size 9 to 14) (size 15 to 20)
#    0.000    1.500    1.250    3.375    3.500    2.000 
#    0.000    3.750    0.000    0.000    0.000    0.000 
#    0.000    0.000    0.000    0.000    0.000    0.000 
#
# Total GULP energy -396514.407268 kJ/mol
# GULP energy per Si atom -12391.075227 kJ/mol
# Density = 2.249393 g / cm^3
# Si number density = 22.545239 Si / 1000 Ang^3
#
#
#
# Elastic Constant Matrix: (Units=GPa)
#
#
# Indices 1 2 3 4 5 6 
#
# 1 138.5811 30.9691 49.9033 0.0000 0.0000 0.0000
# 2 30.9691 73.6662 19.7224 0.0000 0.0000 0.0000
# 3 49.9033 19.7224 84.2606 0.0000 0.0000 0.0000
# 4 0.0000 0.0000 0.0000 29.0929 0.0000 0.0000
# 5 0.0000 0.0000 0.0000 0.0000 55.0820 0.0000
# 6 0.0000 0.0000 0.0000 0.0000 0.0000 20.4939
#
#
#
# Elastic Compliance Matrix: (Units=1/GPa)
#
#
# Indices 1 2 3 4 5 6 
#
# 1 0.009649 -0.002695 -0.005084 0.000000 0.000000 0.000000
# 2 -0.002695 0.015235 -0.001970 0.000000 0.000000 0.000000
# 3 -0.005084 -0.001970 0.015340 0.000000 0.000000 0.000000
# 4 0.000000 0.000000 0.000000 0.034373 0.000000 0.000000
# 5 0.000000 0.000000 0.000000 0.000000 0.018155 0.000000
# 6 0.000000 0.000000 0.000000 0.000000 0.000000 0.048795
#
#
# Mechanical properties :
#
#
# Convention : Reuss Voigt Hill
#
# Bulk Modulus (GPa) = 48.24753 55.29973 51.77363
# Shear Modulus (GPa) = 29.77027 33.99463 31.88245
#
# Velocity S-wave (km/s) = 3.63777 3.88730 3.76460
# Velocity P-wave (km/s) = 6.25230 6.68803 6.47383
#
# Compressibility (1/GPa) = 0.02072645
#
# Stress axis : x y z
#
# Youngs Moduli (GPa) = 103.63784 65.63741 65.18986
#
# Poissons Ratio (x) = 0.17692 0.33141
# Poissons Ratio (y) = 0.27934 0.12840
# Poissons Ratio (z) = 0.52687 0.12929
#
# Static dielectric constant tensor:
#      x y z
#    x 4.516500 0.000000 0.000000 
#    y 0.000000 3.767560 0.000000 
#    z 0.000000 0.000000 4.288360 
# 
# 
# High freq. dielectric constant tensor:
#      x y z
#    x 1.904010 0.000000 0.000000 
#    y 0.000000 1.859670 0.000000 
#    z 0.000000 0.000000 1.902970 
# 
# From -- ./inp_files/17436.got.cif
#   From: 2010.03.12/outbox.cif.g09.slc.cpg/sg46_9_cif.got.tgz:17436.got - 2010.04.14 02:56:35.
