data_PCOD8192808
_publ_section_title
;
Structure prediction by ZEFSAII (Michael W. Deem and Ramdas Pophale) SiO2 
 PCOD8192808
Probable space group: I M A 2
;
_chemical_formula_sum "Si O2"
_cell_formula_units_Z 40
_cell_length_a 9.925585
_cell_length_b 15.834433
_cell_length_c 12.535572
_cell_angle_alpha 90.000000
_cell_angle_beta 90.000000
_cell_angle_gamma 90.000000
_cell_volume 1970.165843
_symmetry_space_group_name_H-M "I M A 2"
_symmetry_group_IT_number 46
_symmetry_cell_setting 'orthorhombic'
loop_
_space_group_symop_operation_xyz
x,y,z
-x,-y,z
1/2-x,y,z
1/2+x,-y,z
1/2+x,1/2+y,1/2+z
1/2-x,1/2-y,1/2+z
-x,1/2+y,1/2+z
x,1/2-y,1/2+z
loop_
_atom_site_type_symbol
_atom_site_label
_atom_site_fract_x
_atom_site_fract_y
_atom_site_fract_z
Si Si1 0.905532 0.919997 0.973120
Si Si2 0.250000 0.088338 0.652808
Si Si3 0.250000 0.962905 0.479461
Si Si4 0.477973 0.323836 0.267494
Si Si5 0.250000 0.905705 0.704765
Si Si6 0.500000 0.000000 0.345231
Si Si7 0.404670 0.147184 0.200578
O O1 0.750000 0.949756 0.985017
O O2 0.915756 0.849139 0.881351
O O3 0.955762 0.875627 0.082028
O O4 0.000000 0.000000 0.947023
O O5 0.115741 0.141559 0.672386
O O6 0.250000 0.057916 0.529806
O O7 0.250000 0.006140 0.731765
O O8 0.250000 0.894181 0.575754
O O9 0.387302 0.950790 0.413804
O O10 0.623733 0.363400 0.259404
O O11 0.490391 0.223296 0.252128
O O12 0.420239 0.065737 0.273513
O O13 0.250000 0.176022 0.198430
#
# Coordination Sequence:
#
# PCOD8192808 Si02
#       7
#     8   4   4   8   4   4   8
#     4  11  24  43  71  99 133 183 222 270 343 405
#     4  10  20  41  66  97 134 167 218 266 336 405
#     4  10  24  38  68  96 128 180 214 274 328 402
#     4  12  23  43  69 102 135 173 223 285 323 396
#     4  10  24  41  62 107 134 169 216 276 342 393
#     4  12  22  46  66  90 136 182 226 268 338 402
#     4  11  25  46  68  98 133 179 231 272 330 408
#
# _framework density 20.302859000000002
#
# number of rings (size 3 to 8) (size 9 to 14) (size 15 to 20)
#    0.600    0.400    4.000    3.000    1.400    4.000 
#    1.800    0.000    0.000    0.000    0.000    0.000 
#    0.000    0.000    0.000    0.000    0.000    0.000 
#
# Total GULP energy -248052.748599 kJ/mol
# GULP energy per Si atom -12402.637430 kJ/mol
# Density = 2.025665 g / cm^3
# Si number density = 20.302859 Si / 1000 Ang^3
#
#
#
# Elastic Constant Matrix: (Units=GPa)
#
#
# Indices 1 2 3 4 5 6 
#
# 1 101.9593 9.3492 9.0399 0.0000 0.0000 0.0000
# 2 9.3492 92.8019 15.3340 0.0001 0.0001 0.0001
# 3 9.0399 15.3340 97.9535 0.0003 0.0001 0.0001
# 4 0.0000 0.0001 0.0003 32.9775 0.0001 0.0001
# 5 0.0000 0.0001 0.0001 0.0001 23.4769 0.0000
# 6 0.0000 0.0001 0.0001 0.0001 0.0000 39.2185
#
#
#
# Elastic Compliance Matrix: (Units=1/GPa)
#
#
# Indices 1 2 3 4 5 6 
#
# 1 0.009957 -0.000874 -0.000782 0.000000 0.000000 0.000000
# 2 -0.000874 0.011138 -0.001663 0.000000 0.000000 0.000000
# 3 -0.000782 -0.001663 0.010541 0.000000 0.000000 0.000000
# 4 0.000000 0.000000 0.000000 0.030324 0.000000 0.000000
# 5 0.000000 0.000000 0.000000 0.000000 0.042595 0.000000
# 6 0.000000 0.000000 0.000000 0.000000 0.000000 0.025498
#
#
# Mechanical properties :
#
#
# Convention : Reuss Voigt Hill
#
# Bulk Modulus (GPa) = 40.00138 40.01788 40.00963
# Shear Modulus (GPa) = 34.47676 36.40069 35.43872
#
# Velocity S-wave (km/s) = 4.12530 4.23884 4.18246
# Velocity P-wave (km/s) = 6.51428 6.61138 6.56301
#
# Compressibility (1/GPa) = 0.02499914
#
# Stress axis : x y z
#
# Youngs Moduli (GPa) = 100.42871 89.77898 94.86372
#
# Poissons Ratio (x) = 0.07846 0.07420
# Poissons Ratio (y) = 0.08776 0.15776
# Poissons Ratio (z) = 0.07855 0.14930
#
# Static dielectric constant tensor:
#      x y z
#    x 3.810330 0.000000 0.000000 
#    y 0.000000 3.502100 0.000000 
#    z 0.000000 0.000000 3.700330 
# 
# 
# High freq. dielectric constant tensor:
#      x y z
#    x 1.795790 0.000000 0.000000 
#    y 0.000000 1.777940 0.000000 
#    z 0.000000 0.000000 1.799060 
# 
# From -- ./inp_files/9078.got.cif
#   From: 2010.03.12/outbox.cif.g09.slc.cpg/sg46_5_cif.got.tgz:9078.got - 2010.04.14 02:56:35.
