data_PCOD8192042
_publ_section_title
;
Structure prediction by ZEFSAII (Michael W. Deem and Ramdas Pophale) SiO2 
 PCOD8192042
Probable space group: I M A 2
;
_chemical_formula_sum "Si O2"
_cell_formula_units_Z 64
_cell_length_a 8.806345
_cell_length_b 14.470993
_cell_length_c 27.921800
_cell_angle_alpha 90.000000
_cell_angle_beta 90.000000
_cell_angle_gamma 90.000000
_cell_volume 3558.258053
_symmetry_space_group_name_H-M "I M A 2"
_symmetry_group_IT_number 46
_symmetry_cell_setting 'orthorhombic'
loop_
_space_group_symop_operation_xyz
x,y,z
-x,-y,z
1/2-x,y,z
1/2+x,-y,z
1/2+x,1/2+y,1/2+z
1/2-x,1/2-y,1/2+z
-x,1/2+y,1/2+z
x,1/2-y,1/2+z
loop_
_atom_site_type_symbol
_atom_site_label
_atom_site_fract_x
_atom_site_fract_y
_atom_site_fract_z
Si Si1 0.578843 0.408851 0.311830
Si Si2 0.574883 0.217879 0.010234
Si Si3 0.919645 0.174054 0.907428
Si Si4 0.929521 0.593652 0.974512
Si Si5 0.930000 0.598493 0.590333
Si Si6 0.928408 0.209521 0.282244
Si Si7 0.930863 0.401860 0.690723
Si Si8 0.578050 0.653738 0.872652
O O1 0.500000 0.500000 0.290816
O O2 0.750000 0.414735 0.293792
O O3 0.567818 0.411280 0.370315
O O4 0.505768 0.313422 0.291008
O O5 0.750000 0.223954 0.026777
O O6 0.472647 0.175276 0.051684
O O7 0.558893 0.150273 0.963570
O O8 0.514670 0.320097 0.998534
O O9 0.750000 0.218904 0.900924
O O10 0.051140 0.243814 0.892644
O O11 0.750000 0.600981 0.984888
O O12 0.963109 0.587656 0.917256
O O13 0.000000 0.500000 0.996915
O O14 0.750000 0.588504 0.594296
O O15 0.000000 0.500000 0.575405
O O16 0.998285 0.632003 0.640834
O O17 0.750000 0.213439 0.285671
O O18 0.981120 0.172086 0.230818
O O19 0.980983 0.138788 0.324284
O O20 0.750000 0.410411 0.686009
O O21 0.000000 0.500000 0.705643
O O22 0.750000 0.641423 0.856716
#
# Coordination Sequence:
#
# PCOD8192042 Si02
#       8
#     8   8   8   8   8   8   8   8
#     4   9  17  30  46  69  99 133 168 201 238 284
#     4  10  19  34  55  77 102 136 173 213 259 306
#     4   8  16  30  46  65  95 131 166 201 243 290
#     4  10  20  33  49  74 106 142 179 215 253 300
#     4  11  22  37  56  79 105 131 163 207 257 314
#     4   9  19  34  51  70  99 135 168 204 253 308
#     4  10  20  36  56  77  99 126 161 205 257 311
#     4   9  17  28  45  69  97 128 168 210 245 285
#
# _framework density 17.986326999999999
#
# number of rings (size 3 to 8) (size 9 to 14) (size 15 to 20)
#    0.000    2.500    0.000    4.125    0.000    6.000 
#    0.000    3.750    0.000    0.750    0.000    3.500 
#    0.000    0.000    0.000    0.000    0.000    0.000 
#
# Total GULP energy -396498.962607 kJ/mol
# GULP energy per Si atom -12390.592581 kJ/mol
# Density = 1.794539 g / cm^3
# Si number density = 17.986327 Si / 1000 Ang^3
#
#
#
# Elastic Constant Matrix: (Units=GPa)
#
#
# Indices 1 2 3 4 5 6 
#
# 1 69.8614 35.0049 38.9270 0.0000 0.0000 0.0000
# 2 35.0049 82.1682 53.5605 0.0000 0.0000 0.0000
# 3 38.9270 53.5605 110.2623 0.0000 0.0000 0.0000
# 4 0.0000 0.0000 0.0000 24.2333 0.0000 0.0000
# 5 0.0000 0.0000 0.0000 0.0000 25.5459 0.0000
# 6 0.0000 0.0000 0.0000 0.0000 0.0000 27.2370
#
#
#
# Elastic Compliance Matrix: (Units=1/GPa)
#
#
# Indices 1 2 3 4 5 6 
#
# 1 0.019416 -0.005566 -0.004151 0.000000 0.000000 0.000000
# 2 -0.005566 0.019405 -0.007461 0.000000 0.000000 0.000000
# 3 -0.004151 -0.007461 0.014159 0.000000 0.000000 0.000000
# 4 0.000000 0.000000 0.000000 0.041266 0.000000 0.000000
# 5 0.000000 0.000000 0.000000 0.000000 0.039145 0.000000
# 6 0.000000 0.000000 0.000000 0.000000 0.000000 0.036715
#
#
# Mechanical properties :
#
#
# Convention : Reuss Voigt Hill
#
# Bulk Modulus (GPa) = 53.69399 57.47519 55.58459
# Shear Modulus (GPa) = 23.73403 24.38988 24.06196
#
# Velocity S-wave (km/s) = 3.63652 3.68642 3.66155
# Velocity P-wave (km/s) = 6.89564 7.08123 6.98905
#
# Compressibility (1/GPa) = 0.01862406
#
# Stress axis : x y z
#
# Youngs Moduli (GPa) = 51.50458 51.53434 70.62662
#
# Poissons Ratio (x) = 0.28682 0.29317
# Poissons Ratio (y) = 0.28665 0.52694
# Poissons Ratio (z) = 0.21380 0.38450
#
# Static dielectric constant tensor:
#      x y z
#    x 3.346930 0.000000 0.000000 
#    y 0.000000 3.216960 0.000000 
#    z 0.000000 0.000000 3.371850 
# 
# 
# High freq. dielectric constant tensor:
#      x y z
#    x 1.704110 0.000000 0.000000 
#    y 0.000000 1.674430 0.000000 
#    z 0.000000 0.000000 1.681310 
# 
# From -- ./inp_files/25313.got.cif
#   From: 2010.03.12/outbox.cif.g09.slc.cpg/sg46_13_cif.got.tgz:25313.got - 2010.04.14 02:56:35.
