data_PCOD8192322
_publ_section_title
;
Structure prediction by ZEFSAII (Michael W. Deem and Ramdas Pophale) SiO2 
 PCOD8192322
Probable space group: I M A 2
;
_chemical_formula_sum "Si O2"
_cell_formula_units_Z 64
_cell_length_a 8.714570
_cell_length_b 20.908764
_cell_length_c 19.814040
_cell_angle_alpha 90.000000
_cell_angle_beta 90.000000
_cell_angle_gamma 90.000000
_cell_volume 3610.333813
_symmetry_space_group_name_H-M "I M A 2"
_symmetry_group_IT_number 46
_symmetry_cell_setting 'orthorhombic'
loop_
_space_group_symop_operation_xyz
x,y,z
-x,-y,z
1/2-x,y,z
1/2+x,-y,z
1/2+x,1/2+y,1/2+z
1/2-x,1/2-y,1/2+z
-x,1/2+y,1/2+z
x,1/2-y,1/2+z
loop_
_atom_site_type_symbol
_atom_site_label
_atom_site_fract_x
_atom_site_fract_y
_atom_site_fract_z
Si Si1 0.930307 0.265884 0.708320
Si Si2 0.069009 0.566537 0.073995
Si Si3 0.069723 0.740115 0.855633
Si Si4 0.566949 0.186381 0.069987
Si Si5 0.569357 0.187996 0.494963
Si Si6 0.569508 0.621525 0.355227
Si Si7 0.569189 0.121104 0.715568
Si Si8 0.067987 0.933778 0.986135
O O1 0.750000 0.266660 0.699729
O O2 0.977101 0.291136 0.783201
O O3 0.996368 0.309662 0.647492
O O4 0.987080 0.193114 0.699687
O O5 0.250000 0.563750 0.065752
O O6 0.022510 0.577836 0.151896
O O7 0.000000 0.500000 0.048390
O O8 0.999396 0.623618 0.027642
O O9 0.250000 0.757717 0.856568
O O10 0.028690 0.690439 0.915137
O O11 0.979444 0.805468 0.867151
O O12 0.750000 0.185708 0.066716
O O13 0.502511 0.248554 0.030600
O O14 0.503598 0.122385 0.034870
O O15 0.750000 0.186904 0.507303
O O16 0.750000 0.614653 0.362921
O O17 0.518105 0.595850 0.281757
O O18 0.488655 0.577105 0.410189
O O19 0.750000 0.119613 0.729860
O O20 0.250000 0.936598 0.987091
O O21 0.000000 0.000000 0.014095
#
# Coordination Sequence:
#
# PCOD8192322 Si02
#       8
#     8   8   8   8   8   8   8   8
#     4   8  13  24  47  77  98 118 158 210 250 286
#     4  10  20  33  51  73 102 135 170 210 250 294
#     4   9  16  29  52  77 100 128 169 211 249 290
#     4   9  15  27  51  77  97 121 163 211 251 288
#     4   9  15  28  51  77  98 127 169 211 247 289
#     4  11  21  32  48  73 105 135 165 201 246 301
#     4   9  17  31  50  70  96 134 173 206 241 289
#     4  11  22  36  53  72  99 133 169 209 251 297
#
# _framework density 17.726893
#
# number of rings (size 3 to 8) (size 9 to 14) (size 15 to 20)
#    0.000    2.500    2.500    2.250    0.000    1.000 
#    0.000    1.875    0.000    6.750    0.000    0.000 
#    0.000    0.000    0.000    0.000    0.000    0.000 
#
# Total GULP energy -396630.307635 kJ/mol
# GULP energy per Si atom -12394.697114 kJ/mol
# Density = 1.768655 g / cm^3
# Si number density = 17.726893 Si / 1000 Ang^3
#
#
#
# Elastic Constant Matrix: (Units=GPa)
#
#
# Indices 1 2 3 4 5 6 
#
# 1 36.4214 20.1434 20.1111 0.0000 0.0000 0.0000
# 2 20.1434 124.9162 73.6108 0.0000 0.0000 0.0000
# 3 20.1111 73.6108 132.2355 0.0000 0.0000 0.0000
# 4 0.0000 0.0000 0.0000 26.7915 0.0000 0.0000
# 5 0.0000 0.0000 0.0000 0.0000 10.3863 0.0000
# 6 0.0000 0.0000 0.0000 0.0000 0.0000 21.0093
#
#
#
# Elastic Compliance Matrix: (Units=1/GPa)
#
#
# Indices 1 2 3 4 5 6 
#
# 1 0.030856 -0.003289 -0.002862 0.000000 0.000000 0.000000
# 2 -0.003289 0.012264 -0.006327 0.000000 0.000000 0.000000
# 3 -0.002862 -0.006327 0.011519 0.000000 0.000000 0.000000
# 4 0.000000 0.000000 0.000000 0.037325 0.000000 0.000000
# 5 0.000000 0.000000 0.000000 0.000000 0.096281 0.000000
# 6 0.000000 0.000000 0.000000 0.000000 0.000000 0.047598
#
#
# Mechanical properties :
#
#
# Convention : Reuss Voigt Hill
#
# Bulk Modulus (GPa) = 33.68846 57.92261 45.80554
# Shear Modulus (GPa) = 18.47109 23.61793 21.04451
#
# Velocity S-wave (km/s) = 3.23148 3.65406 3.44924
# Velocity P-wave (km/s) = 5.74183 7.10977 6.46210
#
# Compressibility (1/GPa) = 0.02968376
#
# Stress axis : x y z
#
# Youngs Moduli (GPa) = 32.40885 81.53968 86.81081
#
# Poissons Ratio (x) = 0.26821 0.24842
# Poissons Ratio (y) = 0.10660 0.54922
# Poissons Ratio (z) = 0.09274 0.51587
#
# Static dielectric constant tensor:
#      x y z
#    x 2.864340 0.000000 0.000000 
#    y 0.000000 3.274180 0.000000 
#    z 0.000000 0.000000 3.688110 
# 
# 
# High freq. dielectric constant tensor:
#      x y z
#    x 1.645310 0.000000 0.000000 
#    y 0.000000 1.660870 0.000000 
#    z 0.000000 0.000000 1.696390 
# 
# From -- ./inp_files/21295.got.cif
#   From: 2010.03.12/outbox.cif.g09.slc.cpg/sg46_11_cif.got.tgz:21295.got - 2010.04.14 02:56:35.
