data_PCOD8192647
_publ_section_title
;
Structure prediction by ZEFSAII (Michael W. Deem and Ramdas Pophale) SiO2 
 PCOD8192647
Probable space group: I M A 2
;
_chemical_formula_sum "Si O2"
_cell_formula_units_Z 48
_cell_length_a 8.807584
_cell_length_b 9.159402
_cell_length_c 30.275361
_cell_angle_alpha 90.000000
_cell_angle_beta 90.000000
_cell_angle_gamma 90.000000
_cell_volume 2442.380053
_symmetry_space_group_name_H-M "I M A 2"
_symmetry_group_IT_number 46
_symmetry_cell_setting 'orthorhombic'
loop_
_space_group_symop_operation_xyz
x,y,z
-x,-y,z
1/2-x,y,z
1/2+x,-y,z
1/2+x,1/2+y,1/2+z
1/2-x,1/2-y,1/2+z
-x,1/2+y,1/2+z
x,1/2-y,1/2+z
loop_
_atom_site_type_symbol
_atom_site_label
_atom_site_fract_x
_atom_site_fract_y
_atom_site_fract_z
Si Si1 0.930323 0.341744 0.638240
Si Si2 0.571751 0.342460 0.053712
Si Si3 0.570988 0.842181 0.715730
Si Si4 0.073532 0.351375 0.796274
Si Si5 0.569802 0.343670 0.469853
Si Si6 0.430130 0.346735 0.896416
O O1 0.750000 0.352697 0.642446
O O2 0.982355 0.248500 0.596030
O O3 0.000000 0.500000 0.632227
O O4 0.997817 0.268861 0.681616
O O5 0.500000 0.500000 0.055711
O O6 0.750000 0.362120 0.053913
O O7 0.517723 0.261197 0.009525
O O8 0.750000 0.851269 0.707559
O O9 0.530718 0.783579 0.764695
O O10 0.500000 0.000000 0.709362
O O11 0.250000 0.382398 0.795545
O O12 0.019863 0.315029 0.845954
O O13 0.000000 0.500000 0.778295
O O14 0.500000 0.500000 0.480041
O O15 0.750000 0.355907 0.465869
O O16 0.501041 0.283618 0.424464
O O17 0.500000 0.500000 0.912628
O O18 0.250000 0.351449 0.902636
#
# Coordination Sequence:
#
# PCOD8192647 Si02
#       6
#     8   8   8   8   8   8
#     4  11  23  40  61  87 116 150 189 233 282 336
#     4  10  23  40  60  85 115 149 188 231 281 335
#     4  11  23  39  58  84 116 152 191 235 283 336
#     4   9  20  37  58  83 113 148 189 233 283 337
#     4  11  23  39  58  84 115 151 191 235 284 337
#     4  10  20  37  59  85 115 150 190 235 283 337
#
# _framework density 19.652961999999999
#
# number of rings (size 3 to 8) (size 9 to 14) (size 15 to 20)
#    0.000    1.667    0.000    4.000    0.000    9.333 
#    0.000    1.667    0.000    0.000    0.000    0.000 
#    0.000    0.000    0.000    0.000    0.000    0.000 
#
# Total GULP energy -297716.466927 kJ/mol
# GULP energy per Si atom -12404.852789 kJ/mol
# Density = 1.960823 g / cm^3
# Si number density = 19.652962 Si / 1000 Ang^3
#
#
#
# Elastic Constant Matrix: (Units=GPa)
#
#
# Indices 1 2 3 4 5 6 
#
# 1 78.1667 55.9773 48.2385 0.0000 0.0000 0.0000
# 2 55.9773 167.4306 71.7273 0.0000 0.0000 0.0000
# 3 48.2385 71.7273 117.1458 0.0000 0.0000 0.0000
# 4 0.0000 0.0000 0.0000 39.4967 0.0000 0.0000
# 5 0.0000 0.0000 0.0000 0.0000 24.0290 0.0000
# 6 0.0000 0.0000 0.0000 0.0000 0.0000 41.4532
#
#
#
# Elastic Compliance Matrix: (Units=1/GPa)
#
#
# Indices 1 2 3 4 5 6 
#
# 1 0.018996 -0.004067 -0.005332 0.000000 0.000000 0.000000
# 2 -0.004067 0.008967 -0.003816 0.000000 0.000000 0.000000
# 3 -0.005332 -0.003816 0.013068 0.000000 0.000000 0.000000
# 4 0.000000 0.000000 0.000000 0.025319 0.000000 0.000000
# 5 0.000000 0.000000 0.000000 0.000000 0.041616 0.000000
# 6 0.000000 0.000000 0.000000 0.000000 0.000000 0.024124
#
#
# Mechanical properties :
#
#
# Convention : Reuss Voigt Hill
#
# Bulk Modulus (GPa) = 68.48346 79.40324 73.94335
# Shear Modulus (GPa) = 30.60225 33.44913 32.02569
#
# Velocity S-wave (km/s) = 3.95033 4.12999 4.04116
# Velocity P-wave (km/s) = 7.46518 7.95191 7.71238
#
# Compressibility (1/GPa) = 0.01460207
#
# Stress axis : x y z
#
# Youngs Moduli (GPa) = 52.64248 111.52108 76.52006
#
# Poissons Ratio (x) = 0.45352 0.40802
# Poissons Ratio (y) = 0.21408 0.29198
# Poissons Ratio (z) = 0.28070 0.42554
#
# Static dielectric constant tensor:
#      x y z
#    x 3.632270 0.000000 0.000000 
#    y 0.000000 3.580990 0.000000 
#    z 0.000000 0.000000 3.938230 
# 
# 
# High freq. dielectric constant tensor:
#      x y z
#    x 1.773100 0.000000 0.000000 
#    y 0.000000 1.773490 0.000000 
#    z 0.000000 0.000000 1.781270 
# 
# From -- ./inp_files/24970.got.cif
#   From: 2010.03.12/outbox.cif.g09.slc.cpg/sg46_13_cif.got.tgz:24970.got - 2010.04.14 02:56:35.
