data_PCOD8192329
_publ_section_title
;
Structure prediction by ZEFSAII (Michael W. Deem and Ramdas Pophale) SiO2 
 PCOD8192329
Probable space group: I M A 2
;
_chemical_formula_sum "Si O2"
_cell_formula_units_Z 64
_cell_length_a 9.750958
_cell_length_b 26.414296
_cell_length_c 13.075948
_cell_angle_alpha 90.000000
_cell_angle_beta 90.000000
_cell_angle_gamma 90.000000
_cell_volume 3367.902505
_symmetry_space_group_name_H-M "I M A 2"
_symmetry_group_IT_number 46
_symmetry_cell_setting 'orthorhombic'
loop_
_space_group_symop_operation_xyz
x,y,z
-x,-y,z
1/2-x,y,z
1/2+x,-y,z
1/2+x,1/2+y,1/2+z
1/2-x,1/2-y,1/2+z
-x,1/2+y,1/2+z
x,1/2-y,1/2+z
loop_
_atom_site_type_symbol
_atom_site_label
_atom_site_fract_x
_atom_site_fract_y
_atom_site_fract_z
Si Si1 0.096758 0.722352 0.926310
Si Si2 0.097465 0.801456 0.090471
Si Si3 0.409411 0.105354 0.056712
Si Si4 0.408038 0.128024 0.440631
Si Si5 0.410893 0.450238 0.346728
Si Si6 0.908743 0.870835 0.672738
Si Si7 0.404932 0.720280 0.236894
Si Si8 0.410187 0.049323 0.265384
O O1 0.250000 0.700692 0.908098
O O2 0.069044 0.772564 0.857356
O O3 0.990694 0.677587 0.910272
O O4 0.081169 0.746317 0.037719
O O5 0.250000 0.824606 0.074462
O O6 0.073407 0.779952 0.204327
O O7 0.987588 0.841748 0.054408
O O8 0.250000 0.118747 0.057198
O O9 0.449516 0.073851 0.956127
O O10 0.452247 0.075213 0.158367
O O11 0.250000 0.142548 0.427367
O O12 0.438577 0.109725 0.557094
O O13 0.448874 0.084232 0.361555
O O14 0.500000 0.500000 0.331727
O O15 0.250000 0.463854 0.341817
O O16 0.454075 0.413048 0.254546
O O17 0.750000 0.857651 0.688123
O O18 0.990184 0.819459 0.690582
O O19 0.250000 0.701552 0.212801
O O20 0.250000 0.034951 0.264990
O O21 0.500000 0.000000 0.278622
#
# Coordination Sequence:
#
# PCOD8192329 Si02
#       8
#     8   8   8   8   8   8   8   8
#     4  10  20  34  53  79 111 145 183 226 270 322
#     4  10  20  33  51  80 112 141 178 218 264 324
#     4  10  21  37  57  82 112 143 181 230 279 334
#     4  10  21  37  56  80 112 147 185 228 272 328
#     4  10  22  39  58  82 109 141 185 233 282 333
#     4  10  21  37  56  80 112 147 185 228 272 328
#     4  10  20  34  53  79 111 145 183 226 270 322
#     4  10  22  39  58  82 109 141 185 233 282 333
#
# _framework density 19.002925000000001
#
# number of rings (size 3 to 8) (size 9 to 14) (size 15 to 20)
#    0.000    2.000    1.250    1.875    0.000    4.000 
#    0.000    0.000    0.000    0.000    0.000    0.000 
#    0.000    0.000    0.000    0.000    0.000    0.000 
#
# Total GULP energy -396710.558655 kJ/mol
# GULP energy per Si atom -12397.204958 kJ/mol
# Density = 1.895967 g / cm^3
# Si number density = 19.002925 Si / 1000 Ang^3
#
#
#
# Elastic Constant Matrix: (Units=GPa)
#
#
# Indices 1 2 3 4 5 6 
#
# 1 75.6686 71.6459 45.1021 0.0001 -0.0001 0.0000
# 2 71.6459 122.7362 59.1424 0.0001 -0.0002 0.0000
# 3 45.1021 59.1424 123.6510 0.0000 0.0000 0.0000
# 4 0.0001 0.0001 0.0000 28.1165 -0.0001 0.0000
# 5 -0.0001 -0.0002 0.0000 -0.0001 19.2830 0.0000
# 6 0.0000 0.0000 0.0000 0.0000 0.0000 46.0509
#
#
#
# Elastic Compliance Matrix: (Units=1/GPa)
#
#
# Indices 1 2 3 4 5 6 
#
# 1 0.030609 -0.016228 -0.003403 0.000000 0.000000 0.000000
# 2 -0.016228 0.019191 -0.003260 0.000000 0.000000 0.000000
# 3 -0.003403 -0.003260 0.010888 0.000000 0.000000 0.000000
# 4 0.000000 0.000000 0.000000 0.035566 0.000000 0.000000
# 5 0.000000 0.000000 0.000000 0.000000 0.051859 0.000000
# 6 0.000000 0.000000 0.000000 0.000000 0.000000 0.021715
#
#
# Mechanical properties :
#
#
# Convention : Reuss Voigt Hill
#
# Bulk Modulus (GPa) = 67.08538 74.87074 70.97806
# Shear Modulus (GPa) = 22.66761 28.43446 25.55104
#
# Velocity S-wave (km/s) = 3.45751 3.87243 3.67084
# Velocity P-wave (km/s) = 7.16369 7.71229 7.44305
#
# Compressibility (1/GPa) = 0.01490638
#
# Stress axis : x y z
#
# Youngs Moduli (GPa) = 32.67012 52.10687 91.84610
#
# Poissons Ratio (x) = 0.84559 0.31254
# Poissons Ratio (y) = 0.53017 0.29942
# Poissons Ratio (z) = 0.11117 0.16987
#
# Static dielectric constant tensor:
#      x y z
#    x 3.396440 0.000000 0.000000 
#    y 0.000000 3.153510 0.000000 
#    z 0.000000 0.000000 3.972150 
# 
# 
# High freq. dielectric constant tensor:
#      x y z
#    x 1.735600 0.000000 0.000000 
#    y 0.000000 1.721420 0.000000 
#    z 0.000000 0.000000 1.767400 
# 
# From -- ./inp_files/14484.got.cif
#   From: 2010.03.12/outbox.cif.g09.slc.cpg/sg46_8_cif.got.tgz:14484.got - 2010.04.14 02:56:35.
