data_PCOD8192684
_publ_section_title
;
Structure prediction by ZEFSAII (Michael W. Deem and Ramdas Pophale) SiO2 
 PCOD8192684
Probable space group: I M A 2
;
_chemical_formula_sum "Si O2"
_cell_formula_units_Z 60
_cell_length_a 23.615495
_cell_length_b 5.283841
_cell_length_c 23.987848
_cell_angle_alpha 90.000000
_cell_angle_beta 90.000000
_cell_angle_gamma 90.000000
_cell_volume 2993.216164
_symmetry_space_group_name_H-M "I M A 2"
_symmetry_group_IT_number 46
_symmetry_cell_setting 'orthorhombic'
loop_
_space_group_symop_operation_xyz
x,y,z
-x,-y,z
1/2-x,y,z
1/2+x,-y,z
1/2+x,1/2+y,1/2+z
1/2-x,1/2-y,1/2+z
-x,1/2+y,1/2+z
x,1/2-y,1/2+z
loop_
_atom_site_type_symbol
_atom_site_label
_atom_site_fract_x
_atom_site_fract_y
_atom_site_fract_z
Si Si1 0.500000 0.500000 0.286461
Si Si2 0.932575 0.003855 0.430230
Si Si3 0.583093 0.635102 0.728989
Si Si4 0.433481 0.493058 0.493443
Si Si5 0.601080 0.269095 0.821251
Si Si6 0.186692 0.881124 0.634025
Si Si7 0.877315 0.610982 0.609713
Si Si8 0.685581 0.979372 0.757782
O O1 0.471714 0.297363 0.244945
O O2 0.450993 0.575860 0.331193
O O3 0.912355 0.237181 0.469546
O O4 0.898548 0.031982 0.371774
O O5 0.911305 0.738578 0.455289
O O6 0.000000 0.000000 0.420521
O O7 0.579472 0.373805 0.761764
O O8 0.581456 0.585565 0.663008
O O9 0.644153 0.743545 0.748706
O O10 0.500000 0.500000 0.495108
O O11 0.413671 0.438408 0.555428
O O12 0.662427 0.141316 0.810848
O O13 0.250000 0.939789 0.614099
O O14 0.170051 0.606779 0.610913
O O15 0.183440 0.858441 0.701029
O O16 0.148755 0.107439 0.609201
O O17 0.750000 0.890258 0.770784
#
# Coordination Sequence:
#
# PCOD8192684 Si02
#       8
#     4   8   8   8   8   8   8   8
#     4  10  22  34  52  86 124 154 192 236 316 360
#     4  10  22  38  60  83 116 155 209 242 288 350
#     4  10  21  35  55  89 119 159 190 244 313 362
#     4  10  23  40  58  86 116 163 198 245 292 352
#     4  11  21  36  60  86 116 157 197 252 299 358
#     4  10  20  37  62  90 119 154 197 248 296 357
#     4  11  21  39  60  88 123 152 203 242 302 366
#     4   9  20  36  56  87 122 154 198 242 299 367
#
# _framework density 20.045328000000001
#
# number of rings (size 3 to 8) (size 9 to 14) (size 15 to 20)
#    0.000    1.867    1.333    2.400    6.533    2.133 
#    3.600    0.000    0.000    4.800    0.000    0.000 
#    0.000    0.000    0.000    0.000    0.000    0.000 
#
# Total GULP energy -371834.573549 kJ/mol
# GULP energy per Si atom -12394.485785 kJ/mol
# Density = 1.999970 g / cm^3
# Si number density = 20.045328 Si / 1000 Ang^3
#
#
#
# Elastic Constant Matrix: (Units=GPa)
#
#
# Indices 1 2 3 4 5 6 
#
# 1 70.1496 19.4044 22.1111 0.0000 0.0000 0.0000
# 2 19.4044 83.2925 24.3859 0.0000 0.0000 0.0000
# 3 22.1111 24.3859 103.8349 0.0000 0.0000 0.0000
# 4 0.0000 0.0000 0.0000 32.7474 0.0000 0.0000
# 5 0.0000 0.0000 0.0000 0.0000 21.7928 0.0000
# 6 0.0000 0.0000 0.0000 0.0000 0.0000 23.2327
#
#
#
# Elastic Compliance Matrix: (Units=1/GPa)
#
#
# Indices 1 2 3 4 5 6 
#
# 1 0.015914 -0.002916 -0.002704 0.000000 0.000000 0.000000
# 2 -0.002916 0.013427 -0.002532 0.000000 0.000000 0.000000
# 3 -0.002704 -0.002532 0.010801 0.000000 0.000000 0.000000
# 4 0.000000 0.000000 0.000000 0.030537 0.000000 0.000000
# 5 0.000000 0.000000 0.000000 0.000000 0.045887 0.000000
# 6 0.000000 0.000000 0.000000 0.000000 0.000000 0.043043
#
#
# Mechanical properties :
#
#
# Convention : Reuss Voigt Hill
#
# Bulk Modulus (GPa) = 41.95070 43.23111 42.59090
# Shear Modulus (GPa) = 27.19483 28.31294 27.75389
#
# Velocity S-wave (km/s) = 3.68729 3.76233 3.72500
# Velocity P-wave (km/s) = 6.25312 6.36294 6.30827
#
# Compressibility (1/GPa) = 0.02383750
#
# Stress axis : x y z
#
# Youngs Moduli (GPa) = 62.83730 74.47918 92.58212
#
# Poissons Ratio (x) = 0.21716 0.25035
# Poissons Ratio (y) = 0.18322 0.23445
# Poissons Ratio (z) = 0.16992 0.18861
#
# Static dielectric constant tensor:
#      x y z
#    x 3.621080 0.000000 0.000000 
#    y 0.000000 3.843020 0.000000 
#    z 0.000000 0.000000 3.625210 
# 
# 
# High freq. dielectric constant tensor:
#      x y z
#    x 1.763270 0.000000 0.000000 
#    y 0.000000 1.794380 0.000000 
#    z 0.000000 0.000000 1.766950 
# 
# From -- ./inp_files/22579.got.cif
#   From: 2010.03.12/outbox.cif.g09.slc.cpg/sg46_12_cif.got.tgz:22579.got - 2010.04.14 02:56:35.
