data_PCOD8192460
_publ_section_title
;
Structure prediction by ZEFSAII (Michael W. Deem and Ramdas Pophale) SiO2 
 PCOD8192460
Probable space group: I M A 2
;
_chemical_formula_sum "Si O2"
_cell_formula_units_Z 64
_cell_length_a 8.805588
_cell_length_b 20.328371
_cell_length_c 19.794715
_cell_angle_alpha 90.000000
_cell_angle_beta 90.000000
_cell_angle_gamma 90.000000
_cell_volume 3543.318511
_symmetry_space_group_name_H-M "I M A 2"
_symmetry_group_IT_number 46
_symmetry_cell_setting 'orthorhombic'
loop_
_space_group_symop_operation_xyz
x,y,z
-x,-y,z
1/2-x,y,z
1/2+x,-y,z
1/2+x,1/2+y,1/2+z
1/2-x,1/2-y,1/2+z
-x,1/2+y,1/2+z
x,1/2-y,1/2+z
loop_
_atom_site_type_symbol
_atom_site_label
_atom_site_fract_x
_atom_site_fract_y
_atom_site_fract_z
Si Si1 0.572710 0.321526 0.508790
Si Si2 0.429063 0.569151 0.762457
Si Si3 0.570001 0.823756 0.358985
Si Si4 0.569185 0.175340 0.501462
Si Si5 0.929222 0.067812 0.759989
Si Si6 0.571658 0.431933 0.606785
Si Si7 0.928339 0.316154 0.356071
Si Si8 0.928915 0.432634 0.106856
O O1 0.750000 0.320882 0.523005
O O2 0.510387 0.247939 0.522397
O O3 0.499171 0.373854 0.560555
O O4 0.536591 0.341525 0.431679
O O5 0.500000 0.500000 0.786049
O O6 0.250000 0.567448 0.775760
O O7 0.505066 0.627563 0.803255
O O8 0.468753 0.582780 0.684323
O O9 0.750000 0.827370 0.359556
O O10 0.506388 0.846341 0.431419
O O11 0.517489 0.750435 0.339887
O O12 0.750000 0.174602 0.491162
O O13 0.513463 0.126417 0.559840
O O14 0.750000 0.061292 0.765491
O O15 0.988288 0.127954 0.805375
O O16 0.982898 0.081571 0.683298
O O17 0.000000 0.000000 0.787154
O O18 0.500000 0.500000 0.582135
O O19 0.750000 0.437808 0.595631
O O20 0.750000 0.301635 0.346702
O O21 0.750000 0.439626 0.103036
O O22 0.000000 0.500000 0.079332
#
# Coordination Sequence:
#
# PCOD8192460 Si02
#       8
#     8   8   8   8   8   8   8   8
#     4   8  15  30  51  73  96 126 165 205 242 284
#     4  10  20  35  54  75 101 133 168 206 249 298
#     4  11  22  35  52  75 102 130 165 210 256 301
#     4   9  18  34  53  71  96 131 169 206 245 294
#     4   9  18  32  51  76 104 135 170 207 248 294
#     4   9  18  32  51  74 100 130 164 203 245 292
#     4   9  18  34  54  74 101 137 173 206 244 295
#     4   9  18  32  51  74 100 130 164 203 245 292
#
# _framework density 18.062163999999999
#
# number of rings (size 3 to 8) (size 9 to 14) (size 15 to 20)
#    0.000    2.750    0.000    2.250    0.000    3.500 
#    0.000    7.500    0.000    3.000    0.000    0.000 
#    0.000    0.000    0.000    0.000    0.000    0.000 
#
# Total GULP energy -396786.690040 kJ/mol
# GULP energy per Si atom -12399.584064 kJ/mol
# Density = 1.802105 g / cm^3
# Si number density = 18.062164 Si / 1000 Ang^3
#
#
#
# Elastic Constant Matrix: (Units=GPa)
#
#
# Indices 1 2 3 4 5 6 
#
# 1 49.1881 40.8647 34.4094 0.0000 0.0000 0.0000
# 2 40.8647 139.8612 93.5406 0.0000 0.0000 0.0000
# 3 34.4094 93.5406 106.7226 0.0000 0.0000 0.0000
# 4 0.0000 0.0000 0.0000 35.5905 0.0000 0.0000
# 5 0.0000 0.0000 0.0000 0.0000 17.4444 0.0000
# 6 0.0000 0.0000 0.0000 0.0000 0.0000 31.1327
#
#
#
# Elastic Compliance Matrix: (Units=1/GPa)
#
#
# Indices 1 2 3 4 5 6 
#
# 1 0.027690 -0.005122 -0.004438 0.000000 0.000000 0.000000
# 2 -0.005122 0.018226 -0.014324 0.000000 0.000000 0.000000
# 3 -0.004438 -0.014324 0.023355 0.000000 0.000000 0.000000
# 4 0.000000 0.000000 0.000000 0.028097 0.000000 0.000000
# 5 0.000000 0.000000 0.000000 0.000000 0.057325 0.000000
# 6 0.000000 0.000000 0.000000 0.000000 0.000000 0.032121
#
#
# Mechanical properties :
#
#
# Convention : Reuss Voigt Hill
#
# Bulk Modulus (GPa) = 46.50321 70.37792 58.44056
# Shear Modulus (GPa) = 20.68241 25.29734 22.98988
#
# Velocity S-wave (km/s) = 3.38756 3.74648 3.57153
# Velocity P-wave (km/s) = 6.41115 7.60024 7.03088
#
# Compressibility (1/GPa) = 0.02150389
#
# Stress axis : x y z
#
# Youngs Moduli (GPa) = 36.11363 54.86594 42.81653
#
# Poissons Ratio (x) = 0.28103 0.19004
# Poissons Ratio (y) = 0.18498 0.61328
# Poissons Ratio (z) = 0.16029 0.78587
#
# Static dielectric constant tensor:
#      x y z
#    x 3.137220 0.000000 0.000000 
#    y 0.000000 3.602820 0.000000 
#    z 0.000000 0.000000 3.487020 
# 
# 
# High freq. dielectric constant tensor:
#      x y z
#    x 1.680770 0.000000 0.000000 
#    y 0.000000 1.707360 0.000000 
#    z 0.000000 0.000000 1.700330 
# 
# From -- ./inp_files/18542.got.cif
#   From: 2010.03.12/outbox.cif.g09.slc.cpg/sg46_10_cif.got.tgz:18542.got - 2010.04.14 02:56:35.
