data_PCOD8192743
_publ_section_title
;
Structure prediction by ZEFSAII (Michael W. Deem and Ramdas Pophale) SiO2 
 PCOD8192743
Probable space group: I M A 2
;
_chemical_formula_sum "Si O2"
_cell_formula_units_Z 48
_cell_length_a 9.623811
_cell_length_b 8.678086
_cell_length_c 28.028483
_cell_angle_alpha 90.000000
_cell_angle_beta 90.000000
_cell_angle_gamma 90.000000
_cell_volume 2340.834060
_symmetry_space_group_name_H-M "I M A 2"
_symmetry_group_IT_number 46
_symmetry_cell_setting 'orthorhombic'
loop_
_space_group_symop_operation_xyz
x,y,z
-x,-y,z
1/2-x,y,z
1/2+x,-y,z
1/2+x,1/2+y,1/2+z
1/2-x,1/2-y,1/2+z
-x,1/2+y,1/2+z
x,1/2-y,1/2+z
loop_
_atom_site_type_symbol
_atom_site_label
_atom_site_fract_x
_atom_site_fract_y
_atom_site_fract_z
Si Si1 0.250000 0.796303 0.579780
Si Si2 0.414801 0.843862 0.421531
Si Si3 0.982572 0.681265 0.237269
Si Si4 0.013794 0.681801 0.516673
Si Si5 0.750000 0.839090 0.559687
Si Si6 0.085009 0.155919 0.333247
Si Si7 0.750000 0.669812 0.168340
Si Si8 0.750000 0.193600 0.687360
O O1 0.385633 0.718690 0.559631
O O2 0.250000 0.740276 0.634380
O O3 0.250000 0.976693 0.565492
O O4 0.250000 0.873473 0.409770
O O5 0.422172 0.732905 0.466519
O O6 0.500152 0.765808 0.377393
O O7 0.500000 0.000000 0.432789
O O8 0.926205 0.736217 0.287718
O O9 0.883411 0.736819 0.194712
O O10 0.000000 0.500000 0.241214
O O11 0.126189 0.754702 0.220436
O O12 0.876575 0.777545 0.528472
O O13 0.000000 0.500000 0.513935
O O14 0.750000 0.773826 0.613600
O O15 0.250000 0.129392 0.344871
O O16 0.000000 0.000000 0.322582
O O17 0.750000 0.487478 0.176377
#
# Coordination Sequence:
#
# PCOD8192743 Si02
#       8
#     4   8   8   8   4   8   4   4
#     4  11  21  45  64  97 120 175 232 255 308 381
#     4  11  24  44  69  93 121 164 220 261 312 391
#     4  10  20  38  63  93 125 163 210 265 314 364
#     4  12  26  42  62  98 137 164 203 272 334 375
#     4  11  23  39  74  89 126 177 222 263 302 385
#     4  11  24  42  64  94 129 164 210 259 314 379
#     4   9  18  39  58  95 120 165 218 265 300 359
#     4   9  20  33  66  89 126 159 218 265 300 365
#
# _framework density 20.505510999999998
#
# number of rings (size 3 to 8) (size 9 to 14) (size 15 to 20)
#    0.000    1.333    1.667    5.000    4.667    3.333 
#    0.000    6.667    0.000    0.000    0.000    0.000 
#    0.000    0.000    0.000    0.000    0.000    0.000 
#
# Total GULP energy -297356.141498 kJ/mol
# GULP energy per Si atom -12389.839229 kJ/mol
# Density = 2.045884 g / cm^3
# Si number density = 20.505511 Si / 1000 Ang^3
#
#
#
# Elastic Constant Matrix: (Units=GPa)
#
#
# Indices 1 2 3 4 5 6 
#
# 1 182.2309 25.6815 50.3856 0.0000 0.0000 0.0000
# 2 25.6815 54.0873 24.9395 0.0000 0.0000 0.0000
# 3 50.3856 24.9395 132.9948 0.0000 0.0000 0.0000
# 4 0.0000 0.0000 0.0000 31.6934 0.0000 0.0000
# 5 0.0000 0.0000 0.0000 0.0000 45.0180 0.0000
# 6 0.0000 0.0000 0.0000 0.0000 0.0000 -124.3830
#
#
#
# Elastic Compliance Matrix: (Units=1/GPa)
#
#
# Indices 1 2 3 4 5 6 
#
# 1 0.006337 -0.002082 -0.002010 0.000000 0.000000 0.000000
# 2 -0.002082 0.020923 -0.003135 0.000000 0.000000 0.000000
# 3 -0.002010 -0.003135 0.008869 0.000000 0.000000 0.000000
# 4 0.000000 0.000000 0.000000 0.031552 0.000000 0.000000
# 5 0.000000 0.000000 0.000000 0.000000 0.022213 0.000000
# 6 0.000000 0.000000 0.000000 0.000000 0.000000 -0.008040
#
#
# Mechanical properties :
#
#
# Convention : Reuss Voigt Hill
#
# Bulk Modulus (GPa) = 46.13811 63.48070 54.80941
# Shear Modulus (GPa) = 48.29415 8.35278 28.32346
#
# Velocity S-wave (km/s) = 4.85828 2.02046 3.72056
# Velocity P-wave (km/s) = 7.34981 6.03888 6.72636
#
# Compressibility (1/GPa) = 0.02167405
#
# Stress axis : x y z
#
# Youngs Moduli (GPa) = 157.80899 47.79540 112.75815
#
# Poissons Ratio (x) = 0.09950 0.22668
# Poissons Ratio (y) = 0.32853 0.35347
# Poissons Ratio (z) = 0.31725 0.14983
#
# Static dielectric constant tensor:
#      x y z
#    x 4.115610 0.000000 0.000000 
#    y 0.000000 3.377490 0.000000 
#    z 0.000000 0.000000 4.015840 
# 
# 
# High freq. dielectric constant tensor:
#      x y z
#    x 1.827510 0.000000 0.000000 
#    y 0.000000 1.768800 0.000000 
#    z 0.000000 0.000000 1.820990 
# 
# From -- ./inp_files/25068.got.cif
#   From: 2010.03.12/outbox.cif.g09.slc.cpg/sg46_13_cif.got.tgz:25068.got - 2010.04.14 02:56:35.
