data_PCOD8192615
_publ_section_title
;
Structure prediction by ZEFSAII (Michael W. Deem and Ramdas Pophale) SiO2 
 PCOD8192615
Probable space group: I M A 2
;
_chemical_formula_sum "Si O2"
_cell_formula_units_Z 64
_cell_length_a 28.860284
_cell_length_b 12.334298
_cell_length_c 8.795111
_cell_angle_alpha 90.000000
_cell_angle_beta 90.000000
_cell_angle_gamma 90.000000
_cell_volume 3130.807476
_symmetry_space_group_name_H-M "I M A 2"
_symmetry_group_IT_number 46
_symmetry_cell_setting 'orthorhombic'
loop_
_space_group_symop_operation_xyz
x,y,z
-x,-y,z
1/2-x,y,z
1/2+x,-y,z
1/2+x,1/2+y,1/2+z
1/2-x,1/2-y,1/2+z
-x,1/2+y,1/2+z
x,1/2-y,1/2+z
loop_
_atom_site_type_symbol
_atom_site_label
_atom_site_fract_x
_atom_site_fract_y
_atom_site_fract_z
Si Si1 0.897280 0.137856 0.775720
Si Si2 0.637787 0.899017 0.228098
Si Si3 0.079009 0.394602 0.243114
Si Si4 0.026932 0.390957 0.717248
Si Si5 0.802406 0.106741 0.265694
Si Si6 0.157860 0.746992 0.022530
Si Si7 0.376694 0.259065 0.990141
Si Si8 0.998019 0.186300 0.886778
O O1 0.885249 0.198871 0.618625
O O2 0.944692 0.182474 0.842503
O O3 0.896854 0.010636 0.740268
O O4 0.859126 0.161944 0.904300
O O5 0.582164 0.913610 0.207520
O O6 0.651879 0.845620 0.390049
O O7 0.663107 0.012462 0.212085
O O8 0.655844 0.813926 0.099685
O O9 0.096605 0.324139 0.384261
O O10 0.024122 0.401746 0.277811
O O11 0.087009 0.329009 0.088883
O O12 0.017523 0.306735 0.853001
O O13 0.005876 0.343163 0.562086
O O14 0.000000 0.500000 0.759946
O O15 0.750000 0.063549 0.274368
O O16 0.805459 0.200147 0.138244
O O17 0.817148 0.150327 0.431121
#
# Coordination Sequence:
#
# PCOD8192615 Si02
#       8
#     8   8   8   8   8   8   8   8
#     4  11  23  37  60  91 124 168 210 254 303 366
#     4  11  21  41  63  88 121 169 205 262 312 373
#     4  11  19  36  53  83 119 168 206 252 289 356
#     4  12  25  40  58  87 126 175 213 258 305 365
#     4  11  24  44  70  96 121 160 209 264 330 387
#     4  10  24  42  64  91 128 157 204 261 322 376
#     4  10  20  36  61  82 119 158 212 243 313 362
#     4  12  23  38  58  87 131 169 220 251 298 358
#
# _framework density 20.442011000000001
#
# number of rings (size 3 to 8) (size 9 to 14) (size 15 to 20)
#    0.000    1.000    3.750    3.750    5.250    0.000 
#    2.250    1.250    0.000    0.000    0.000    0.000 
#    0.000    0.000    0.000    0.000    0.000    0.000 
#
# Total GULP energy -396699.339524 kJ/mol
# GULP energy per Si atom -12396.854360 kJ/mol
# Density = 2.039548 g / cm^3
# Si number density = 20.442011 Si / 1000 Ang^3
#
#
#
# Elastic Constant Matrix: (Units=GPa)
#
#
# Indices 1 2 3 4 5 6 
#
# 1 91.5584 36.2897 25.5739 0.0000 0.0000 0.0000
# 2 36.2897 113.3012 36.2023 0.0000 0.0000 0.0000
# 3 25.5739 36.2023 108.7435 0.0000 0.0000 0.0000
# 4 0.0000 0.0000 0.0000 15.5923 0.0000 0.0000
# 5 0.0000 0.0000 0.0000 0.0000 15.4325 0.0000
# 6 0.0000 0.0000 0.0000 0.0000 0.0000 21.1982
#
#
#
# Elastic Compliance Matrix: (Units=1/GPa)
#
#
# Indices 1 2 3 4 5 6 
#
# 1 0.012833 -0.003520 -0.001846 0.000000 0.000000 0.000000
# 2 -0.003520 0.010842 -0.002782 0.000000 0.000000 0.000000
# 3 -0.001846 -0.002782 0.010556 0.000000 0.000000 0.000000
# 4 0.000000 0.000000 0.000000 0.064134 0.000000 0.000000
# 5 0.000000 0.000000 0.000000 0.000000 0.064798 0.000000
# 6 0.000000 0.000000 0.000000 0.000000 0.000000 0.047174
#
#
# Mechanical properties :
#
#
# Convention : Reuss Voigt Hill
#
# Bulk Modulus (GPa) = 55.75611 56.63721 56.19666
# Shear Modulus (GPa) = 21.49495 24.81374 23.15435
#
# Velocity S-wave (km/s) = 3.24622 3.48783 3.36919
# Velocity P-wave (km/s) = 6.43312 6.63222 6.53343
#
# Compressibility (1/GPa) = 0.01793525
#
# Stress axis : x y z
#
# Youngs Moduli (GPa) = 77.92426 92.23029 94.73156
#
# Poissons Ratio (x) = 0.32470 0.17487
# Poissons Ratio (y) = 0.27433 0.26351
# Poissons Ratio (z) = 0.14385 0.25655
#
# Static dielectric constant tensor:
#      x y z
#    x 3.352550 0.000000 0.000000 
#    y 0.000000 3.845460 0.000000 
#    z 0.000000 0.000000 4.046350 
# 
# 
# High freq. dielectric constant tensor:
#      x y z
#    x 1.757430 0.000000 0.000000 
#    y 0.000000 1.807780 0.000000 
#    z 0.000000 0.000000 1.819940 
# 
# From -- ./inp_files/8492.got.cif
#   From: 2010.03.12/outbox.cif.g09.slc.cpg/sg46_5_cif.got.tgz:8492.got - 2010.04.14 02:56:35.
