data_PCOD8192508
_publ_section_title
;
Structure prediction by ZEFSAII (Michael W. Deem and Ramdas Pophale) SiO2 
 PCOD8192508
Probable space group: I M A 2
;
_chemical_formula_sum "Si O2"
_cell_formula_units_Z 56
_cell_length_a 16.531994
_cell_length_b 19.826924
_cell_length_c 9.113005
_cell_angle_alpha 90.000000
_cell_angle_beta 90.000000
_cell_angle_gamma 90.000000
_cell_volume 2987.047917
_symmetry_space_group_name_H-M "I M A 2"
_symmetry_group_IT_number 46
_symmetry_cell_setting 'orthorhombic'
loop_
_space_group_symop_operation_xyz
x,y,z
-x,-y,z
1/2-x,y,z
1/2+x,-y,z
1/2+x,1/2+y,1/2+z
1/2-x,1/2-y,1/2+z
-x,1/2+y,1/2+z
x,1/2-y,1/2+z
loop_
_atom_site_type_symbol
_atom_site_label
_atom_site_fract_x
_atom_site_fract_y
_atom_site_fract_z
Si Si1 0.158147 0.697417 0.471260
Si Si2 0.415005 0.251794 0.121868
Si Si3 0.015406 0.625767 0.027185
Si Si4 0.925517 0.962152 0.741867
Si Si5 0.342077 0.165359 0.867871
Si Si6 0.339991 0.596209 0.225408
Si Si7 0.568632 0.305797 0.771244
O O1 0.250000 0.724615 0.476299
O O2 0.153723 0.625037 0.390253
O O3 0.129456 0.683998 0.637126
O O4 0.102884 0.751362 0.387384
O O5 0.458542 0.308846 0.026790
O O6 0.348988 0.283959 0.231070
O O7 0.480924 0.214619 0.217820
O O8 0.369770 0.199256 0.018114
O O9 0.961480 0.562589 0.082635
O O10 0.092881 0.636171 0.133053
O O11 0.052644 0.623705 0.861863
O O12 0.897962 0.899911 0.840556
O O13 0.853571 0.015440 0.718803
O O14 0.000000 0.000000 0.824171
O O15 0.250000 0.141653 0.882827
O O16 0.250000 0.610113 0.161746
#
# Coordination Sequence:
#
# PCOD8192508 Si02
#       7
#     8   8   8   8   8   8   8
#     4  11  22  33  55  91 125 158 195 240 300 354
#     4  11  20  35  57  85 115 149 185 232 291 359
#     4  10  20  35  57  85 113 151 194 236 287 357
#     4   9  21  37  62  82 108 151 204 238 281 351
#     4  11  22  37  59  88 117 146 186 243 299 343
#     4  10  20  38  61  84 114 153 199 246 288 344
#     4  12  20  35  57  84 127 156 190 241 296 360
#
# _framework density 18.747608
#
# number of rings (size 3 to 8) (size 9 to 14) (size 15 to 20)
#    0.000    1.429    4.286    1.286    4.000    2.286 
#    0.000    0.000    9.429    0.000    0.000    0.000 
#    0.000    0.000    0.000    0.000    0.000    0.000 
#
# Total GULP energy -347008.227507 kJ/mol
# GULP energy per Si atom -12393.150982 kJ/mol
# Density = 1.870494 g / cm^3
# Si number density = 18.747608 Si / 1000 Ang^3
#
#
#
# Elastic Constant Matrix: (Units=GPa)
#
#
# Indices 1 2 3 4 5 6 
#
# 1 109.1084 39.3216 41.6753 0.0000 0.0000 0.0000
# 2 39.3216 88.0880 43.6797 0.0000 0.0000 0.0000
# 3 41.6753 43.6797 113.6250 0.0000 0.0000 0.0000
# 4 0.0000 0.0000 0.0000 17.7428 0.0000 0.0000
# 5 0.0000 0.0000 0.0000 0.0000 30.3852 0.0000
# 6 0.0000 0.0000 0.0000 0.0000 0.0000 28.6477
#
#
#
# Elastic Compliance Matrix: (Units=1/GPa)
#
#
# Indices 1 2 3 4 5 6 
#
# 1 0.011600 -0.003791 -0.002797 0.000000 0.000000 0.000000
# 2 -0.003791 0.015265 -0.004478 0.000000 0.000000 0.000000
# 3 -0.002797 -0.004478 0.011548 0.000000 0.000000 0.000000
# 4 0.000000 0.000000 0.000000 0.056361 0.000000 0.000000
# 5 0.000000 0.000000 0.000000 0.000000 0.032911 0.000000
# 6 0.000000 0.000000 0.000000 0.000000 0.000000 0.034907
#
#
# Mechanical properties :
#
#
# Convention : Reuss Voigt Hill
#
# Bulk Modulus (GPa) = 61.42106 62.24162 61.83134
# Shear Modulus (GPa) = 26.29499 27.76479 27.02989
#
# Velocity S-wave (km/s) = 3.74916 3.85252 3.80119
# Velocity P-wave (km/s) = 7.18156 7.28430 7.23312
#
# Compressibility (1/GPa) = 0.01628106
#
# Stress axis : x y z
#
# Youngs Moduli (GPa) = 86.20777 65.50997 86.59395
#
# Poissons Ratio (x) = 0.24835 0.24223
# Poissons Ratio (y) = 0.32681 0.38774
# Poissons Ratio (z) = 0.24114 0.29333
#
# Static dielectric constant tensor:
#      x y z
#    x 3.569290 0.000000 0.000000 
#    y 0.000000 3.429520 0.000000 
#    z 0.000000 0.000000 3.477720 
# 
# 
# High freq. dielectric constant tensor:
#      x y z
#    x 1.742440 0.000000 0.000000 
#    y 0.000000 1.712100 0.000000 
#    z 0.000000 0.000000 1.715690 
# 
# From -- ./inp_files/5918.got.cif
#   From: 2010.03.12/outbox.cif.g09.slc.cpg/sg46_3_cif.got.tgz:5918.got - 2010.04.14 02:56:35.
