data_PCOD8192024
_publ_section_title
;
Structure prediction by ZEFSAII (Michael W. Deem and Ramdas Pophale) SiO2 
 PCOD8192024
Probable space group: I M A 2
;
_chemical_formula_sum "Si O2"
_cell_formula_units_Z 60
_cell_length_a 18.816429
_cell_length_b 7.141919
_cell_length_c 22.095429
_cell_angle_alpha 90.000000
_cell_angle_beta 90.000000
_cell_angle_gamma 90.000000
_cell_volume 2969.303325
_symmetry_space_group_name_H-M "I M A 2"
_symmetry_group_IT_number 46
_symmetry_cell_setting 'orthorhombic'
loop_
_space_group_symop_operation_xyz
x,y,z
-x,-y,z
1/2-x,y,z
1/2+x,-y,z
1/2+x,1/2+y,1/2+z
1/2-x,1/2-y,1/2+z
-x,1/2+y,1/2+z
x,1/2-y,1/2+z
loop_
_atom_site_type_symbol
_atom_site_label
_atom_site_fract_x
_atom_site_fract_y
_atom_site_fract_z
Si Si1 0.131544 0.520123 0.033240
Si Si2 0.581286 0.436437 0.900503
Si Si3 0.000000 0.000000 0.613894
Si Si4 0.335374 0.209326 0.868025
Si Si5 0.424709 0.597490 0.315357
Si Si6 0.551603 0.173329 0.195915
Si Si7 0.172065 0.370303 0.499480
Si Si8 0.169719 0.624355 0.601777
O O1 0.173510 0.668413 0.073964
O O2 0.064571 0.450396 0.070846
O O3 0.107897 0.600228 0.968394
O O4 0.180892 0.341726 0.022565
O O5 0.500000 0.500000 0.899291
O O6 0.629404 0.585313 0.862797
O O7 0.590279 0.235921 0.870228
O O8 0.991303 0.183962 0.654237
O O9 0.250000 0.226640 0.863753
O O10 0.363128 0.128098 0.933011
O O11 0.364897 0.067638 0.816658
O O12 0.500000 0.500000 0.323021
O O13 0.420606 0.716615 0.254246
O O14 0.621917 0.102795 0.161351
O O15 0.500000 0.000000 0.213610
O O16 0.250000 0.460182 0.493091
O O17 0.132323 0.494516 0.550051
O O18 0.250000 0.560637 0.618780
#
# Coordination Sequence:
#
# PCOD8192024 Si02
#       8
#     8   8   4   8   8   8   8   8
#     4  10  19  33  58  90 122 154 193 250 305 366
#     4  11  21  38  63  98 129 164 209 254 309 378
#     4  10  20  36  56  86 118 152 202 252 306 358
#     4  10  23  41  63  95 130 164 205 257 319 380
#     4  12  24  40  65  87 123 168 216 264 310 368
#     4  11  24  40  61  84 118 164 214 260 309 366
#     4   9  18  35  57  85 124 157 188 238 309 375
#     4  10  21  38  60  89 120 158 202 253 312 374
#
# _framework density 20.206759999999999
#
# number of rings (size 3 to 8) (size 9 to 14) (size 15 to 20)
#    0.000    1.600    2.667    2.400    0.000    1.600 
#    0.000    0.667    0.000    0.000    0.000    0.000 
#    0.000    0.000    0.000    0.000    0.000    0.000 
#
# Total GULP energy -371892.331426 kJ/mol
# GULP energy per Si atom -12396.411048 kJ/mol
# Density = 2.016077 g / cm^3
# Si number density = 20.206760 Si / 1000 Ang^3
#
#
#
# Elastic Constant Matrix: (Units=GPa)
#
#
# Indices 1 2 3 4 5 6 
#
# 1 96.7886 24.3810 22.0970 0.0000 0.0000 0.0000
# 2 24.3810 71.7833 29.0431 0.0000 0.0000 0.0000
# 3 22.0970 29.0431 84.4768 0.0000 0.0000 0.0000
# 4 0.0000 0.0000 0.0000 30.2113 0.0000 0.0000
# 5 0.0000 0.0000 0.0000 0.0000 29.7517 0.0000
# 6 0.0000 0.0000 0.0000 0.0000 0.0000 30.8238
#
#
#
# Elastic Compliance Matrix: (Units=1/GPa)
#
#
# Indices 1 2 3 4 5 6 
#
# 1 0.011567 -0.003142 -0.001946 0.000000 0.000000 0.000000
# 2 -0.003142 0.017035 -0.005035 0.000000 0.000000 0.000000
# 3 -0.001946 -0.005035 0.014077 0.000000 0.000000 0.000000
# 4 0.000000 0.000000 0.000000 0.033100 0.000000 0.000000
# 5 0.000000 0.000000 0.000000 0.000000 0.033612 0.000000
# 6 0.000000 0.000000 0.000000 0.000000 0.000000 0.032443
#
#
# Mechanical properties :
#
#
# Convention : Reuss Voigt Hill
#
# Bulk Modulus (GPa) = 44.57209 44.89899 44.73554
# Shear Modulus (GPa) = 29.48866 29.99253 29.74060
#
# Velocity S-wave (km/s) = 3.82428 3.85682 3.84059
# Velocity P-wave (km/s) = 6.45028 6.48856 6.46945
#
# Compressibility (1/GPa) = 0.02243556
#
# Stress axis : x y z
#
# Youngs Moduli (GPa) = 86.45012 58.70292 71.03549
#
# Poissons Ratio (x) = 0.18442 0.13821
# Poissons Ratio (y) = 0.27159 0.35765
# Poissons Ratio (z) = 0.16820 0.29556
#
# Static dielectric constant tensor:
#      x y z
#    x 3.377390 0.000000 0.000000 
#    y 0.000000 3.754310 0.000000 
#    z 0.000000 0.000000 3.693870 
# 
# 
# High freq. dielectric constant tensor:
#      x y z
#    x 1.780700 0.000000 0.000000 
#    y 0.000000 1.798770 0.000000 
#    z 0.000000 0.000000 1.785010 
# 
# From -- ./inp_files/23898.got.cif
#   From: 2010.03.12/outbox.cif.g09.slc.cpg/sg46_12_cif.got.tgz:23898.got - 2010.04.14 02:56:35.
