data_PCOD8192640
_publ_section_title
;
Structure prediction by ZEFSAII (Michael W. Deem and Ramdas Pophale) SiO2 
 PCOD8192640
Probable space group: I M A 2
;
_chemical_formula_sum "Si O2"
_cell_formula_units_Z 48
_cell_length_a 7.669645
_cell_length_b 33.502003
_cell_length_c 9.526507
_cell_angle_alpha 90.000000
_cell_angle_beta 90.000000
_cell_angle_gamma 90.000000
_cell_volume 2447.821396
_symmetry_space_group_name_H-M "I M A 2"
_symmetry_group_IT_number 46
_symmetry_cell_setting 'orthorhombic'
loop_
_space_group_symop_operation_xyz
x,y,z
-x,-y,z
1/2-x,y,z
1/2+x,-y,z
1/2+x,1/2+y,1/2+z
1/2-x,1/2-y,1/2+z
-x,1/2+y,1/2+z
x,1/2-y,1/2+z
loop_
_atom_site_type_symbol
_atom_site_label
_atom_site_fract_x
_atom_site_fract_y
_atom_site_fract_z
Si Si1 0.454082 0.045354 0.331860
Si Si2 0.750000 0.301403 0.303592
Si Si3 0.750000 0.225957 0.484240
Si Si4 0.551380 0.382389 0.650569
Si Si5 0.953671 0.902821 0.574331
Si Si6 0.949621 0.635485 0.346759
Si Si7 0.051237 0.329192 0.896535
O O1 0.250000 0.051964 0.319361
O O2 0.541714 0.073335 0.215280
O O3 0.526780 0.058943 0.487066
O O4 0.500000 0.000000 0.302244
O O5 0.750000 0.271847 0.436787
O O6 0.575105 0.327308 0.319448
O O7 0.750000 0.278476 0.153526
O O8 0.575783 0.208140 0.413470
O O9 0.750000 0.369303 0.632257
O O10 0.461356 0.383350 0.499591
O O11 0.455018 0.348805 0.742291
O O12 0.750000 0.903791 0.549924
O O13 0.003255 0.900674 0.738618
O O14 0.023276 0.861967 0.505079
O O15 0.750000 0.649132 0.316300
O O16 0.250000 0.315650 0.927295
#
# Coordination Sequence:
#
# PCOD8192640 Si02
#       7
#     8   4   4   8   8   8   8
#     4  10  20  37  58  92 127 159 201 252 311 370
#     4  12  28  42  62  92 128 160 210 266 318 376
#     4  12  26  42  62  90 128 162 200 272 318 374
#     4  11  21  36  63  93 121 162 207 256 305 372
#     4   8  17  35  62  84 111 157 207 250 296 358
#     4  11  22  42  64  88 121 164 213 260 306 373
#     4  10  20  39  63  86 115 160 209 250 307 374
#
# _framework density 19.609273999999999
#
# number of rings (size 3 to 8) (size 9 to 14) (size 15 to 20)
#    0.000    1.667    3.333    3.000    2.333    0.667 
#    1.500    0.833    0.000    2.000    0.000    0.000 
#    0.000    0.000    0.000    0.000    0.000    0.000 
#
# Total GULP energy -297469.219033 kJ/mol
# GULP energy per Si atom -12394.550793 kJ/mol
# Density = 1.956464 g / cm^3
# Si number density = 19.609274 Si / 1000 Ang^3
#
#
#
# Elastic Constant Matrix: (Units=GPa)
#
#
# Indices 1 2 3 4 5 6 
#
# 1 97.3066 23.7581 19.6952 -0.0019 -0.0017 -0.0014
# 2 23.7581 82.1011 39.0279 0.0040 0.0013 0.0008
# 3 19.6952 39.0279 152.9440 0.0091 0.0017 0.0009
# 4 -0.0019 0.0040 0.0091 26.9305 0.0030 0.0021
# 5 -0.0017 0.0013 0.0017 0.0030 23.6358 0.0022
# 6 -0.0014 0.0008 0.0009 0.0021 0.0022 23.8373
#
#
#
# Elastic Compliance Matrix: (Units=1/GPa)
#
#
# Indices 1 2 3 4 5 6 
#
# 1 0.011123 -0.002888 -0.000695 0.000001 0.000001 0.000001
# 2 -0.002888 0.014611 -0.003357 -0.000001 -0.000001 -0.000001
# 3 -0.000695 -0.003357 0.007484 -0.000002 0.000000 0.000000
# 4 0.000001 -0.000001 -0.000002 0.037133 -0.000005 -0.000003
# 5 0.000001 -0.000001 0.000000 -0.000005 0.042309 -0.000004
# 6 0.000001 -0.000001 0.000000 -0.000003 -0.000004 0.041951
#
#
# Mechanical properties :
#
#
# Convention : Reuss Voigt Hill
#
# Bulk Modulus (GPa) = 51.71037 55.25710 53.48374
# Shear Modulus (GPa) = 28.58170 31.53877 30.06023
#
# Velocity S-wave (km/s) = 3.82194 4.01479 3.91955
# Velocity P-wave (km/s) = 6.77524 7.05206 6.91504
#
# Compressibility (1/GPa) = 0.01933848
#
# Stress axis : x y z
#
# Youngs Moduli (GPa) = 89.90638 68.43947 133.61104
#
# Poissons Ratio (x) = 0.19766 0.09290
# Poissons Ratio (y) = 0.25966 0.44848
# Poissons Ratio (z) = 0.06251 0.22972
#
# Static dielectric constant tensor:
#      x y z
#    x 3.679150 0.000000 0.000000 
#    y 0.000000 3.107750 -0.000010 
#    z 0.000000 -0.000010 3.842220 
# 
# 
# High freq. dielectric constant tensor:
#      x y z
#    x 1.774220 0.000000 0.000000 
#    y 0.000000 1.732160 0.000000 
#    z 0.000000 0.000000 1.772960 
# 
# From -- ./inp_files/3989.got.cif
#   From: 2010.03.12/outbox.cif.g09.slc.cpg/sg46_2_cif.got.tgz:3989.got - 2010.04.14 02:56:35.
