data_PCOD8192052
_publ_section_title
;
Structure prediction by ZEFSAII (Michael W. Deem and Ramdas Pophale) SiO2 
 PCOD8192052
Probable space group: I M A 2
;
_chemical_formula_sum "Si O2"
_cell_formula_units_Z 64
_cell_length_a 8.675883
_cell_length_b 19.652750
_cell_length_c 20.634515
_cell_angle_alpha 90.000000
_cell_angle_beta 90.000000
_cell_angle_gamma 90.000000
_cell_volume 3518.287147
_symmetry_space_group_name_H-M "I M A 2"
_symmetry_group_IT_number 46
_symmetry_cell_setting 'orthorhombic'
loop_
_space_group_symop_operation_xyz
x,y,z
-x,-y,z
1/2-x,y,z
1/2+x,-y,z
1/2+x,1/2+y,1/2+z
1/2-x,1/2-y,1/2+z
-x,1/2+y,1/2+z
x,1/2-y,1/2+z
loop_
_atom_site_type_symbol
_atom_site_label
_atom_site_fract_x
_atom_site_fract_y
_atom_site_fract_z
Si Si1 0.431329 0.571660 0.630020
Si Si2 0.930941 0.569320 0.016991
Si Si3 0.567911 0.207511 0.319458
Si Si4 0.567677 0.929453 0.367975
Si Si5 0.432873 0.206924 0.935431
Si Si6 0.430761 0.571427 0.479714
Si Si7 0.932921 0.794516 0.184698
Si Si8 0.933161 0.712853 0.060630
O O1 0.500000 0.500000 0.653129
O O2 0.250000 0.573519 0.643378
O O3 0.470970 0.584118 0.554825
O O4 0.515925 0.628452 0.671994
O O5 0.750000 0.563082 0.021968
O O6 0.991743 0.634675 0.057014
O O7 0.000000 0.500000 0.046671
O O8 0.982372 0.579227 0.942693
O O9 0.750000 0.208402 0.324321
O O10 0.506452 0.131193 0.327678
O O11 0.498735 0.257934 0.372052
O O12 0.512444 0.233708 0.249411
O O13 0.750000 0.927755 0.359060
O O14 0.500000 0.000000 0.340444
O O15 0.250000 0.209914 0.932475
O O16 0.489410 0.129429 0.936982
O O17 0.497634 0.245838 0.998843
O O18 0.500000 0.500000 0.456220
O O19 0.250000 0.571569 0.466907
O O20 0.750000 0.791177 0.191672
O O21 0.994425 0.746712 0.126432
O O22 0.750000 0.715167 0.058068
#
# Coordination Sequence:
#
# PCOD8192052 Si02
#       8
#     8   8   8   8   8   8   8   8
#     4  10  20  34  53  80 114 150 187 228 273 331
#     4   9  17  32  53  82 112 140 175 221 270 324
#     4  12  25  39  54  80 115 151 190 235 284 339
#     4  10  19  34  55  80 112 149 188 228 273 331
#     4  11  20  37  61  85 111 147 189 236 286 335
#     4  10  20  34  55  86 118 149 185 231 282 336
#     4  11  22  38  58  80 108 149 191 232 282 336
#     4   9  18  34  58  83 109 141 183 229 277 331
#
# _framework density 18.190670000000001
#
# number of rings (size 3 to 8) (size 9 to 14) (size 15 to 20)
#    0.000    1.750    2.500    3.000    0.000    2.000 
#    0.000    3.750    0.000    0.750    0.000    3.500 
#    0.000    0.000    0.000    0.000    0.000    0.000 
#
# Total GULP energy -396906.090709 kJ/mol
# GULP energy per Si atom -12403.315335 kJ/mol
# Density = 1.814927 g / cm^3
# Si number density = 18.190670 Si / 1000 Ang^3
#
#
#
# Elastic Constant Matrix: (Units=GPa)
#
#
# Indices 1 2 3 4 5 6 
#
# 1 78.9345 38.9324 36.9047 0.0000 0.0000 0.0000
# 2 38.9324 134.2615 70.6748 0.0000 0.0000 0.0000
# 3 36.9047 70.6748 109.5749 0.0000 0.0000 0.0000
# 4 0.0000 0.0000 0.0000 27.3313 0.0000 0.0000
# 5 0.0000 0.0000 0.0000 0.0000 24.0424 0.0000
# 6 0.0000 0.0000 0.0000 0.0000 0.0000 33.4028
#
#
#
# Elastic Compliance Matrix: (Units=1/GPa)
#
#
# Indices 1 2 3 4 5 6 
#
# 1 0.015644 -0.002669 -0.003547 0.000000 0.000000 0.000000
# 2 -0.002669 0.011732 -0.006668 0.000000 0.000000 0.000000
# 3 -0.003547 -0.006668 0.014622 0.000000 0.000000 0.000000
# 4 0.000000 0.000000 0.000000 0.036588 0.000000 0.000000
# 5 0.000000 0.000000 0.000000 0.000000 0.041593 0.000000
# 6 0.000000 0.000000 0.000000 0.000000 0.000000 0.029938
#
#
# Mechanical properties :
#
#
# Convention : Reuss Voigt Hill
#
# Bulk Modulus (GPa) = 61.61938 68.42163 65.02051
# Shear Modulus (GPa) = 27.57932 28.70591 28.14261
#
# Velocity S-wave (km/s) = 3.89797 3.97679 3.93757
# Velocity P-wave (km/s) = 7.36251 7.66692 7.51626
#
# Compressibility (1/GPa) = 0.01622866
#
# Stress axis : x y z
#
# Youngs Moduli (GPa) = 63.92383 85.23511 68.39058
#
# Poissons Ratio (x) = 0.22749 0.24260
# Poissons Ratio (y) = 0.17061 0.45605
# Poissons Ratio (z) = 0.22676 0.56837
#
# Static dielectric constant tensor:
#      x y z
#    x 3.288950 0.000000 0.000000 
#    y 0.000000 3.525440 0.000000 
#    z 0.000000 0.000000 3.294280 
# 
# 
# High freq. dielectric constant tensor:
#      x y z
#    x 1.705960 0.000000 0.000000 
#    y 0.000000 1.710980 0.000000 
#    z 0.000000 0.000000 1.682320 
# 
# From -- ./inp_files/18559.got.cif
#   From: 2010.03.12/outbox.cif.g09.slc.cpg/sg46_10_cif.got.tgz:18559.got - 2010.04.14 02:56:35.
