data_PCOD8192589
_publ_section_title
;
Structure prediction by ZEFSAII (Michael W. Deem and Ramdas Pophale) SiO2 
 PCOD8192589
Probable space group: I M A 2
;
_chemical_formula_sum "Si O2"
_cell_formula_units_Z 64
_cell_length_a 17.454866
_cell_length_b 11.835387
_cell_length_c 16.092576
_cell_angle_alpha 90.000000
_cell_angle_beta 90.000000
_cell_angle_gamma 90.000000
_cell_volume 3324.486328
_symmetry_space_group_name_H-M "I M A 2"
_symmetry_group_IT_number 46
_symmetry_cell_setting 'orthorhombic'
loop_
_space_group_symop_operation_xyz
x,y,z
-x,-y,z
1/2-x,y,z
1/2+x,-y,z
1/2+x,1/2+y,1/2+z
1/2-x,1/2-y,1/2+z
-x,1/2+y,1/2+z
x,1/2-y,1/2+z
loop_
_atom_site_type_symbol
_atom_site_label
_atom_site_fract_x
_atom_site_fract_y
_atom_site_fract_z
Si Si1 0.911642 0.526807 0.445660
Si Si2 0.615572 0.178508 0.834916
Si Si3 0.661947 0.487900 0.620962
Si Si4 0.665809 0.402956 0.897941
Si Si5 0.584848 0.952415 0.276311
Si Si6 0.662140 0.273691 0.151537
Si Si7 0.546998 0.104289 0.527903
Si Si8 0.458137 0.240845 0.391646
O O1 0.877281 0.445620 0.374472
O O2 0.862297 0.509224 0.527351
O O3 0.902861 0.655542 0.415285
O O4 0.000000 0.500000 0.465276
O O5 0.661861 0.266530 0.893201
O O6 0.651289 0.177788 0.743631
O O7 0.526990 0.216343 0.832764
O O8 0.750000 0.521614 0.631160
O O9 0.610993 0.568922 0.681315
O O10 0.646356 0.358904 0.646709
O O11 0.750000 0.440513 0.925449
O O12 0.644666 0.453108 0.808214
O O13 0.605346 0.453445 0.962936
O O14 0.591979 0.843033 0.334974
O O15 0.500000 0.000000 0.281577
O O16 0.750000 0.300540 0.122565
O O17 0.597493 0.331649 0.095423
O O18 0.490564 0.187900 0.477543
O O19 0.500000 0.000000 0.568777
#
# Coordination Sequence:
#
# PCOD8192589 Si02
#       8
#     8   8   8   8   8   8   8   8
#     4  10  22  39  62  88 122 163 204 244 301 363
#     4  10  20  36  58  90 119 154 198 251 301 358
#     4  11  23  39  60  93 123 155 204 255 302 355
#     4  11  19  34  59  86 114 150 192 249 306 350
#     4  12  19  36  64  91 119 152 201 251 297 354
#     4  11  22  36  58  90 122 154 198 252 308 355
#     4  11  21  37  57  86 119 153 199 249 296 361
#     4  10  20  38  60  86 116 159 203 244 301 356
#
# _framework density 19.251093999999998
#
# number of rings (size 3 to 8) (size 9 to 14) (size 15 to 20)
#    0.000    1.250    5.000    3.750    0.000    4.500 
#    0.000    1.250    0.000    1.500    0.000    0.000 
#    0.000    0.000    0.000    0.000    0.000    0.000 
#
# Total GULP energy -396776.564868 kJ/mol
# GULP energy per Si atom -12399.267652 kJ/mol
# Density = 1.920728 g / cm^3
# Si number density = 19.251094 Si / 1000 Ang^3
#
#
#
# Elastic Constant Matrix: (Units=GPa)
#
#
# Indices 1 2 3 4 5 6 
#
# 1 82.4543 55.4368 40.4730 0.0000 0.0000 0.0000
# 2 55.4368 113.5409 56.9289 0.0000 0.0000 0.0000
# 3 40.4730 56.9289 105.6200 0.0000 0.0000 0.0000
# 4 0.0000 0.0000 0.0000 28.5646 0.0000 0.0000
# 5 0.0000 0.0000 0.0000 0.0000 13.2692 0.0000
# 6 0.0000 0.0000 0.0000 0.0000 0.0000 22.7405
#
#
#
# Elastic Compliance Matrix: (Units=1/GPa)
#
#
# Indices 1 2 3 4 5 6 
#
# 1 0.018761 -0.007613 -0.003086 0.000000 0.000000 0.000000
# 2 -0.007613 0.015158 -0.005253 0.000000 0.000000 0.000000
# 3 -0.003086 -0.005253 0.013482 0.000000 0.000000 0.000000
# 4 0.000000 0.000000 0.000000 0.035008 0.000000 0.000000
# 5 0.000000 0.000000 0.000000 0.000000 0.075362 0.000000
# 6 0.000000 0.000000 0.000000 0.000000 0.000000 0.043974
#
#
# Mechanical properties :
#
#
# Convention : Reuss Voigt Hill
#
# Bulk Modulus (GPa) = 64.52636 67.47696 66.00166
# Shear Modulus (GPa) = 20.93665 22.83329 21.88497
#
# Velocity S-wave (km/s) = 3.30139 3.44768 3.37533
# Velocity P-wave (km/s) = 6.93709 7.13973 7.03914
#
# Compressibility (1/GPa) = 0.01549754
#
# Stress axis : x y z
#
# Youngs Moduli (GPa) = 53.30190 65.97041 74.17447
#
# Poissons Ratio (x) = 0.50223 0.22889
# Poissons Ratio (y) = 0.40579 0.38964
# Poissons Ratio (z) = 0.16448 0.34655
#
# Static dielectric constant tensor:
#      x y z
#    x 3.491920 0.000000 0.000000 
#    y 0.000000 3.536960 0.000000 
#    z 0.000000 0.000000 3.504130 
# 
# 
# High freq. dielectric constant tensor:
#      x y z
#    x 1.743360 0.000000 0.000000 
#    y 0.000000 1.732850 0.000000 
#    z 0.000000 0.000000 1.748590 
# 
# From -- ./inp_files/16796.got.cif
#   From: 2010.03.12/outbox.cif.g09.slc.cpg/sg46_9_cif.got.tgz:16796.got - 2010.04.14 02:56:35.
