data_PCOD8192995
_publ_section_title
;
Structure prediction by ZEFSAII (Michael W. Deem and Ramdas Pophale) SiO2 
 PCOD8192995
Probable space group: I M A 2
;
_chemical_formula_sum "Si O2"
_cell_formula_units_Z 64
_cell_length_a 17.729785
_cell_length_b 6.775499
_cell_length_c 27.620768
_cell_angle_alpha 90.000000
_cell_angle_beta 90.000000
_cell_angle_gamma 90.000000
_cell_volume 3318.031500
_symmetry_space_group_name_H-M "I M A 2"
_symmetry_group_IT_number 46
_symmetry_cell_setting 'orthorhombic'
loop_
_space_group_symop_operation_xyz
x,y,z
-x,-y,z
1/2-x,y,z
1/2+x,-y,z
1/2+x,1/2+y,1/2+z
1/2-x,1/2-y,1/2+z
-x,1/2+y,1/2+z
x,1/2-y,1/2+z
loop_
_atom_site_type_symbol
_atom_site_label
_atom_site_fract_x
_atom_site_fract_y
_atom_site_fract_z
Si Si1 0.338539 0.155818 0.209730
Si Si2 0.079587 0.054707 0.777933
Si Si3 0.923072 0.620122 0.857079
Si Si4 0.334412 0.561585 0.035018
Si Si5 0.838041 0.710170 0.600229
Si Si6 0.912513 0.038678 0.019431
Si Si7 0.335744 0.245130 0.950411
Si Si8 0.161821 0.653242 0.787076
O O1 0.250000 0.181613 0.212889
O O2 0.372220 0.341379 0.237103
O O3 0.365889 0.167137 0.154581
O O4 0.363053 0.951613 0.236247
O O5 0.061971 0.188501 0.824516
O O6 0.122405 0.860370 0.794720
O O7 0.000000 0.000000 0.753884
O O8 0.890691 0.691672 0.907748
O O9 0.860457 0.485042 0.831727
O O10 0.000000 0.500000 0.865131
O O11 0.250000 0.653710 0.038243
O O12 0.351759 0.438300 0.084368
O O13 0.396439 0.729497 0.026672
O O14 0.339190 0.411772 0.990823
O O15 0.750000 0.656749 0.593106
O O16 0.888515 0.566652 0.568546
O O17 0.865262 0.959544 0.973471
O O18 0.000000 0.000000 0.009297
O O19 0.250000 0.213498 0.931855
O O20 0.250000 0.688819 0.788561
#
# Coordination Sequence:
#
# PCOD8192995 Si02
#       8
#     8   8   8   8   8   8   8   8
#     4   9  20  38  61  88 117 155 204 252 294 352
#     4  11  22  39  58  87 120 161 194 243 305 365
#     4  11  23  39  62  86 121 156 197 251 308 359
#     4   9  19  38  62  83 114 156 195 237 293 352
#     4   9  19  39  61  85 117 154 200 245 290 350
#     4  11  23  37  57  88 123 157 193 243 298 357
#     4  10  23  40  61  86 115 155 201 248 295 356
#     4  10  21  39  62  88 120 157 201 247 295 361
#
# _framework density 19.288546
#
# number of rings (size 3 to 8) (size 9 to 14) (size 15 to 20)
#    0.000    2.000    1.250    2.625    1.750    5.500 
#    4.500    3.750    0.000    0.000    0.000    0.000 
#    0.000    0.000    0.000    0.000    0.000    0.000 
#
# Total GULP energy -396818.079060 kJ/mol
# GULP energy per Si atom -12400.564971 kJ/mol
# Density = 1.924464 g / cm^3
# Si number density = 19.288546 Si / 1000 Ang^3
#
#
#
# Elastic Constant Matrix: (Units=GPa)
#
#
# Indices 1 2 3 4 5 6 
#
# 1 51.3888 32.3131 29.4014 0.0000 0.0000 0.0000
# 2 32.3131 95.7884 29.5880 0.0000 0.0000 0.0000
# 3 29.4014 29.5880 115.7565 0.0000 0.0000 0.0000
# 4 0.0000 0.0000 0.0000 19.3019 0.0000 0.0000
# 5 0.0000 0.0000 0.0000 0.0000 9.1467 0.0000
# 6 0.0000 0.0000 0.0000 0.0000 0.0000 35.2020
#
#
#
# Elastic Compliance Matrix: (Units=1/GPa)
#
#
# Indices 1 2 3 4 5 6 
#
# 1 0.027063 -0.007607 -0.004930 0.000000 0.000000 0.000000
# 2 -0.007607 0.013473 -0.001512 0.000000 0.000000 0.000000
# 3 -0.004930 -0.001512 0.010277 0.000000 0.000000 0.000000
# 4 0.000000 0.000000 0.000000 0.051808 0.000000 0.000000
# 5 0.000000 0.000000 0.000000 0.000000 0.109329 0.000000
# 6 0.000000 0.000000 0.000000 0.000000 0.000000 0.028407
#
#
# Mechanical properties :
#
#
# Convention : Reuss Voigt Hill
#
# Bulk Modulus (GPa) = 44.01956 49.50430 46.76193
# Shear Modulus (GPa) = 18.11428 24.17221 21.14325
#
# Velocity S-wave (km/s) = 3.06783 3.54388 3.31442
# Velocity P-wave (km/s) = 5.95147 6.51662 6.24044
#
# Compressibility (1/GPa) = 0.02271717
#
# Stress axis : x y z
#
# Youngs Moduli (GPa) = 36.95100 74.22463 97.30211
#
# Poissons Ratio (x) = 0.56460 0.47965
# Poissons Ratio (y) = 0.28107 0.14708
# Poissons Ratio (z) = 0.18215 0.11220
#
# Static dielectric constant tensor:
#      x y z
#    x 3.696510 0.000000 0.000000 
#    y 0.000000 3.596610 0.000000 
#    z 0.000000 0.000000 3.578890 
# 
# 
# High freq. dielectric constant tensor:
#      x y z
#    x 1.755080 0.000000 0.000000 
#    y 0.000000 1.755110 0.000000 
#    z 0.000000 0.000000 1.747100 
# 
# From -- ./inp_files/25497.got.cif
#   From: 2010.03.12/outbox.cif.g09.slc.cpg/sg46_13_cif.got.tgz:25497.got - 2010.04.14 02:56:35.
