data_PCOD8192047
_publ_section_title
;
Structure prediction by ZEFSAII (Michael W. Deem and Ramdas Pophale) SiO2 
 PCOD8192047
Probable space group: I M A 2
;
_chemical_formula_sum "Si O2"
_cell_formula_units_Z 64
_cell_length_a 16.342327
_cell_length_b 8.596116
_cell_length_c 23.419509
_cell_angle_alpha 90.000000
_cell_angle_beta 90.000000
_cell_angle_gamma 90.000000
_cell_volume 3289.985238
_symmetry_space_group_name_H-M "I M A 2"
_symmetry_group_IT_number 46
_symmetry_cell_setting 'orthorhombic'
loop_
_space_group_symop_operation_xyz
x,y,z
-x,-y,z
1/2-x,y,z
1/2+x,-y,z
1/2+x,1/2+y,1/2+z
1/2-x,1/2-y,1/2+z
-x,1/2+y,1/2+z
x,1/2-y,1/2+z
loop_
_atom_site_type_symbol
_atom_site_label
_atom_site_fract_x
_atom_site_fract_y
_atom_site_fract_z
Si Si1 0.428099 0.203403 0.996910
Si Si2 0.657618 0.790706 0.797938
Si Si3 0.478917 0.821709 0.105790
Si Si4 0.993612 0.815455 0.231609
Si Si5 0.410602 0.778294 0.429125
Si Si6 0.419783 0.598982 0.317846
Si Si7 0.842423 0.386286 0.527285
Si Si8 0.343409 0.104353 0.412011
O O1 0.499691 0.227519 0.950414
O O2 0.353102 0.304470 0.972471
O O3 0.460728 0.259887 0.059163
O O4 0.398762 0.025771 0.002818
O O5 0.750000 0.745819 0.781365
O O6 0.598744 0.725091 0.749051
O O7 0.633060 0.717209 0.859290
O O8 0.650208 0.978216 0.798677
O O9 0.490105 0.746304 0.168010
O O10 0.384787 0.813261 0.083768
O O11 0.500000 0.000000 0.113020
O O12 0.060935 0.730755 0.270803
O O13 0.000000 0.000000 0.236326
O O14 0.386283 0.681347 0.373813
O O15 0.343033 0.743617 0.477859
O O16 0.405519 0.959506 0.412454
O O17 0.500000 0.500000 0.331615
O O18 0.750000 0.437914 0.541949
O O19 0.250000 0.047846 0.406726
#
# Coordination Sequence:
#
# PCOD8192047 Si02
#       8
#     8   8   8   8   8   8   8   8
#     4  10  19  34  55  78 106 145 185 219 266 331
#     4  10  22  38  55  79 112 147 185 231 281 334
#     4   8  18  35  56  80 104 139 185 223 263 325
#     4  10  19  38  61  81 107 142 187 234 278 328
#     4  11  20  33  53  81 110 143 183 224 272 329
#     4  10  20  34  56  80 106 145 187 222 270 336
#     4  10  19  34  56  81 112 143 177 225 276 328
#     4  11  22  34  51  80 115 146 181 230 284 327
#
# _framework density 19.452974000000001
#
# number of rings (size 3 to 8) (size 9 to 14) (size 15 to 20)
#    0.000    2.000    0.000    6.000    0.000    2.000 
#    0.000   15.000    0.000    0.000    0.000    0.000 
#    0.000    0.000    0.000    0.000    0.000    0.000 
#
# Total GULP energy -396656.496197 kJ/mol
# GULP energy per Si atom -12395.515506 kJ/mol
# Density = 1.940870 g / cm^3
# Si number density = 19.452974 Si / 1000 Ang^3
#
#
#
# Elastic Constant Matrix: (Units=GPa)
#
#
# Indices 1 2 3 4 5 6 
#
# 1 104.0307 26.4198 56.4014 0.0000 0.0000 0.0000
# 2 26.4198 90.1891 48.3408 0.0000 0.0000 0.0000
# 3 56.4014 48.3408 145.9023 0.0000 0.0000 0.0000
# 4 0.0000 0.0000 0.0000 23.7505 0.0000 0.0000
# 5 0.0000 0.0000 0.0000 0.0000 19.9805 0.0000
# 6 0.0000 0.0000 0.0000 0.0000 0.0000 26.4528
#
#
#
# Elastic Compliance Matrix: (Units=1/GPa)
#
#
# Indices 1 2 3 4 5 6 
#
# 1 0.012282 -0.001280 -0.004324 0.000000 0.000000 0.000000
# 2 -0.001280 0.013616 -0.004016 0.000000 0.000000 0.000000
# 3 -0.004324 -0.004016 0.009856 0.000000 0.000000 0.000000
# 4 0.000000 0.000000 0.000000 0.042104 0.000000 0.000000
# 5 0.000000 0.000000 0.000000 0.000000 0.050049 0.000000
# 6 0.000000 0.000000 0.000000 0.000000 0.000000 0.037803
#
#
# Mechanical properties :
#
#
# Convention : Reuss Voigt Hill
#
# Bulk Modulus (GPa) = 60.55841 66.93845 63.74843
# Shear Modulus (GPa) = 26.25308 27.96746 27.11027
#
# Velocity S-wave (km/s) = 3.67763 3.79581 3.73719
# Velocity P-wave (km/s) = 7.01652 7.32775 7.17382
#
# Compressibility (1/GPa) = 0.01651298
#
# Stress axis : x y z
#
# Youngs Moduli (GPa) = 81.42154 73.44544 101.46207
#
# Poissons Ratio (x) = 0.09404 0.43867
# Poissons Ratio (y) = 0.10425 0.40749
# Poissons Ratio (z) = 0.35203 0.29497
#
# Static dielectric constant tensor:
#      x y z
#    x 3.468840 0.000000 0.000000 
#    y 0.000000 3.547470 0.000000 
#    z 0.000000 0.000000 3.766740 
# 
# 
# High freq. dielectric constant tensor:
#      x y z
#    x 1.747900 0.000000 0.000000 
#    y 0.000000 1.750550 0.000000 
#    z 0.000000 0.000000 1.751630 
# 
# From -- ./inp_files/23799.got.cif
#   From: 2010.03.12/outbox.cif.g09.slc.cpg/sg46_12_cif.got.tgz:23799.got - 2010.04.14 02:56:35.
