data_PCOD8192720
_publ_section_title
;
Structure prediction by ZEFSAII (Michael W. Deem and Ramdas Pophale) SiO2 
 PCOD8192720
Probable space group: I M A 2
;
_chemical_formula_sum "Si O2"
_cell_formula_units_Z 48
_cell_length_a 8.368301
_cell_length_b 18.705422
_cell_length_c 15.210054
_cell_angle_alpha 90.000000
_cell_angle_beta 90.000000
_cell_angle_gamma 90.000000
_cell_volume 2380.869324
_symmetry_space_group_name_H-M "I M A 2"
_symmetry_group_IT_number 46
_symmetry_cell_setting 'orthorhombic'
loop_
_space_group_symop_operation_xyz
x,y,z
-x,-y,z
1/2-x,y,z
1/2+x,-y,z
1/2+x,1/2+y,1/2+z
1/2-x,1/2-y,1/2+z
-x,1/2+y,1/2+z
x,1/2-y,1/2+z
loop_
_atom_site_type_symbol
_atom_site_label
_atom_site_fract_x
_atom_site_fract_y
_atom_site_fract_z
Si Si1 0.435738 0.319448 0.155430
Si Si2 0.935962 0.077919 0.510284
Si Si3 0.437367 0.681304 0.344589
Si Si4 0.436222 0.335164 0.851637
Si Si5 0.060261 0.662520 0.664650
Si Si6 0.938350 0.421619 0.496729
O O1 0.250000 0.329011 0.133638
O O2 0.536204 0.371105 0.093140
O O3 0.469057 0.339615 0.256348
O O4 0.488035 0.238550 0.137462
O O5 0.750000 0.074839 0.488009
O O6 0.028740 0.105787 0.424650
O O7 0.000000 0.000000 0.534974
O O8 0.250000 0.671181 0.327804
O O9 0.469114 0.762660 0.373860
O O10 0.504602 0.630220 0.420829
O O11 0.250000 0.317134 0.848182
O O12 0.491948 0.365256 0.757221
O O13 0.250000 0.670232 0.670250
O O14 0.003049 0.605846 0.591673
O O15 0.750000 0.420666 0.493773
O O16 0.000000 0.500000 0.477983
#
# Coordination Sequence:
#
# PCOD8192720 Si02
#       6
#     8   8   8   8   8   8
#     4  11  22  38  61  90 117 150 193 241 291 344
#     4  12  25  42  61  85 117 155 193 238 293 354
#     4  10  20  38  61  87 117 155 197 241 288 340
#     4  11  22  38  61  90 117 150 193 241 291 344
#     4  10  20  38  61  87 117 155 197 241 288 340
#     4  10  23  38  57  83 115 153 193 234 285 338
#
# _framework density 20.160703000000002
#
# number of rings (size 3 to 8) (size 9 to 14) (size 15 to 20)
#    0.000    1.333    0.000    8.500    0.000    5.333 
#    0.000    3.333    0.000    0.000    0.000    0.000 
#    0.000    0.000    0.000    0.000    0.000    0.000 
#
# Total GULP energy -297733.599521 kJ/mol
# GULP energy per Si atom -12405.566647 kJ/mol
# Density = 2.011482 g / cm^3
# Si number density = 20.160703 Si / 1000 Ang^3
#
#
#
# Elastic Constant Matrix: (Units=GPa)
#
#
# Indices 1 2 3 4 5 6 
#
# 1 72.9591 12.3303 18.8801 0.0000 0.0000 0.0000
# 2 12.3303 57.0694 32.2593 0.0001 0.0000 0.0000
# 3 18.8801 32.2593 87.9861 0.0001 0.0000 0.0000
# 4 0.0000 0.0001 0.0001 13.5907 0.0000 0.0000
# 5 0.0000 0.0000 0.0000 0.0000 28.4196 0.0000
# 6 0.0000 0.0000 0.0000 0.0000 0.0000 33.5993
#
#
#
# Elastic Compliance Matrix: (Units=1/GPa)
#
#
# Indices 1 2 3 4 5 6 
#
# 1 0.014650 -0.001751 -0.002501 0.000000 0.000000 0.000000
# 2 -0.001751 0.022313 -0.007805 0.000000 0.000000 0.000000
# 3 -0.002501 -0.007805 0.014764 0.000000 0.000000 0.000000
# 4 0.000000 0.000000 0.000000 0.073580 0.000000 0.000000
# 5 0.000000 0.000000 0.000000 0.000000 0.035187 0.000000
# 6 0.000000 0.000000 0.000000 0.000000 0.000000 0.029763
#
#
# Mechanical properties :
#
#
# Convention : Reuss Voigt Hill
#
# Bulk Modulus (GPa) = 36.21756 38.32821 37.27288
# Shear Modulus (GPa) = 22.36392 25.42491 23.89442
#
# Velocity S-wave (km/s) = 3.33420 3.55507 3.44640
# Velocity P-wave (km/s) = 5.72940 5.99199 5.86216
#
# Compressibility (1/GPa) = 0.02761092
#
# Stress axis : x y z
#
# Youngs Moduli (GPa) = 68.26136 44.81738 67.73312
#
# Poissons Ratio (x) = 0.07848 0.16943
# Poissons Ratio (y) = 0.11954 0.52866
# Poissons Ratio (z) = 0.17075 0.34980
#
# Static dielectric constant tensor:
#      x y z
#    x 3.673470 0.000000 0.000000 
#    y 0.000000 3.594270 0.000000 
#    z 0.000000 0.000000 3.879210 
# 
# 
# High freq. dielectric constant tensor:
#      x y z
#    x 1.797470 0.000000 0.000000 
#    y 0.000000 1.779360 0.000000 
#    z 0.000000 0.000000 1.801670 
# 
# From -- ./inp_files/13904.got.cif
#   From: 2010.03.12/outbox.cif.g09.slc.cpg/sg46_7_cif.got.tgz:13904.got - 2010.04.14 02:56:35.
