data_PCOD8192542
_publ_section_title
;
Structure prediction by ZEFSAII (Michael W. Deem and Ramdas Pophale) SiO2 
 PCOD8192542
Probable space group: I M A 2
;
_chemical_formula_sum "Si O2"
_cell_formula_units_Z 52
_cell_length_a 14.925859
_cell_length_b 20.489717
_cell_length_c 8.384437
_cell_angle_alpha 90.000000
_cell_angle_beta 90.000000
_cell_angle_gamma 90.000000
_cell_volume 2564.184086
_symmetry_space_group_name_H-M "I M A 2"
_symmetry_group_IT_number 46
_symmetry_cell_setting 'orthorhombic'
loop_
_space_group_symop_operation_xyz
x,y,z
-x,-y,z
1/2-x,y,z
1/2+x,-y,z
1/2+x,1/2+y,1/2+z
1/2-x,1/2-y,1/2+z
-x,1/2+y,1/2+z
x,1/2-y,1/2+z
loop_
_atom_site_type_symbol
_atom_site_label
_atom_site_fract_x
_atom_site_fract_y
_atom_site_fract_z
Si Si1 0.250000 0.651721 0.846040
Si Si2 0.051201 0.776204 0.682258
Si Si3 0.250000 0.760186 0.643810
Si Si4 0.648982 0.555236 0.563595
Si Si5 0.418367 0.896528 0.499062
Si Si6 0.586758 0.458652 0.328624
Si Si7 0.000000 0.500000 0.790810
Si Si8 0.493184 0.342829 0.486133
O O1 0.250000 0.680892 0.665861
O O2 0.163599 0.608595 0.876903
O O3 0.250000 0.716414 0.961637
O O4 0.157162 0.783691 0.728291
O O5 0.034984 0.826802 0.536190
O O6 0.026124 0.702343 0.632712
O O7 0.988598 0.797304 0.829306
O O8 0.750000 0.567218 0.628177
O O9 0.657269 0.508901 0.406708
O O10 0.587773 0.514994 0.687107
O O11 0.604028 0.625585 0.524026
O O12 0.379244 0.927998 0.662739
O O13 0.491121 0.938392 0.406732
O O14 0.500000 0.500000 0.284196
O O15 0.562817 0.401843 0.456616
#
# Coordination Sequence:
#
# PCOD8192542 Si02
#       8
#     4   8   4   8   8   8   4   8
#     4  10  22  34  54  92 124 164 196 240 314 370
#     4  10  21  37  63  91 124 168 199 257 317 372
#     4  10  20  36  52  90 134 152 200 244 296 396
#     4  11  25  43  64  92 123 168 219 263 313 378
#     4  10  22  37  60  91 124 160 207 253 312 384
#     4   9  18  41  61  85 121 164 206 255 313 370
#     4  12  24  42  64  90 130 160 206 272 316 368
#     4  10  21  39  62  88 120 162 207 254 321 371
#
# _framework density 20.279354999999999
#
# number of rings (size 3 to 8) (size 9 to 14) (size 15 to 20)
#    0.000    1.846    3.077    1.846    6.462    0.000 
#    2.769    0.769    0.000    0.000    0.000    0.000 
#    0.000    0.000    0.000    0.000    0.000    0.000 
#
# Total GULP energy -322148.931296 kJ/mol
# GULP energy per Si atom -12390.343511 kJ/mol
# Density = 2.023320 g / cm^3
# Si number density = 20.279355 Si / 1000 Ang^3
#
#
#
# Elastic Constant Matrix: (Units=GPa)
#
#
# Indices 1 2 3 4 5 6 
#
# 1 108.0148 44.3013 35.3560 0.0000 0.0000 0.0000
# 2 44.3013 119.0585 32.6257 0.0000 0.0000 0.0000
# 3 35.3560 32.6257 46.4120 0.0000 0.0000 0.0000
# 4 0.0000 0.0000 0.0000 52.5882 0.0000 0.0000
# 5 0.0000 0.0000 0.0000 0.0000 12.6569 0.0000
# 6 0.0000 0.0000 0.0000 0.0000 0.0000 25.3326
#
#
#
# Elastic Compliance Matrix: (Units=1/GPa)
#
#
# Indices 1 2 3 4 5 6 
#
# 1 0.012962 -0.002623 -0.008031 0.000000 0.000000 0.000000
# 2 -0.002623 0.010934 -0.005688 0.000000 0.000000 0.000000
# 3 -0.008031 -0.005688 0.031663 0.000000 0.000000 0.000000
# 4 0.000000 0.000000 0.000000 0.019016 0.000000 0.000000
# 5 0.000000 0.000000 0.000000 0.000000 0.079009 0.000000
# 6 0.000000 0.000000 0.000000 0.000000 0.000000 0.039475
#
#
# Mechanical properties :
#
#
# Convention : Reuss Voigt Hill
#
# Bulk Modulus (GPa) = 43.71526 55.33905 49.52715
# Shear Modulus (GPa) = 21.42554 28.86235 25.14394
#
# Velocity S-wave (km/s) = 3.25394 3.77668 3.52501
# Velocity P-wave (km/s) = 5.97669 6.80921 6.40649
#
# Compressibility (1/GPa) = 0.02287531
#
# Stress axis : x y z
#
# Youngs Moduli (GPa) = 77.14657 91.45951 31.58298
#
# Poissons Ratio (x) = 0.23985 0.25364
# Poissons Ratio (y) = 0.20232 0.17965
# Poissons Ratio (z) = 0.61957 0.52024
#
# Static dielectric constant tensor:
#      x y z
#    x 3.360270 0.000000 0.000000 
#    y 0.000000 3.999370 0.000000 
#    z 0.000000 0.000000 3.653500 
# 
# 
# High freq. dielectric constant tensor:
#      x y z
#    x 1.750760 0.000000 0.000000 
#    y 0.000000 1.804350 0.000000 
#    z 0.000000 0.000000 1.791420 
# 
# From -- ./inp_files/5904.got.cif
#   From: 2010.03.12/outbox.cif.g09.slc.cpg/sg46_3_cif.got.tgz:5904.got - 2010.04.14 02:56:35.
