data_PCOD8192326
_publ_section_title
;
Structure prediction by ZEFSAII (Michael W. Deem and Ramdas Pophale) SiO2 
 PCOD8192326
Probable space group: I M A 2
;
_chemical_formula_sum "Si O2"
_cell_formula_units_Z 40
_cell_length_a 8.921252
_cell_length_b 25.525730
_cell_length_c 9.535460
_cell_angle_alpha 90.000000
_cell_angle_beta 90.000000
_cell_angle_gamma 90.000000
_cell_volume 2171.428967
_symmetry_space_group_name_H-M "I M A 2"
_symmetry_group_IT_number 46
_symmetry_cell_setting 'orthorhombic'
loop_
_space_group_symop_operation_xyz
x,y,z
-x,-y,z
1/2-x,y,z
1/2+x,-y,z
1/2+x,1/2+y,1/2+z
1/2-x,1/2-y,1/2+z
-x,1/2+y,1/2+z
x,1/2-y,1/2+z
loop_
_atom_site_type_symbol
_atom_site_label
_atom_site_fract_x
_atom_site_fract_y
_atom_site_fract_z
Si Si1 0.075445 0.055277 0.684510
Si Si2 0.422653 0.169252 0.205980
Si Si3 0.920904 0.855204 0.895656
Si Si4 0.423323 0.720861 0.198581
Si Si5 0.576033 0.368445 0.978307
O O1 0.250000 0.046851 0.660090
O O2 0.039866 0.089943 0.821737
O O3 0.010190 0.082984 0.546523
O O4 0.000000 0.000000 0.710670
O O5 0.250000 0.170390 0.253165
O O6 0.476899 0.228127 0.181722
O O7 0.519005 0.139064 0.321086
O O8 0.444979 0.137698 0.061254
O O9 0.750000 0.838719 0.861069
O O10 0.029966 0.809939 0.838875
O O11 0.250000 0.736851 0.212637
O O12 0.454573 0.684971 0.063218
O O13 0.750000 0.382646 0.976665
#
# Coordination Sequence:
#
# PCOD8192326 Si02
#       5
#     8   8   8   8   8
#     4  10  20  38  61  81 102 132 173 219 267 318
#     4  11  21  33  51  77 110 144 176 214 261 311
#     4   9  20  36  54  77 105 139 178 217 260 313
#     4  10  20  33  51  76 107 143 181 217 256 308
#     4  10  21  36  54  79 108 140 179 219 261 310
#
# _framework density 18.421050000000001
#
# number of rings (size 3 to 8) (size 9 to 14) (size 15 to 20)
#    0.000    2.000    0.000    3.600    0.000    8.000 
#    0.000    1.000    0.000    2.400    0.000    0.000 
#    0.000    0.000    0.000    0.000    0.000    0.000 
#
# Total GULP energy -248102.120940 kJ/mol
# GULP energy per Si atom -12405.106047 kJ/mol
# Density = 1.837912 g / cm^3
# Si number density = 18.421050 Si / 1000 Ang^3
#
#
#
# Elastic Constant Matrix: (Units=GPa)
#
#
# Indices 1 2 3 4 5 6 
#
# 1 91.2578 46.8972 43.7772 0.0004 -0.0027 0.0002
# 2 46.8972 105.0915 44.7176 0.0039 -0.0009 0.0005
# 3 43.7772 44.7176 114.7636 -0.0022 0.0200 -0.0016
# 4 0.0004 0.0039 -0.0022 9.7716 -0.0012 -0.0009
# 5 -0.0027 -0.0009 0.0200 -0.0012 31.5063 0.0031
# 6 0.0002 0.0005 -0.0016 -0.0009 0.0031 34.3931
#
#
#
# Elastic Compliance Matrix: (Units=1/GPa)
#
#
# Indices 1 2 3 4 5 6 
#
# 1 0.015527 -0.005285 -0.003864 0.000001 0.000004 0.000000
# 2 -0.005285 0.013206 -0.003130 -0.000006 0.000002 0.000000
# 3 -0.003864 -0.003130 0.011407 0.000004 -0.000008 0.000001
# 4 0.000001 -0.000006 0.000004 0.102337 0.000004 0.000003
# 5 0.000004 0.000002 -0.000008 0.000004 0.031740 -0.000003
# 6 0.000000 0.000000 0.000001 0.000003 -0.000003 0.029076
#
#
# Mechanical properties :
#
#
# Convention : Reuss Voigt Hill
#
# Bulk Modulus (GPa) = 64.17152 64.65520 64.41336
# Shear Modulus (GPa) = 21.45524 26.84893 24.15209
#
# Velocity S-wave (km/s) = 3.41649 3.82188 3.62486
# Velocity P-wave (km/s) = 7.10456 7.39259 7.25001
#
# Compressibility (1/GPa) = 0.01558324
#
# Stress axis : x y z
#
# Youngs Moduli (GPa) = 64.40232 75.72511 87.66688
#
# Poissons Ratio (x) = 0.40021 0.33872
# Poissons Ratio (y) = 0.34037 0.27436
# Poissons Ratio (z) = 0.24883 0.23699
#
# Static dielectric constant tensor:
#      x y z
#    x 3.524840 0.000000 -0.000020 
#    y 0.000000 3.233810 -0.000030 
#    z -0.000020 -0.000030 3.427000 
# 
# 
# High freq. dielectric constant tensor:
#      x y z
#    x 1.730310 0.000000 0.000000 
#    y 0.000000 1.696360 0.000000 
#    z 0.000000 0.000000 1.717180 
# 
# From -- ./inp_files/3513.got.cif
#   From: 2010.03.12/outbox.cif.g09.slc.cpg/sg46_2_cif.got.tgz:3513.got - 2010.04.14 02:56:35.
