data_PCOD8192486
_publ_section_title
;
Structure prediction by ZEFSAII (Michael W. Deem and Ramdas Pophale) SiO2 
 PCOD8192486
Probable space group: I M A 2
;
_chemical_formula_sum "Si O2"
_cell_formula_units_Z 64
_cell_length_a 19.504322
_cell_length_b 11.795040
_cell_length_c 13.013350
_cell_angle_alpha 90.000000
_cell_angle_beta 90.000000
_cell_angle_gamma 90.000000
_cell_volume 2993.776580
_symmetry_space_group_name_H-M "I M A 2"
_symmetry_group_IT_number 46
_symmetry_cell_setting 'orthorhombic'
loop_
_space_group_symop_operation_xyz
x,y,z
-x,-y,z
1/2-x,y,z
1/2+x,-y,z
1/2+x,1/2+y,1/2+z
1/2-x,1/2-y,1/2+z
-x,1/2+y,1/2+z
x,1/2-y,1/2+z
loop_
_atom_site_type_symbol
_atom_site_label
_atom_site_fract_x
_atom_site_fract_y
_atom_site_fract_z
Si Si1 0.407374 0.873166 0.104580
Si Si2 0.175089 0.043157 0.439256
Si Si3 0.949440 0.692729 0.699151
Si Si4 0.175089 0.456842 0.703875
Si Si5 0.927775 0.949256 0.933415
Si Si6 0.550561 0.807270 0.443982
Si Si7 0.592625 0.373167 0.038552
Si Si8 0.927775 0.550745 0.209717
O O1 0.485486 0.868187 0.145389
O O2 0.382036 0.750000 0.071566
O O3 0.355538 0.915951 0.192739
O O4 0.392684 0.964659 0.013228
O O5 0.250000 0.056393 0.493895
O O6 0.185809 0.071073 0.321566
O O7 0.118667 0.129780 0.484176
O O8 0.144459 0.915952 0.450390
O O9 0.881334 0.629778 0.658956
O O10 0.960052 0.684161 0.821567
O O11 0.940713 0.822971 0.663069
O O12 0.250000 0.443602 0.649237
O O13 0.940713 0.822972 0.980063
O O14 0.888306 0.941799 0.821566
O O15 0.000000 0.000000 0.906687
O O16 0.485488 0.868188 0.497746
O O17 0.607317 0.464661 0.129903
O O18 0.000000 0.500000 0.236445
#
# Coordination Sequence:
#
# PCOD8192486 Si02
#       8
#     8   8   8   8   8   8   8   8
#     4  12  23  34  62  91 121 154 203 247 299 358
#     4  10  23  42  62  86 120 159 201 251 302 355
#     4  10  21  38  62  90 118 154 202 253 303 355
#     4  10  23  42  62  86 120 159 201 251 302 355
#     4  10  20  35  55  86 124 153 189 246 309 355
#     4  10  21  38  62  90 118 154 202 253 303 355
#     4  12  23  34  62  91 121 154 203 247 299 358
#     4  10  20  35  55  86 124 153 189 246 309 355
#
# _framework density 21.377680000000002
#
# number of rings (size 3 to 8) (size 9 to 14) (size 15 to 20)
#    0.000    1.500    2.500    3.000    0.000    3.500 
#    0.000    2.500    0.000    2.250    0.000    0.000 
#    0.000    0.000    0.000    0.000    0.000    0.000 
#
# Total GULP energy -396451.781669 kJ/mol
# GULP energy per Si atom -12389.118177 kJ/mol
# Density = 2.132902 g / cm^3
# Si number density = 21.377680 Si / 1000 Ang^3
#
#
#
# Elastic Constant Matrix: (Units=GPa)
#
#
# Indices 1 2 3 4 5 6 
#
# 1 123.9238 62.9652 21.0749 0.0000 0.0000 0.0000
# 2 62.9652 169.5348 32.0227 0.0000 0.0000 0.0000
# 3 21.0749 32.0227 48.7698 0.0000 0.0000 0.0000
# 4 0.0000 0.0000 0.0000 41.2201 0.0000 0.0000
# 5 0.0000 0.0000 0.0000 0.0000 21.5539 0.0000
# 6 0.0000 0.0000 0.0000 0.0000 0.0000 11.2095
#
#
#
# Elastic Compliance Matrix: (Units=1/GPa)
#
#
# Indices 1 2 3 4 5 6 
#
# 1 0.010146 -0.003356 -0.002180 0.000000 0.000000 0.000000
# 2 -0.003356 0.007844 -0.003700 0.000000 0.000000 0.000000
# 3 -0.002180 -0.003700 0.023876 0.000000 0.000000 0.000000
# 4 0.000000 0.000000 0.000000 0.024260 0.000000 0.000000
# 5 0.000000 0.000000 0.000000 0.000000 0.046395 0.000000
# 6 0.000000 0.000000 0.000000 0.000000 0.000000 0.089210
#
#
# Mechanical properties :
#
#
# Convention : Reuss Voigt Hill
#
# Bulk Modulus (GPa) = 42.74928 63.81712 53.28320
# Shear Modulus (GPa) = 21.92962 29.87440 25.90201
#
# Velocity S-wave (km/s) = 3.20631 3.74231 3.48464
# Velocity P-wave (km/s) = 5.80929 6.97067 6.41631
#
# Compressibility (1/GPa) = 0.02339221
#
# Stress axis : x y z
#
# Youngs Moduli (GPa) = 98.56516 127.48798 41.88260
#
# Poissons Ratio (x) = 0.42788 0.09132
# Poissons Ratio (y) = 0.33080 0.15497
# Poissons Ratio (z) = 0.21492 0.47171
#
# Static dielectric constant tensor:
#      x y z
#    x 3.983740 0.000000 0.000000 
#    y 0.000000 4.123250 0.000000 
#    z 0.000000 0.000000 4.321160 
# 
# 
# High freq. dielectric constant tensor:
#      x y z
#    x 1.792870 0.000000 0.000000 
#    y 0.000000 1.848370 0.000000 
#    z 0.000000 0.000000 1.860230 
# 
# From -- ./inp_files/16788.got.cif
#   From: 2010.03.12/outbox.cif.g09.slc.cpg/sg46_9_cif.got.tgz:16788.got - 2010.04.14 02:56:35.
