data_PCOD8192110
_publ_section_title
;
Structure prediction by ZEFSAII (Michael W. Deem and Ramdas Pophale) SiO2 
 PCOD8192110
Probable space group: I M A 2
;
_chemical_formula_sum "Si O2"
_cell_formula_units_Z 64
_cell_length_a 8.598707
_cell_length_b 24.902673
_cell_length_c 15.200191
_cell_angle_alpha 90.000000
_cell_angle_beta 90.000000
_cell_angle_gamma 90.000000
_cell_volume 3254.828886
_symmetry_space_group_name_H-M "I M A 2"
_symmetry_group_IT_number 46
_symmetry_cell_setting 'orthorhombic'
loop_
_space_group_symop_operation_xyz
x,y,z
-x,-y,z
1/2-x,y,z
1/2+x,-y,z
1/2+x,1/2+y,1/2+z
1/2-x,1/2-y,1/2+z
-x,1/2+y,1/2+z
x,1/2-y,1/2+z
loop_
_atom_site_type_symbol
_atom_site_label
_atom_site_fract_x
_atom_site_fract_y
_atom_site_fract_z
Si Si1 0.566738 0.352796 0.321630
Si Si2 0.568549 0.233419 0.301341
Si Si3 0.569145 0.643625 0.692231
Si Si4 0.933426 0.442812 0.193239
Si Si5 0.568614 0.721357 0.985636
Si Si6 0.933155 0.110761 0.514112
Si Si7 0.067050 0.058455 0.339483
Si Si8 0.433128 0.834436 0.016337
O O1 0.750000 0.359253 0.322999
O O2 0.522418 0.294919 0.280411
O O3 0.493241 0.399243 0.260984
O O4 0.505443 0.356473 0.422204
O O5 0.750000 0.228942 0.325848
O O6 0.527257 0.196673 0.218599
O O7 0.468245 0.211935 0.382991
O O8 0.750000 0.656892 0.697982
O O9 0.525214 0.593582 0.753834
O O10 0.518887 0.631105 0.592025
O O11 0.750000 0.444083 0.203124
O O12 0.981089 0.428459 0.093687
O O13 0.000000 0.500000 0.219899
O O14 0.750000 0.731674 0.000109
O O15 0.516276 0.667213 0.034520
O O16 0.474053 0.771478 0.024470
O O17 0.750000 0.120756 0.510292
O O18 0.987727 0.084035 0.424205
O O19 0.250000 0.055446 0.356548
O O20 0.000000 0.000000 0.320976
O O21 0.250000 0.841727 0.026339
#
# Coordination Sequence:
#
# PCOD8192110 Si02
#       8
#     8   8   8   8   8   8   8   8
#     4   8  18  38  60  84 113 149 196 246 291 345
#     4  10  19  34  59  86 115 156 200 237 288 359
#     4  11  23  38  57  88 124 156 195 251 307 352
#     4  10  22  40  60  85 115 150 196 248 295 348
#     4  11  21  35  55  85 125 158 192 242 297 352
#     4  11  22  36  59  87 119 159 201 242 293 360
#     4  11  24  41  61  84 119 159 200 248 301 359
#     4  10  21  38  61  85 116 159 203 246 297 362
#
# _framework density 19.663091999999999
#
# number of rings (size 3 to 8) (size 9 to 14) (size 15 to 20)
#    0.000    1.750    1.250    4.125    1.750    3.500 
#    0.000    4.375    0.000    3.000    0.000    0.000 
#    0.000    0.000    0.000    0.000    0.000    0.000 
#
# Total GULP energy -396868.881213 kJ/mol
# GULP energy per Si atom -12402.152538 kJ/mol
# Density = 1.961834 g / cm^3
# Si number density = 19.663092 Si / 1000 Ang^3
#
#
#
# Elastic Constant Matrix: (Units=GPa)
#
#
# Indices 1 2 3 4 5 6 
#
# 1 58.4769 28.8671 27.7009 0.0000 0.0000 0.0000
# 2 28.8671 122.1779 58.4561 -0.0009 0.0001 0.0001
# 3 27.7009 58.4561 107.4845 -0.0021 0.0004 0.0002
# 4 0.0000 -0.0009 -0.0021 31.0147 0.0001 0.0001
# 5 0.0000 0.0001 0.0004 0.0001 26.1149 -0.0001
# 6 0.0000 0.0001 0.0002 0.0001 -0.0001 29.8145
#
#
#
# Elastic Compliance Matrix: (Units=1/GPa)
#
#
# Indices 1 2 3 4 5 6 
#
# 1 0.020313 -0.003102 -0.003548 0.000000 0.000000 0.000000
# 2 -0.003102 0.011537 -0.005475 0.000000 0.000000 0.000000
# 3 -0.003548 -0.005475 0.013196 0.000001 0.000000 0.000000
# 4 0.000000 0.000000 0.000001 0.032243 0.000000 0.000000
# 5 0.000000 0.000000 0.000000 0.000000 0.038292 0.000000
# 6 0.000000 0.000000 0.000000 0.000000 0.000000 0.033541
#
#
# Mechanical properties :
#
#
# Convention : Reuss Voigt Hill
#
# Bulk Modulus (GPa) = 48.08694 57.57640 52.83167
# Shear Modulus (GPa) = 27.73100 28.92982 28.33041
#
# Velocity S-wave (km/s) = 3.75948 3.83988 3.79989
# Velocity P-wave (km/s) = 6.58433 7.00033 6.79552
#
# Compressibility (1/GPa) = 0.02079567
#
# Stress axis : x y z
#
# Youngs Moduli (GPa) = 49.23032 86.67566 75.78148
#
# Poissons Ratio (x) = 0.26884 0.26888
# Poissons Ratio (y) = 0.15270 0.41492
# Poissons Ratio (z) = 0.17467 0.47457
#
# Static dielectric constant tensor:
#      x y z
#    x 3.458760 0.000000 0.000000 
#    y 0.000000 3.750840 0.000000 
#    z 0.000000 0.000000 3.744040 
# 
# 
# High freq. dielectric constant tensor:
#      x y z
#    x 1.760980 0.000000 0.000000 
#    y 0.000000 1.759590 0.000000 
#    z 0.000000 0.000000 1.768980 
# 
# From -- ./inp_files/14474.got.cif
#   From: 2010.03.12/outbox.cif.g09.slc.cpg/sg46_8_cif.got.tgz:14474.got - 2010.04.14 02:56:35.
