data_PCOD8192229
_publ_section_title
;
Structure prediction by ZEFSAII (Michael W. Deem and Ramdas Pophale) SiO2 
 PCOD8192229
Probable space group: I M A 2
;
_chemical_formula_sum "Si O2"
_cell_formula_units_Z 48
_cell_length_a 8.737322
_cell_length_b 20.477503
_cell_length_c 14.344524
_cell_angle_alpha 90.000000
_cell_angle_beta 90.000000
_cell_angle_gamma 90.000000
_cell_volume 2566.501255
_symmetry_space_group_name_H-M "I M A 2"
_symmetry_group_IT_number 46
_symmetry_cell_setting 'orthorhombic'
loop_
_space_group_symop_operation_xyz
x,y,z
-x,-y,z
1/2-x,y,z
1/2+x,-y,z
1/2+x,1/2+y,1/2+z
1/2-x,1/2-y,1/2+z
-x,1/2+y,1/2+z
x,1/2-y,1/2+z
loop_
_atom_site_type_symbol
_atom_site_label
_atom_site_fract_x
_atom_site_fract_y
_atom_site_fract_z
Si Si1 0.068263 0.878906 0.526830
Si Si2 0.427344 0.804884 0.223959
Si Si3 0.429075 0.314140 0.331467
Si Si4 0.568743 0.068532 0.722252
Si Si5 0.427870 0.730815 0.516161
Si Si6 0.430287 0.567544 0.832296
O O1 0.250000 0.878322 0.528871
O O2 0.004041 0.913936 0.619243
O O3 0.009821 0.804563 0.524715
O O4 0.005912 0.916473 0.435825
O O5 0.250000 0.790878 0.248408
O O6 0.526501 0.749512 0.272881
O O7 0.480439 0.875027 0.262373
O O8 0.454604 0.805710 0.113677
O O9 0.250000 0.326619 0.321942
O O10 0.518609 0.376747 0.294619
O O11 0.473364 0.306264 0.439267
O O12 0.750000 0.064134 0.721697
O O13 0.500000 0.000000 0.754961
O O14 0.250000 0.730173 0.486801
O O15 0.500000 0.500000 0.795710
O O16 0.250000 0.560302 0.834513
#
# Coordination Sequence:
#
# PCOD8192229 Si02
#       6
#     8   8   8   8   8   8
#     4   9  17  32  59  87 114 148 188 234 288 347
#     4  10  20  38  63  84 110 153 201 242 286 347
#     4  12  24  37  57  88 121 154 192 243 297 351
#     4  11  22  39  60  87 120 159 198 241 295 354
#     4  10  19  37  62  86 111 150 199 243 289 343
#     4  10  20  35  55  84 117 149 186 228 283 346
#
# _framework density 18.702504999999999
#
# number of rings (size 3 to 8) (size 9 to 14) (size 15 to 20)
#    0.000    1.667    3.333    2.500    0.000    1.333 
#    0.000    1.667    0.000    2.000    0.000    0.000 
#    0.000    0.000    0.000    0.000    0.000    0.000 
#
# Total GULP energy -297687.255650 kJ/mol
# GULP energy per Si atom -12403.635652 kJ/mol
# Density = 1.865994 g / cm^3
# Si number density = 18.702505 Si / 1000 Ang^3
#
#
#
# Elastic Constant Matrix: (Units=GPa)
#
#
# Indices 1 2 3 4 5 6 
#
# 1 56.7503 32.9481 27.4667 0.0000 0.0000 0.0000
# 2 32.9481 153.2375 54.9884 0.0000 0.0000 0.0000
# 3 27.4667 54.9884 100.1156 0.0000 0.0000 0.0000
# 4 0.0000 0.0000 0.0000 27.4164 0.0000 0.0000
# 5 0.0000 0.0000 0.0000 0.0000 17.6605 0.0000
# 6 0.0000 0.0000 0.0000 0.0000 0.0000 29.6043
#
#
#
# Elastic Compliance Matrix: (Units=1/GPa)
#
#
# Indices 1 2 3 4 5 6 
#
# 1 0.021449 -0.003114 -0.004174 0.000000 0.000000 0.000000
# 2 -0.003114 0.008580 -0.003858 0.000000 0.000000 0.000000
# 3 -0.004174 -0.003858 0.013253 0.000000 0.000000 0.000000
# 4 0.000000 0.000000 0.000000 0.036474 0.000000 0.000000
# 5 0.000000 0.000000 0.000000 0.000000 0.056624 0.000000
# 6 0.000000 0.000000 0.000000 0.000000 0.000000 0.033779
#
#
# Mechanical properties :
#
#
# Convention : Reuss Voigt Hill
#
# Bulk Modulus (GPa) = 47.64381 60.10109 53.87245
# Shear Modulus (GPa) = 25.06921 27.91626 26.49273
#
# Velocity S-wave (km/s) = 3.66515 3.86767 3.76777
# Velocity P-wave (km/s) = 6.59097 7.22151 6.91344
#
# Compressibility (1/GPa) = 0.02098909
#
# Stress axis : x y z
#
# Youngs Moduli (GPa) = 46.62168 116.55234 75.45603
#
# Poissons Ratio (x) = 0.36294 0.31497
# Poissons Ratio (y) = 0.14518 0.29112
# Poissons Ratio (z) = 0.19461 0.44968
#
# Static dielectric constant tensor:
#      x y z
#    x 3.191360 0.000000 0.000000 
#    y 0.000000 3.484980 0.000000 
#    z 0.000000 0.000000 3.567770 
# 
# 
# High freq. dielectric constant tensor:
#      x y z
#    x 1.705010 0.000000 0.000000 
#    y 0.000000 1.728160 0.000000 
#    z 0.000000 0.000000 1.729590 
# 
# From -- ./inp_files/13879.got.cif
#   From: 2010.03.12/outbox.cif.g09.slc.cpg/sg46_7_cif.got.tgz:13879.got - 2010.04.14 02:56:35.
