data_PCOD8192106
_publ_section_title
;
Structure prediction by ZEFSAII (Michael W. Deem and Ramdas Pophale) SiO2 
 PCOD8192106
Probable space group: I M A 2
;
_chemical_formula_sum "Si O2"
_cell_formula_units_Z 48
_cell_length_a 8.640321
_cell_length_b 23.177398
_cell_length_c 11.641189
_cell_angle_alpha 90.000000
_cell_angle_beta 90.000000
_cell_angle_gamma 90.000000
_cell_volume 2331.266356
_symmetry_space_group_name_H-M "I M A 2"
_symmetry_group_IT_number 46
_symmetry_cell_setting 'orthorhombic'
loop_
_space_group_symop_operation_xyz
x,y,z
-x,-y,z
1/2-x,y,z
1/2+x,-y,z
1/2+x,1/2+y,1/2+z
1/2-x,1/2-y,1/2+z
-x,1/2+y,1/2+z
x,1/2-y,1/2+z
loop_
_atom_site_type_symbol
_atom_site_label
_atom_site_fract_x
_atom_site_fract_y
_atom_site_fract_z
Si Si1 0.077635 0.940785 0.765550
Si Si2 0.066591 0.733095 0.215393
Si Si3 0.431288 0.352298 0.665985
Si Si4 0.566117 0.064216 0.340034
Si Si5 0.921376 0.361118 0.047262
Si Si6 0.569965 0.653679 0.402632
O O1 0.250000 0.948641 0.816914
O O2 0.086946 0.906782 0.648059
O O3 0.968674 0.910162 0.858583
O O4 0.000000 0.000000 0.732794
O O5 0.250000 0.740890 0.204585
O O6 0.001422 0.696911 0.103320
O O7 0.983218 0.794044 0.229248
O O8 0.031781 0.699673 0.333216
O O9 0.250000 0.362291 0.680899
O O10 0.517320 0.408055 0.718614
O O11 0.480499 0.344722 0.534541
O O12 0.750000 0.059758 0.350851
O O13 0.495490 0.107734 0.438703
O O14 0.500000 0.000000 0.353528
O O15 0.750000 0.343785 0.005778
O O16 0.750000 0.667615 0.385317
#
# Coordination Sequence:
#
# PCOD8192106 Si02
#       6
#     8   8   8   8   8   8
#     4  10  19  34  58  87 118 153 195 244 298 356
#     4  10  21  39  64  92 122 155 198 251 308 370
#     4  11  25  42  60  87 121 161 205 252 304 364
#     4  11  23  41  63  90 124 166 209 254 306 369
#     4   8  18  36  59  90 121 153 196 245 300 359
#     4  10  22  40  59  84 118 154 198 248 299 360
#
# _framework density 20.589668
#
# number of rings (size 3 to 8) (size 9 to 14) (size 15 to 20)
#    0.000    2.000    0.000    4.000    2.333    3.333 
#    0.000    8.333    0.000    0.000    0.000    0.000 
#    0.000    0.000    0.000    0.000    0.000    0.000 
#
# Total GULP energy -297508.337400 kJ/mol
# GULP energy per Si atom -12396.180725 kJ/mol
# Density = 2.054281 g / cm^3
# Si number density = 20.589668 Si / 1000 Ang^3
#
#
#
# Elastic Constant Matrix: (Units=GPa)
#
#
# Indices 1 2 3 4 5 6 
#
# 1 49.4235 20.9304 31.7118 0.0000 0.0000 0.0000
# 2 20.9304 88.1016 24.3671 -0.0001 0.0000 0.0001
# 3 31.7118 24.3671 94.1084 -0.0007 0.0003 -0.0004
# 4 0.0000 -0.0001 -0.0007 11.2867 0.0000 0.0000
# 5 0.0000 0.0000 0.0003 0.0000 27.7856 0.0000
# 6 0.0000 0.0001 -0.0004 0.0000 0.0000 36.4312
#
#
#
# Elastic Compliance Matrix: (Units=1/GPa)
#
#
# Indices 1 2 3 4 5 6 
#
# 1 0.027204 -0.004230 -0.008072 0.000000 0.000000 0.000000
# 2 -0.004230 0.012884 -0.001910 0.000000 0.000000 0.000000
# 3 -0.008072 -0.001910 0.013841 0.000001 0.000000 0.000000
# 4 0.000000 0.000000 0.000001 0.088600 0.000000 0.000000
# 5 0.000000 0.000000 0.000000 0.000000 0.035990 0.000000
# 6 0.000000 0.000000 0.000000 0.000000 0.000000 0.027449
#
#
# Mechanical properties :
#
#
# Convention : Reuss Voigt Hill
#
# Bulk Modulus (GPa) = 39.21030 42.85026 41.03028
# Shear Modulus (GPa) = 20.58517 25.40897 22.99707
#
# Velocity S-wave (km/s) = 3.16536 3.51674 3.34567
# Velocity P-wave (km/s) = 5.69600 6.11119 5.90724
#
# Compressibility (1/GPa) = 0.02550350
#
# Stress axis : x y z
#
# Youngs Moduli (GPa) = 36.75959 77.61593 72.25134
#
# Poissons Ratio (x) = 0.32835 0.58318
# Poissons Ratio (y) = 0.15551 0.13803
# Poissons Ratio (z) = 0.29671 0.14828
#
# Static dielectric constant tensor:
#      x y z
#    x 3.678140 0.000000 0.000000 
#    y 0.000000 4.016480 0.000000 
#    z 0.000000 0.000000 3.791980 
# 
# 
# High freq. dielectric constant tensor:
#      x y z
#    x 1.793930 0.000000 0.000000 
#    y 0.000000 1.812680 0.000000 
#    z 0.000000 0.000000 1.805180 
# 
# From -- ./inp_files/9305.got.cif
#   From: 2010.03.12/outbox.cif.g09.slc.cpg/sg46_5_cif.got.tgz:9305.got - 2010.04.14 02:56:35.
