data_PCOD8192734
_publ_section_title
;
Structure prediction by ZEFSAII (Michael W. Deem and Ramdas Pophale) SiO2 
 PCOD8192734
Probable space group: I M A 2
;
_chemical_formula_sum "Si O2"
_cell_formula_units_Z 40
_cell_length_a 20.654989
_cell_length_b 9.924162
_cell_length_c 8.604783
_cell_angle_alpha 90.000000
_cell_angle_beta 90.000000
_cell_angle_gamma 90.000000
_cell_volume 1763.838166
_symmetry_space_group_name_H-M "I M A 2"
_symmetry_group_IT_number 46
_symmetry_cell_setting 'orthorhombic'
loop_
_space_group_symop_operation_xyz
x,y,z
-x,-y,z
1/2-x,y,z
1/2+x,-y,z
1/2+x,1/2+y,1/2+z
1/2-x,1/2-y,1/2+z
-x,1/2+y,1/2+z
x,1/2-y,1/2+z
loop_
_atom_site_type_symbol
_atom_site_label
_atom_site_fract_x
_atom_site_fract_y
_atom_site_fract_z
Si Si1 0.420017 0.134434 0.551440
Si Si2 0.750000 0.048421 0.800700
Si Si3 0.437289 0.648176 0.930036
Si Si4 0.250000 0.697906 0.611550
Si Si5 0.125715 0.121440 0.884737
Si Si6 0.887408 0.111866 0.106426
O O1 0.490614 0.173941 0.489614
O O2 0.421503 0.143738 0.738387
O O3 0.366872 0.233836 0.471373
O O4 0.403595 0.982456 0.504443
O O5 0.750000 0.139227 0.643205
O O6 0.809623 0.945744 0.816541
O O7 0.750000 0.168139 0.926959
O O8 0.438825 0.632052 0.743951
O O9 0.392952 0.772916 0.976445
O O10 0.314447 0.622566 0.677049
O O11 0.096096 0.027117 0.019452
#
# Coordination Sequence:
#
# PCOD8192734 Si02
#       6
#     8   4   8   4   8   8
#     4  11  24  42  60  91 131 171 215 270 329 393
#     4  10  22  40  68 100 132 174 218 270 330 396
#     4  11  23  40  64  92 125 171 220 267 326 390
#     4  10  20  38  62  94 130 162 208 260 318 388
#     4  11  24  42  65  95 132 171 219 274 332 392
#     4  11  22  40  66  96 125 167 219 271 323 393
#
# _framework density 22.677814999999999
#
# number of rings (size 3 to 8) (size 9 to 14) (size 15 to 20)
#    0.000    1.200    0.000    7.200    0.000    4.800 
#    0.000    4.000    0.000    0.000    0.000    0.000 
#    0.000    0.000    0.000    0.000    0.000    0.000 
#
# Total GULP energy -247941.759010 kJ/mol
# GULP energy per Si atom -12397.087950 kJ/mol
# Density = 2.262620 g / cm^3
# Si number density = 22.677815 Si / 1000 Ang^3
#
#
#
# Elastic Constant Matrix: (Units=GPa)
#
#
# Indices 1 2 3 4 5 6 
#
# 1 92.8589 21.7665 42.9771 0.0000 0.0000 0.0000
# 2 21.7665 118.3039 27.9871 0.0000 0.0000 0.0000
# 3 42.9771 27.9871 131.1903 0.0000 0.0000 0.0000
# 4 0.0000 0.0000 0.0000 53.9229 0.0000 0.0000
# 5 0.0000 0.0000 0.0000 0.0000 30.4794 0.0000
# 6 0.0000 0.0000 0.0000 0.0000 0.0000 29.7611
#
#
#
# Elastic Compliance Matrix: (Units=1/GPa)
#
#
# Indices 1 2 3 4 5 6 
#
# 1 0.012925 -0.001450 -0.003925 0.000000 0.000000 0.000000
# 2 -0.001450 0.009065 -0.001459 0.000000 0.000000 0.000000
# 3 -0.003925 -0.001459 0.009220 0.000000 0.000000 0.000000
# 4 0.000000 0.000000 0.000000 0.018545 0.000000 0.000000
# 5 0.000000 0.000000 0.000000 0.000000 0.032809 0.000000
# 6 0.000000 0.000000 0.000000 0.000000 0.000000 0.033601
#
#
# Mechanical properties :
#
#
# Convention : Reuss Voigt Hill
#
# Bulk Modulus (GPa) = 57.00419 58.64606 57.82512
# Shear Modulus (GPa) = 36.85165 39.47417 38.16291
#
# Velocity S-wave (km/s) = 4.03551 4.17664 4.10668
# Velocity P-wave (km/s) = 6.84872 7.01254 6.93111
#
# Compressibility (1/GPa) = 0.01754257
#
# Stress axis : x y z
#
# Youngs Moduli (GPa) = 77.36695 110.31871 108.46498
#
# Poissons Ratio (x) = 0.15992 0.42573
# Poissons Ratio (y) = 0.11215 0.15824
# Poissons Ratio (z) = 0.30367 0.16094
#
# Static dielectric constant tensor:
#      x y z
#    x 3.910160 0.000000 0.000000 
#    y 0.000000 4.168530 0.000000 
#    z 0.000000 0.000000 4.116060 
# 
# 
# High freq. dielectric constant tensor:
#      x y z
#    x 1.880030 0.000000 0.000000 
#    y 0.000000 1.901760 0.000000 
#    z 0.000000 0.000000 1.901870 
# 
# From -- ./inp_files/7728.got.cif
#   From: 2010.03.12/outbox.cif.g09.slc.cpg/sg46_4_cif.got.tgz:7728.got - 2010.04.14 02:56:35.
