data_PCOD8192715
_publ_section_title
;
Structure prediction by ZEFSAII (Michael W. Deem and Ramdas Pophale) SiO2 
 PCOD8192715
Probable space group: I M A 2
;
_chemical_formula_sum "Si O2"
_cell_formula_units_Z 64
_cell_length_a 15.243538
_cell_length_b 8.871665
_cell_length_c 22.310778
_cell_angle_alpha 90.000000
_cell_angle_beta 90.000000
_cell_angle_gamma 90.000000
_cell_volume 3017.210614
_symmetry_space_group_name_H-M "I M A 2"
_symmetry_group_IT_number 46
_symmetry_cell_setting 'orthorhombic'
loop_
_space_group_symop_operation_xyz
x,y,z
-x,-y,z
1/2-x,y,z
1/2+x,-y,z
1/2+x,1/2+y,1/2+z
1/2-x,1/2-y,1/2+z
-x,1/2+y,1/2+z
x,1/2-y,1/2+z
loop_
_atom_site_type_symbol
_atom_site_label
_atom_site_fract_x
_atom_site_fract_y
_atom_site_fract_z
Si Si1 0.849190 0.095319 0.882650
Si Si2 0.037147 0.652642 0.826967
Si Si3 0.153254 0.279997 0.163854
Si Si4 0.846102 0.170621 0.089208
Si Si5 0.405999 0.439919 0.504055
Si Si6 0.916661 0.599366 0.278592
Si Si7 0.901401 0.464528 0.704849
Si Si8 0.979433 0.668513 0.056563
O O1 0.750000 0.152960 0.889602
O O2 0.911311 0.242184 0.874470
O O3 0.876095 0.997034 0.939755
O O4 0.857009 0.980790 0.828052
O O5 0.101671 0.602792 0.772293
O O6 0.000000 0.500000 0.858555
O O7 0.951904 0.737843 0.800551
O O8 0.250000 0.308347 0.135212
O O9 0.141455 0.393163 0.219373
O O10 0.073935 0.315655 0.118546
O O11 0.153467 0.115559 0.194333
O O12 0.750000 0.244836 0.078640
O O13 0.861982 0.160283 0.160305
O O14 0.921746 0.268632 0.059449
O O15 0.844028 0.004016 0.057304
O O16 0.500000 0.500000 0.521964
O O17 0.418155 0.257445 0.507701
O O18 0.000000 0.500000 0.263171
O O19 0.000000 0.500000 0.684956
O O20 0.000000 0.500000 0.035857
#
# Coordination Sequence:
#
# PCOD8192715 Si02
#       8
#     8   8   8   8   8   8   8   8
#     4  11  24  41  63  95 129 169 223 278 330 396
#     4  10  20  39  64  88 127 171 218 268 332 401
#     4  12  22  35  60  96 135 175 218 270 333 397
#     4  11  21  38  66  94 127 173 223 272 323 392
#     4  10  21  43  68  89 119 168 220 262 324 396
#     4  10  20  38  60  86 129 181 220 261 323 402
#     4  11  18  36  61  93 130 173 219 267 330 396
#     4  11  24  42  64  96 134 171 217 277 335 399
#
# _framework density 21.211645999999998
#
# number of rings (size 3 to 8) (size 9 to 14) (size 15 to 20)
#    0.000    1.250    5.000    3.000    0.000    3.000 
#    0.000    5.625    0.000    0.000    0.000    0.000 
#    0.000    0.000    0.000    0.000    0.000    0.000 
#
# Total GULP energy -396528.822340 kJ/mol
# GULP energy per Si atom -12391.525698 kJ/mol
# Density = 2.116337 g / cm^3
# Si number density = 21.211646 Si / 1000 Ang^3
#
#
#
# Elastic Constant Matrix: (Units=GPa)
#
#
# Indices 1 2 3 4 5 6 
#
# 1 133.9104 33.0405 31.4719 0.0000 0.0000 0.0000
# 2 33.0405 127.9979 39.3189 0.0000 0.0000 0.0000
# 3 31.4719 39.3189 94.3348 0.0000 0.0000 0.0000
# 4 0.0000 0.0000 0.0000 27.3432 0.0000 0.0000
# 5 0.0000 0.0000 0.0000 0.0000 12.2207 0.0000
# 6 0.0000 0.0000 0.0000 0.0000 0.0000 17.8305
#
#
#
# Elastic Compliance Matrix: (Units=1/GPa)
#
#
# Indices 1 2 3 4 5 6 
#
# 1 0.008343 -0.001489 -0.002163 0.000000 0.000000 0.000000
# 2 -0.001489 0.009226 -0.003348 0.000000 0.000000 0.000000
# 3 -0.002163 -0.003348 0.012718 0.000000 0.000000 0.000000
# 4 0.000000 0.000000 0.000000 0.036572 0.000000 0.000000
# 5 0.000000 0.000000 0.000000 0.000000 0.081829 0.000000
# 6 0.000000 0.000000 0.000000 0.000000 0.000000 0.056084
#
#
# Mechanical properties :
#
#
# Convention : Reuss Voigt Hill
#
# Bulk Modulus (GPa) = 61.40327 62.65618 62.02972
# Shear Modulus (GPa) = 22.30144 28.30632 25.30388
#
# Velocity S-wave (km/s) = 3.24601 3.65700 3.45762
# Velocity P-wave (km/s) = 6.56198 6.88725 6.72658
#
# Compressibility (1/GPa) = 0.01628578
#
# Stress axis : x y z
#
# Youngs Moduli (GPa) = 119.85440 108.39339 78.63058
#
# Poissons Ratio (x) = 0.16144 0.17006
# Poissons Ratio (y) = 0.17851 0.26329
# Poissons Ratio (z) = 0.25922 0.36294
#
# Static dielectric constant tensor:
#      x y z
#    x 3.924380 0.000000 0.000000 
#    y 0.000000 4.023380 0.000000 
#    z 0.000000 0.000000 3.638890 
# 
# 
# High freq. dielectric constant tensor:
#      x y z
#    x 1.828860 0.000000 0.000000 
#    y 0.000000 1.824660 0.000000 
#    z 0.000000 0.000000 1.815600 
# 
# From -- ./inp_files/23695.got.cif
#   From: 2010.03.12/outbox.cif.g09.slc.cpg/sg46_12_cif.got.tgz:23695.got - 2010.04.14 02:56:35.
