data_PCOD8192960
_publ_section_title
;
Structure prediction by ZEFSAII (Michael W. Deem and Ramdas Pophale) SiO2 
 PCOD8192960
Probable space group: I M A 2
;
_chemical_formula_sum "Si O2"
_cell_formula_units_Z 60
_cell_length_a 9.077131
_cell_length_b 26.289161
_cell_length_c 12.041468
_cell_angle_alpha 90.000000
_cell_angle_beta 90.000000
_cell_angle_gamma 90.000000
_cell_volume 2873.457415
_symmetry_space_group_name_H-M "I M A 2"
_symmetry_group_IT_number 46
_symmetry_cell_setting 'orthorhombic'
loop_
_space_group_symop_operation_xyz
x,y,z
-x,-y,z
1/2-x,y,z
1/2+x,-y,z
1/2+x,1/2+y,1/2+z
1/2-x,1/2-y,1/2+z
-x,1/2+y,1/2+z
x,1/2-y,1/2+z
loop_
_atom_site_type_symbol
_atom_site_label
_atom_site_fract_x
_atom_site_fract_y
_atom_site_fract_z
Si Si1 0.411276 0.328057 0.171910
Si Si2 0.500000 0.000000 0.745719
Si Si3 0.575330 0.449681 0.653583
Si Si4 0.910029 0.083092 0.591498
Si Si5 0.576805 0.185784 0.873507
Si Si6 0.080726 0.878714 0.355274
Si Si7 0.081423 0.080336 0.928083
Si Si8 0.586021 0.718090 0.934856
O O1 0.250000 0.331424 0.229539
O O2 0.463093 0.385476 0.151397
O O3 0.530944 0.299192 0.248031
O O4 0.398717 0.297471 0.060590
O O5 0.603726 0.029529 0.656706
O O6 0.419571 0.040309 0.826164
O O7 0.500000 0.500000 0.702999
O O8 0.750000 0.457235 0.642531
O O9 0.535381 0.405086 0.739909
O O10 0.509277 0.440103 0.532475
O O11 0.750000 0.110007 0.604421
O O12 0.946030 0.081934 0.458689
O O13 0.750000 0.178866 0.891200
O O14 0.494042 0.133175 0.896001
O O15 0.516305 0.232264 0.945453
O O16 0.250000 0.861689 0.350897
O O17 0.985791 0.827372 0.364217
O O18 0.250000 0.089485 0.963358
O O19 0.750000 0.729670 0.886066
#
# Coordination Sequence:
#
# PCOD8192960 Si02
#       8
#     8   4   8   8   8   8   8   8
#     4  10  21  39  62  90 124 160 202 256 313 371
#     4  12  24  36  66  96 130 166 210 252 316 374
#     4  11  24  42  65  92 130 173 218 266 316 377
#     4  10  21  38  62  92 127 164 207 257 313 373
#     4  12  25  41  65  93 126 165 209 258 317 383
#     4   9  21  42  65  94 129 168 213 262 317 379
#     4  12  26  43  64  92 130 169 216 267 316 376
#     4  10  22  41  66  94 125 163 208 261 318 376
#
# _framework density 20.880768
#
# number of rings (size 3 to 8) (size 9 to 14) (size 15 to 20)
#    0.000    1.333    2.000    3.200    0.933    5.333 
#    0.000    0.000    0.000    0.000    0.000    0.000 
#    0.000    0.000    0.000    0.000    0.000    0.000 
#
# Total GULP energy -371755.095930 kJ/mol
# GULP energy per Si atom -12391.836531 kJ/mol
# Density = 2.083324 g / cm^3
# Si number density = 20.880768 Si / 1000 Ang^3
#
#
#
# Elastic Constant Matrix: (Units=GPa)
#
#
# Indices 1 2 3 4 5 6 
#
# 1 139.2577 57.7613 31.4680 0.0000 -0.0001 0.0000
# 2 57.7613 121.5299 37.7512 0.0002 0.0000 0.0000
# 3 31.4680 37.7512 73.3614 0.0022 0.0010 0.0001
# 4 0.0000 0.0002 0.0022 23.3633 0.0001 0.0000
# 5 -0.0001 0.0000 0.0010 0.0001 25.2249 0.0002
# 6 0.0000 0.0000 0.0001 0.0000 0.0002 31.2189
#
#
#
# Elastic Compliance Matrix: (Units=1/GPa)
#
#
# Indices 1 2 3 4 5 6 
#
# 1 0.009188 -0.003741 -0.002016 0.000000 0.000000 0.000000
# 2 -0.003741 0.011317 -0.004219 0.000000 0.000000 0.000000
# 3 -0.002016 -0.004219 0.016667 -0.000002 -0.000001 0.000000
# 4 0.000000 0.000000 -0.000002 0.042802 0.000000 0.000000
# 5 0.000000 0.000000 -0.000001 0.000000 0.039643 0.000000
# 6 0.000000 0.000000 0.000000 0.000000 0.000000 0.032032
#
#
# Mechanical properties :
#
#
# Convention : Reuss Voigt Hill
#
# Bulk Modulus (GPa) = 58.07154 65.34556 61.70855
# Shear Modulus (GPa) = 28.19418 29.77264 28.98341
#
# Velocity S-wave (km/s) = 3.67856 3.78013 3.72969
# Velocity P-wave (km/s) = 6.77597 7.10035 6.94006
#
# Compressibility (1/GPa) = 0.01722014
#
# Stress axis : x y z
#
# Youngs Moduli (GPa) = 108.83658 88.36361 59.99844
#
# Poissons Ratio (x) = 0.33054 0.12097
# Poissons Ratio (y) = 0.40712 0.25314
# Poissons Ratio (z) = 0.21944 0.37281
#
# Static dielectric constant tensor:
#      x y z
#    x 3.979020 0.000000 0.000000 
#    y 0.000000 3.787050 0.000000 
#    z 0.000000 0.000000 3.972460 
# 
# 
# High freq. dielectric constant tensor:
#      x y z
#    x 1.827370 0.000000 0.000000 
#    y 0.000000 1.812860 0.000000 
#    z 0.000000 0.000000 1.823000 
# 
# From -- ./inp_files/9544.got.cif
#   From: 2010.03.12/outbox.cif.g09.slc.cpg/sg46_5_cif.got.tgz:9544.got - 2010.04.14 02:56:35.
