data_PCOD8192173
_publ_section_title
;
Structure prediction by ZEFSAII (Michael W. Deem and Ramdas Pophale) SiO2 
 PCOD8192173
Probable space group: I M A 2
;
_chemical_formula_sum "Si O2"
_cell_formula_units_Z 64
_cell_length_a 16.809759
_cell_length_b 21.644628
_cell_length_c 9.290637
_cell_angle_alpha 90.000000
_cell_angle_beta 90.000000
_cell_angle_gamma 90.000000
_cell_volume 3380.314474
_symmetry_space_group_name_H-M "I M A 2"
_symmetry_group_IT_number 46
_symmetry_cell_setting 'orthorhombic'
loop_
_space_group_symop_operation_xyz
x,y,z
-x,-y,z
1/2-x,y,z
1/2+x,-y,z
1/2+x,1/2+y,1/2+z
1/2-x,1/2-y,1/2+z
-x,1/2+y,1/2+z
x,1/2-y,1/2+z
loop_
_atom_site_type_symbol
_atom_site_label
_atom_site_fract_x
_atom_site_fract_y
_atom_site_fract_z
Si Si1 0.339518 0.694016 0.849590
Si Si2 0.980875 0.873828 0.059897
Si Si3 0.160815 0.070358 0.230778
Si Si4 0.572452 0.461210 0.071246
Si Si5 0.396402 0.935349 0.260935
Si Si6 0.514518 0.868010 0.730141
Si Si7 0.838911 0.576938 0.063811
Si Si8 0.062810 0.745632 0.113938
O O1 0.250000 0.711525 0.896889
O O2 0.339477 0.621641 0.805606
O O3 0.362423 0.733443 0.709470
O O4 0.402402 0.710031 0.975101
O O5 0.896382 0.887671 0.133410
O O6 0.045444 0.918709 0.131041
O O7 0.007362 0.803165 0.072932
O O8 0.974142 0.889599 0.892691
O O9 0.250000 0.086262 0.181115
O O10 0.147623 0.090017 0.395708
O O11 0.150340 0.996406 0.211351
O O12 0.500000 0.500000 0.136454
O O13 0.566933 0.398964 0.164935
O O14 0.651874 0.502435 0.091465
O O15 0.552662 0.448463 0.904201
O O16 0.596115 0.883373 0.647514
O O17 0.496727 0.795981 0.709224
O O18 0.750000 0.595575 0.113161
#
# Coordination Sequence:
#
# PCOD8192173 Si02
#       8
#     8   8   8   8   8   8   8   8
#     4  11  22  38  61  88 120 154 195 244 292 343
#     4  11  23  36  59  85 118 157 196 243 295 360
#     4  10  21  38  59  88 119 153 198 248 298 349
#     4   9  17  32  56  81 113 147 190 235 282 348
#     4  10  19  35  61  88 115 154 197 237 291 351
#     4  11  21  37  57  84 114 154 198 235 294 354
#     4   9  20  36  58  85 115 148 194 248 293 342
#     4  11  23  40  59  85 117 157 198 240 289 354
#
# _framework density 18.933150999999999
#
# number of rings (size 3 to 8) (size 9 to 14) (size 15 to 20)
#    0.000    1.750    2.500    3.375    1.750    4.000 
#    0.000    0.625    0.000    0.000    0.000    0.000 
#    0.000    0.000    0.000    0.000    0.000    0.000 
#
# Total GULP energy -396597.415975 kJ/mol
# GULP energy per Si atom -12393.669249 kJ/mol
# Density = 1.889006 g / cm^3
# Si number density = 18.933151 Si / 1000 Ang^3
#
#
#
# Elastic Constant Matrix: (Units=GPa)
#
#
# Indices 1 2 3 4 5 6 
#
# 1 120.7384 48.7092 52.4582 0.0000 0.0000 0.0000
# 2 48.7092 80.7607 34.7296 0.0000 0.0000 0.0000
# 3 52.4582 34.7296 100.3486 0.0000 0.0000 0.0000
# 4 0.0000 0.0000 0.0000 20.9529 0.0000 0.0000
# 5 0.0000 0.0000 0.0000 0.0000 21.9555 0.0000
# 6 0.0000 0.0000 0.0000 0.0000 0.0000 16.3921
#
#
#
# Elastic Compliance Matrix: (Units=1/GPa)
#
#
# Indices 1 2 3 4 5 6 
#
# 1 0.012542 -0.005574 -0.004627 0.000000 0.000000 0.000000
# 2 -0.005574 0.017025 -0.002978 0.000000 0.000000 0.000000
# 3 -0.004627 -0.002978 0.013415 0.000000 0.000000 0.000000
# 4 0.000000 0.000000 0.000000 0.047726 0.000000 0.000000
# 5 0.000000 0.000000 0.000000 0.000000 0.045547 0.000000
# 6 0.000000 0.000000 0.000000 0.000000 0.000000 0.061005
#
#
# Mechanical properties :
#
#
# Convention : Reuss Voigt Hill
#
# Bulk Modulus (GPa) = 60.16004 63.73798 61.94901
# Shear Modulus (GPa) = 21.81893 22.92349 22.37121
#
# Velocity S-wave (km/s) = 3.39841 3.48337 3.44115
# Velocity P-wave (km/s) = 6.87335 7.06515 6.96991
#
# Compressibility (1/GPa) = 0.01662233
#
# Stress axis : x y z
#
# Youngs Moduli (GPa) = 79.73481 58.73700 74.54483
#
# Poissons Ratio (x) = 0.32743 0.34492
# Poissons Ratio (y) = 0.44448 0.22200
# Poissons Ratio (z) = 0.36893 0.17492
#
# Static dielectric constant tensor:
#      x y z
#    x 3.334680 0.000000 0.000000 
#    y 0.000000 3.661700 0.000000 
#    z 0.000000 0.000000 3.408480 
# 
# 
# High freq. dielectric constant tensor:
#      x y z
#    x 1.724040 0.000000 0.000000 
#    y 0.000000 1.737160 0.000000 
#    z 0.000000 0.000000 1.731860 
# 
# From -- ./inp_files/6910.got.cif
#   From: 2010.03.12/outbox.cif.g09.slc.cpg/sg46_4_cif.got.tgz:6910.got - 2010.04.14 02:56:35.
