data_PCOD8192988
_publ_section_title
;
Structure prediction by ZEFSAII (Michael W. Deem and Ramdas Pophale) SiO2 
 PCOD8192988
Probable space group: I M A 2
;
_chemical_formula_sum "Si O2"
_cell_formula_units_Z 64
_cell_length_a 8.878022
_cell_length_b 24.713687
_cell_length_c 14.876331
_cell_angle_alpha 90.000000
_cell_angle_beta 90.000000
_cell_angle_gamma 90.000000
_cell_volume 3263.995804
_symmetry_space_group_name_H-M "I M A 2"
_symmetry_group_IT_number 46
_symmetry_cell_setting 'orthorhombic'
loop_
_space_group_symop_operation_xyz
x,y,z
-x,-y,z
1/2-x,y,z
1/2+x,-y,z
1/2+x,1/2+y,1/2+z
1/2-x,1/2-y,1/2+z
-x,1/2+y,1/2+z
x,1/2-y,1/2+z
loop_
_atom_site_type_symbol
_atom_site_label
_atom_site_fract_x
_atom_site_fract_y
_atom_site_fract_z
Si Si1 0.573766 0.643763 0.777120
Si Si2 0.579896 0.777767 0.607746
Si Si3 0.927021 0.602008 0.075594
Si Si4 0.427859 0.555895 0.901869
Si Si5 0.921746 0.139645 0.899307
Si Si6 0.580924 0.734637 0.314675
Si Si7 0.077568 0.831217 0.096129
Si Si8 0.927370 0.942308 0.768202
O O1 0.750000 0.630094 0.783772
O O2 0.477860 0.601221 0.832089
O O3 0.537478 0.702362 0.818886
O O4 0.526268 0.642519 0.672741
O O5 0.750000 0.760944 0.581444
O O6 0.535233 0.834538 0.561932
O O7 0.569595 0.787508 0.713902
O O8 0.469494 0.730683 0.574955
O O9 0.750000 0.591526 0.062294
O O10 0.981972 0.581776 0.173049
O O11 0.018168 0.568586 0.002346
O O12 0.500000 0.500000 0.869041
O O13 0.250000 0.550543 0.901125
O O14 0.750000 0.129591 0.870360
O O15 0.966036 0.201179 0.875334
O O16 0.026949 0.097257 0.848871
O O17 0.941741 0.132944 0.006508
O O18 0.750000 0.726014 0.351505
O O19 0.250000 0.830933 0.128858
O O20 0.750000 0.948780 0.769848
O O21 0.000000 0.000000 0.785936
#
# Coordination Sequence:
#
# PCOD8192988 Si02
#       8
#     8   8   8   8   8   8   8   8
#     4  10  22  42  65  89 118 158 204 252 307 362
#     4   9  18  35  57  85 120 161 202 241 293 356
#     4  10  21  39  61  89 123 161 203 247 297 362
#     4  12  26  43  64  90 121 158 203 254 306 363
#     4  11  23  37  57  88 125 161 202 248 299 356
#     4   9  18  35  58  86 118 156 198 241 294 355
#     4  10  22  38  57  88 126 161 201 252 304 359
#     4  11  23  41  63  87 120 160 205 251 301 355
#
# _framework density 19.607869000000001
#
# number of rings (size 3 to 8) (size 9 to 14) (size 15 to 20)
#    0.000    1.750    1.250    3.750    1.750    7.000 
#    0.000    0.625    0.000    3.000    0.000    0.000 
#    0.000    0.000    0.000    0.000    0.000    0.000 
#
# Total GULP energy -396913.187855 kJ/mol
# GULP energy per Si atom -12403.537120 kJ/mol
# Density = 1.956324 g / cm^3
# Si number density = 19.607869 Si / 1000 Ang^3
#
#
#
# Elastic Constant Matrix: (Units=GPa)
#
#
# Indices 1 2 3 4 5 6 
#
# 1 88.6252 45.0014 37.4536 0.0001 0.0000 0.0000
# 2 45.0014 102.2521 46.4310 0.0001 -0.0001 0.0000
# 3 37.4536 46.4310 80.4028 0.0003 -0.0003 0.0001
# 4 0.0001 0.0001 0.0003 25.2658 -0.0001 0.0000
# 5 0.0000 -0.0001 -0.0003 -0.0001 31.8414 0.0000
# 6 0.0000 0.0000 0.0001 0.0000 0.0000 33.5190
#
#
#
# Elastic Compliance Matrix: (Units=1/GPa)
#
#
# Indices 1 2 3 4 5 6 
#
# 1 0.015640 -0.004846 -0.004487 0.000000 0.000000 0.000000
# 2 -0.004846 0.014757 -0.006265 0.000000 0.000000 0.000000
# 3 -0.004487 -0.006265 0.018145 0.000000 0.000000 0.000000
# 4 0.000000 0.000000 0.000000 0.039579 0.000000 0.000000
# 5 0.000000 0.000000 0.000000 0.000000 0.031406 0.000000
# 6 0.000000 0.000000 0.000000 0.000000 0.000000 0.029834
#
#
# Mechanical properties :
#
#
# Convention : Reuss Voigt Hill
#
# Bulk Modulus (GPa) = 57.64562 58.78356 58.21459
# Shear Modulus (GPa) = 26.83279 27.61821 27.22550
#
# Velocity S-wave (km/s) = 3.70330 3.75711 3.73030
# Velocity P-wave (km/s) = 6.91006 6.99041 6.95035
#
# Compressibility (1/GPa) = 0.01734737
#
# Stress axis : x y z
#
# Youngs Moduli (GPa) = 63.93706 67.76435 55.11048
#
# Poissons Ratio (x) = 0.32837 0.24730
# Poissons Ratio (y) = 0.30982 0.34525
# Poissons Ratio (z) = 0.28691 0.42452
#
# Static dielectric constant tensor:
#      x y z
#    x 3.562090 0.000000 0.000000 
#    y 0.000000 3.568550 0.000000 
#    z 0.000000 0.000000 3.516650 
# 
# 
# High freq. dielectric constant tensor:
#      x y z
#    x 1.766460 0.000000 0.000000 
#    y 0.000000 1.759530 0.000000 
#    z 0.000000 0.000000 1.763530 
# 
# From -- ./inp_files/14509.got.cif
#   From: 2010.03.12/outbox.cif.g09.slc.cpg/sg46_8_cif.got.tgz:14509.got - 2010.04.14 02:56:35.
