data_PCOD8192783
_publ_section_title
;
Structure prediction by ZEFSAII (Michael W. Deem and Ramdas Pophale) SiO2 
 PCOD8192783
Probable space group: I M A 2
;
_chemical_formula_sum "Si O2"
_cell_formula_units_Z 56
_cell_length_a 16.366729
_cell_length_b 13.664327
_cell_length_c 11.097292
_cell_angle_alpha 90.000000
_cell_angle_beta 90.000000
_cell_angle_gamma 90.000000
_cell_volume 2481.802122
_symmetry_space_group_name_H-M "I M A 2"
_symmetry_group_IT_number 46
_symmetry_cell_setting 'orthorhombic'
loop_
_space_group_symop_operation_xyz
x,y,z
-x,-y,z
1/2-x,y,z
1/2+x,-y,z
1/2+x,1/2+y,1/2+z
1/2-x,1/2-y,1/2+z
-x,1/2+y,1/2+z
x,1/2-y,1/2+z
loop_
_atom_site_type_symbol
_atom_site_label
_atom_site_fract_x
_atom_site_fract_y
_atom_site_fract_z
Si Si1 0.386332 0.677538 0.540450
Si Si2 0.392765 0.748219 0.286405
Si Si3 0.152661 0.386978 0.035582
Si Si4 0.539480 0.604965 0.814111
Si Si5 0.072858 0.308150 0.576102
Si Si6 0.157924 0.472326 0.455654
Si Si7 0.910619 0.032122 0.720056
O O1 0.346645 0.726713 0.416491
O O2 0.343879 0.700272 0.672562
O O3 0.479066 0.716235 0.546489
O O4 0.386515 0.560603 0.526828
O O5 0.471617 0.810440 0.323236
O O6 0.415774 0.648487 0.218411
O O7 0.250000 0.391417 0.026200
O O8 0.122254 0.291065 0.108375
O O9 0.116967 0.487071 0.092491
O O10 0.112868 0.376186 0.905237
O O11 0.500000 0.500000 0.835431
O O12 0.581383 0.614522 0.684769
O O13 0.113935 0.367661 0.467361
O O14 0.250000 0.465041 0.502370
O O15 0.156877 0.494942 0.314034
O O16 0.000000 0.000000 0.760716
#
# Coordination Sequence:
#
# PCOD8192783 Si02
#       7
#     8   8   8   8   8   8   8
#     4  10  20  39  66  97 126 174 238 285 335 418
#     4  10  21  39  68  96 128 170 238 283 332 392
#     4  12  27  42  66 105 146 180 219 290 370 422
#     4  11  24  42  69 101 133 175 230 293 341 419
#     4  11  22  42  66  96 130 180 228 277 350 427
#     4  11  23  40  63  94 134 176 226 292 357 417
#     4  11  23  42  69  95 130 185 240 282 329 428
#
# _framework density 22.564249
#
# number of rings (size 3 to 8) (size 9 to 14) (size 15 to 20)
#    0.000    1.143    1.429    6.857    4.000    1.143 
#    0.000    3.571    0.000    0.857    0.000    0.000 
#    0.000    0.000    0.000    0.000    0.000    0.000 
#
# Total GULP energy -346878.020655 kJ/mol
# GULP energy per Si atom -12388.500738 kJ/mol
# Density = 2.251289 g / cm^3
# Si number density = 22.564249 Si / 1000 Ang^3
#
#
#
# Elastic Constant Matrix: (Units=GPa)
#
#
# Indices 1 2 3 4 5 6 
#
# 1 81.4289 27.4058 10.8363 0.0000 0.0000 0.0000
# 2 27.4058 110.2430 20.2474 0.0000 0.0000 0.0000
# 3 10.8363 20.2474 128.6713 0.0000 0.0000 0.0000
# 4 0.0000 0.0000 0.0000 39.3901 0.0000 0.0000
# 5 0.0000 0.0000 0.0000 0.0000 12.7573 0.0000
# 6 0.0000 0.0000 0.0000 0.0000 0.0000 15.5992
#
#
#
# Elastic Compliance Matrix: (Units=1/GPa)
#
#
# Indices 1 2 3 4 5 6 
#
# 1 0.013451 -0.003229 -0.000625 0.000000 0.000000 0.000000
# 2 -0.003229 0.010116 -0.001320 0.000000 0.000000 0.000000
# 3 -0.000625 -0.001320 0.008032 0.000000 0.000000 0.000000
# 4 0.000000 0.000000 0.000000 0.025387 0.000000 0.000000
# 5 0.000000 0.000000 0.000000 0.000000 0.078387 0.000000
# 6 0.000000 0.000000 0.000000 0.000000 0.000000 0.064106
#
#
# Mechanical properties :
#
#
# Convention : Reuss Voigt Hill
#
# Bulk Modulus (GPa) = 47.05557 48.59136 47.82347
# Shear Modulus (GPa) = 23.05113 31.00622 27.02867
#
# Velocity S-wave (km/s) = 3.19968 3.71095 3.46476
# Velocity P-wave (km/s) = 5.87792 6.32004 6.10298
#
# Compressibility (1/GPa) = 0.02125147
#
# Stress axis : x y z
#
# Youngs Moduli (GPa) = 74.34651 98.85333 124.50136
#
# Poissons Ratio (x) = 0.31920 0.07777
# Poissons Ratio (y) = 0.24006 0.16433
# Poissons Ratio (z) = 0.04644 0.13048
#
# Static dielectric constant tensor:
#      x y z
#    x 3.618340 0.000000 0.000000 
#    y 0.000000 4.204130 0.000000 
#    z 0.000000 0.000000 4.474750 
# 
# 
# High freq. dielectric constant tensor:
#      x y z
#    x 1.853380 0.000000 0.000000 
#    y 0.000000 1.903300 0.000000 
#    z 0.000000 0.000000 1.901910 
# 
# From -- ./inp_files/11143.got.cif
#   From: 2010.03.12/outbox.cif.g09.slc.cpg/sg46_6_cif.got.tgz:11143.got - 2010.04.14 02:56:35.
