data_PCOD8192006
_publ_section_title
;
Structure prediction by ZEFSAII (Michael W. Deem and Ramdas Pophale) SiO2 
 PCOD8192006
Probable space group: I M A 2
;
_chemical_formula_sum "Si O2"
_cell_formula_units_Z 64
_cell_length_a 8.909098
_cell_length_b 28.766669
_cell_length_c 12.676078
_cell_angle_alpha 90.000000
_cell_angle_beta 90.000000
_cell_angle_gamma 90.000000
_cell_volume 3248.689579
_symmetry_space_group_name_H-M "I M A 2"
_symmetry_group_IT_number 46
_symmetry_cell_setting 'orthorhombic'
loop_
_space_group_symop_operation_xyz
x,y,z
-x,-y,z
1/2-x,y,z
1/2+x,-y,z
1/2+x,1/2+y,1/2+z
1/2-x,1/2-y,1/2+z
-x,1/2+y,1/2+z
x,1/2-y,1/2+z
loop_
_atom_site_type_symbol
_atom_site_label
_atom_site_fract_x
_atom_site_fract_y
_atom_site_fract_z
Si Si1 0.426848 0.050586 0.977590
Si Si2 0.074038 0.044634 0.349924
Si Si3 0.573978 0.614500 0.670125
Si Si4 0.927447 0.603076 0.262912
Si Si5 0.927748 0.199553 0.260622
Si Si6 0.583073 0.427311 0.053937
Si Si7 0.928984 0.197016 0.706450
Si Si8 0.414566 0.676291 0.983572
O O1 0.250000 0.043507 0.987458
O O2 0.471099 0.075372 0.868231
O O3 0.500000 0.000000 0.984995
O O4 0.486176 0.083814 0.072067
O O5 0.250000 0.037743 0.353564
O O6 0.030819 0.089328 0.280098
O O7 0.013343 0.044351 0.469629
O O8 0.000000 0.000000 0.292898
O O9 0.750000 0.621883 0.657876
O O10 0.498425 0.665675 0.671973
O O11 0.750000 0.606407 0.246566
O O12 0.998841 0.574602 0.165844
O O13 0.993643 0.655412 0.271724
O O14 0.750000 0.192583 0.253499
O O15 0.974418 0.253102 0.250297
O O16 0.999937 0.186083 0.374287
O O17 0.750000 0.449000 0.070154
O O18 0.600650 0.377732 0.001665
O O19 0.750000 0.187770 0.706583
O O20 0.994120 0.197756 0.586635
O O21 0.250000 0.699478 0.972050
#
# Coordination Sequence:
#
# PCOD8192006 Si02
#       8
#     8   8   8   8   8   8   8   8
#     4  10  23  42  62  85 117 157 199 249 300 356
#     4  11  22  35  55  83 113 145 185 231 283 347
#     4  10  22  39  57  82 116 150 192 243 294 351
#     4  10  21  38  59  83 116 153 196 242 292 351
#     4  10  19  33  56  83 113 152 199 243 291 349
#     4  10  19  35  58  81 111 145 182 231 288 342
#     4   9  19  34  54  83 116 153 197 245 293 345
#     4   8  15  30  50  74 107 143 178 226 282 333
#
# _framework density 19.70025
#
# number of rings (size 3 to 8) (size 9 to 14) (size 15 to 20)
#    0.000    2.250    1.250    2.250    0.000    4.000 
#    0.000    2.500    0.000    0.000    0.000    0.000 
#    0.000    0.000    0.000    0.000    0.000    0.000 
#
# Total GULP energy -396603.186926 kJ/mol
# GULP energy per Si atom -12393.849591 kJ/mol
# Density = 1.965541 g / cm^3
# Si number density = 19.700250 Si / 1000 Ang^3
#
#
#
# Elastic Constant Matrix: (Units=GPa)
#
#
# Indices 1 2 3 4 5 6 
#
# 1 63.2877 30.9838 35.4071 -0.0007 -0.0004 0.0001
# 2 30.9838 90.2103 48.2152 -0.0014 -0.0005 0.0000
# 3 35.4071 48.2152 113.6337 -0.0003 -0.0009 0.0002
# 4 -0.0007 -0.0014 -0.0003 23.8048 -0.0002 0.0000
# 5 -0.0004 -0.0005 -0.0009 -0.0002 22.7682 0.0000
# 6 0.0001 0.0000 0.0002 0.0000 0.0000 31.8440
#
#
#
# Elastic Compliance Matrix: (Units=1/GPa)
#
#
# Indices 1 2 3 4 5 6 
#
# 1 0.020575 -0.004708 -0.004413 0.000000 0.000000 0.000000
# 2 -0.004708 0.015414 -0.005073 0.000001 0.000000 0.000000
# 3 -0.004413 -0.005073 0.012328 0.000000 0.000000 0.000000
# 4 0.000000 0.000001 0.000000 0.042008 0.000000 0.000000
# 5 0.000000 0.000000 0.000000 0.000000 0.043921 0.000000
# 6 0.000000 0.000000 0.000000 0.000000 0.000000 0.031403
#
#
# Mechanical properties :
#
#
# Convention : Reuss Voigt Hill
#
# Bulk Modulus (GPa) = 50.18142 55.14932 52.66537
# Shear Modulus (GPa) = 24.91531 25.85177 25.38354
#
# Velocity S-wave (km/s) = 3.56015 3.62644 3.59345
# Velocity P-wave (km/s) = 6.51363 6.75202 6.63389
#
# Compressibility (1/GPa) = 0.01992769
#
# Stress axis : x y z
#
# Youngs Moduli (GPa) = 48.60319 64.87758 81.11664
#
# Poissons Ratio (x) = 0.30543 0.35800
# Poissons Ratio (y) = 0.22882 0.41152
# Poissons Ratio (z) = 0.21450 0.32913
#
# Static dielectric constant tensor:
#      x y z
#    x 3.565470 0.000000 0.000000 
#    y 0.000000 3.643580 0.000000 
#    z 0.000000 0.000000 3.799810 
# 
# 
# High freq. dielectric constant tensor:
#      x y z
#    x 1.749610 0.000000 0.000000 
#    y 0.000000 1.769770 0.000000 
#    z 0.000000 0.000000 1.772030 
# 
# From -- ./inp_files/9743.got.cif
#   From: 2010.03.12/outbox.cif.g09.slc.cpg/sg46_5_cif.got.tgz:9743.got - 2010.04.14 02:56:35.
