data_PCOD8192320
_publ_section_title
;
Structure prediction by ZEFSAII (Michael W. Deem and Ramdas Pophale) SiO2 
 PCOD8192320
Probable space group: I M A 2
;
_chemical_formula_sum "Si O2"
_cell_formula_units_Z 56
_cell_length_a 9.082260
_cell_length_b 15.494251
_cell_length_c 19.454558
_cell_angle_alpha 90.000000
_cell_angle_beta 90.000000
_cell_angle_gamma 90.000000
_cell_volume 2737.700187
_symmetry_space_group_name_H-M "I M A 2"
_symmetry_group_IT_number 46
_symmetry_cell_setting 'orthorhombic'
loop_
_space_group_symop_operation_xyz
x,y,z
-x,-y,z
1/2-x,y,z
1/2+x,-y,z
1/2+x,1/2+y,1/2+z
1/2-x,1/2-y,1/2+z
-x,1/2+y,1/2+z
x,1/2-y,1/2+z
loop_
_atom_site_type_symbol
_atom_site_label
_atom_site_fract_x
_atom_site_fract_y
_atom_site_fract_z
Si Si1 0.420363 0.419815 0.949000
Si Si2 0.419836 0.243305 0.890113
Si Si3 0.417969 0.244805 0.233953
Si Si4 0.910868 0.112752 0.574531
Si Si5 0.912922 0.078941 0.726015
Si Si6 0.419438 0.810221 0.108371
Si Si7 0.073743 0.593262 0.470017
O O1 0.500000 0.500000 0.909827
O O2 0.250000 0.426586 0.932823
O O3 0.482739 0.325485 0.931007
O O4 0.458793 0.428811 0.029708
O O5 0.250000 0.221493 0.907868
O O6 0.432444 0.281756 0.813107
O O7 0.515595 0.159130 0.910695
O O8 0.250000 0.256054 0.210608
O O9 0.496605 0.335772 0.235763
O O10 0.491734 0.176358 0.180482
O O11 0.750000 0.105609 0.537194
O O12 0.899864 0.060738 0.645183
O O13 0.948920 0.212681 0.586618
O O14 0.750000 0.086628 0.759315
O O15 0.000000 0.000000 0.761881
O O16 0.250000 0.828149 0.125463
O O17 0.472459 0.872334 0.046134
O O18 0.250000 0.586560 0.463269
O O19 0.000000 0.500000 0.458597
#
# Coordination Sequence:
#
# PCOD8192320 Si02
#       7
#     8   8   8   8   8   8   8
#     4  11  22  35  55  82 113 147 186 233 287 347
#     4  10  23  42  60  86 121 158 203 253 304 368
#     4  10  21  37  59  82 112 155 199 247 306 361
#     4   9  17  32  53  79 111 142 179 226 276 336
#     4  10  20  33  50  77 112 146 187 233 282 347
#     4   9  19  37  59  86 117 151 196 245 295 355
#     4  11  23  40  65  94 125 164 209 260 314 370
#
# _framework density 20.455124999999999
#
# number of rings (size 3 to 8) (size 9 to 14) (size 15 to 20)
#    0.000    2.000    1.429    3.000    0.000    7.429 
#    0.000    0.714    0.000    3.429    0.000    0.000 
#    0.000    0.000    0.000    0.000    0.000    0.000 
#
# Total GULP energy -346926.148254 kJ/mol
# GULP energy per Si atom -12390.219581 kJ/mol
# Density = 2.040857 g / cm^3
# Si number density = 20.455125 Si / 1000 Ang^3
#
#
#
# Elastic Constant Matrix: (Units=GPa)
#
#
# Indices 1 2 3 4 5 6 
#
# 1 100.3310 32.6164 27.7416 0.0000 0.0000 0.0000
# 2 32.6164 85.7775 9.3987 0.0000 0.0000 0.0000
# 3 27.7416 9.3987 58.7757 0.0000 0.0000 0.0000
# 4 0.0000 0.0000 0.0000 6.8896 0.0000 0.0000
# 5 0.0000 0.0000 0.0000 0.0000 22.6532 0.0000
# 6 0.0000 0.0000 0.0000 0.0000 0.0000 32.6146
#
#
#
# Elastic Compliance Matrix: (Units=1/GPa)
#
#
# Indices 1 2 3 4 5 6 
#
# 1 0.012851 -0.004297 -0.005378 0.000000 0.000000 0.000000
# 2 -0.004297 0.013303 -0.000099 0.000000 0.000000 0.000000
# 3 -0.005378 -0.000099 0.019568 0.000000 0.000000 0.000000
# 4 0.000000 0.000000 0.000000 0.145146 0.000000 0.000000
# 5 0.000000 0.000000 0.000000 0.000000 0.044144 0.000000
# 6 0.000000 0.000000 0.000000 0.000000 0.000000 0.030661
#
#
# Mechanical properties :
#
#
# Convention : Reuss Voigt Hill
#
# Bulk Modulus (GPa) = 38.20741 42.71084 40.45913
# Shear Modulus (GPa) = 17.00989 24.10666 20.55828
#
# Velocity S-wave (km/s) = 2.88683 3.43667 3.17368
# Velocity P-wave (km/s) = 5.46177 6.05584 5.76646
#
# Compressibility (1/GPa) = 0.02617293
#
# Stress axis : x y z
#
# Youngs Moduli (GPa) = 77.81413 75.17146 51.10322
#
# Poissons Ratio (x) = 0.32303 0.27486
# Poissons Ratio (y) = 0.33439 0.00506
# Poissons Ratio (z) = 0.41852 0.00744
#
# Static dielectric constant tensor:
#      x y z
#    x 3.870050 0.000000 0.000000 
#    y 0.000000 3.713770 0.000000 
#    z 0.000000 0.000000 3.959970 
# 
# 
# High freq. dielectric constant tensor:
#      x y z
#    x 1.804930 0.000000 0.000000 
#    y 0.000000 1.790870 0.000000 
#    z 0.000000 0.000000 1.785780 
# 
# From -- ./inp_files/21114.got.cif
#   From: 2010.03.12/outbox.cif.g09.slc.cpg/sg46_11_cif.got.tgz:21114.got - 2010.04.14 02:56:35.
