data_PCOD8192954
_publ_section_title
;
Structure prediction by ZEFSAII (Michael W. Deem and Ramdas Pophale) SiO2 
 PCOD8192954
Probable space group: I M A 2
;
_chemical_formula_sum "Si O2"
_cell_formula_units_Z 24
_cell_length_a 8.479465
_cell_length_b 25.992685
_cell_length_c 5.047215
_cell_angle_alpha 90.000000
_cell_angle_beta 90.000000
_cell_angle_gamma 90.000000
_cell_volume 1112.426691
_symmetry_space_group_name_H-M "I M A 2"
_symmetry_group_IT_number 46
_symmetry_cell_setting 'orthorhombic'
loop_
_space_group_symop_operation_xyz
x,y,z
-x,-y,z
1/2-x,y,z
1/2+x,-y,z
1/2+x,1/2+y,1/2+z
1/2-x,1/2-y,1/2+z
-x,1/2+y,1/2+z
x,1/2-y,1/2+z
loop_
_atom_site_type_symbol
_atom_site_label
_atom_site_fract_x
_atom_site_fract_y
_atom_site_fract_z
Si Si1 0.567384 0.283106 0.405510
Si Si2 0.067886 0.108027 0.875335
Si Si3 0.934351 0.445111 0.881641
O O1 0.750000 0.299085 0.428172
O O2 0.524564 0.240130 0.621196
O O3 0.463545 0.333310 0.458215
O O4 0.250000 0.099757 0.806983
O O5 0.966457 0.095439 0.614944
O O6 0.022152 0.070814 0.114417
O O7 0.750000 0.447638 0.822783
O O8 0.000000 0.500000 0.975849
#
# Coordination Sequence:
#
# PCOD8192954 Si02
#       3
#     8   8   8
#     4  10  21  38  61  89 123 164 208 254 309 370
#     4  12  25  42  65  96 130 165 209 260 315 372
#     4  12  25  44  67  93 127 167 211 258 313 374
#
# _framework density 21.574456000000001
#
# number of rings (size 3 to 8) (size 9 to 14) (size 15 to 20)
#    0.000    0.667    0.000    9.000    0.000    4.000 
#    0.000    0.000    0.000    0.000    0.000    0.000 
#    0.000    0.000    0.000    0.000    0.000    0.000 
#
# Total GULP energy -148933.963929 kJ/mol
# GULP energy per Si atom -12411.163661 kJ/mol
# Density = 2.152535 g / cm^3
# Si number density = 21.574456 Si / 1000 Ang^3
#
#
#
# Elastic Constant Matrix: (Units=GPa)
#
#
# Indices 1 2 3 4 5 6 
#
# 1 85.4680 40.8027 17.6267 0.0066 0.0030 -0.0045
# 2 40.8027 94.5899 10.3515 0.0045 -0.0040 0.0165
# 3 17.6267 10.3515 101.5014 -0.0020 -0.0205 0.0687
# 4 0.0066 0.0045 -0.0020 30.1388 0.0004 -0.0118
# 5 0.0030 -0.0040 -0.0205 0.0004 29.0485 0.0042
# 6 -0.0045 0.0165 0.0687 -0.0118 0.0042 38.6218
#
#
#
# Elastic Compliance Matrix: (Units=1/GPa)
#
#
# Indices 1 2 3 4 5 6 
#
# 1 0.015119 -0.006305 -0.001983 -0.000003 -0.000004 0.000008
# 2 -0.006305 0.013321 -0.000264 -0.000001 0.000002 -0.000006
# 3 -0.001983 -0.000264 0.010223 0.000001 0.000007 -0.000018
# 4 -0.000003 -0.000001 0.000001 0.033180 0.000000 0.000010
# 5 -0.000004 0.000002 0.000007 0.000000 0.034425 -0.000004
# 6 0.000008 -0.000006 -0.000018 0.000010 -0.000004 0.025892
#
#
# Mechanical properties :
#
#
# Convention : Reuss Voigt Hill
#
# Bulk Modulus (GPa) = 46.38044 46.56901 46.47473
# Shear Modulus (GPa) = 31.95927 33.74705 32.85316
#
# Velocity S-wave (km/s) = 3.85300 3.95930 3.90652
# Velocity P-wave (km/s) = 6.42952 6.52178 6.47581
#
# Compressibility (1/GPa) = 0.02156081
#
# Stress axis : x y z
#
# Youngs Moduli (GPa) = 66.14129 75.07216 97.81607
#
# Poissons Ratio (x) = 0.47332 0.19393
# Poissons Ratio (y) = 0.41701 0.02578
# Poissons Ratio (z) = 0.13113 0.01979
#
# Static dielectric constant tensor:
#      x y z
#    x 3.837310 0.000010 0.000000 
#    y 0.000010 3.873660 -0.000080 
#    z 0.000000 -0.000080 3.941920 
# 
# 
# High freq. dielectric constant tensor:
#      x y z
#    x 1.848000 0.000000 0.000000 
#    y 0.000000 1.857770 0.000000 
#    z 0.000000 0.000000 1.860360 
# 
# From -- ./inp_files/278.got.cif
#   From: 2010.03.12/outbox.cif.g09.slc.cpg/sg46_1_cif.got.tgz:278.got - 2010.04.14 02:56:35.
