data_PCOD8192061
_publ_section_title
;
Structure prediction by ZEFSAII (Michael W. Deem and Ramdas Pophale) SiO2 
 PCOD8192061
Probable space group: I M A 2
;
_chemical_formula_sum "Si O2"
_cell_formula_units_Z 64
_cell_length_a 9.091988
_cell_length_b 28.947870
_cell_length_c 12.434509
_cell_angle_alpha 90.000000
_cell_angle_beta 90.000000
_cell_angle_gamma 90.000000
_cell_volume 3272.684266
_symmetry_space_group_name_H-M "I M A 2"
_symmetry_group_IT_number 46
_symmetry_cell_setting 'orthorhombic'
loop_
_space_group_symop_operation_xyz
x,y,z
-x,-y,z
1/2-x,y,z
1/2+x,-y,z
1/2+x,1/2+y,1/2+z
1/2-x,1/2-y,1/2+z
-x,1/2+y,1/2+z
x,1/2-y,1/2+z
loop_
_atom_site_type_symbol
_atom_site_label
_atom_site_fract_x
_atom_site_fract_y
_atom_site_fract_z
Si Si1 0.085684 0.163338 0.028880
Si Si2 0.415354 0.194411 0.794042
Si Si3 0.422055 0.602278 0.240226
Si Si4 0.079879 0.923855 0.973803
Si Si5 0.920490 0.612292 0.849052
Si Si6 0.083603 0.458637 0.666670
Si Si7 0.424699 0.549794 0.024139
Si Si8 0.921998 0.793984 0.250878
O O1 0.250000 0.140575 0.046784
O O2 0.043424 0.195754 0.127299
O O3 0.088616 0.193478 0.922193
O O4 0.955957 0.126838 0.017517
O O5 0.250000 0.192521 0.746600
O O6 0.499955 0.152051 0.738140
O O7 0.494213 0.243730 0.770593
O O8 0.250000 0.612794 0.239325
O O9 0.465638 0.573567 0.347798
O O10 0.469816 0.571027 0.139467
O O11 0.250000 0.935123 0.991093
O O12 0.982685 0.957737 0.046036
O O13 0.750000 0.610417 0.886260
O O14 0.936514 0.588740 0.731633
O O15 0.978801 0.664826 0.830414
O O16 0.019993 0.585948 0.935076
O O17 0.250000 0.473902 0.656530
O O18 0.000000 0.500000 0.729884
O O19 0.500000 0.500000 0.009548
O O20 0.250000 0.543600 0.012977
O O21 0.750000 0.790274 0.273496
#
# Coordination Sequence:
#
# PCOD8192061 Si02
#       8
#     8   8   8   8   8   8   8   8
#     4   9  16  31  51  74 109 147 181 227 283 333
#     4   9  18  31  55  86 112 149 197 239 284 340
#     4   9  21  40  58  80 116 152 187 237 292 343
#     4  10  19  34  56  80 106 141 183 227 278 335
#     4  10  21  38  59  83 114 150 190 237 288 341
#     4  11  22  36  55  82 113 144 177 225 280 334
#     4  11  24  42  62  84 114 154 198 246 298 353
#     4   9  17  32  54  83 115 149 191 240 288 337
#
# _framework density 19.555813000000001
#
# number of rings (size 3 to 8) (size 9 to 14) (size 15 to 20)
#    0.000    2.250    1.250    1.500    0.000    5.000 
#    0.000    5.000    0.000    3.000    0.000    0.000 
#    0.000    0.000    0.000    0.000    0.000    0.000 
#
# Total GULP energy -396606.149107 kJ/mol
# GULP energy per Si atom -12393.942160 kJ/mol
# Density = 1.951130 g / cm^3
# Si number density = 19.555813 Si / 1000 Ang^3
#
#
#
# Elastic Constant Matrix: (Units=GPa)
#
#
# Indices 1 2 3 4 5 6 
#
# 1 67.6095 28.2226 33.6588 0.0002 -0.0001 0.0000
# 2 28.2226 89.3593 25.6549 0.0012 0.0000 0.0002
# 3 33.6588 25.6549 89.4134 -0.0004 0.0004 -0.0002
# 4 0.0002 0.0012 -0.0004 26.1757 0.0002 -0.0001
# 5 -0.0001 0.0000 0.0004 0.0002 24.8265 -0.0002
# 6 0.0000 0.0002 -0.0002 -0.0001 -0.0002 26.4942
#
#
#
# Elastic Compliance Matrix: (Units=1/GPa)
#
#
# Indices 1 2 3 4 5 6 
#
# 1 0.019710 -0.004463 -0.006139 0.000000 0.000000 0.000000
# 2 -0.004463 0.013206 -0.002109 -0.000001 0.000000 0.000000
# 3 -0.006139 -0.002109 0.014100 0.000000 0.000000 0.000000
# 4 0.000000 -0.000001 0.000000 0.038203 0.000000 0.000000
# 5 0.000000 0.000000 0.000000 0.000000 0.040280 0.000000
# 6 0.000000 0.000000 0.000000 0.000000 0.000000 0.037744
#
#
# Mechanical properties :
#
#
# Convention : Reuss Voigt Hill
#
# Bulk Modulus (GPa) = 46.30891 46.82831 46.56861
# Shear Modulus (GPa) = 25.52807 26.08901 25.80854
#
# Velocity S-wave (km/s) = 3.61695 3.65647 3.63676
# Velocity P-wave (km/s) = 6.41676 6.46717 6.44202
#
# Compressibility (1/GPa) = 0.02159412
#
# Stress axis : x y z
#
# Youngs Moduli (GPa) = 50.73570 75.72473 70.92077
#
# Poissons Ratio (x) = 0.33792 0.43540
# Poissons Ratio (y) = 0.22641 0.14958
# Poissons Ratio (z) = 0.31148 0.15972
#
# Static dielectric constant tensor:
#      x y z
#    x 3.446520 0.000000 0.000000 
#    y 0.000000 3.713650 0.000000 
#    z 0.000000 0.000000 3.682860 
# 
# 
# High freq. dielectric constant tensor:
#      x y z
#    x 1.742250 0.000000 0.000000 
#    y 0.000000 1.766170 0.000000 
#    z 0.000000 0.000000 1.763770 
# 
# From -- ./inp_files/9700.got.cif
#   From: 2010.03.12/outbox.cif.g09.slc.cpg/sg46_5_cif.got.tgz:9700.got - 2010.04.14 02:56:35.
