data_PCOD8192112
_publ_section_title
;
Structure prediction by ZEFSAII (Michael W. Deem and Ramdas Pophale) SiO2 
 PCOD8192112
Probable space group: I M A 2
;
_chemical_formula_sum "Si O2"
_cell_formula_units_Z 48
_cell_length_a 17.577571
_cell_length_b 11.095998
_cell_length_c 12.348406
_cell_angle_alpha 90.000000
_cell_angle_beta 90.000000
_cell_angle_gamma 90.000000
_cell_volume 2408.441659
_symmetry_space_group_name_H-M "I M A 2"
_symmetry_group_IT_number 46
_symmetry_cell_setting 'orthorhombic'
loop_
_space_group_symop_operation_xyz
x,y,z
-x,-y,z
1/2-x,y,z
1/2+x,-y,z
1/2+x,1/2+y,1/2+z
1/2-x,1/2-y,1/2+z
-x,1/2+y,1/2+z
x,1/2-y,1/2+z
loop_
_atom_site_type_symbol
_atom_site_label
_atom_site_fract_x
_atom_site_fract_y
_atom_site_fract_z
Si Si1 0.089112 0.980061 0.435870
Si Si2 0.569975 0.734993 0.975354
Si Si3 0.943583 0.180945 0.625685
Si Si4 0.916238 0.440782 0.698795
Si Si5 0.161020 0.027294 0.000227
Si Si6 0.549893 0.111691 0.865568
O O1 0.108088 0.892332 0.537211
O O2 0.115633 0.925715 0.320890
O O3 0.120022 0.117975 0.441185
O O4 0.000000 0.000000 0.439296
O O5 0.627518 0.844412 0.963769
O O6 0.493522 0.764301 0.901248
O O7 0.532392 0.701308 0.091911
O O8 0.909468 0.312126 0.642117
O O9 0.938840 0.106975 0.737083
O O10 0.859224 0.520710 0.627610
O O11 0.000000 0.500000 0.695664
O O12 0.250000 0.028415 0.981243
O O13 0.128461 0.913814 0.930051
O O14 0.500000 0.000000 0.906350
#
# Coordination Sequence:
#
# PCOD8192112 Si02
#       6
#     8   8   8   8   8   8
#     4   9  20  32  57  97 117 141 189 252 304 345
#     4  10  19  36  59  90 116 150 199 256 302 353
#     4  11  18  33  62  92 116 146 190 254 304 343
#     4  11  19  36  61  86 118 151 200 248 293 353
#     4  11  23  39  58  84 120 163 200 242 304 365
#     4  10  19  34  59  87 114 148 199 253 294 350
#
# _framework density 19.929898999999999
#
# number of rings (size 3 to 8) (size 9 to 14) (size 15 to 20)
#    0.000    1.667    3.333    5.000    0.000    0.000 
#    0.000    1.667    0.000    2.000    0.000    0.000 
#    0.000    0.000    0.000    0.000    0.000    0.000 
#
# Total GULP energy -297320.560124 kJ/mol
# GULP energy per Si atom -12388.356672 kJ/mol
# Density = 1.988454 g / cm^3
# Si number density = 19.929899 Si / 1000 Ang^3
#
#
#
# Elastic Constant Matrix: (Units=GPa)
#
#
# Indices 1 2 3 4 5 6 
#
# 1 77.8391 25.1484 40.2395 0.0000 0.0000 0.0000
# 2 25.1484 130.2243 51.6548 0.0000 0.0000 0.0000
# 3 40.2395 51.6548 159.3529 0.0000 0.0000 0.0000
# 4 0.0000 0.0000 0.0000 33.7934 0.0000 0.0000
# 5 0.0000 0.0000 0.0000 0.0000 5.4468 0.0000
# 6 0.0000 0.0000 0.0000 0.0000 0.0000 14.4212
#
#
#
# Elastic Compliance Matrix: (Units=1/GPa)
#
#
# Indices 1 2 3 4 5 6 
#
# 1 0.015063 -0.001607 -0.003283 0.000000 0.000000 0.000000
# 2 -0.001607 0.008983 -0.002506 0.000000 0.000000 0.000000
# 3 -0.003283 -0.002506 0.007917 0.000000 0.000000 0.000000
# 4 0.000000 0.000000 0.000000 0.029592 0.000000 0.000000
# 5 0.000000 0.000000 0.000000 0.000000 0.183594 0.000000
# 6 0.000000 0.000000 0.000000 0.000000 0.000000 0.069342
#
#
# Mechanical properties :
#
#
# Convention : Reuss Voigt Hill
#
# Bulk Modulus (GPa) = 58.23561 66.83353 62.53457
# Shear Modulus (GPa) = 14.92506 27.42386 21.17446
#
# Velocity S-wave (km/s) = 2.73953 3.71349 3.26306
# Velocity P-wave (km/s) = 6.26820 7.21067 6.75589
#
# Compressibility (1/GPa) = 0.01717162
#
# Stress axis : x y z
#
# Youngs Moduli (GPa) = 66.38670 111.31529 126.31372
#
# Poissons Ratio (x) = 0.17886 0.41468
# Poissons Ratio (y) = 0.10667 0.31658
# Poissons Ratio (z) = 0.21794 0.27899
#
# Static dielectric constant tensor:
#      x y z
#    x 2.967930 0.000000 0.000000 
#    y 0.000000 4.650650 0.000000 
#    z 0.000000 0.000000 3.946660 
# 
# 
# High freq. dielectric constant tensor:
#      x y z
#    x 1.693900 0.000000 0.000000 
#    y 0.000000 1.803540 0.000000 
#    z 0.000000 0.000000 1.789200 
# 
# From -- ./inp_files/11785.got.cif
#   From: 2010.03.12/outbox.cif.g09.slc.cpg/sg46_6_cif.got.tgz:11785.got - 2010.04.14 02:56:35.
