data_PCOD8192306
_publ_section_title
;
Structure prediction by ZEFSAII (Michael W. Deem and Ramdas Pophale) SiO2 
 PCOD8192306
Probable space group: I M A 2
;
_chemical_formula_sum "Si O2"
_cell_formula_units_Z 64
_cell_length_a 8.760019
_cell_length_b 14.715013
_cell_length_c 27.358644
_cell_angle_alpha 90.000000
_cell_angle_beta 90.000000
_cell_angle_gamma 90.000000
_cell_volume 3526.632996
_symmetry_space_group_name_H-M "I M A 2"
_symmetry_group_IT_number 46
_symmetry_cell_setting 'orthorhombic'
loop_
_space_group_symop_operation_xyz
x,y,z
-x,-y,z
1/2-x,y,z
1/2+x,-y,z
1/2+x,1/2+y,1/2+z
1/2-x,1/2-y,1/2+z
-x,1/2+y,1/2+z
x,1/2-y,1/2+z
loop_
_atom_site_type_symbol
_atom_site_label
_atom_site_fract_x
_atom_site_fract_y
_atom_site_fract_z
Si Si1 0.430561 0.095288 0.872810
Si Si2 0.429516 0.713963 0.454353
Si Si3 0.072262 0.908423 0.420478
Si Si4 0.428160 0.406254 0.260198
Si Si5 0.430648 0.907009 0.310481
Si Si6 0.931106 0.903601 0.037755
Si Si7 0.429161 0.771793 0.228457
Si Si8 0.930570 0.095665 0.141324
O O1 0.250000 0.095261 0.882288
O O2 0.511596 0.174170 0.903240
O O3 0.473643 0.112224 0.816460
O O4 0.500000 0.000000 0.890903
O O5 0.250000 0.694634 0.459825
O O6 0.465246 0.821790 0.454153
O O7 0.521761 0.672618 0.499226
O O8 0.250000 0.925926 0.417125
O O9 0.009378 0.890187 0.365592
O O10 0.000000 0.000000 0.443220
O O11 0.500000 0.500000 0.241424
O O12 0.250000 0.414996 0.253635
O O13 0.488904 0.325207 0.226382
O O14 0.250000 0.914240 0.307186
O O15 0.488937 0.825455 0.276211
O O16 0.500000 0.000000 0.289533
O O17 0.750000 0.912009 0.040283
O O18 0.996859 0.874173 0.090038
O O19 0.000000 0.000000 0.020943
O O20 0.250000 0.754941 0.231264
O O21 0.474118 0.827516 0.180217
O O22 0.750000 0.084227 0.135256
O O23 0.000000 0.000000 0.158930
#
# Coordination Sequence:
#
# PCOD8192306 Si02
#       8
#     8   8   8   8   8   8   8   8
#     4  10  20  33  49  74 105 138 173 211 253 302
#     4  11  21  34  53  76 102 135 172 212 257 307
#     4   9  19  33  50  71 100 136 171 207 247 290
#     4  10  21  35  52  73 102 138 176 215 255 299
#     4   9  17  30  47  72 104 137 169 203 244 292
#     4  11  22  37  56  78 105 135 166 207 255 308
#     4  10  20  33  52  76 104 136 172 211 253 300
#     4  10  20  35  55  80 108 137 167 206 254 306
#
# _framework density 18.147621999999998
#
# number of rings (size 3 to 8) (size 9 to 14) (size 15 to 20)
#    0.000    2.000    0.000    4.875    0.000    5.000 
#    0.000    2.500    0.000    0.750    0.000    3.500 
#    0.000    0.000    0.000    0.000    0.000    0.000 
#
# Total GULP energy -396879.559981 kJ/mol
# GULP energy per Si atom -12402.486249 kJ/mol
# Density = 1.810632 g / cm^3
# Si number density = 18.147622 Si / 1000 Ang^3
#
#
#
# Elastic Constant Matrix: (Units=GPa)
#
#
# Indices 1 2 3 4 5 6 
#
# 1 77.3472 51.9512 41.1500 0.0000 0.0000 0.0000
# 2 51.9512 144.9417 64.5871 0.0000 0.0000 0.0000
# 3 41.1500 64.5871 80.9729 0.0000 0.0000 0.0000
# 4 0.0000 0.0000 0.0000 42.8403 0.0000 0.0000
# 5 0.0000 0.0000 0.0000 0.0000 26.8055 0.0000
# 6 0.0000 0.0000 0.0000 0.0000 0.0000 34.4900
#
#
#
# Elastic Compliance Matrix: (Units=1/GPa)
#
#
# Indices 1 2 3 4 5 6 
#
# 1 0.019041 -0.003899 -0.006567 0.000000 0.000000 0.000000
# 2 -0.003899 0.011502 -0.007193 0.000000 0.000000 0.000000
# 3 -0.006567 -0.007193 0.021425 0.000000 0.000000 0.000000
# 4 0.000000 0.000000 0.000000 0.023343 0.000000 0.000000
# 5 0.000000 0.000000 0.000000 0.000000 0.037306 0.000000
# 6 0.000000 0.000000 0.000000 0.000000 0.000000 0.028994
#
#
# Mechanical properties :
#
#
# Convention : Reuss Voigt Hill
#
# Bulk Modulus (GPa) = 60.05898 68.73761 64.39830
# Shear Modulus (GPa) = 27.40067 30.53205 28.96636
#
# Velocity S-wave (km/s) = 3.88993 4.10619 3.99952
# Velocity P-wave (km/s) = 7.30356 7.77433 7.54262
#
# Compressibility (1/GPa) = 0.01665030
#
# Stress axis : x y z
#
# Youngs Moduli (GPa) = 52.51844 86.94110 46.67514
#
# Poissons Ratio (x) = 0.33894 0.30651
# Poissons Ratio (y) = 0.20475 0.33575
# Poissons Ratio (z) = 0.34488 0.62539
#
# Static dielectric constant tensor:
#      x y z
#    x 3.348240 0.000000 0.000000 
#    y 0.000000 3.299590 0.000000 
#    z 0.000000 0.000000 3.237280 
# 
# 
# High freq. dielectric constant tensor:
#      x y z
#    x 1.710930 0.000000 0.000000 
#    y 0.000000 1.704370 0.000000 
#    z 0.000000 0.000000 1.680960 
# 
# From -- ./inp_files/23195.got.cif
#   From: 2010.03.12/outbox.cif.g09.slc.cpg/sg46_12_cif.got.tgz:23195.got - 2010.04.14 02:56:35.
