data_PCOD8192593
_publ_section_title
;
Structure prediction by ZEFSAII (Michael W. Deem and Ramdas Pophale) SiO2 
 PCOD8192593
Probable space group: I M A 2
;
_chemical_formula_sum "Si O2"
_cell_formula_units_Z 48
_cell_length_a 8.704451
_cell_length_b 9.545951
_cell_length_c 30.334985
_cell_angle_alpha 90.000000
_cell_angle_beta 90.000000
_cell_angle_gamma 90.000000
_cell_volume 2520.602543
_symmetry_space_group_name_H-M "I M A 2"
_symmetry_group_IT_number 46
_symmetry_cell_setting 'orthorhombic'
loop_
_space_group_symop_operation_xyz
x,y,z
-x,-y,z
1/2-x,y,z
1/2+x,-y,z
1/2+x,1/2+y,1/2+z
1/2-x,1/2-y,1/2+z
-x,1/2+y,1/2+z
x,1/2-y,1/2+z
loop_
_atom_site_type_symbol
_atom_site_label
_atom_site_fract_x
_atom_site_fract_y
_atom_site_fract_z
Si Si1 0.568254 0.346179 0.391800
Si Si2 0.429050 0.146044 0.564249
Si Si3 0.431025 0.654305 0.634055
Si Si4 0.570390 0.852522 0.461923
Si Si5 0.929044 0.845973 0.317792
Si Si6 0.072660 0.151024 0.220246
O O1 0.500000 0.500000 0.388458
O O2 0.750000 0.356049 0.393274
O O3 0.508809 0.273793 0.436268
O O4 0.516721 0.258387 0.349651
O O5 0.250000 0.143996 0.574566
O O6 0.509175 0.268042 0.591143
O O7 0.464125 0.173608 0.513131
O O8 0.500000 0.000000 0.579885
O O9 0.500000 0.500000 0.633318
O O10 0.250000 0.648704 0.632553
O O11 0.486713 0.730566 0.679751
O O12 0.750000 0.855281 0.451365
O O13 0.500000 0.000000 0.446067
O O14 0.750000 0.855403 0.330649
O O15 0.948761 0.779816 0.268498
O O16 0.000000 0.000000 0.322164
O O17 0.250000 0.138148 0.207304
O O18 0.000000 0.000000 0.224943
#
# Coordination Sequence:
#
# PCOD8192593 Si02
#       6
#     8   8   8   8   8   8
#     4  12  25  40  58  81 113 147 181 226 278 331
#     4  10  21  38  59  83 112 145 183 227 274 326
#     4  11  21  34  55  82 114 149 186 229 275 325
#     4  10  21  39  62  85 110 143 184 227 271 324
#     4  10  20  36  59  85 112 145 186 228 271 323
#     4   9  17  31  53  80 110 143 183 229 272 319
#
# _framework density 19.043066
#
# number of rings (size 3 to 8) (size 9 to 14) (size 15 to 20)
#    0.000    1.667    0.000    6.500    0.000    4.667 
#    0.000    0.833    0.000    4.000    0.000    0.000 
#    0.000    0.000    0.000    0.000    0.000    0.000 
#
# Total GULP energy -297580.655219 kJ/mol
# GULP energy per Si atom -12399.193967 kJ/mol
# Density = 1.899972 g / cm^3
# Si number density = 19.043066 Si / 1000 Ang^3
#
#
#
# Elastic Constant Matrix: (Units=GPa)
#
#
# Indices 1 2 3 4 5 6 
#
# 1 160.3289 54.9321 67.1187 0.0000 0.0000 0.0000
# 2 54.9321 101.4568 60.6826 0.0000 0.0000 0.0000
# 3 67.1187 60.6826 113.7425 0.0000 0.0000 0.0000
# 4 0.0000 0.0000 0.0000 39.9726 0.0000 0.0000
# 5 0.0000 0.0000 0.0000 0.0000 33.2623 0.0000
# 6 0.0000 0.0000 0.0000 0.0000 0.0000 34.6529
#
#
#
# Elastic Compliance Matrix: (Units=1/GPa)
#
#
# Indices 1 2 3 4 5 6 
#
# 1 0.008663 -0.002398 -0.003833 0.000000 0.000000 0.000000
# 2 -0.002398 0.015139 -0.006662 0.000000 0.000000 0.000000
# 3 -0.003833 -0.006662 0.014608 0.000000 0.000000 0.000000
# 4 0.000000 0.000000 0.000000 0.025017 0.000000 0.000000
# 5 0.000000 0.000000 0.000000 0.000000 0.030064 0.000000
# 6 0.000000 0.000000 0.000000 0.000000 0.000000 0.028858
#
#
# Mechanical properties :
#
#
# Convention : Reuss Voigt Hill
#
# Bulk Modulus (GPa) = 79.20907 82.33277 80.77092
# Shear Modulus (GPa) = 32.82067 34.43055 33.62561
#
# Velocity S-wave (km/s) = 4.15601 4.25671 4.20666
# Velocity P-wave (km/s) = 8.04455 8.21513 8.13029
#
# Compressibility (1/GPa) = 0.01262482
#
# Stress axis : x y z
#
# Youngs Moduli (GPa) = 115.42874 66.05273 68.45754
#
# Poissons Ratio (x) = 0.15841 0.26238
# Poissons Ratio (y) = 0.27683 0.45605
# Poissons Ratio (z) = 0.44240 0.44003
#
# Static dielectric constant tensor:
#      x y z
#    x 3.719990 0.000000 0.000000 
#    y 0.000000 3.262150 0.000000 
#    z 0.000000 0.000000 4.082520 
# 
# 
# High freq. dielectric constant tensor:
#      x y z
#    x 1.763810 0.000000 0.000000 
#    y 0.000000 1.711110 0.000000 
#    z 0.000000 0.000000 1.761920 
# 
# From -- ./inp_files/24985.got.cif
#   From: 2010.03.12/outbox.cif.g09.slc.cpg/sg46_13_cif.got.tgz:24985.got - 2010.04.14 02:56:35.
