data_PCOD8192809
_publ_section_title
;
Structure prediction by ZEFSAII (Michael W. Deem and Ramdas Pophale) SiO2 
 PCOD8192809
Probable space group: I M A 2
;
_chemical_formula_sum "Si O2"
_cell_formula_units_Z 48
_cell_length_a 16.644332
_cell_length_b 15.268459
_cell_length_c 9.368190
_cell_angle_alpha 90.000000
_cell_angle_beta 90.000000
_cell_angle_gamma 90.000000
_cell_volume 2380.769047
_symmetry_space_group_name_H-M "I M A 2"
_symmetry_group_IT_number 46
_symmetry_cell_setting 'orthorhombic'
loop_
_space_group_symop_operation_xyz
x,y,z
-x,-y,z
1/2-x,y,z
1/2+x,-y,z
1/2+x,1/2+y,1/2+z
1/2-x,1/2-y,1/2+z
-x,1/2+y,1/2+z
x,1/2-y,1/2+z
loop_
_atom_site_type_symbol
_atom_site_label
_atom_site_fract_x
_atom_site_fract_y
_atom_site_fract_z
Si Si1 0.450519 0.415955 0.004270
Si Si2 0.558327 0.251416 0.452111
Si Si3 0.092385 0.485095 0.707273
Si Si4 0.101350 0.336366 0.502544
Si Si5 0.658896 0.817001 0.694044
Si Si6 0.656473 0.178717 0.199927
O O1 0.500000 0.500000 0.049913
O O2 0.385129 0.401577 0.128137
O O3 0.514262 0.337429 0.998543
O O4 0.402396 0.430434 0.855364
O O5 0.491665 0.328971 0.451059
O O6 0.597834 0.234896 0.299752
O O7 0.633097 0.283969 0.546179
O O8 0.124517 0.429561 0.572112
O O9 0.141532 0.574919 0.717626
O O10 0.000000 0.500000 0.675157
O O11 0.116083 0.267804 0.629353
O O12 0.156260 0.317555 0.365630
O O13 0.750000 0.818395 0.643437
O O14 0.750000 0.197115 0.230395
#
# Coordination Sequence:
#
# PCOD8192809 Si02
#       6
#     8   8   8   8   8   8
#     4  10  20  41  69  90 120 166 220 259 311 382
#     4  11  20  42  65  91 122 167 220 249 309 389
#     4  11  21  43  67  94 121 164 219 262 314 382
#     4  11  22  40  70  91 127 171 213 262 312 390
#     4  11  24  39  62  97 130 164 207 266 326 374
#     4  12  25  40  64  96 132 167 207 268 326 378
#
# _framework density 20.161552
#
# number of rings (size 3 to 8) (size 9 to 14) (size 15 to 20)
#    0.000    1.000    5.000    5.000    0.000    2.667 
#    3.000    0.000    0.000    0.000    0.000    0.000 
#    0.000    0.000    0.000    0.000    0.000    0.000 
#
# Total GULP energy -297537.279254 kJ/mol
# GULP energy per Si atom -12397.386636 kJ/mol
# Density = 2.011566 g / cm^3
# Si number density = 20.161552 Si / 1000 Ang^3
#
#
#
# Elastic Constant Matrix: (Units=GPa)
#
#
# Indices 1 2 3 4 5 6 
#
# 1 87.2133 5.0325 15.7972 0.0000 0.0000 0.0000
# 2 5.0325 67.2626 40.9163 0.0000 0.0000 0.0000
# 3 15.7972 40.9163 101.5170 0.0000 0.0000 0.0000
# 4 0.0000 0.0000 0.0000 36.2299 0.0000 0.0000
# 5 0.0000 0.0000 0.0000 0.0000 31.2034 0.0000
# 6 0.0000 0.0000 0.0000 0.0000 0.0000 23.1780
#
#
#
# Elastic Compliance Matrix: (Units=1/GPa)
#
#
# Indices 1 2 3 4 5 6 
#
# 1 0.011804 0.000310 -0.001962 0.000000 0.000000 0.000000
# 2 0.000310 0.019704 -0.007990 0.000000 0.000000 0.000000
# 3 -0.001962 -0.007990 0.013376 0.000000 0.000000 0.000000
# 4 0.000000 0.000000 0.000000 0.027602 0.000000 0.000000
# 5 0.000000 0.000000 0.000000 0.000000 0.032048 0.000000
# 6 0.000000 0.000000 0.000000 0.000000 0.000000 0.043144
#
#
# Mechanical properties :
#
#
# Convention : Reuss Voigt Hill
#
# Bulk Modulus (GPa) = 39.06121 42.16501 40.61311
# Shear Modulus (GPa) = 28.49089 31.07205 29.78147
#
# Velocity S-wave (km/s) = 3.76324 3.93001 3.84753
# Velocity P-wave (km/s) = 6.18860 6.44611 6.31867
#
# Compressibility (1/GPa) = 0.02560084
#
# Stress axis : x y z
#
# Youngs Moduli (GPa) = 84.71997 50.75031 74.75938
#
# Poissons Ratio (x) = -0.01575 0.14666
# Poissons Ratio (y) = -0.02628 0.59733
# Poissons Ratio (z) = 0.16621 0.40550
#
# Static dielectric constant tensor:
#      x y z
#    x 3.626050 0.000000 0.000000 
#    y 0.000000 3.831070 0.000000 
#    z 0.000000 0.000000 3.723910 
# 
# 
# High freq. dielectric constant tensor:
#      x y z
#    x 1.782260 0.000000 0.000000 
#    y 0.000000 1.782200 0.000000 
#    z 0.000000 0.000000 1.791500 
# 
# From -- ./inp_files/5687.got.cif
#   From: 2010.03.12/outbox.cif.g09.slc.cpg/sg46_3_cif.got.tgz:5687.got - 2010.04.14 02:56:35.
