data_PCOD8192003
_publ_section_title
;
Structure prediction by ZEFSAII (Michael W. Deem and Ramdas Pophale) SiO2 
 PCOD8192003
Probable space group: I M A 2
;
_chemical_formula_sum "Si O2"
_cell_formula_units_Z 64
_cell_length_a 15.079046
_cell_length_b 25.495756
_cell_length_c 7.970620
_cell_angle_alpha 90.000000
_cell_angle_beta 90.000000
_cell_angle_gamma 90.000000
_cell_volume 3064.318230
_symmetry_space_group_name_H-M "I M A 2"
_symmetry_group_IT_number 46
_symmetry_cell_setting 'orthorhombic'
loop_
_space_group_symop_operation_xyz
x,y,z
-x,-y,z
1/2-x,y,z
1/2+x,-y,z
1/2+x,1/2+y,1/2+z
1/2-x,1/2-y,1/2+z
-x,1/2+y,1/2+z
x,1/2-y,1/2+z
loop_
_atom_site_type_symbol
_atom_site_label
_atom_site_fract_x
_atom_site_fract_y
_atom_site_fract_z
Si Si1 0.148664 0.579076 0.761390
Si Si2 0.348659 0.903478 0.886695
Si Si3 0.546843 0.239609 0.677360
Si Si4 0.489463 0.171271 0.942748
Si Si5 0.355335 0.027693 0.388517
Si Si6 0.851642 0.915171 0.052457
Si Si7 0.146776 0.687992 0.897186
Si Si8 0.398221 0.008670 0.756201
O O1 0.250000 0.580960 0.816972
O O2 0.138098 0.568237 0.564982
O O3 0.102338 0.530018 0.854406
O O4 0.107742 0.635226 0.810762
O O5 0.250000 0.878053 0.872031
O O6 0.422261 0.858556 0.877052
O O7 0.356396 0.949888 0.747849
O O8 0.470406 0.211235 0.788539
O O9 0.503888 0.291604 0.601133
O O10 0.630684 0.260730 0.784261
O O11 0.586656 0.194926 0.559758
O O12 0.409359 0.133047 0.984767
O O13 0.250000 0.026092 0.372800
O O14 0.383153 0.040940 0.580761
O O15 0.388057 0.066579 0.237800
O O16 0.750000 0.896621 0.069127
O O17 0.855850 0.960258 0.911744
O O18 0.250000 0.683801 0.941548
O O19 0.500000 0.000000 0.794919
#
# Coordination Sequence:
#
# PCOD8192003 Si02
#       8
#     8   8   8   8   8   8   8   8
#     4   9  18  32  54  84 122 170 210 248 309 382
#     4  11  21  37  61  91 136 180 212 257 322 402
#     4  10  23  39  57  83 125 164 217 296 327 387
#     4  11  24  44  64  92 123 167 224 274 348 396
#     4  10  22  40  63  94 131 172 217 269 324 389
#     4  11  24  47  72  95 132 175 220 276 334 392
#     4  10  19  33  55  86 123 174 221 259 324 398
#     4  12  24  39  64 103 140 176 215 262 324 399
#
# _framework density 20.885558
#
# number of rings (size 3 to 8) (size 9 to 14) (size 15 to 20)
#    0.000    1.500    3.750    1.500    1.750    4.000 
#    4.500    0.625    0.000    0.000    0.000    0.000 
#    0.000    0.000    0.000    0.000    0.000    0.000 
#
# Total GULP energy -396492.890661 kJ/mol
# GULP energy per Si atom -12390.402833 kJ/mol
# Density = 2.083802 g / cm^3
# Si number density = 20.885558 Si / 1000 Ang^3
#
#
#
# Elastic Constant Matrix: (Units=GPa)
#
#
# Indices 1 2 3 4 5 6 
#
# 1 70.5955 40.0710 22.4226 -0.0056 0.0021 0.0013
# 2 40.0710 114.8030 44.9729 -0.0069 0.0007 0.0013
# 3 22.4226 44.9729 116.6955 0.0000 -0.0042 0.0111
# 4 -0.0056 -0.0069 0.0000 32.6862 -0.0017 0.0031
# 5 0.0021 0.0007 -0.0042 -0.0017 16.6655 -0.0001
# 6 0.0013 0.0013 0.0111 0.0031 -0.0001 26.2695
#
#
#
# Elastic Compliance Matrix: (Units=1/GPa)
#
#
# Indices 1 2 3 4 5 6 
#
# 1 0.017809 -0.005742 -0.001209 0.000002 -0.000002 0.000000
# 2 -0.005742 0.012111 -0.003564 0.000002 -0.000001 0.000001
# 3 -0.001209 -0.003564 0.010175 -0.000001 0.000003 -0.000004
# 4 0.000002 0.000002 -0.000001 0.030594 0.000003 -0.000004
# 5 -0.000002 -0.000001 0.000003 0.000003 0.060004 0.000000
# 6 0.000000 0.000001 -0.000004 -0.000004 0.000000 0.038067
#
#
# Mechanical properties :
#
#
# Convention : Reuss Voigt Hill
#
# Bulk Modulus (GPa) = 52.45416 57.44745 54.95081
# Shear Modulus (GPa) = 25.49130 28.09940 26.79535
#
# Velocity S-wave (km/s) = 3.49739 3.67195 3.58573
# Velocity P-wave (km/s) = 6.44038 6.74856 6.59627
#
# Compressibility (1/GPa) = 0.01906426
#
# Stress axis : x y z
#
# Youngs Moduli (GPa) = 56.15260 82.56893 98.27885
#
# Poissons Ratio (x) = 0.47414 0.11880
# Poissons Ratio (y) = 0.32245 0.35027
# Poissons Ratio (z) = 0.06788 0.29428
#
# Static dielectric constant tensor:
#      x y z
#    x 3.411600 0.000000 -0.000010 
#    y 0.000000 3.783280 -0.000010 
#    z -0.000010 -0.000010 4.073020 
# 
# 
# High freq. dielectric constant tensor:
#      x y z
#    x 1.782810 0.000000 0.000000 
#    y 0.000000 1.813050 0.000000 
#    z 0.000000 0.000000 1.832230 
# 
# From -- ./inp_files/6115.got.cif
#   From: 2010.03.12/outbox.cif.g09.slc.cpg/sg46_4_cif.got.tgz:6115.got - 2010.04.14 02:56:35.
