data_PCOD8192233
_publ_section_title
;
Structure prediction by ZEFSAII (Michael W. Deem and Ramdas Pophale) SiO2 
 PCOD8192233
Probable space group: I M A 2
;
_chemical_formula_sum "Si O2"
_cell_formula_units_Z 36
_cell_length_a 13.249784
_cell_length_b 8.981601
_cell_length_c 14.970269
_cell_angle_alpha 90.000000
_cell_angle_beta 90.000000
_cell_angle_gamma 90.000000
_cell_volume 1781.525982
_symmetry_space_group_name_H-M "I M A 2"
_symmetry_group_IT_number 46
_symmetry_cell_setting 'orthorhombic'
loop_
_space_group_symop_operation_xyz
x,y,z
-x,-y,z
1/2-x,y,z
1/2+x,-y,z
1/2+x,1/2+y,1/2+z
1/2-x,1/2-y,1/2+z
-x,1/2+y,1/2+z
x,1/2-y,1/2+z
loop_
_atom_site_type_symbol
_atom_site_label
_atom_site_fract_x
_atom_site_fract_y
_atom_site_fract_z
Si Si1 0.864029 0.936812 0.482280
Si Si2 0.131988 0.269260 0.642140
Si Si3 0.479782 0.336273 0.810822
Si Si4 0.000000 0.500000 0.539371
Si Si5 0.132098 0.732178 0.432338
O O1 0.750000 0.905460 0.454775
O O2 0.888035 0.875028 0.580914
O O3 0.926146 0.848926 0.407306
O O4 0.886267 0.112820 0.485814
O O5 0.250000 0.305423 0.651789
O O6 0.085516 0.240578 0.740743
O O7 0.076840 0.409833 0.600158
O O8 0.500000 0.500000 0.770282
O O9 0.586378 0.253978 0.831988
O O10 0.928106 0.398573 0.479447
O O11 0.250000 0.691534 0.425025
#
# Coordination Sequence:
#
# PCOD8192233 Si02
#       5
#     8   8   8   4   8
#     4   9  19  38  65  90 123 163 203 253 310 374
#     4  11  22  37  63  95 123 163 211 259 316 370
#     4  10  19  37  63  91 124 163 204 254 309 371
#     4  12  22  40  62  88 126 162 212 272 310 364
#     4  10  22  41  65  91 123 168 211 256 318 373
#
# _framework density 20.207395000000002
#
# number of rings (size 3 to 8) (size 9 to 14) (size 15 to 20)
#    0.000    1.778    3.333    1.333    0.000    0.889 
#    0.000    2.222    0.000    2.667    0.000    0.000 
#    0.000    0.000    0.000    0.000    0.000    0.000 
#
# Total GULP energy -223121.135427 kJ/mol
# GULP energy per Si atom -12395.618635 kJ/mol
# Density = 2.016140 g / cm^3
# Si number density = 20.207395 Si / 1000 Ang^3
#
#
#
# Elastic Constant Matrix: (Units=GPa)
#
#
# Indices 1 2 3 4 5 6 
#
# 1 163.5210 64.7809 89.5006 0.0000 0.0000 0.0000
# 2 64.7809 78.1699 43.0577 0.0000 0.0000 0.0000
# 3 89.5006 43.0577 104.0589 0.0000 0.0000 0.0000
# 4 0.0000 0.0000 0.0000 20.0053 0.0000 0.0000
# 5 0.0000 0.0000 0.0000 0.0000 38.8524 0.0000
# 6 0.0000 0.0000 0.0000 0.0000 0.0000 36.3675
#
#
#
# Elastic Compliance Matrix: (Units=1/GPa)
#
#
# Indices 1 2 3 4 5 6 
#
# 1 0.013553 -0.006231 -0.009079 0.000000 0.000000 0.000000
# 2 -0.006231 0.019434 -0.002682 0.000000 0.000000 0.000000
# 3 -0.009079 -0.002682 0.018528 0.000000 0.000000 0.000000
# 4 0.000000 0.000000 0.000000 0.049987 0.000000 0.000000
# 5 0.000000 0.000000 0.000000 0.000000 0.025738 0.000000
# 6 0.000000 0.000000 0.000000 0.000000 0.000000 0.027497
#
#
# Mechanical properties :
#
#
# Convention : Reuss Voigt Hill
#
# Bulk Modulus (GPa) = 64.38487 82.26979 73.32733
# Shear Modulus (GPa) = 25.52357 28.93906 27.23132
#
# Velocity S-wave (km/s) = 3.55784 3.78842 3.67494
# Velocity P-wave (km/s) = 6.98633 7.74192 7.37381
#
# Compressibility (1/GPa) = 0.01553160
#
# Stress axis : x y z
#
# Youngs Moduli (GPa) = 73.78531 51.45703 53.97191
#
# Poissons Ratio (x) = 0.32062 0.48998
# Poissons Ratio (y) = 0.45975 0.14476
# Poissons Ratio (z) = 0.66986 0.13802
#
# Static dielectric constant tensor:
#      x y z
#    x 4.089010 0.000000 0.000000 
#    y 0.000000 3.576030 0.000000 
#    z 0.000000 0.000000 3.605570 
# 
# 
# High freq. dielectric constant tensor:
#      x y z
#    x 1.814950 0.000000 0.000000 
#    y 0.000000 1.773740 0.000000 
#    z 0.000000 0.000000 1.776290 
# 
# From -- ./inp_files/15610.got.cif
#   From: 2010.03.12/outbox.cif.g09.slc.cpg/sg46_8_cif.got.tgz:15610.got - 2010.04.14 02:56:35.
