data_PCOD8192376
_publ_section_title
;
Structure prediction by ZEFSAII (Michael W. Deem and Ramdas Pophale) SiO2 
 PCOD8192376
Probable space group: I M A 2
;
_chemical_formula_sum "Si O2"
_cell_formula_units_Z 48
_cell_length_a 9.522174
_cell_length_b 12.230769
_cell_length_c 23.613122
_cell_angle_alpha 90.000000
_cell_angle_beta 90.000000
_cell_angle_gamma 90.000000
_cell_volume 2750.067084
_symmetry_space_group_name_H-M "I M A 2"
_symmetry_group_IT_number 46
_symmetry_cell_setting 'orthorhombic'
loop_
_space_group_symop_operation_xyz
x,y,z
-x,-y,z
1/2-x,y,z
1/2+x,-y,z
1/2+x,1/2+y,1/2+z
1/2-x,1/2-y,1/2+z
-x,1/2+y,1/2+z
x,1/2-y,1/2+z
loop_
_atom_site_type_symbol
_atom_site_label
_atom_site_fract_x
_atom_site_fract_y
_atom_site_fract_z
Si Si1 0.250000 0.059461 0.002980
Si Si2 0.000000 0.000000 0.810501
Si Si3 0.402251 0.090060 0.606775
Si Si4 0.750000 0.319266 0.494882
Si Si5 0.084463 0.185925 0.724091
Si Si6 0.511612 0.804392 0.058975
Si Si7 0.580336 0.113384 0.181423
Si Si8 0.250000 0.951152 0.890239
O O1 0.392909 0.110981 0.025356
O O2 0.250000 0.936897 0.027162
O O3 0.250000 0.054809 0.933945
O O4 0.945295 0.895394 0.775809
O O5 0.117327 0.951059 0.850436
O O6 0.250000 0.036272 0.610829
O O7 0.460112 0.118142 0.668843
O O8 0.393211 0.199342 0.570143
O O9 0.500000 0.000000 0.577639
O O10 0.889228 0.260041 0.517378
O O11 0.750000 0.337867 0.426934
O O12 0.250000 0.218944 0.722657
O O13 0.987253 0.295308 0.724010
O O14 0.451336 0.854772 0.116713
O O15 0.750000 0.104050 0.190986
O O16 0.500000 0.000000 0.195274
#
# Coordination Sequence:
#
# PCOD8192376 Si02
#       8
#     4   4   8   4   8   8   8   4
#     4  10  20  36  52  78 118 144 183 231 283 338
#     4  12  20  40  58  86 118 152 190 250 288 340
#     4  10  21  34  51  79 109 148 191 225 265 350
#     4  10  20  34  52  82 112 144 179 233 275 346
#     4  10  22  37  57  79 116 154 189 235 289 333
#     4  11  20  34  54  79 115 157 182 222 292 332
#     4  11  23  35  55  87 116 153 193 226 276 362
#     4  10  24  34  58  86 112 146 200 236 294 336
#
# _framework density 17.45412
#
# number of rings (size 3 to 8) (size 9 to 14) (size 15 to 20)
#    0.500    1.000    3.333    3.000    4.667    0.667 
#    0.000    0.000    0.000    0.000    0.000    7.000 
#    0.000    0.000    0.000    0.000    0.000    0.000 
#
# Total GULP energy -297390.699985 kJ/mol
# GULP energy per Si atom -12391.279166 kJ/mol
# Density = 1.741439 g / cm^3
# Si number density = 17.454120 Si / 1000 Ang^3
#
#
#
# Elastic Constant Matrix: (Units=GPa)
#
#
# Indices 1 2 3 4 5 6 
#
# 1 108.6265 30.3723 20.4749 0.0000 0.0000 0.0000
# 2 30.3723 75.2405 19.4809 0.0000 0.0000 0.0000
# 3 20.4749 19.4809 72.9847 0.0000 0.0000 0.0000
# 4 0.0000 0.0000 0.0000 17.9564 0.0000 0.0000
# 5 0.0000 0.0000 0.0000 0.0000 23.7979 0.0000
# 6 0.0000 0.0000 0.0000 0.0000 0.0000 30.1427
#
#
#
# Elastic Compliance Matrix: (Units=1/GPa)
#
#
# Indices 1 2 3 4 5 6 
#
# 1 0.010635 -0.003782 -0.001974 0.000000 0.000000 0.000000
# 2 -0.003782 0.015622 -0.003109 0.000000 0.000000 0.000000
# 3 -0.001974 -0.003109 0.015085 0.000000 0.000000 0.000000
# 4 0.000000 0.000000 0.000000 0.055691 0.000000 0.000000
# 5 0.000000 0.000000 0.000000 0.000000 0.042020 0.000000
# 6 0.000000 0.000000 0.000000 0.000000 0.000000 0.033176
#
#
# Mechanical properties :
#
#
# Convention : Reuss Voigt Hill
#
# Bulk Modulus (GPa) = 42.34995 44.16754 43.25875
# Shear Modulus (GPa) = 25.27415 26.81430 26.04423
#
# Velocity S-wave (km/s) = 3.80943 3.92378 3.86703
# Velocity P-wave (km/s) = 6.60797 6.77407 6.69153
#
# Compressibility (1/GPa) = 0.02361278
#
# Stress axis : x y z
#
# Youngs Moduli (GPa) = 94.02529 64.01088 66.29046
#
# Poissons Ratio (x) = 0.24209 0.13087
# Poissons Ratio (y) = 0.35561 0.20609
# Poissons Ratio (z) = 0.18562 0.19900
#
# Static dielectric constant tensor:
#      x y z
#    x 3.427080 0.000000 0.000000 
#    y 0.000000 3.170270 0.000000 
#    z 0.000000 0.000000 3.079600 
# 
# 
# High freq. dielectric constant tensor:
#      x y z
#    x 1.698000 0.000000 0.000000 
#    y 0.000000 1.658520 0.000000 
#    z 0.000000 0.000000 1.644900 
# 
# From -- ./inp_files/24163.got.cif
#   From: 2010.03.12/outbox.cif.g09.slc.cpg/sg46_13_cif.got.tgz:24163.got - 2010.04.14 02:56:35.
