data_PCOD8192234
_publ_section_title
;
Structure prediction by ZEFSAII (Michael W. Deem and Ramdas Pophale) SiO2 
 PCOD8192234
Probable space group: I M A 2
;
_chemical_formula_sum "Si O2"
_cell_formula_units_Z 64
_cell_length_a 8.703131
_cell_length_b 15.337879
_cell_length_c 23.458603
_cell_angle_alpha 90.000000
_cell_angle_beta 90.000000
_cell_angle_gamma 90.000000
_cell_volume 3131.431915
_symmetry_space_group_name_H-M "I M A 2"
_symmetry_group_IT_number 46
_symmetry_cell_setting 'orthorhombic'
loop_
_space_group_symop_operation_xyz
x,y,z
-x,-y,z
1/2-x,y,z
1/2+x,-y,z
1/2+x,1/2+y,1/2+z
1/2-x,1/2-y,1/2+z
-x,1/2+y,1/2+z
x,1/2-y,1/2+z
loop_
_atom_site_type_symbol
_atom_site_label
_atom_site_fract_x
_atom_site_fract_y
_atom_site_fract_z
Si Si1 0.930206 0.088776 0.610250
Si Si2 0.568666 0.409400 0.389532
Si Si3 0.929589 0.647799 0.996428
Si Si4 0.431693 0.745335 0.188743
Si Si5 0.068787 0.407822 0.628317
Si Si6 0.070678 0.351005 0.502697
Si Si7 0.569096 0.909624 0.372855
Si Si8 0.432014 0.263168 0.309926
O O1 0.750000 0.082493 0.616096
O O2 0.993396 0.170959 0.645867
O O3 0.976909 0.097643 0.544588
O O4 0.000000 0.000000 0.635929
O O5 0.500000 0.500000 0.366113
O O6 0.750000 0.406304 0.378997
O O7 0.531126 0.401613 0.456562
O O8 0.484936 0.331563 0.357065
O O9 0.750000 0.630227 0.005889
O O10 0.966964 0.749486 0.999108
O O11 0.990607 0.611133 0.936420
O O12 0.250000 0.754861 0.185606
O O13 0.507442 0.836611 0.172366
O O14 0.482674 0.716434 0.251362
O O15 0.250000 0.410822 0.633719
O O16 0.016952 0.385022 0.564236
O O17 0.000000 0.500000 0.646882
O O18 0.250000 0.369667 0.490974
O O19 0.750000 0.917201 0.373845
O O20 0.517380 0.832871 0.330563
O O21 0.500000 0.000000 0.350153
O O22 0.250000 0.270065 0.302101
#
# Coordination Sequence:
#
# PCOD8192234 Si02
#       8
#     8   8   8   8   8   8   8   8
#     4  11  24  40  62  92 126 162 204 251 307 369
#     4  12  25  41  65  95 128 166 208 256 314 376
#     4  10  19  37  63  92 127 162 200 248 306 367
#     4  11  25  44  64  91 124 161 212 265 312 373
#     4  11  23  40  65  94 126 167 208 256 316 374
#     4  10  20  38  64  94 129 165 204 252 313 377
#     4  10  22  39  62  91 124 160 200 248 303 363
#     4  11  24  45  67  89 122 165 212 262 315 369
#
# _framework density 20.437933999999998
#
# number of rings (size 3 to 8) (size 9 to 14) (size 15 to 20)
#    0.000    1.250    2.500    3.375    0.000    7.500 
#    0.000    2.500    0.000    0.000    0.000    0.000 
#    0.000    0.000    0.000    0.000    0.000    0.000 
#
# Total GULP energy -397017.260527 kJ/mol
# GULP energy per Si atom -12406.789391 kJ/mol
# Density = 2.039142 g / cm^3
# Si number density = 20.437934 Si / 1000 Ang^3
#
#
#
# Elastic Constant Matrix: (Units=GPa)
#
#
# Indices 1 2 3 4 5 6 
#
# 1 52.2912 34.3388 21.4599 0.0000 0.0000 0.0000
# 2 34.3388 120.6668 13.8198 0.0000 0.0000 0.0000
# 3 21.4599 13.8198 77.9101 0.0000 0.0000 0.0000
# 4 0.0000 0.0000 0.0000 10.5555 0.0000 0.0000
# 5 0.0000 0.0000 0.0000 0.0000 31.6180 0.0000
# 6 0.0000 0.0000 0.0000 0.0000 0.0000 34.9098
#
#
#
# Elastic Compliance Matrix: (Units=1/GPa)
#
#
# Indices 1 2 3 4 5 6 
#
# 1 0.025978 -0.006709 -0.005965 0.000000 0.000000 0.000000
# 2 -0.006709 0.010192 0.000040 0.000000 0.000000 0.000000
# 3 -0.005965 0.000040 0.014471 0.000000 0.000000 0.000000
# 4 0.000000 0.000000 0.000000 0.094738 0.000000 0.000000
# 5 0.000000 0.000000 0.000000 0.000000 0.031628 0.000000
# 6 0.000000 0.000000 0.000000 0.000000 0.000000 0.028645
#
#
# Mechanical properties :
#
#
# Convention : Reuss Voigt Hill
#
# Bulk Modulus (GPa) = 39.41354 43.34502 41.37928
# Shear Modulus (GPa) = 20.88748 27.49997 24.19372
#
# Velocity S-wave (km/s) = 3.20033 3.67213 3.44432
# Velocity P-wave (km/s) = 5.74304 6.26367 6.00900
#
# Compressibility (1/GPa) = 0.02537199
#
# Stress axis : x y z
#
# Youngs Moduli (GPa) = 38.49445 98.11600 69.10238
#
# Poissons Ratio (x) = 0.65830 0.41222
# Poissons Ratio (y) = 0.25828 -0.00278
# Poissons Ratio (z) = 0.22963 -0.00395
#
# Static dielectric constant tensor:
#      x y z
#    x 3.572590 0.000000 0.000000 
#    y 0.000000 4.111650 0.000000 
#    z 0.000000 0.000000 3.693020 
# 
# 
# High freq. dielectric constant tensor:
#      x y z
#    x 1.796970 0.000000 0.000000 
#    y 0.000000 1.816210 0.000000 
#    z 0.000000 0.000000 1.795950 
# 
# From -- ./inp_files/23163.got.cif
#   From: 2010.03.12/outbox.cif.g09.slc.cpg/sg46_12_cif.got.tgz:23163.got - 2010.04.14 02:56:35.
